data_PCOD9402550
_publ_section_title
;
Structure prediction by ZEFSAII (Michael W. Deem and Ramdas Pophale) SiO2 
 PCOD9402550
Probable space group: P M M A
;
_chemical_formula_sum "Si O2"
_cell_formula_units_Z 48
_cell_length_a 15.565834
_cell_length_b 7.917713
_cell_length_c 18.478944
_cell_angle_alpha 90.000000
_cell_angle_beta 90.000000
_cell_angle_gamma 90.000000
_cell_volume 2277.452351
_symmetry_space_group_name_H-M "P M M A"
_symmetry_group_IT_number 51
_symmetry_cell_setting 'orthorhombic'
loop_
_space_group_symop_operation_xyz
x,y,z
1/2-x,-y,z
1/2+x,-y,-z
-x,y,-z
-x,-y,-z
1/2+x,y,-z
1/2-x,y,z
x,-y,z
loop_
_atom_site_type_symbol
_atom_site_label
_atom_site_fract_x
_atom_site_fract_y
_atom_site_fract_z
Si Si1 0.849424 0.207823 0.810868
Si Si2 0.102151 0.312050 0.503021
Si Si3 0.348807 0.295525 0.813025
Si Si4 0.353086 0.693416 0.655854
Si Si5 0.647138 0.186776 0.655357
Si Si6 0.998187 0.203150 0.917933
O O1 0.750000 0.256857 0.824080
O O2 0.879402 0.271082 0.731102
O O3 0.915965 0.263552 0.871856
O O4 0.849931 0.000000 0.807848
O O5 0.139790 0.500000 0.510067
O O6 0.125089 0.222666 0.578860
O O7 0.130707 0.253450 0.424408
O O8 0.000000 0.317742 0.500000
O O9 0.250000 0.240207 0.826194
O O10 0.347103 0.500000 0.808399
O O11 0.378865 0.231356 0.733404
O O12 0.415310 0.244610 0.874362
O O13 0.250000 0.683796 0.659615
O O14 0.388632 0.500000 0.653771
O O15 0.750000 0.176959 0.662947
O O16 0.608443 0.000000 0.655536
O O17 0.991014 0.000000 0.921220
O O18 0.000000 0.268205 0.000000
#
# Coordination Sequence:
#
# PCOD9402550 Si02
#       6
#     8   8   8   8   8   8
#     4   8  16  33  54  74 102 141 176 208 258 321
#     4  10  20  30  45  74 105 132 166 208 254 301
#     4   9  19  36  57  78 104 143 182 213 256 314
#     4   8  15  30  49  67  94 135 173 204 246 300
#     4   9  18  33  51  69  93 131 175 212 250 300
#     4  10  21  35  55  84 110 134 170 217 267 316
#
# _framework density 21.076181999999999
#
# number of rings (size 3 to 8) (size 9 to 14) (size 15 to 20)
#    0.000    3.000    0.000    2.500    2.333    2.667 
#    0.000    2.500    0.000    2.500    0.000    0.000 
#    0.000    0.000    0.000    0.000    0.000    0.000 
#
# Total GULP energy -267327.516344 kJ/mol
# GULP energy per Si atom -5569.323257 kJ/mol
# Density = 2.102821 g / cm^3
# Si number density = 21.076182 Si / 1000 Ang^3
#
#
#
# Elastic Constant Matrix: (Units=GPa)
#
#
# Indices 1 2 3 4 5 6 
#
# 1 80.7624 -0.2353 87.1770 0.0000 0.0000 0.0000
# 2 -0.2353 13.0209 16.5141 0.0000 0.0000 0.0000
# 3 87.1770 16.5141 260.7717 0.0000 0.0000 0.0000
# 4 0.0000 0.0000 0.0000 13.3172 0.0000 0.0000
# 5 0.0000 0.0000 0.0000 0.0000 41.7289 0.0000
# 6 0.0000 0.0000 0.0000 0.0000 0.0000 -34.2490
#
#
#
# Elastic Compliance Matrix: (Units=1/GPa)
#
#
# Indices 1 2 3 4 5 6 
#
# 1 0.020470 0.009839 -0.007466 0.000000 0.000000 0.000000
# 2 0.009839 0.088236 -0.008877 0.000000 0.000000 0.000000
# 3 -0.007466 -0.008877 0.006893 0.000000 0.000000 0.000000
# 4 0.000000 0.000000 0.000000 0.075091 0.000000 0.000000
# 5 0.000000 0.000000 0.000000 0.000000 0.023964 0.000000
# 6 0.000000 0.000000 0.000000 0.000000 0.000000 -0.029198
#
#
# Mechanical properties :
#
#
# Convention : Reuss Voigt Hill
#
# Bulk Modulus (GPa) = 9.74747 62.38516 36.06631
# Shear Modulus (GPa) = 21.49049 20.89937 21.19493
#
# Velocity S-wave (km/s) = 3.19667 3.15240 3.17461
# Velocity P-wave (km/s) = 4.27316 6.55090 5.53056
#
# Compressibility (1/GPa) = 0.10259071
#
# Stress axis : x y z
#
# Youngs Moduli (GPa) = 48.85206 11.33324 145.07586
#
# Poissons Ratio (x) = -0.11151 1.08318
# Poissons Ratio (y) = -0.48067 1.28785
# Poissons Ratio (z) = 0.36474 0.10061
#
# Static dielectric constant tensor:
#      x y z
#    x 1.726460 0.000000 0.000000 
#    y 0.000000 1.876580 0.000000 
#    z 0.000000 0.000000 1.832940 
# 
# From -- ./inp_files/29452.got.cif
#   From: 2010.05.17/outbox.cif.g08.bks.cpg/sg51_15_cif.got.tgz:29452.got - 2010.06.03 11:52:47.
