data_PCOD9402290
_publ_section_title
;
Structure prediction by ZEFSAII (Michael W. Deem and Ramdas Pophale) SiO2 
 PCOD9402290
Probable space group: P M M A
;
_chemical_formula_sum "Si O2"
_cell_formula_units_Z 64
_cell_length_a 15.731685
_cell_length_b 7.754531
_cell_length_c 24.750759
_cell_angle_alpha 90.000000
_cell_angle_beta 90.000000
_cell_angle_gamma 90.000000
_cell_volume 3019.390607
_symmetry_space_group_name_H-M "P M M A"
_symmetry_group_IT_number 51
_symmetry_cell_setting 'orthorhombic'
loop_
_space_group_symop_operation_xyz
x,y,z
1/2-x,-y,z
1/2+x,-y,-z
-x,y,-z
-x,-y,-z
1/2+x,y,-z
1/2-x,y,z
x,-y,z
loop_
_atom_site_type_symbol
_atom_site_label
_atom_site_fract_x
_atom_site_fract_y
_atom_site_fract_z
Si Si1 0.342190 0.788966 0.232497
Si Si2 0.650051 0.289231 0.505855
Si Si3 0.003372 0.203096 0.701270
Si Si4 0.378622 0.195733 0.114392
Si Si5 0.935441 0.300910 0.112735
Si Si6 0.992912 0.297089 0.422399
Si Si7 0.843706 0.291877 0.219747
Si Si8 0.848843 0.797353 0.004278
O O1 0.250000 0.745343 0.255568
O O2 0.420899 0.725062 0.267505
O O3 0.346879 0.726757 0.170444
O O4 0.348222 0.000000 0.229654
O O5 0.750000 0.231144 0.507402
O O6 0.655157 0.500000 0.506155
O O7 0.584435 0.233739 0.554047
O O8 0.591983 0.233572 0.454002
O O9 0.084453 0.232555 0.739136
O O10 0.013959 0.273238 0.641280
O O11 0.990256 0.000000 0.695255
O O12 0.479768 0.193111 0.119355
O O13 0.344933 0.000000 0.111380
O O14 0.359720 0.276511 0.056066
O O15 0.957423 0.500000 0.123679
O O16 0.868636 0.244803 0.158292
O O17 0.901546 0.286156 0.052137
O O18 0.994155 0.500000 0.434073
O O19 0.750000 0.226726 0.233263
O O20 0.842008 0.500000 0.221896
O O21 0.750000 0.785895 0.018439
O O22 0.873766 0.000000 0.002473
#
# Coordination Sequence:
#
# PCOD9402290 Si02
#       8
#     8   8   8   8   8   8   8   8
#     4   9  18  34  56  79 106 144 187 228 274 329
#     4   8  15  31  56  83 110 146 191 230 265 312
#     4  11  22  36  56  84 116 148 186 232 280 327
#     4  10  19  35  57  78 102 137 183 227 273 329
#     4  11  22  36  55  78 107 139 175 222 284 345
#     4   9  18  33  55  82 112 147 187 229 270 317
#     4  10  22  40  59  77 103 145 191 231 277 335
#     4  10  21  35  53  78 104 134 178 228 274 331
#
# _framework density 21.196331000000001
#
# number of rings (size 3 to 8) (size 9 to 14) (size 15 to 20)
#    0.000    2.250    1.250    2.625    0.000    6.000 
#    0.000    2.500    0.000    4.500    0.000    0.000 
#    0.000    0.000    0.000    0.000    0.000    0.000 
#
# Total GULP energy -357040.860580 kJ/mol
# GULP energy per Si atom -5578.763447 kJ/mol
# Density = 2.114809 g / cm^3
# Si number density = 21.196331 Si / 1000 Ang^3
#
#
#
# Elastic Constant Matrix: (Units=GPa)
#
#
# Indices 1 2 3 4 5 6 
#
# 1 154.1623 9.0731 40.3755 0.0000 0.0000 0.0000
# 2 9.0731 32.5211 -0.0166 0.0000 0.0000 0.0000
# 3 40.3755 -0.0166 80.4578 0.0000 0.0000 0.0000
# 4 0.0000 0.0000 0.0000 23.2478 0.0000 0.0000
# 5 0.0000 0.0000 0.0000 0.0000 100.2108 0.0000
# 6 0.0000 0.0000 0.0000 0.0000 0.0000 -15.7723
#
#
#
# Elastic Compliance Matrix: (Units=1/GPa)
#
#
# Indices 1 2 3 4 5 6 
#
# 1 0.007612 -0.002126 -0.003820 0.000000 0.000000 0.000000
# 2 -0.002126 0.031343 0.001073 0.000000 0.000000 0.000000
# 3 -0.003820 0.001073 0.014346 0.000000 0.000000 0.000000
# 4 0.000000 0.000000 0.000000 0.043015 0.000000 0.000000
# 5 0.000000 0.000000 0.000000 0.000000 0.009979 0.000000
# 6 0.000000 0.000000 0.000000 0.000000 0.000000 -0.063402
#
#
# Mechanical properties :
#
#
# Convention : Reuss Voigt Hill
#
# Bulk Modulus (GPa) = 22.95918 40.66723 31.81320
# Shear Modulus (GPa) = 74.45159 36.05122 55.25140
#
# Velocity S-wave (km/s) = 5.93304 4.12858 5.11107
# Velocity P-wave (km/s) = 7.60196 6.47723 7.06202
#
# Compressibility (1/GPa) = 0.04355557
#
# Stress axis : x y z
#
# Youngs Moduli (GPa) = 131.36503 31.90514 69.70436
#
# Poissons Ratio (x) = 0.06782 0.26631
# Poissons Ratio (y) = 0.27925 -0.07481
# Poissons Ratio (z) = 0.50188 -0.03424
#
# Static dielectric constant tensor:
#      x y z
#    x 1.766680 0.000000 0.000000 
#    y 0.000000 1.798450 0.000000 
#    z 0.000000 0.000000 1.761040 
# 
# From -- ./inp_files/35709.got.cif
#   From: 2010.05.17/outbox.cif.g08.bks.cpg/sg51_18_cif.got.tgz:35709.got - 2010.06.03 11:52:47.
