data_PCOD9402101
_publ_section_title
;
Structure prediction by ZEFSAII (Michael W. Deem and Ramdas Pophale) SiO2 
 PCOD9402101
Probable space group: P M M A
;
_chemical_formula_sum "Si O2"
_cell_formula_units_Z 56
_cell_length_a 15.410073
_cell_length_b 8.154762
_cell_length_c 22.696538
_cell_angle_alpha 90.000000
_cell_angle_beta 90.000000
_cell_angle_gamma 90.000000
_cell_volume 2852.171290
_symmetry_space_group_name_H-M "P M M A"
_symmetry_group_IT_number 51
_symmetry_cell_setting 'orthorhombic'
loop_
_space_group_symop_operation_xyz
x,y,z
1/2-x,-y,z
1/2+x,-y,-z
-x,y,-z
-x,-y,-z
1/2+x,y,-z
1/2-x,y,z
x,-y,z
loop_
_atom_site_type_symbol
_atom_site_label
_atom_site_fract_x
_atom_site_fract_y
_atom_site_fract_z
Si Si1 0.557991 0.698039 0.443960
Si Si2 0.845633 0.304065 0.139361
Si Si3 0.154372 0.198046 0.117270
Si Si4 0.490224 0.303555 0.208559
Si Si5 0.102758 0.807338 0.989409
Si Si6 0.750000 0.196059 0.477468
Si Si7 0.935449 0.301621 0.662795
Si Si8 0.250000 0.196200 0.387079
O O1 0.500000 0.754130 0.500000
O O2 0.557515 0.500000 0.444628
O O3 0.658519 0.750166 0.448745
O O4 0.505962 0.753342 0.385808
O O5 0.750000 0.235912 0.150500
O O6 0.842834 0.500000 0.147921
O O7 0.870437 0.275016 0.071304
O O8 0.919660 0.236767 0.182420
O O9 0.250000 0.238860 0.139650
O O10 0.081733 0.267976 0.159482
O O11 0.144934 0.000000 0.115916
O O12 0.145153 0.255520 0.049718
O O13 0.498564 0.500000 0.214080
O O14 0.461293 0.240272 0.272301
O O15 0.124581 0.000000 0.983408
O O16 0.000000 0.793278 0.000000
O O17 0.750000 0.258488 0.545278
O O18 0.750000 0.000000 0.478595
O O19 0.937134 0.500000 0.663274
O O20 0.838483 0.251659 0.644287
O O21 0.250000 0.000000 0.388645
#
# Coordination Sequence:
#
# PCOD9402101 Si02
#       8
#     8   8   8   8   8   4   8   4
#     4  10  20  37  62  88 115 152 198 242 283 333
#     4  10  21  37  57  81 109 143 185 234 287 340
#     4  10  21  36  54  79 111 144 181 227 278 335
#     4  10  22  39  57  80 111 147 186 230 281 332
#     4  10  19  34  57  81 107 142 183 229 281 333
#     4  11  23  37  59  91 125 155 186 235 298 349
#     4  10  22  40  60  85 117 154 195 239 282 334
#     4  11  23  37  59  91 121 155 188 225 286 349
#
# _framework density 19.634163999999998
#
# number of rings (size 3 to 8) (size 9 to 14) (size 15 to 20)
#    0.000    1.857    2.857    0.857    1.000    4.000 
#    1.286    0.000    0.000    0.000    0.000    0.000 
#    0.000    0.000    0.000    0.000    0.000    0.000 
#
# Total GULP energy -312658.197274 kJ/mol
# GULP energy per Si atom -5583.182094 kJ/mol
# Density = 1.958948 g / cm^3
# Si number density = 19.634164 Si / 1000 Ang^3
#
#
#
# Elastic Constant Matrix: (Units=GPa)
#
#
# Indices 1 2 3 4 5 6 
#
# 1 180.9176 16.9526 102.7134 0.0000 0.0000 0.0000
# 2 16.9526 10.3693 10.2050 0.0000 0.0000 0.0000
# 3 102.7134 10.2050 143.5740 0.0000 0.0000 0.0000
# 4 0.0000 0.0000 0.0000 7.7843 0.0000 0.0000
# 5 0.0000 0.0000 0.0000 0.0000 -1.4361 0.0000
# 6 0.0000 0.0000 0.0000 0.0000 0.0000 -40.5767
#
#
#
# Elastic Compliance Matrix: (Units=1/GPa)
#
#
# Indices 1 2 3 4 5 6 
#
# 1 0.010227 -0.010236 -0.006589 0.000000 0.000000 0.000000
# 2 -0.010236 0.113936 -0.000776 0.000000 0.000000 0.000000
# 3 -0.006589 -0.000776 0.011734 0.000000 0.000000 0.000000
# 4 0.000000 0.000000 0.000000 0.128464 0.000000 0.000000
# 5 0.000000 0.000000 0.000000 0.000000 -0.696335 0.000000
# 6 0.000000 0.000000 0.000000 0.000000 0.000000 -0.024645
#
#
# Mechanical properties :
#
#
# Convention : Reuss Voigt Hill
#
# Bulk Modulus (GPa) = 9.93086 66.06701 37.99893
# Shear Modulus (GPa) = -12.89153 6.82029 -3.03562
#
# Velocity S-wave (km/s) = -2.56517 1.86580 -1.24477
# Velocity P-wave (km/s) = 1.92472 6.19384 4.16288
#
# Compressibility (1/GPa) = 0.10069620
#
# Stress axis : x y z
#
# Youngs Moduli (GPa) = 97.77607 8.77685 85.22144
#
# Poissons Ratio (x) = 0.08984 0.56154
# Poissons Ratio (y) = 1.00082 0.06610
# Poissons Ratio (z) = 0.64427 0.00681
#
# Static dielectric constant tensor:
#      x y z
#    x 1.685470 0.000000 0.000000 
#    y 0.000000 1.699950 0.000000 
#    z 0.000000 0.000000 1.678770 
# 
# From -- ./inp_files/33523.got.cif
#   From: 2010.05.17/outbox.cif.g08.bks.cpg/sg51_17_cif.got.tgz:33523.got - 2010.06.03 11:52:47.
