data_PCOD9402336
_publ_section_title
;
Structure prediction by ZEFSAII (Michael W. Deem and Ramdas Pophale) SiO2 
 PCOD9402336
Probable space group: P M M A
;
_chemical_formula_sum "Si O2"
_cell_formula_units_Z 64
_cell_length_a 7.853707
_cell_length_b 24.731191
_cell_length_c 15.800154
_cell_angle_alpha 90.000000
_cell_angle_beta 90.000000
_cell_angle_gamma 90.000000
_cell_volume 3068.888052
_symmetry_space_group_name_H-M "P M M A"
_symmetry_group_IT_number 51
_symmetry_cell_setting 'orthorhombic'
loop_
_space_group_symop_operation_xyz
x,y,z
1/2-x,-y,z
1/2+x,-y,-z
-x,y,-z
-x,-y,-z
1/2+x,y,-z
1/2-x,y,z
x,-y,z
loop_
_atom_site_type_symbol
_atom_site_label
_atom_site_fract_x
_atom_site_fract_y
_atom_site_fract_z
Si Si1 0.453857 0.938954 0.754824
Si Si2 0.948588 0.255004 0.135493
Si Si3 0.450511 0.245695 0.327391
Si Si4 0.458452 0.438108 0.742861
Si Si5 0.452680 0.132471 0.403372
Si Si6 0.544989 0.627108 0.092656
Si Si7 0.544522 0.137014 0.093122
Si Si8 0.546702 0.642133 0.405253
O O1 0.250000 0.941795 0.765403
O O2 0.486725 0.911175 0.664736
O O3 0.519477 0.900477 0.830358
O O4 0.521744 0.000000 0.758869
O O5 0.750000 0.255088 0.110795
O O6 0.023709 0.311521 0.103144
O O7 0.023535 0.198407 0.103112
O O8 0.960564 0.254295 0.237211
O O9 0.250000 0.238767 0.310041
O O10 0.516520 0.191713 0.373522
O O11 0.474757 0.298769 0.383745
O O12 0.250000 0.438407 0.742653
O O13 0.514690 0.500000 0.736283
O O14 0.514781 0.409947 0.830037
O O15 0.513570 0.400900 0.664495
O O16 0.500000 0.121149 0.500000
O O17 0.250000 0.134063 0.399112
O O18 0.750000 0.629664 0.099816
O O19 0.500000 0.606268 0.000000
O O20 0.750000 0.139423 0.100572
O O21 0.500000 0.116280 0.000000
O O22 0.500000 0.625902 0.500000
O O23 0.750000 0.646077 0.398128
#
# Coordination Sequence:
#
# PCOD9402336 Si02
#       8
#     8   8   8   8   8   8   8   8
#     4  10  22  41  63  86 115 154 198 243 289 337
#     4  10  19  35  58  84 115 155 191 231 292 349
#     4  11  22  36  59  90 119 150 189 234 288 346
#     4   9  19  37  59  81 111 153 196 237 285 341
#     4  11  24  40  61  89 118 152 191 235 289 346
#     4  10  20  35  56  84 114 150 191 232 286 343
#     4  10  21  36  58  86 119 154 192 237 288 345
#     4  11  22  38  60  86 117 152 191 234 287 344
#
# _framework density 20.854458999999999
#
# number of rings (size 3 to 8) (size 9 to 14) (size 15 to 20)
#    0.000    1.750    2.500    1.875    0.000    5.250 
#    0.000    0.000    0.000    2.625    0.000    0.000 
#    0.000    0.000    0.000    0.000    0.000    0.000 
#
# Total GULP energy -357653.505256 kJ/mol
# GULP energy per Si atom -5588.336020 kJ/mol
# Density = 2.080699 g / cm^3
# Si number density = 20.854459 Si / 1000 Ang^3
#
#
#
# Elastic Constant Matrix: (Units=GPa)
#
#
# Indices 1 2 3 4 5 6 
#
# 1 23.1830 2.1539 -18.6048 0.0000 0.0000 0.0000
# 2 2.1539 131.7394 52.6372 0.0000 0.0000 0.0000
# 3 -18.6048 52.6372 142.4735 0.0000 0.0000 0.0000
# 4 0.0000 0.0000 0.0000 -2.8910 0.0000 0.0000
# 5 0.0000 0.0000 0.0000 0.0000 26.9203 0.0000
# 6 0.0000 0.0000 0.0000 0.0000 0.0000 -6.1912
#
#
#
# Elastic Compliance Matrix: (Units=1/GPa)
#
#
# Indices 1 2 3 4 5 6 
#
# 1 0.049931 -0.004014 0.008003 0.000000 0.000000 0.000000
# 2 -0.004014 0.009228 -0.003933 0.000000 0.000000 0.000000
# 3 0.008003 -0.003933 0.009517 0.000000 0.000000 0.000000
# 4 0.000000 0.000000 0.000000 -0.345898 0.000000 0.000000
# 5 0.000000 0.000000 0.000000 0.000000 0.037147 0.000000
# 6 0.000000 0.000000 0.000000 0.000000 0.000000 -0.161520
#
#
# Mechanical properties :
#
#
# Convention : Reuss Voigt Hill
#
# Bulk Modulus (GPa) = 14.53757 41.08538 27.81147
# Shear Modulus (GPa) = -13.20037 20.98159 3.89061
#
# Velocity S-wave (km/s) = -2.51863 3.17534 1.36735
# Velocity P-wave (km/s) = 1.21322 5.76086 3.98219
#
# Compressibility (1/GPa) = 0.06878728
#
# Stress axis : x y z
#
# Youngs Moduli (GPa) = 20.02772 108.36563 105.07317
#
# Poissons Ratio (x) = 0.43499 -0.84092
# Poissons Ratio (y) = 0.08039 0.41330
# Poissons Ratio (z) = -0.16029 0.42626
#
# Static dielectric constant tensor:
#      x y z
#    x 1.761790 0.000000 0.000000 
#    y 0.000000 1.748250 0.000000 
#    z 0.000000 0.000000 1.707410 
# 
# From -- ./inp_files/22259.got.cif
#   From: 2010.05.17/outbox.cif.g08.bks.cpg/sg51_12_cif.got.tgz:22259.got - 2010.06.03 11:52:47.
