data_PCOD9402615
_publ_section_title
;
Structure prediction by ZEFSAII (Michael W. Deem and Ramdas Pophale) SiO2 
 PCOD9402615
Probable space group: P M M A
;
_chemical_formula_sum "Si O2"
_cell_formula_units_Z 48
_cell_length_a 20.985730
_cell_length_b 9.008349
_cell_length_c 15.493226
_cell_angle_alpha 90.000000
_cell_angle_beta 90.000000
_cell_angle_gamma 90.000000
_cell_volume 2928.944485
_symmetry_space_group_name_H-M "P M M A"
_symmetry_group_IT_number 51
_symmetry_cell_setting 'orthorhombic'
loop_
_space_group_symop_operation_xyz
x,y,z
1/2-x,-y,z
1/2+x,-y,-z
-x,y,-z
-x,-y,-z
1/2+x,y,-z
1/2-x,y,z
x,-y,z
loop_
_atom_site_type_symbol
_atom_site_label
_atom_site_fract_x
_atom_site_fract_y
_atom_site_fract_z
Si Si1 0.179116 0.177380 0.119908
Si Si2 0.344923 0.328279 0.299994
Si Si3 0.320140 0.678597 0.495292
Si Si4 0.994352 0.328436 0.731128
Si Si5 0.045884 0.679295 0.079469
Si Si6 0.054035 0.822644 0.569768
O O1 0.250000 0.219387 0.086298
O O2 0.176410 0.229942 0.219709
O O3 0.116668 0.251129 0.076909
O O4 0.173313 0.000000 0.115079
O O5 0.325861 0.500000 0.284484
O O6 0.321791 0.280899 0.393794
O O7 0.421511 0.325425 0.301873
O O8 0.250000 0.715689 0.530181
O O9 0.328223 0.500000 0.498918
O O10 0.378543 0.755766 0.542035
O O11 0.016214 0.500000 0.730267
O O12 0.988058 0.276730 0.830268
O O13 0.034777 0.233568 0.664483
O O14 0.053356 0.500000 0.082686
O O15 0.000000 0.717543 0.000000
O O16 0.000000 0.774137 0.500000
O O17 0.056395 0.000000 0.567911
#
# Coordination Sequence:
#
# PCOD9402615 Si02
#       6
#     8   8   8   8   8   8
#     4  10  20  31  46  73 108 140 167 199 247 309
#     4   9  17  30  49  72  99 132 169 207 249 298
#     4  10  20  33  50  71  97 133 176 219 259 299
#     4   9  17  31  53  76  98 129 166 209 252 296
#     4   9  19  36  57  80 103 129 168 215 261 306
#     4  11  22  33  48  72 103 138 173 208 247 297
#
# _framework density 16.388157
#
# number of rings (size 3 to 8) (size 9 to 14) (size 15 to 20)
#    0.000    2.333    1.667    2.500    0.000    6.667 
#    0.000    0.000    0.000    1.000    0.000    2.333 
#    0.000    0.000    0.000    0.000    0.000    0.000 
#
# Total GULP energy -267602.834502 kJ/mol
# GULP energy per Si atom -5575.059052 kJ/mol
# Density = 1.635086 g / cm^3
# Si number density = 16.388157 Si / 1000 Ang^3
#
#
#
# Elastic Constant Matrix: (Units=GPa)
#
#
# Indices 1 2 3 4 5 6 
#
# 1 145.1724 49.8122 75.7146 0.0000 0.0000 0.0000
# 2 49.8122 36.5354 32.7208 0.0000 0.0000 0.0000
# 3 75.7146 32.7208 90.6337 0.0000 0.0000 0.0000
# 4 0.0000 0.0000 0.0000 9.8456 0.0000 0.0000
# 5 0.0000 0.0000 0.0000 0.0000 16.2765 0.0000
# 6 0.0000 0.0000 0.0000 0.0000 0.0000 23.5310
#
#
#
# Elastic Compliance Matrix: (Units=1/GPa)
#
#
# Indices 1 2 3 4 5 6 
#
# 1 0.016264 -0.014787 -0.008248 0.000000 0.000000 0.000000
# 2 -0.014787 0.053894 -0.007104 0.000000 0.000000 0.000000
# 3 -0.008248 -0.007104 0.020489 0.000000 0.000000 0.000000
# 4 0.000000 0.000000 0.000000 0.101569 0.000000 0.000000
# 5 0.000000 0.000000 0.000000 0.000000 0.061438 0.000000
# 6 0.000000 0.000000 0.000000 0.000000 0.000000 0.042497
#
#
# Mechanical properties :
#
#
# Convention : Reuss Voigt Hill
#
# Bulk Modulus (GPa) = 32.92968 65.42630 49.17799
# Shear Modulus (GPa) = 13.64064 17.53687 15.58876
#
# Velocity S-wave (km/s) = 2.88817 3.27478 3.08753
# Velocity P-wave (km/s) = 5.59100 7.36943 6.54094
#
# Compressibility (1/GPa) = 0.03036774
#
# Stress axis : x y z
#
# Youngs Moduli (GPa) = 61.48462 18.55510 48.80755
#
# Poissons Ratio (x) = 0.27438 0.40259
# Poissons Ratio (y) = 0.90919 0.34671
# Poissons Ratio (z) = 0.50715 0.13181
#
# Static dielectric constant tensor:
#      x y z
#    x 1.561170 0.000000 0.000000 
#    y 0.000000 1.551300 0.000000 
#    z 0.000000 0.000000 1.536520 
# 
# From -- ./inp_files/25480.got.cif
#   From: 2010.05.17/outbox.cif.g08.bks.cpg/sg51_13_cif.got.tgz:25480.got - 2010.06.03 11:52:47.
