data_PCOD9402821
_publ_section_title
;
Structure prediction by ZEFSAII (Michael W. Deem and Ramdas Pophale) SiO2 
 PCOD9402821
Probable space group: P M M A
;
_chemical_formula_sum "Si O2"
_cell_formula_units_Z 32
_cell_length_a 7.847957
_cell_length_b 7.329512
_cell_length_c 25.373130
_cell_angle_alpha 90.000000
_cell_angle_beta 90.000000
_cell_angle_gamma 90.000000
_cell_volume 1459.505445
_symmetry_space_group_name_H-M "P M M A"
_symmetry_group_IT_number 51
_symmetry_cell_setting 'orthorhombic'
loop_
_space_group_symop_operation_xyz
x,y,z
1/2-x,-y,z
1/2+x,-y,-z
-x,y,-z
-x,-y,-z
1/2+x,y,-z
1/2-x,y,z
x,-y,z
loop_
_atom_site_type_symbol
_atom_site_label
_atom_site_fract_x
_atom_site_fract_y
_atom_site_fract_z
Si Si1 0.750000 0.282697 0.630945
Si Si2 0.454564 0.208362 0.943798
Si Si3 0.750000 0.217456 0.754946
Si Si4 0.557286 0.277502 0.441214
Si Si5 0.946417 0.223439 0.171506
O O1 0.750000 0.500000 0.623055
O O2 0.750000 0.251247 0.692976
O O3 0.581075 0.214683 0.601252
O O4 0.250000 0.201299 0.941298
O O5 0.505728 0.284485 0.886944
O O6 0.522990 0.000000 0.945572
O O7 0.500000 0.293759 0.000000
O O8 0.579775 0.283637 0.784463
O O9 0.750000 0.000000 0.762118
O O10 0.500000 0.223981 0.500000
O O11 0.750000 0.217901 0.430661
O O12 0.558492 0.500000 0.440796
O O13 0.750000 0.279142 0.180680
O O14 0.944456 0.000000 0.169893
#
# Coordination Sequence:
#
# PCOD9402821 Si02
#       5
#     4   8   4   8   8
#     4  10  20  32  48  74 100 118 149 192 226 262
#     4   8  13  19  30  51  78 107 139 180 229 273
#     4  10  20  32  48  64  88 130 165 182 212 272
#     4   9  15  26  47  74  99 120 144 182 231 272
#     4   8  15  27  40  57  83 118 156 188 222 269
#
# _framework density 21.925238
#
# number of rings (size 3 to 8) (size 9 to 14) (size 15 to 20)
#    0.000    3.250    1.250    1.500    1.750    1.000 
#    0.000    0.000    0.000    0.750    0.000    0.000 
#    0.000    1.000    0.000    0.000    0.000    0.000 
#
# Total GULP energy -178543.984860 kJ/mol
# GULP energy per Si atom -5579.499527 kJ/mol
# Density = 2.187533 g / cm^3
# Si number density = 21.925238 Si / 1000 Ang^3
#
#
#
# Elastic Constant Matrix: (Units=GPa)
#
#
# Indices 1 2 3 4 5 6 
#
# 1 176.4482 7.7778 132.9037 0.0000 0.0000 0.0000
# 2 7.7778 83.5474 2.0154 0.0000 0.0000 0.0000
# 3 132.9037 2.0154 238.6577 0.0000 0.0000 0.0000
# 4 0.0000 0.0000 0.0000 12.3901 0.0000 0.0000
# 5 0.0000 0.0000 0.0000 0.0000 42.8849 0.0000
# 6 0.0000 0.0000 0.0000 0.0000 0.0000 -19.1238
#
#
#
# Elastic Compliance Matrix: (Units=1/GPa)
#
#
# Indices 1 2 3 4 5 6 
#
# 1 0.009813 -0.000782 -0.005458 0.000000 0.000000 0.000000
# 2 -0.000782 0.012034 0.000334 0.000000 0.000000 0.000000
# 3 -0.005458 0.000334 0.007227 0.000000 0.000000 0.000000
# 4 0.000000 0.000000 0.000000 0.080710 0.000000 0.000000
# 5 0.000000 0.000000 0.000000 0.000000 0.023318 0.000000
# 6 0.000000 0.000000 0.000000 0.000000 0.000000 -0.052291
#
#
# Mechanical properties :
#
#
# Convention : Reuss Voigt Hill
#
# Bulk Modulus (GPa) = 57.93254 87.11634 72.52444
# Shear Modulus (GPa) = 50.82506 30.96067 40.89287
#
# Velocity S-wave (km/s) = 4.81990 3.76187 4.32337
# Velocity P-wave (km/s) = 7.57993 7.66084 7.62049
#
# Compressibility (1/GPa) = 0.01726146
#
# Stress axis : x y z
#
# Youngs Moduli (GPa) = 101.90653 83.09792 138.37499
#
# Poissons Ratio (x) = 0.06497 0.75525
# Poissons Ratio (y) = 0.07968 -0.04619
# Poissons Ratio (z) = 0.55621 -0.02774
#
# Static dielectric constant tensor:
#      x y z
#    x 1.768030 0.000000 0.000000 
#    y 0.000000 1.903700 0.000000 
#    z 0.000000 0.000000 1.781550 
# 
# From -- ./inp_files/34265.got.cif
#   From: 2010.05.17/outbox.cif.g08.bks.cpg/sg51_18_cif.got.tgz:34265.got - 2010.06.03 11:52:47.
