data_PCOD9402519
_publ_section_title
;
Structure prediction by ZEFSAII (Michael W. Deem and Ramdas Pophale) SiO2 
 PCOD9402519
Probable space group: P M M A
;
_chemical_formula_sum "Si O2"
_cell_formula_units_Z 48
_cell_length_a 17.475338
_cell_length_b 15.369305
_cell_length_c 9.456294
_cell_angle_alpha 90.000000
_cell_angle_beta 90.000000
_cell_angle_gamma 90.000000
_cell_volume 2539.807374
_symmetry_space_group_name_H-M "P M M A"
_symmetry_group_IT_number 51
_symmetry_cell_setting 'orthorhombic'
loop_
_space_group_symop_operation_xyz
x,y,z
1/2-x,-y,z
1/2+x,-y,-z
-x,y,-z
-x,-y,-z
1/2+x,y,-z
1/2-x,y,z
x,-y,z
loop_
_atom_site_type_symbol
_atom_site_label
_atom_site_fract_x
_atom_site_fract_y
_atom_site_fract_z
Si Si1 0.841442 0.500000 0.747546
Si Si2 0.339651 0.840079 0.778311
Si Si3 0.413905 0.357202 0.056059
Si Si4 0.420911 0.000000 0.292231
Si Si5 0.658323 0.356067 0.243905
Si Si6 0.912487 0.500000 0.443723
Si Si7 0.583074 0.847623 0.930696
Si Si8 0.902637 0.000000 0.392467
O O1 0.750000 0.500000 0.773663
O O2 0.883360 0.582399 0.819443
O O3 0.858855 0.500000 0.581502
O O4 0.250000 0.834666 0.763525
O O5 0.369337 0.743857 0.740991
O O6 0.370751 0.913610 0.678074
O O7 0.359313 0.862613 0.940020
O O8 0.412281 0.255507 0.101592
O O9 0.500000 0.376250 0.000000
O O10 0.359524 0.374503 0.920724
O O11 0.406116 0.914488 0.197245
O O12 0.508557 0.000000 0.346165
O O13 0.380018 0.000000 0.443116
O O14 0.750000 0.364750 0.269672
O O15 0.609989 0.417862 0.345929
O O16 0.000000 0.500000 0.500000
O O17 0.500000 0.864401 0.000000
#
# Coordination Sequence:
#
# PCOD9402519 Si02
#       8
#     4   8   8   4   8   4   8   4
#     4  12  24  38  58  88 122 156 190 240 302 354
#     4  10  21  38  61  87 117 157 202 246 295 356
#     4  10  21  37  62  91 120 152 197 251 293 345
#     4  11  22  36  58  87 120 154 199 243 303 352
#     4  10  21  40  63  87 117 161 202 240 299 366
#     4  12  25  42  61  88 120 156 200 250 293 356
#     4  10  19  37  63  89 117 150 199 250 296 341
#     4  11  22  37  55  88 121 162 198 240 296 362
#
# _framework density 18.899072
#
# number of rings (size 3 to 8) (size 9 to 14) (size 15 to 20)
#    0.000    1.500    1.667    4.000    0.000    2.000 
#    3.000    1.667    0.000    0.000    0.000    0.000 
#    0.000    0.000    0.000    0.000    0.000    0.000 
#
# Total GULP energy -267962.110085 kJ/mol
# GULP energy per Si atom -5582.543960 kJ/mol
# Density = 1.885606 g / cm^3
# Si number density = 18.899072 Si / 1000 Ang^3
#
#
#
# Elastic Constant Matrix: (Units=GPa)
#
#
# Indices 1 2 3 4 5 6 
#
# 1 49.0153 23.6734 12.6631 0.0000 0.0000 0.0000
# 2 23.6734 114.2059 86.7032 0.0000 0.0000 0.0000
# 3 12.6631 86.7032 109.1610 0.0000 0.0000 0.0000
# 4 0.0000 0.0000 0.0000 172.9522 0.0000 0.0000
# 5 0.0000 0.0000 0.0000 0.0000 29.5223 0.0000
# 6 0.0000 0.0000 0.0000 0.0000 0.0000 15.8245
#
#
#
# Elastic Compliance Matrix: (Units=1/GPa)
#
#
# Indices 1 2 3 4 5 6 
#
# 1 0.023011 -0.006910 0.002819 0.000000 0.000000 0.000000
# 2 -0.006910 0.024130 -0.018364 0.000000 0.000000 0.000000
# 3 0.002819 -0.018364 0.023420 0.000000 0.000000 0.000000
# 4 0.000000 0.000000 0.000000 0.005782 0.000000 0.000000
# 5 0.000000 0.000000 0.000000 0.000000 0.033873 0.000000
# 6 0.000000 0.000000 0.000000 0.000000 0.000000 0.063193
#
#
# Mechanical properties :
#
#
# Convention : Reuss Voigt Hill
#
# Bulk Modulus (GPa) = 38.98550 57.60684 48.29617
# Shear Modulus (GPa) = 22.03902 53.61596 37.82749
#
# Velocity S-wave (km/s) = 3.41859 5.33209 4.47873
# Velocity P-wave (km/s) = 6.02124 8.27380 7.23571
#
# Compressibility (1/GPa) = 0.02565056
#
# Stress axis : x y z
#
# Youngs Moduli (GPa) = 43.45763 41.44135 42.69836
#
# Poissons Ratio (x) = 0.28636 -0.12037
# Poissons Ratio (y) = 0.30030 0.78413
# Poissons Ratio (z) = -0.12251 0.76105
#
# Static dielectric constant tensor:
#      x y z
#    x 1.666120 0.000000 0.000000 
#    y 0.000000 1.708940 0.000000 
#    z 0.000000 0.000000 1.614400 
# 
# From -- ./inp_files/9749.got.cif
#   From: 2010.05.17/outbox.cif.g08.bks.cpg/sg51_5_cif.got.tgz:9749.got - 2010.06.03 11:52:47.
