data_PCOD9402277
_publ_section_title
;
Structure prediction by ZEFSAII (Michael W. Deem and Ramdas Pophale) SiO2 
 PCOD9402277
Probable space group: P M M A
;
_chemical_formula_sum "Si O2"
_cell_formula_units_Z 56
_cell_length_a 22.848528
_cell_length_b 8.982084
_cell_length_c 15.136743
_cell_angle_alpha 90.000000
_cell_angle_beta 90.000000
_cell_angle_gamma 90.000000
_cell_volume 3106.474377
_symmetry_space_group_name_H-M "P M M A"
_symmetry_group_IT_number 51
_symmetry_cell_setting 'orthorhombic'
loop_
_space_group_symop_operation_xyz
x,y,z
1/2-x,-y,z
1/2+x,-y,-z
-x,y,-z
-x,-y,-z
1/2+x,y,-z
1/2-x,y,z
x,-y,z
loop_
_atom_site_type_symbol
_atom_site_label
_atom_site_fract_x
_atom_site_fract_y
_atom_site_fract_z
Si Si1 0.946255 0.821430 0.384941
Si Si2 0.683790 0.678158 0.697905
Si Si3 0.021946 0.325671 0.099944
Si Si4 0.594831 0.323903 0.212580
Si Si5 0.818532 0.325404 0.059799
Si Si6 0.144199 0.823771 0.122258
Si Si7 0.578966 0.820140 0.586650
O O1 0.908431 0.755457 0.306192
O O2 0.923400 0.781176 0.482566
O O3 0.014680 0.774755 0.377046
O O4 0.946009 0.000000 0.380388
O O5 0.750000 0.714053 0.667213
O O6 0.677763 0.500000 0.700585
O O7 0.675356 0.743171 0.796105
O O8 0.632683 0.746429 0.637455
O O9 0.040035 0.500000 0.104854
O O10 0.076051 0.222521 0.124368
O O11 0.967380 0.302826 0.164260
O O12 0.000000 0.298446 0.000000
O O13 0.603631 0.500000 0.226221
O O14 0.643566 0.271658 0.142907
O O15 0.750000 0.317926 0.079299
O O16 0.834493 0.500000 0.044348
O O17 0.832293 0.235811 0.971201
O O18 0.151436 0.000000 0.129500
O O19 0.583247 0.000000 0.594279
#
# Coordination Sequence:
#
# PCOD9402277 Si02
#       7
#     8   8   8   8   8   8   8
#     4   9  19  36  59  86 115 145 177 222 282 340
#     4  11  24  40  58  82 113 150 191 234 281 334
#     4  10  19  35  56  79 112 148 185 228 275 326
#     4  10  20  34  55  83 110 143 185 228 272 322
#     4  10  21  39  58  74 102 147 193 232 271 320
#     4  12  24  36  55  83 114 146 186 230 279 337
#     4   9  19  38  61  85 113 145 181 224 279 338
#
# _framework density 18.026865999999998
#
# number of rings (size 3 to 8) (size 9 to 14) (size 15 to 20)
#    0.000    1.857    1.429    3.857    0.000    8.000 
#    0.000    2.143    0.000    2.571    0.000    0.000 
#    0.000    0.000    0.000    0.000    0.000    0.000 
#
# Total GULP energy -312788.733767 kJ/mol
# GULP energy per Si atom -5585.513103 kJ/mol
# Density = 1.798584 g / cm^3
# Si number density = 18.026866 Si / 1000 Ang^3
#
#
#
# Elastic Constant Matrix: (Units=GPa)
#
#
# Indices 1 2 3 4 5 6 
#
# 1 102.8216 42.3602 62.3651 0.0000 0.0000 0.0000
# 2 42.3602 46.1075 41.8220 0.0000 0.0000 0.0000
# 3 62.3651 41.8220 119.2238 0.0000 0.0000 0.0000
# 4 0.0000 0.0000 0.0000 34.4158 0.0000 0.0000
# 5 0.0000 0.0000 0.0000 0.0000 14.6191 0.0000
# 6 0.0000 0.0000 0.0000 0.0000 0.0000 14.9439
#
#
#
# Elastic Compliance Matrix: (Units=1/GPa)
#
#
# Indices 1 2 3 4 5 6 
#
# 1 0.017589 -0.011461 -0.005181 0.000000 0.000000 0.000000
# 2 -0.011461 0.039277 -0.007783 0.000000 0.000000 0.000000
# 3 -0.005181 -0.007783 0.013828 0.000000 0.000000 0.000000
# 4 0.000000 0.000000 0.000000 0.029056 0.000000 0.000000
# 5 0.000000 0.000000 0.000000 0.000000 0.068403 0.000000
# 6 0.000000 0.000000 0.000000 0.000000 0.000000 0.066917
#
#
# Mechanical properties :
#
#
# Convention : Reuss Voigt Hill
#
# Bulk Modulus (GPa) = 45.77531 62.36082 54.06807
# Shear Modulus (GPa) = 17.17026 20.90281 19.03654
#
# Velocity S-wave (km/s) = 3.08958 3.40889 3.25315
# Velocity P-wave (km/s) = 6.17861 7.08254 6.64596
#
# Compressibility (1/GPa) = 0.02184584
#
# Stress axis : x y z
#
# Youngs Moduli (GPa) = 56.85248 25.46007 72.31888
#
# Poissons Ratio (x) = 0.29179 0.37466
# Poissons Ratio (y) = 0.65157 0.56285
# Poissons Ratio (z) = 0.29453 0.19815
#
# Static dielectric constant tensor:
#      x y z
#    x 1.615370 0.000000 0.000000 
#    y 0.000000 1.608880 0.000000 
#    z 0.000000 0.000000 1.603530 
# 
# From -- ./inp_files/25679.got.cif
#   From: 2010.05.17/outbox.cif.g08.bks.cpg/sg51_13_cif.got.tgz:25679.got - 2010.06.03 11:52:47.
