data_PCOD9402970
_publ_section_title
;
Structure prediction by ZEFSAII (Michael W. Deem and Ramdas Pophale) SiO2 
 PCOD9402970
Probable space group: P M M A
;
_chemical_formula_sum "Si O2"
_cell_formula_units_Z 64
_cell_length_a 14.899924
_cell_length_b 14.586347
_cell_length_c 13.417500
_cell_angle_alpha 90.000000
_cell_angle_beta 90.000000
_cell_angle_gamma 90.000000
_cell_volume 2916.098558
_symmetry_space_group_name_H-M "P M M A"
_symmetry_group_IT_number 51
_symmetry_cell_setting 'orthorhombic'
loop_
_space_group_symop_operation_xyz
x,y,z
1/2-x,-y,z
1/2+x,-y,-z
-x,y,-z
-x,-y,-z
1/2+x,y,-z
1/2-x,y,z
x,-y,z
loop_
_atom_site_type_symbol
_atom_site_label
_atom_site_fract_x
_atom_site_fract_y
_atom_site_fract_z
Si Si1 0.639826 0.396666 0.026928
Si Si2 0.392600 0.786926 0.502106
Si Si3 0.110244 0.895242 0.309943
Si Si4 0.603923 0.104144 0.306365
Si Si5 0.141874 0.210975 0.895195
Si Si6 0.647410 0.611643 0.805857
Si Si7 0.642673 0.104153 0.910433
Si Si8 0.857686 0.603310 0.590501
O O1 0.750000 0.399586 0.023184
O O2 0.609719 0.500000 0.050126
O O3 0.612258 0.316802 0.101824
O O4 0.609071 0.368750 0.915117
O O5 0.500000 0.797323 0.500000
O O6 0.355917 0.836296 0.402653
O O7 0.359394 0.836591 0.601535
O O8 0.375091 0.679120 0.492254
O O9 0.127323 0.855819 0.199706
O O10 0.003161 0.901514 0.320281
O O11 0.145537 0.000000 0.312409
O O12 0.618142 0.154600 0.202213
O O13 0.638929 0.000000 0.305121
O O14 0.250000 0.212553 0.900334
O O15 0.108875 0.160993 0.995600
O O16 0.750000 0.647446 0.807772
O O17 0.652028 0.500000 0.802569
O O18 0.605404 0.636511 0.698981
O O19 0.750000 0.098095 0.921685
O O20 0.605689 0.000000 0.911148
O O21 0.750000 0.597942 0.602961
O O22 0.889795 0.500000 0.568945
#
# Coordination Sequence:
#
# PCOD9402970 Si02
#       8
#     8   8   8   8   8   8   8   8
#     4   8  14  26  45  71 103 136 170 206 250 308
#     4  10  21  36  55  78 104 136 181 224 270 312
#     4   9  19  36  57  79 103 132 171 222 275 322
#     4  10  21  38  56  72  98 141 187 223 258 314
#     4  10  20  32  50  77 108 141 177 215 258 306
#     4   7  11  22  42  69  99 128 159 199 248 302
#     4   9  18  32  51  79 110 132 157 206 270 323
#     4   9  18  32  52  80 110 138 172 215 262 315
#
# _framework density 21.947132
#
# number of rings (size 3 to 8) (size 9 to 14) (size 15 to 20)
#    0.000    3.000    0.000    2.250    1.750    4.000 
#    0.000    2.500    0.000    4.500    0.000    0.875 
#    0.000    0.000    0.000    0.000    0.000    0.000 
#
# Total GULP energy -357094.021274 kJ/mol
# GULP energy per Si atom -5579.594082 kJ/mol
# Density = 2.189718 g / cm^3
# Si number density = 21.947132 Si / 1000 Ang^3
#
#
#
# Elastic Constant Matrix: (Units=GPa)
#
#
# Indices 1 2 3 4 5 6 
#
# 1 40.9365 5.9111 -5.8131 0.0000 0.0000 0.0000
# 2 5.9111 155.2763 106.1259 0.0000 0.0000 0.0000
# 3 -5.8131 106.1259 152.7453 0.0000 0.0000 0.0000
# 4 0.0000 0.0000 0.0000 37.5573 0.0000 0.0000
# 5 0.0000 0.0000 0.0000 0.0000 19.7033 0.0000
# 6 0.0000 0.0000 0.0000 0.0000 0.0000 17.0831
#
#
#
# Elastic Compliance Matrix: (Units=1/GPa)
#
#
# Indices 1 2 3 4 5 6 
#
# 1 0.025316 -0.003089 0.003110 0.000000 0.000000 0.000000
# 2 -0.003089 0.012641 -0.008900 0.000000 0.000000 0.000000
# 3 0.003110 -0.008900 0.012849 0.000000 0.000000 0.000000
# 4 0.000000 0.000000 0.000000 0.026626 0.000000 0.000000
# 5 0.000000 0.000000 0.000000 0.000000 0.050753 0.000000
# 6 0.000000 0.000000 0.000000 0.000000 0.000000 0.058537
#
#
# Mechanical properties :
#
#
# Convention : Reuss Voigt Hill
#
# Bulk Modulus (GPa) = 30.26063 62.37842 46.31953
# Shear Modulus (GPa) = 23.20227 31.05101 27.12664
#
# Velocity S-wave (km/s) = 3.25497 3.76548 3.51949
# Velocity P-wave (km/s) = 5.28624 6.88396 6.13731
#
# Compressibility (1/GPa) = 0.03304624
#
# Stress axis : x y z
#
# Youngs Moduli (GPa) = 39.50114 79.10963 77.82737
#
# Poissons Ratio (x) = 0.24438 -0.24202
# Poissons Ratio (y) = 0.12202 0.69268
# Poissons Ratio (z) = -0.12284 0.70409
#
# Static dielectric constant tensor:
#      x y z
#    x 1.831130 0.000000 0.000000 
#    y 0.000000 1.831100 0.000000 
#    z 0.000000 0.000000 1.810800 
# 
# From -- ./inp_files/17616.got.cif
#   From: 2010.05.17/outbox.cif.g08.bks.cpg/sg51_9_cif.got.tgz:17616.got - 2010.06.03 11:52:47.
