data_PCOD9402994
_publ_section_title
;
Structure prediction by ZEFSAII (Michael W. Deem and Ramdas Pophale) SiO2 
 PCOD9402994
Probable space group: P M M A
;
_chemical_formula_sum "Si O2"
_cell_formula_units_Z 56
_cell_length_a 24.157583
_cell_length_b 7.455507
_cell_length_c 13.038166
_cell_angle_alpha 90.000000
_cell_angle_beta 90.000000
_cell_angle_gamma 90.000000
_cell_volume 2348.265344
_symmetry_space_group_name_H-M "P M M A"
_symmetry_group_IT_number 51
_symmetry_cell_setting 'orthorhombic'
loop_
_space_group_symop_operation_xyz
x,y,z
1/2-x,-y,z
1/2+x,-y,-z
-x,y,-z
-x,-y,-z
1/2+x,y,-z
1/2-x,y,z
x,-y,z
loop_
_atom_site_type_symbol
_atom_site_label
_atom_site_fract_x
_atom_site_fract_y
_atom_site_fract_z
Si Si1 0.750000 0.782816 0.184712
Si Si2 0.665276 0.791098 0.354721
Si Si3 0.750000 0.291060 0.943801
Si Si4 0.049322 0.717742 0.925529
Si Si5 0.578420 0.711732 0.700181
Si Si6 0.190502 0.783377 0.420747
Si Si7 0.541119 0.283430 0.309805
Si Si8 0.369329 0.719998 0.092019
O O1 0.696547 0.722331 0.252761
O O2 0.750000 0.717005 0.067904
O O3 0.750000 0.000000 0.175922
O O4 0.686800 0.716112 0.462172
O O5 0.598927 0.778624 0.356417
O O6 0.680283 0.000000 0.355819
O O7 0.750000 0.500000 0.915063
O O8 0.806861 0.214235 0.900645
O O9 0.047386 0.500000 0.922654
O O10 0.043680 0.774648 0.809251
O O11 0.105110 0.772327 0.982991
O O12 0.000000 0.775814 0.000000
O O13 0.569104 0.500000 0.713720
O O14 0.634208 0.732329 0.635926
O O15 0.520014 0.777972 0.653922
O O16 0.592813 0.781956 0.813784
O O17 0.250000 0.724783 0.375715
O O18 0.190624 0.000000 0.421739
O O19 0.543817 0.500000 0.317528
O O20 0.369349 0.500000 0.094230
#
# Coordination Sequence:
#
# PCOD9402994 Si02
#       8
#     4   8   4   8   8   8   8   8
#     4  10  20  38  59  80 108 142 183 234 287 332
#     4  10  21  39  62  81 105 143 186 233 285 338
#     4  10  20  32  51  82 114 142 179 226 269 324
#     4   9  14  26  49  75 106 146 182 209 249 313
#     4  10  21  36  56  85 118 148 181 228 279 324
#     4  10  22  42  63  80 102 143 194 236 278 334
#     4  10  20  34  56  88 119 146 181 226 275 328
#     4   9  17  30  49  77 112 147 181 217 262 317
#
# _framework density 23.847390000000001
#
# number of rings (size 3 to 8) (size 9 to 14) (size 15 to 20)
#    0.000    2.286    2.143    0.857    1.000    3.714 
#    0.000    3.571    0.000    1.286    0.000    0.000 
#    0.000    0.000    0.000    0.000    0.000    0.000 
#
# Total GULP energy -312726.061776 kJ/mol
# GULP energy per Si atom -5584.393960 kJ/mol
# Density = 2.379311 g / cm^3
# Si number density = 23.847390 Si / 1000 Ang^3
#
#
#
# Elastic Constant Matrix: (Units=GPa)
#
#
# Indices 1 2 3 4 5 6 
#
# 1 183.5903 -6.0849 11.9111 0.0000 0.0000 0.0000
# 2 -6.0849 68.7619 -10.7642 0.0000 0.0000 0.0000
# 3 11.9111 -10.7642 27.5851 0.0000 0.0000 0.0000
# 4 0.0000 0.0000 0.0000 15.2014 0.0000 0.0000
# 5 0.0000 0.0000 0.0000 0.0000 40.1678 0.0000
# 6 0.0000 0.0000 0.0000 0.0000 0.0000 11.3543
#
#
#
# Elastic Compliance Matrix: (Units=1/GPa)
#
#
# Indices 1 2 3 4 5 6 
#
# 1 0.005605 0.000125 -0.002372 0.000000 0.000000 0.000000
# 2 0.000125 0.015492 0.005991 0.000000 0.000000 0.000000
# 3 -0.002372 0.005991 0.039613 0.000000 0.000000 0.000000
# 4 0.000000 0.000000 0.000000 0.065784 0.000000 0.000000
# 5 0.000000 0.000000 0.000000 0.000000 0.024896 0.000000
# 6 0.000000 0.000000 0.000000 0.000000 0.000000 0.088072
#
#
# Mechanical properties :
#
#
# Convention : Reuss Voigt Hill
#
# Bulk Modulus (GPa) = 14.66290 30.00684 22.33487
# Shear Modulus (GPa) = 19.63049 32.33636 25.98343
#
# Velocity S-wave (km/s) = 2.87221 3.68635 3.30445
# Velocity P-wave (km/s) = 4.14264 5.54338 4.89339
#
# Compressibility (1/GPa) = 0.06819933
#
# Stress axis : x y z
#
# Youngs Moduli (GPa) = 178.41516 64.54994 25.24399
#
# Poissons Ratio (x) = -0.00805 0.05987
# Poissons Ratio (y) = -0.02226 -0.15125
# Poissons Ratio (z) = 0.42311 -0.38674
#
# Static dielectric constant tensor:
#      x y z
#    x 1.951270 0.000000 0.000000 
#    y 0.000000 1.926590 0.000000 
#    z 0.000000 0.000000 1.874860 
# 
# From -- ./inp_files/25924.got.cif
#   From: 2010.05.17/outbox.cif.g08.bks.cpg/sg51_13_cif.got.tgz:25924.got - 2010.06.03 11:52:47.
