data_PCOD9402765
_publ_section_title
;
Structure prediction by ZEFSAII (Michael W. Deem and Ramdas Pophale) SiO2 
 PCOD9402765
Probable space group: P M M A
;
_chemical_formula_sum "Si O2"
_cell_formula_units_Z 48
_cell_length_a 18.907546
_cell_length_b 7.488950
_cell_length_c 17.216796
_cell_angle_alpha 90.000000
_cell_angle_beta 90.000000
_cell_angle_gamma 90.000000
_cell_volume 2437.858140
_symmetry_space_group_name_H-M "P M M A"
_symmetry_group_IT_number 51
_symmetry_cell_setting 'orthorhombic'
loop_
_space_group_symop_operation_xyz
x,y,z
1/2-x,-y,z
1/2+x,-y,-z
-x,y,-z
-x,-y,-z
1/2+x,y,-z
1/2-x,y,z
x,-y,z
loop_
_atom_site_type_symbol
_atom_site_label
_atom_site_fract_x
_atom_site_fract_y
_atom_site_fract_z
Si Si1 0.457096 0.718694 0.257538
Si Si2 0.171249 0.210447 0.656991
Si Si3 0.978658 0.709897 0.416393
Si Si4 0.331174 0.718015 0.151991
Si Si5 0.832369 0.282696 0.020824
Si Si6 0.101441 0.715241 0.820071
O O1 0.456856 0.500000 0.258962
O O2 0.476196 0.782620 0.343860
O O3 0.384425 0.777290 0.218669
O O4 0.523132 0.773493 0.203957
O O5 0.250000 0.283821 0.640478
O O6 0.104062 0.277622 0.607456
O O7 0.152298 0.238724 0.747850
O O8 0.173411 0.000000 0.643082
O O9 0.995570 0.500000 0.419339
O O10 0.000000 0.786184 0.500000
O O11 0.250000 0.774272 0.162810
O O12 0.331086 0.500000 0.152189
O O13 0.355623 0.773283 0.065416
O O14 0.750000 0.234439 0.028910
O O15 0.835702 0.500000 0.021413
O O16 0.873759 0.217926 0.096290
O O17 0.100724 0.500000 0.823586
#
# Coordination Sequence:
#
# PCOD9402765 Si02
#       6
#     8   8   8   8   8   8
#     4   8  14  24  38  58  83 112 144 176 217 267
#     4  10  20  32  47  69  95 121 150 182 218 266
#     4   9  18  33  51  70  92 116 146 187 231 276
#     4   8  13  21  33  53  85 117 142 177 223 265
#     4   8  13  20  32  54  83 114 146 178 216 261
#     4   9  16  26  42  63  88 117 147 182 221 260
#
# _framework density 19.689412999999998
#
# number of rings (size 3 to 8) (size 9 to 14) (size 15 to 20)
#    0.000    3.333    0.000    3.000    0.000    3.000 
#    0.000    4.167    0.000    3.000    0.000    9.333 
#    0.000   11.333    0.000    0.000    0.000    0.000 
#
# Total GULP energy -267510.762285 kJ/mol
# GULP energy per Si atom -5573.140881 kJ/mol
# Density = 1.964460 g / cm^3
# Si number density = 19.689413 Si / 1000 Ang^3
#
#
#
# Elastic Constant Matrix: (Units=GPa)
#
#
# Indices 1 2 3 4 5 6 
#
# 1 108.0748 -5.5231 112.4291 0.0000 0.0000 0.0000
# 2 -5.5231 51.1421 4.9396 0.0000 0.0000 0.0000
# 3 112.4291 4.9396 185.4296 0.0000 0.0000 0.0000
# 4 0.0000 0.0000 0.0000 -66.5501 0.0000 0.0000
# 5 0.0000 0.0000 0.0000 0.0000 21.3606 0.0000
# 6 0.0000 0.0000 0.0000 0.0000 0.0000 -33.6001
#
#
#
# Elastic Compliance Matrix: (Units=1/GPa)
#
#
# Indices 1 2 3 4 5 6 
#
# 1 0.025984 0.004339 -0.015870 0.000000 0.000000 0.000000
# 2 0.004339 0.020328 -0.003172 0.000000 0.000000 0.000000
# 3 -0.015870 -0.003172 0.015100 0.000000 0.000000 0.000000
# 4 0.000000 0.000000 0.000000 -0.015026 0.000000 0.000000
# 5 0.000000 0.000000 0.000000 0.000000 0.046815 0.000000
# 6 0.000000 0.000000 0.000000 0.000000 0.000000 -0.029762
#
#
# Mechanical properties :
#
#
# Convention : Reuss Voigt Hill
#
# Bulk Modulus (GPa) = 31.24488 63.14864 47.19676
# Shear Modulus (GPa) = 48.30207 -0.23786 24.03211
#
# Velocity S-wave (km/s) = 4.95835 -0.34795 3.49744
# Velocity P-wave (km/s) = 6.97737 5.65514 6.35076
#
# Compressibility (1/GPa) = 0.03200524
#
# Stress axis : x y z
#
# Youngs Moduli (GPa) = 38.48478 49.19234 66.22596
#
# Poissons Ratio (x) = -0.21345 1.05103
# Poissons Ratio (y) = -0.16699 0.21009
# Poissons Ratio (z) = 0.61077 0.15606
#
# Static dielectric constant tensor:
#      x y z
#    x 1.675890 0.000000 0.000000 
#    y 0.000000 1.728370 0.000000 
#    z 0.000000 0.000000 1.692360 
# 
# From -- ./inp_files/30048.got.cif
#   From: 2010.05.17/outbox.cif.g08.bks.cpg/sg51_16_cif.got.tgz:30048.got - 2010.06.03 11:52:47.
