data_PCOD9402984
_publ_section_title
;
Structure prediction by ZEFSAII (Michael W. Deem and Ramdas Pophale) SiO2 
 PCOD9402984
Probable space group: P M M A
;
_chemical_formula_sum "Si O2"
_cell_formula_units_Z 56
_cell_length_a 21.328661
_cell_length_b 8.743315
_cell_length_c 16.440206
_cell_angle_alpha 90.000000
_cell_angle_beta 90.000000
_cell_angle_gamma 90.000000
_cell_volume 3065.822251
_symmetry_space_group_name_H-M "P M M A"
_symmetry_group_IT_number 51
_symmetry_cell_setting 'orthorhombic'
loop_
_space_group_symop_operation_xyz
x,y,z
1/2-x,-y,z
1/2+x,-y,-z
-x,y,-z
-x,-y,-z
1/2+x,y,-z
1/2-x,y,z
x,-y,z
loop_
_atom_site_type_symbol
_atom_site_label
_atom_site_fract_x
_atom_site_fract_y
_atom_site_fract_z
Si Si1 0.878873 0.819176 0.308930
Si Si2 0.376131 0.316079 0.984714
Si Si3 0.457351 0.183830 0.847856
Si Si4 0.250000 0.314722 0.889991
Si Si5 0.750000 0.681846 0.295158
Si Si6 0.492733 0.683284 0.594293
Si Si7 0.323405 0.816651 0.149329
Si Si8 0.426063 0.317054 0.252203
O O1 0.903861 0.773034 0.218963
O O2 0.814160 0.740800 0.332161
O O3 0.933216 0.768895 0.369341
O O4 0.871003 0.000000 0.308355
O O5 0.380785 0.500000 0.986599
O O6 0.434460 0.248848 0.934175
O O7 0.312912 0.268667 0.936192
O O8 0.362798 0.252553 0.074165
O O9 0.520759 0.252914 0.809777
O O10 0.462597 0.000000 0.851249
O O11 0.250000 0.500000 0.888345
O O12 0.250000 0.258501 0.797972
O O13 0.750000 0.500000 0.294028
O O14 0.500000 0.722937 0.500000
O O15 0.482747 0.500000 0.599817
O O16 0.549664 0.718618 0.656502
O O17 0.250000 0.769390 0.145297
O O18 0.360035 0.757225 0.228507
O O19 0.325592 0.000000 0.145373
O O20 0.422866 0.500000 0.243156
#
# Coordination Sequence:
#
# PCOD9402984 Si02
#       8
#     8   8   8   4   4   8   8   8
#     4  10  20  32  50  81 116 149 183 220 270 329
#     4  11  20  34  54  79 109 147 196 239 275 319
#     4  10  20  34  52  79 115 150 184 228 278 328
#     4   9  18  29  47  75 106 143 188 233 269 308
#     4  11  19  31  51  77 112 153 188 225 273 322
#     4   9  19  38  64  89 111 137 177 223 274 335
#     4  11  24  40  57  79 109 147 189 233 280 329
#     4  10  21  38  61  86 110 141 180 228 278 331
#
# _framework density 18.265899000000001
#
# number of rings (size 3 to 8) (size 9 to 14) (size 15 to 20)
#    0.000    1.857    2.143    2.357    0.000    3.429 
#    0.000    2.857    1.571    0.000    0.000    0.000 
#    0.000    0.000    0.000    0.000    0.000    0.000 
#
# Total GULP energy -312629.946979 kJ/mol
# GULP energy per Si atom -5582.677625 kJ/mol
# Density = 1.822433 g / cm^3
# Si number density = 18.265899 Si / 1000 Ang^3
#
#
#
# Elastic Constant Matrix: (Units=GPa)
#
#
# Indices 1 2 3 4 5 6 
#
# 1 70.7361 35.1351 40.0961 0.0000 0.0000 0.0000
# 2 35.1351 50.0061 38.6295 0.0000 0.0000 0.0000
# 3 40.0961 38.6295 68.7233 0.0000 0.0000 0.0000
# 4 0.0000 0.0000 0.0000 20.1855 0.0000 0.0000
# 5 0.0000 0.0000 0.0000 0.0000 -15.2189 0.0000
# 6 0.0000 0.0000 0.0000 0.0000 0.0000 29.0738
#
#
#
# Elastic Compliance Matrix: (Units=1/GPa)
#
#
# Indices 1 2 3 4 5 6 
#
# 1 0.023962 -0.010669 -0.007983 0.000000 0.000000 0.000000
# 2 -0.010669 0.040095 -0.016313 0.000000 0.000000 0.000000
# 3 -0.007983 -0.016313 0.028379 0.000000 0.000000 0.000000
# 4 0.000000 0.000000 0.000000 0.049541 0.000000 0.000000
# 5 0.000000 0.000000 0.000000 0.000000 -0.065708 0.000000
# 6 0.000000 0.000000 0.000000 0.000000 0.000000 0.034395
#
#
# Mechanical properties :
#
#
# Convention : Reuss Voigt Hill
#
# Bulk Modulus (GPa) = 44.43407 46.35407 45.39407
# Shear Modulus (GPa) = 26.58227 11.84840 19.21533
#
# Velocity S-wave (km/s) = 3.81897 2.54965 3.24694
# Velocity P-wave (km/s) = 6.62005 5.83953 6.24200
#
# Compressibility (1/GPa) = 0.02250525
#
# Stress axis : x y z
#
# Youngs Moduli (GPa) = 41.73355 24.94052 35.23794
#
# Poissons Ratio (x) = 0.26608 0.28131
# Poissons Ratio (y) = 0.44524 0.57484
# Poissons Ratio (z) = 0.33317 0.40686
#
# Static dielectric constant tensor:
#      x y z
#    x 1.642960 0.000000 0.000000 
#    y 0.000000 1.605470 0.000000 
#    z 0.000000 0.000000 1.632940 
# 
# From -- ./inp_files/25934.got.cif
#   From: 2010.05.17/outbox.cif.g08.bks.cpg/sg51_13_cif.got.tgz:25934.got - 2010.06.03 11:52:47.
