data_PCOD9402776
_publ_section_title
;
Structure prediction by ZEFSAII (Michael W. Deem and Ramdas Pophale) SiO2 
 PCOD9402776
Probable space group: P M M A
;
_chemical_formula_sum "Si O2"
_cell_formula_units_Z 52
_cell_length_a 7.924651
_cell_length_b 13.499578
_cell_length_c 24.125916
_cell_angle_alpha 90.000000
_cell_angle_beta 90.000000
_cell_angle_gamma 90.000000
_cell_volume 2580.977087
_symmetry_space_group_name_H-M "P M M A"
_symmetry_group_IT_number 51
_symmetry_cell_setting 'orthorhombic'
loop_
_space_group_symop_operation_xyz
x,y,z
1/2-x,-y,z
1/2+x,-y,-z
-x,y,-z
-x,-y,-z
1/2+x,y,-z
1/2-x,y,z
x,-y,z
loop_
_atom_site_type_symbol
_atom_site_label
_atom_site_fract_x
_atom_site_fract_y
_atom_site_fract_z
Si Si1 0.450896 0.000000 0.063841
Si Si2 0.559495 0.114821 0.437188
Si Si3 0.453887 0.387189 0.439570
Si Si4 0.560295 0.751096 0.653120
Si Si5 0.549515 0.886013 0.749861
Si Si6 0.546359 0.612685 0.064318
Si Si7 0.949843 0.194227 0.131237
O O1 0.520005 0.100069 0.091577
O O2 0.750000 0.000000 0.929029
O O3 0.500000 0.000000 0.000000
O O4 0.500000 0.121463 0.500000
O O5 0.750000 0.154756 0.431684
O O6 0.435482 0.168267 0.395753
O O7 0.563624 0.000000 0.422200
O O8 0.500000 0.342684 0.500000
O O9 0.250000 0.384332 0.436750
O O10 0.513219 0.500000 0.440819
O O11 0.519044 0.337492 0.382893
O O12 0.750000 0.720598 0.670175
O O13 0.477609 0.809374 0.704246
O O14 0.750000 0.893267 0.738337
O O15 0.526821 0.837830 0.810079
O O16 0.483301 0.000000 0.748322
O O17 0.750000 0.612110 0.067646
O O18 0.487629 0.500000 0.078304
O O19 0.485783 0.703604 0.102966
O O20 0.500000 0.631383 0.000000
O O21 0.750000 0.205955 0.139554
#
# Coordination Sequence:
#
# PCOD9402776 Si02
#       7
#     4   8   8   8   8   8   8
#     4  12  24  38  58  86 120 152 187 236 291 344
#     4  10  20  32  47  70 100 131 164 208 262 317
#     4   9  18  33  53  77 105 136 172 221 279 337
#     4  10  20  34  53  75 100 135 178 220 268 324
#     4  10  21  37  55  76 107 148 186 228 279 332
#     4   9  19  36  58  85 116 148 183 227 279 333
#     4  11  22  37  58  84 114 151 194 237 282 337
#
# _framework density 20.147409
#
# number of rings (size 3 to 8) (size 9 to 14) (size 15 to 20)
#    0.000    2.000    0.769    3.000    0.000    6.462 
#    0.000    0.769    0.000    0.923    0.000    0.000 
#    0.000    0.000    0.000    0.000    0.000    0.000 
#
# Total GULP energy -289898.459532 kJ/mol
# GULP energy per Si atom -5574.970376 kJ/mol
# Density = 2.010155 g / cm^3
# Si number density = 20.147409 Si / 1000 Ang^3
#
#
#
# Elastic Constant Matrix: (Units=GPa)
#
#
# Indices 1 2 3 4 5 6 
#
# 1 34.6907 -5.5176 -19.8246 0.0000 0.0000 0.0000
# 2 -5.5176 134.1721 52.4631 0.0000 0.0000 0.0000
# 3 -19.8246 52.4631 109.5883 0.0000 0.0000 0.0000
# 4 0.0000 0.0000 0.0000 33.3924 0.0000 0.0000
# 5 0.0000 0.0000 0.0000 0.0000 29.3370 0.0000
# 6 0.0000 0.0000 0.0000 0.0000 0.0000 11.2842
#
#
#
# Elastic Compliance Matrix: (Units=1/GPa)
#
#
# Indices 1 2 3 4 5 6 
#
# 1 0.032300 -0.001177 0.006406 0.000000 0.000000 0.000000
# 2 -0.001177 0.009212 -0.004623 0.000000 0.000000 0.000000
# 3 0.006406 -0.004623 0.012497 0.000000 0.000000 0.000000
# 4 0.000000 0.000000 0.000000 0.029947 0.000000 0.000000
# 5 0.000000 0.000000 0.000000 0.000000 0.034087 0.000000
# 6 0.000000 0.000000 0.000000 0.000000 0.000000 0.088619
#
#
# Mechanical properties :
#
#
# Convention : Reuss Voigt Hill
#
# Bulk Modulus (GPa) = 18.10846 36.96590 27.53718
# Shear Modulus (GPa) = 22.33570 31.55806 26.94688
#
# Velocity S-wave (km/s) = 3.33320 3.96202 3.66113
# Velocity P-wave (km/s) = 4.88069 6.27038 5.61866
#
# Compressibility (1/GPa) = 0.05522280
#
# Stress axis : x y z
#
# Youngs Moduli (GPa) = 30.95974 108.54902 80.01784
#
# Poissons Ratio (x) = 0.12773 -0.51263
# Poissons Ratio (y) = 0.03643 0.36993
# Poissons Ratio (z) = -0.19834 0.50184
#
# Static dielectric constant tensor:
#      x y z
#    x 1.768410 0.000000 0.000000 
#    y 0.000000 1.770100 0.000000 
#    z 0.000000 0.000000 1.690040 
# 
# From -- ./inp_files/31714.got.cif
#   From: 2010.05.17/outbox.cif.g08.bks.cpg/sg51_16_cif.got.tgz:31714.got - 2010.06.03 11:52:47.
