data_PCOD9402596
_publ_section_title
;
Structure prediction by ZEFSAII (Michael W. Deem and Ramdas Pophale) SiO2 
 PCOD9402596
Probable space group: P M M A
;
_chemical_formula_sum "Si O2"
_cell_formula_units_Z 64
_cell_length_a 8.968763
_cell_length_b 20.434720
_cell_length_c 20.423186
_cell_angle_alpha 90.000000
_cell_angle_beta 90.000000
_cell_angle_gamma 90.000000
_cell_volume 3743.042272
_symmetry_space_group_name_H-M "P M M A"
_symmetry_group_IT_number 51
_symmetry_cell_setting 'orthorhombic'
loop_
_space_group_symop_operation_xyz
x,y,z
1/2-x,-y,z
1/2+x,-y,-z
-x,y,-z
-x,-y,-z
1/2+x,y,-z
1/2-x,y,z
x,-y,z
loop_
_atom_site_type_symbol
_atom_site_label
_atom_site_fract_x
_atom_site_fract_y
_atom_site_fract_z
Si Si1 0.929470 0.076234 0.430428
Si Si2 0.927697 0.294285 0.433426
Si Si3 0.570985 0.185539 0.328490
Si Si4 0.425079 0.755490 0.207460
Si Si5 0.926934 0.427473 0.106670
Si Si6 0.576432 0.396632 0.761026
Si Si7 0.927664 0.572791 0.609842
Si Si8 0.929042 0.708295 0.933131
O O1 0.750000 0.081550 0.436069
O O2 0.977227 0.122472 0.370550
O O3 0.000000 0.095933 0.500000
O O4 0.967207 0.000000 0.419025
O O5 0.750000 0.293253 0.438965
O O6 0.971913 0.248275 0.372843
O O7 0.000000 0.268576 0.500000
O O8 0.984851 0.367726 0.422084
O O9 0.750000 0.184366 0.324016
O O10 0.506337 0.195488 0.256343
O O11 0.250000 0.770783 0.206896
O O12 0.441565 0.681834 0.236162
O O13 0.476021 0.748046 0.132092
O O14 0.750000 0.417928 0.097993
O O15 0.967326 0.500000 0.081825
O O16 0.969854 0.425078 0.183539
O O17 0.014915 0.366451 0.076386
O O18 0.750000 0.410983 0.778151
O O19 0.549037 0.421869 0.688214
O O20 0.750000 0.581075 0.598493
O O21 0.971541 0.500000 0.587916
O O22 0.750000 0.708202 0.936000
O O23 0.000000 0.733774 0.000000
#
# Coordination Sequence:
#
# PCOD9402596 Si02
#       8
#     8   8   8   8   8   8   8   8
#     4   9  18  33  52  77 111 147 180 211 245 290
#     4  11  23  36  50  69  93 122 160 205 252 302
#     4  10  20  33  52  78 103 132 169 207 247 289
#     4   9  18  32  52  75  98 125 160 201 245 294
#     4  10  20  31  45  67  93 122 157 198 247 304
#     4   9  17  31  49  68  90 118 154 198 251 304
#     4  10  20  34  51  67  86 116 155 202 257 310
#     4  10  21  36  52  71  95 127 163 201 252 306
#
# _framework density 17.098389999999998
#
# number of rings (size 3 to 8) (size 9 to 14) (size 15 to 20)
#    0.000    2.250    1.250    2.625    0.000    6.250 
#    0.000    0.000    0.000    0.000    0.000    0.000 
#    0.000    0.500    0.000    1.125    0.000    1.750 
#
# Total GULP energy -357140.985304 kJ/mol
# GULP energy per Si atom -5580.327895 kJ/mol
# Density = 1.705947 g / cm^3
# Si number density = 17.098390 Si / 1000 Ang^3
#
#
#
# Elastic Constant Matrix: (Units=GPa)
#
#
# Indices 1 2 3 4 5 6 
#
# 1 26.8460 24.7594 37.8820 0.0000 0.0000 0.0000
# 2 24.7594 69.6719 48.8920 0.0000 0.0000 0.0000
# 3 37.8820 48.8920 123.7410 0.0000 0.0000 0.0000
# 4 0.0000 0.0000 0.0000 13.6257 0.0000 0.0000
# 5 0.0000 0.0000 0.0000 0.0000 30.3277 0.0000
# 6 0.0000 0.0000 0.0000 0.0000 0.0000 15.0083
#
#
#
# Elastic Compliance Matrix: (Units=1/GPa)
#
#
# Indices 1 2 3 4 5 6 
#
# 1 0.074936 -0.014572 -0.017183 0.000000 0.000000 0.000000
# 2 -0.014572 0.022693 -0.004505 0.000000 0.000000 0.000000
# 3 -0.017183 -0.004505 0.015122 0.000000 0.000000 0.000000
# 4 0.000000 0.000000 0.000000 0.073391 0.000000 0.000000
# 5 0.000000 0.000000 0.000000 0.000000 0.032973 0.000000
# 6 0.000000 0.000000 0.000000 0.000000 0.000000 0.066630
#
#
# Mechanical properties :
#
#
# Convention : Reuss Voigt Hill
#
# Bulk Modulus (GPa) = 24.85704 49.25841 37.05772
# Shear Modulus (GPa) = 13.45259 19.04070 16.24665
#
# Velocity S-wave (km/s) = 2.80799 3.34068 3.08585
# Velocity P-wave (km/s) = 5.00823 6.61449 5.86659
#
# Compressibility (1/GPa) = 0.04023006
#
# Stress axis : x y z
#
# Youngs Moduli (GPa) = 13.34475 44.06646 66.12880
#
# Poissons Ratio (x) = 0.64213 1.13631
# Poissons Ratio (y) = 0.19446 0.29794
# Poissons Ratio (z) = 0.22931 0.19854
#
# Static dielectric constant tensor:
#      x y z
#    x 1.572840 0.000000 0.000000 
#    y 0.000000 1.575640 0.000000 
#    z 0.000000 0.000000 1.600920 
# 
# From -- ./inp_files/32645.got.cif
#   From: 2010.05.17/outbox.cif.g08.bks.cpg/sg51_17_cif.got.tgz:32645.got - 2010.06.03 11:52:47.
