data_PCOD9402506
_publ_section_title
;
Structure prediction by ZEFSAII (Michael W. Deem and Ramdas Pophale) SiO2 
 PCOD9402506
Probable space group: P M M A
;
_chemical_formula_sum "Si O2"
_cell_formula_units_Z 48
_cell_length_a 19.664805
_cell_length_b 8.602778
_cell_length_c 15.528514
_cell_angle_alpha 90.000000
_cell_angle_beta 90.000000
_cell_angle_gamma 90.000000
_cell_volume 2626.989022
_symmetry_space_group_name_H-M "P M M A"
_symmetry_group_IT_number 51
_symmetry_cell_setting 'orthorhombic'
loop_
_space_group_symop_operation_xyz
x,y,z
1/2-x,-y,z
1/2+x,-y,-z
-x,y,-z
-x,-y,-z
1/2+x,y,-z
1/2-x,y,z
x,-y,z
loop_
_atom_site_type_symbol
_atom_site_label
_atom_site_fract_x
_atom_site_fract_y
_atom_site_fract_z
Si Si1 0.328428 0.687872 0.377697
Si Si2 0.828936 0.186101 0.433838
Si Si3 0.410284 0.686448 0.727457
Si Si4 0.064297 0.310475 0.234278
Si Si5 0.925536 0.687819 0.963013
Si Si6 0.671361 0.186221 0.108702
O O1 0.250000 0.732714 0.360041
O O2 0.330974 0.500000 0.381937
O O3 0.347404 0.753707 0.471190
O O4 0.379448 0.740525 0.303021
O O5 0.750000 0.232904 0.417814
O O6 0.876731 0.253567 0.360104
O O7 0.831955 0.000000 0.432149
O O8 0.409560 0.500000 0.727879
O O9 0.488440 0.738466 0.738898
O O10 0.366919 0.745904 0.808350
O O11 0.064623 0.500000 0.233987
O O12 0.079236 0.262037 0.136335
O O13 0.920465 0.500000 0.966522
O O14 0.868358 0.758339 0.024081
O O15 0.000000 0.729465 0.000000
O O16 0.750000 0.236453 0.107565
O O17 0.669470 0.000000 0.113783
#
# Coordination Sequence:
#
# PCOD9402506 Si02
#       6
#     8   8   8   8   8   8
#     4   9  18  35  58  81 106 142 187 228 272 330
#     4  10  21  37  55  78 112 148 182 228 281 330
#     4  11  21  36  58  83 112 146 186 231 280 335
#     4   9  19  35  57  85 113 141 180 234 282 324
#     4  10  19  37  61  84 112 147 189 233 280 335
#     4  11  24  39  55  82 118 151 188 234 281 334
#
# _framework density 18.271871000000001
#
# number of rings (size 3 to 8) (size 9 to 14) (size 15 to 20)
#    0.000    2.000    1.667    2.000    0.000    6.000 
#    0.000    7.500    0.000    2.000    0.000    0.000 
#    0.000    0.000    0.000    0.000    0.000    0.000 
#
# Total GULP energy -268068.273184 kJ/mol
# GULP energy per Si atom -5584.755691 kJ/mol
# Density = 1.823028 g / cm^3
# Si number density = 18.271871 Si / 1000 Ang^3
#
#
#
# Elastic Constant Matrix: (Units=GPa)
#
#
# Indices 1 2 3 4 5 6 
#
# 1 155.4504 35.2095 130.7108 0.0000 0.0000 0.0000
# 2 35.2095 24.1304 37.9177 0.0000 0.0000 0.0000
# 3 130.7108 37.9177 207.8664 0.0000 0.0000 0.0000
# 4 0.0000 0.0000 0.0000 -13.4327 0.0000 0.0000
# 5 0.0000 0.0000 0.0000 0.0000 40.2179 0.0000
# 6 0.0000 0.0000 0.0000 0.0000 0.0000 16.2635
#
#
#
# Elastic Compliance Matrix: (Units=1/GPa)
#
#
# Indices 1 2 3 4 5 6 
#
# 1 0.015209 -0.010042 -0.007732 0.000000 0.000000 0.000000
# 2 -0.010042 0.064724 -0.005492 0.000000 0.000000 0.000000
# 3 -0.007732 -0.005492 0.010674 0.000000 0.000000 0.000000
# 4 0.000000 0.000000 0.000000 -0.074445 0.000000 0.000000
# 5 0.000000 0.000000 0.000000 0.000000 0.024865 0.000000
# 6 0.000000 0.000000 0.000000 0.000000 0.000000 0.061487
#
#
# Mechanical properties :
#
#
# Convention : Reuss Voigt Hill
#
# Bulk Modulus (GPa) = 22.68824 88.34703 55.51764
# Shear Modulus (GPa) = 30.53680 20.85037 25.69359
#
# Velocity S-wave (km/s) = 4.09252 3.38171 3.75398
# Velocity P-wave (km/s) = 5.89709 7.98150 7.01712
#
# Compressibility (1/GPa) = 0.04407569
#
# Stress axis : x y z
#
# Youngs Moduli (GPa) = 65.75178 15.45023 93.68171
#
# Poissons Ratio (x) = 0.15515 0.72432
# Poissons Ratio (y) = 0.66029 0.51448
# Poissons Ratio (z) = 0.50838 0.08485
#
# Static dielectric constant tensor:
#      x y z
#    x 1.615770 0.000000 0.000000 
#    y 0.000000 1.617430 0.000000 
#    z 0.000000 0.000000 1.595130 
# 
# From -- ./inp_files/24671.got.cif
#   From: 2010.05.17/outbox.cif.g08.bks.cpg/sg51_13_cif.got.tgz:24671.got - 2010.06.03 11:52:47.
