data_PCOD9402058
_publ_section_title
;
Structure prediction by ZEFSAII (Michael W. Deem and Ramdas Pophale) SiO2 
 PCOD9402058
Probable space group: P M M A
;
_chemical_formula_sum "Si O2"
_cell_formula_units_Z 44
_cell_length_a 8.384749
_cell_length_b 29.484237
_cell_length_c 9.352571
_cell_angle_alpha 90.000000
_cell_angle_beta 90.000000
_cell_angle_gamma 90.000000
_cell_volume 2312.123212
_symmetry_space_group_name_H-M "P M M A"
_symmetry_group_IT_number 51
_symmetry_cell_setting 'orthorhombic'
loop_
_space_group_symop_operation_xyz
x,y,z
1/2-x,-y,z
1/2+x,-y,-z
-x,y,-z
-x,-y,-z
1/2+x,y,-z
1/2-x,y,z
x,-y,z
loop_
_atom_site_type_symbol
_atom_site_label
_atom_site_fract_x
_atom_site_fract_y
_atom_site_fract_z
Si Si1 0.059192 0.685597 0.662096
Si Si2 0.557277 0.051048 0.161379
Si Si3 0.942815 0.862277 0.338332
Si Si4 0.058396 0.400884 0.164050
Si Si5 0.442189 0.500000 0.163814
Si Si6 0.942814 0.773873 0.162483
O O1 0.250000 0.686571 0.661345
O O2 0.001828 0.729378 0.751556
O O3 0.000000 0.687483 0.500000
O O4 0.004055 0.639954 0.740473
O O5 0.750000 0.051364 0.161112
O O6 0.501632 0.090773 0.266085
O O7 0.504501 0.000000 0.201463
O O8 0.500000 0.059921 0.000000
O O9 0.750000 0.862393 0.337789
O O10 0.996295 0.819379 0.243895
O O11 0.000000 0.858069 0.500000
O O12 0.250000 0.399708 0.162802
O O13 0.005390 0.450820 0.220993
O O14 0.000000 0.396079 0.000000
O O15 0.250000 0.500000 0.166795
O O16 0.500000 0.500000 0.000000
O O17 0.750000 0.773719 0.162310
O O18 0.000000 0.773066 0.000000
#
# Coordination Sequence:
#
# PCOD9402058 Si02
#       6
#     8   8   8   8   4   8
#     4  11  23  38  55  78 107 140 177 218 266 317
#     4   9  18  33  53  77 105 137 176 220 262 307
#     4  10  21  36  53  77 108 140 174 214 261 312
#     4  10  19  34  56  82 110 141 178 219 262 311
#     4   8  16  30  51  78 107 138 174 216 260 306
#     4  10  22  38  57  80 105 135 174 217 261 312
#
# _framework density 19.030128999999999
#
# number of rings (size 3 to 8) (size 9 to 14) (size 15 to 20)
#    0.000    2.182    0.000    2.727    0.000    5.455 
#    0.000    0.455    0.000    0.000    0.000    0.000 
#    0.000    0.000    0.000    0.000    0.000    0.000 
#
# Total GULP energy -245596.602894 kJ/mol
# GULP energy per Si atom -5581.740975 kJ/mol
# Density = 1.898682 g / cm^3
# Si number density = 19.030129 Si / 1000 Ang^3
#
#
#
# Elastic Constant Matrix: (Units=GPa)
#
#
# Indices 1 2 3 4 5 6 
#
# 1 17.8924 29.8345 19.7048 0.0000 0.0000 0.0000
# 2 29.8345 211.1926 125.9605 0.0000 0.0000 0.0000
# 3 19.7048 125.9605 157.1365 0.0000 0.0000 0.0000
# 4 0.0000 0.0000 0.0000 -3.2410 0.0000 0.0000
# 5 0.0000 0.0000 0.0000 0.0000 34.9774 0.0000
# 6 0.0000 0.0000 0.0000 0.0000 0.0000 475.4747
#
#
#
# Elastic Compliance Matrix: (Units=1/GPa)
#
#
# Indices 1 2 3 4 5 6 
#
# 1 0.073350 -0.009343 -0.001709 0.000000 0.000000 0.000000
# 2 -0.009343 0.010263 -0.007055 0.000000 0.000000 0.000000
# 3 -0.001709 -0.007055 0.012233 0.000000 0.000000 0.000000
# 4 0.000000 0.000000 0.000000 -0.308547 0.000000 0.000000
# 5 0.000000 0.000000 0.000000 0.000000 0.028590 0.000000
# 6 0.000000 0.000000 0.000000 0.000000 0.000000 0.002103
#
#
# Mechanical properties :
#
#
# Convention : Reuss Voigt Hill
#
# Bulk Modulus (GPa) = 16.76930 81.91347 49.34138
# Shear Modulus (GPa) = -39.70841 115.49034 37.89097
#
# Velocity S-wave (km/s) = -4.57290 7.79871 4.46702
# Velocity P-wave (km/s) = 4.36471 11.14588 7.25190
#
# Compressibility (1/GPa) = 0.05963279
#
# Stress axis : x y z
#
# Youngs Moduli (GPa) = 13.63330 97.44200 81.74360
#
# Poissons Ratio (x) = 0.91036 0.13970
# Poissons Ratio (y) = 0.12737 0.57669
# Poissons Ratio (z) = 0.02330 0.68744
#
# Static dielectric constant tensor:
#      x y z
#    x 1.662050 0.000000 0.000000 
#    y 0.000000 1.694640 0.000000 
#    z 0.000000 0.000000 1.598120 
# 
# From -- ./inp_files/5764.got.cif
#   From: 2010.05.17/outbox.cif.g08.bks.cpg/sg51_3_cif.got.tgz:5764.got - 2010.06.03 11:52:47.
