data_PCOD9402324
_publ_section_title
;
Structure prediction by ZEFSAII (Michael W. Deem and Ramdas Pophale) SiO2 
 PCOD9402324
Probable space group: P M M A
;
_chemical_formula_sum "Si O2"
_cell_formula_units_Z 28
_cell_length_a 16.763465
_cell_length_b 16.902569
_cell_length_c 5.077627
_cell_angle_alpha 90.000000
_cell_angle_beta 90.000000
_cell_angle_gamma 90.000000
_cell_volume 1438.723390
_symmetry_space_group_name_H-M "P M M A"
_symmetry_group_IT_number 51
_symmetry_cell_setting 'orthorhombic'
loop_
_space_group_symop_operation_xyz
x,y,z
1/2-x,-y,z
1/2+x,-y,-z
-x,y,-z
-x,-y,-z
1/2+x,y,-z
1/2-x,y,z
x,-y,z
loop_
_atom_site_type_symbol
_atom_site_label
_atom_site_fract_x
_atom_site_fract_y
_atom_site_fract_z
Si Si1 0.587929 0.093040 0.612726
Si Si2 0.941551 0.327075 0.249960
Si Si3 0.657489 0.173681 0.126797
Si Si4 0.941984 0.500000 0.250730
O O1 0.500000 0.111930 0.500000
O O2 0.609488 0.141734 0.873440
O O3 0.590743 0.000000 0.675903
O O4 0.646137 0.114548 0.372553
O O5 0.900698 0.414291 0.256145
O O6 0.000000 0.318034 0.500000
O O7 0.879226 0.256597 0.222936
O O8 0.000000 0.324354 0.000000
O O9 0.750000 0.180842 0.056320
O O10 0.000000 0.500000 0.500000
O O11 0.000000 0.500000 0.000000
#
# Coordination Sequence:
#
# PCOD9402324 Si02
#       4
#     8   8   8   4
#     4  11  24  42  62  82 108 148 196 239 282 339
#     4  10  19  35  58  81 110 147 189 229 271 327
#     4  12  24  37  57  87 119 149 184 232 292 346
#     4   8  16  30  53  82 105 138 187 232 267 314
#
# _framework density 19.461694999999999
#
# number of rings (size 3 to 8) (size 9 to 14) (size 15 to 20)
#    0.000    1.429    0.000    6.857    0.000    5.714 
#    0.000    0.714    0.000    0.000    0.000   16.000 
#    0.000    0.000    0.000    0.000    0.000    0.000 
#
# Total GULP energy -156399.855712 kJ/mol
# GULP energy per Si atom -5585.709133 kJ/mol
# Density = 1.941740 g / cm^3
# Si number density = 19.461695 Si / 1000 Ang^3
#
#
#
# Elastic Constant Matrix: (Units=GPa)
#
#
# Indices 1 2 3 4 5 6 
#
# 1 79.6200 61.0746 22.9568 0.0000 0.0000 0.0000
# 2 61.0746 144.7778 38.3819 0.0000 0.0000 0.0000
# 3 22.9568 38.3819 142.6681 0.0000 0.0000 0.0000
# 4 0.0000 0.0000 0.0000 29.9866 0.0000 0.0000
# 5 0.0000 0.0000 0.0000 0.0000 19.4440 0.0000
# 6 0.0000 0.0000 0.0000 0.0000 0.0000 -0.3291
#
#
#
# Elastic Compliance Matrix: (Units=1/GPa)
#
#
# Indices 1 2 3 4 5 6 
#
# 1 0.018688 -0.007631 -0.000954 0.000000 0.000000 0.000000
# 2 -0.007631 0.010553 -0.001611 0.000000 0.000000 0.000000
# 3 -0.000954 -0.001611 0.007596 0.000000 0.000000 0.000000
# 4 0.000000 0.000000 0.000000 0.033348 0.000000 0.000000
# 5 0.000000 0.000000 0.000000 0.000000 0.051430 0.000000
# 6 0.000000 0.000000 0.000000 0.000000 0.000000 -3.038872
#
#
# Mechanical properties :
#
#
# Convention : Reuss Voigt Hill
#
# Bulk Modulus (GPa) = 60.80742 67.98806 64.39774
# Shear Modulus (GPa) = -1.72928 26.13047 12.20060
#
# Velocity S-wave (km/s) = -0.94365 3.66821 2.50652
# Velocity P-wave (km/s) = 5.48864 7.27675 6.44501
#
# Compressibility (1/GPa) = 0.01644536
#
# Stress axis : x y z
#
# Youngs Moduli (GPa) = 53.51014 94.75731 131.64279
#
# Poissons Ratio (x) = 0.72305 0.12562
# Poissons Ratio (y) = 0.40831 0.21212
# Poissons Ratio (z) = 0.05106 0.15268
#
# Static dielectric constant tensor:
#      x y z
#    x 1.648300 0.000000 0.000000 
#    y 0.000000 1.744040 0.000000 
#    z 0.000000 0.000000 1.637980 
# 
# From -- ./inp_files/1747.got.cif
#   From: 2010.05.17/outbox.cif.g08.bks.cpg/sg51_1_cif.got.tgz:1747.got - 2010.06.03 11:52:47.
