data_PCOD9402482
_publ_section_title
;
Structure prediction by ZEFSAII (Michael W. Deem and Ramdas Pophale) SiO2 
 PCOD9402482
Probable space group: P M M A
;
_chemical_formula_sum "Si O2"
_cell_formula_units_Z 48
_cell_length_a 31.710881
_cell_length_b 8.579683
_cell_length_c 9.163619
_cell_angle_alpha 90.000000
_cell_angle_beta 90.000000
_cell_angle_gamma 90.000000
_cell_volume 2493.139468
_symmetry_space_group_name_H-M "P M M A"
_symmetry_group_IT_number 51
_symmetry_cell_setting 'orthorhombic'
loop_
_space_group_symop_operation_xyz
x,y,z
1/2-x,-y,z
1/2+x,-y,-z
-x,y,-z
-x,-y,-z
1/2+x,y,-z
1/2-x,y,z
x,-y,z
loop_
_atom_site_type_symbol
_atom_site_label
_atom_site_fract_x
_atom_site_fract_y
_atom_site_fract_z
Si Si1 0.832275 0.187245 0.670994
Si Si2 0.834117 0.189832 0.333882
Si Si3 0.582395 0.188661 0.159315
Si Si4 0.497080 0.811740 0.329970
Si Si5 0.414779 0.314879 0.168610
Si Si6 0.750000 0.685541 0.834158
Si Si7 0.250000 0.188935 0.837284
O O1 0.833789 0.239727 0.502200
O O2 0.874294 0.239577 0.753871
O O3 0.791375 0.253879 0.751118
O O4 0.829778 0.000000 0.673095
O O5 0.876228 0.239126 0.249083
O O6 0.791993 0.239007 0.249009
O O7 0.834277 0.000000 0.334702
O O8 0.539952 0.231344 0.245917
O O9 0.583356 0.000000 0.148261
O O10 0.582623 0.257586 0.997921
O O11 0.500000 0.768190 0.500000
O O12 0.456790 0.737586 0.252955
O O13 0.492759 0.000000 0.322805
O O14 0.410717 0.500000 0.172424
O O15 0.750000 0.500000 0.836338
O O16 0.750000 0.748703 0.999024
O O17 0.250000 0.000000 0.842550
#
# Coordination Sequence:
#
# PCOD9402482 Si02
#       7
#     8   8   8   8   8   4   4
#     4  11  22  41  66  89 115 154 201 245 291 347
#     4   9  19  36  62  91 114 144 197 254 294 338
#     4  10  20  37  61  87 116 154 200 247 293 347
#     4  10  21  39  63  88 114 152 203 251 294 349
#     4  12  25  39  57  87 124 158 193 240 298 355
#     4  12  25  40  58  90 128 158 193 238 292 350
#     4  10  19  36  62  90 118 154 197 238 288 350
#
# _framework density 19.252835000000001
#
# number of rings (size 3 to 8) (size 9 to 14) (size 15 to 20)
#    0.000    1.500    0.000    5.750    0.000    8.333 
#    0.000    5.833    0.000    0.000    0.000    0.000 
#    0.000    0.000    0.000    0.000    0.000    0.000 
#
# Total GULP energy -268459.669588 kJ/mol
# GULP energy per Si atom -5592.909783 kJ/mol
# Density = 1.920901 g / cm^3
# Si number density = 19.252835 Si / 1000 Ang^3
#
#
#
# Elastic Constant Matrix: (Units=GPa)
#
#
# Indices 1 2 3 4 5 6 
#
# 1 189.7091 49.7937 109.2250 0.0000 0.0000 0.0000
# 2 49.7937 49.6476 49.6823 0.0000 0.0000 0.0000
# 3 109.2250 49.6823 212.0440 0.0000 0.0000 0.0000
# 4 0.0000 0.0000 0.0000 -25.0167 0.0000 0.0000
# 5 0.0000 0.0000 0.0000 0.0000 44.5327 0.0000
# 6 0.0000 0.0000 0.0000 0.0000 0.0000 8.0108
#
#
#
# Elastic Compliance Matrix: (Units=1/GPa)
#
#
# Indices 1 2 3 4 5 6 
#
# 1 0.008472 -0.005395 -0.003100 0.000000 0.000000 0.000000
# 2 -0.005395 0.029746 -0.004191 0.000000 0.000000 0.000000
# 3 -0.003100 -0.004191 0.007295 0.000000 0.000000 0.000000
# 4 0.000000 0.000000 0.000000 -0.039973 0.000000 0.000000
# 5 0.000000 0.000000 0.000000 0.000000 0.022455 0.000000
# 6 0.000000 0.000000 0.000000 0.000000 0.000000 0.124832
#
#
# Mechanical properties :
#
#
# Convention : Reuss Voigt Hill
#
# Bulk Modulus (GPa) = 49.64742 96.53361 73.09051
# Shear Modulus (GPa) = 27.03988 21.68533 24.36260
#
# Velocity S-wave (km/s) = 3.75168 3.35975 3.56111
# Velocity P-wave (km/s) = 6.67906 8.08080 7.41314
#
# Compressibility (1/GPa) = 0.02014203
#
# Stress axis : x y z
#
# Youngs Moduli (GPa) = 118.03530 33.61762 137.08572
#
# Poissons Ratio (x) = 0.18136 0.42496
# Poissons Ratio (y) = 0.63678 0.57449
# Poissons Ratio (z) = 0.36591 0.14088
#
# Static dielectric constant tensor:
#      x y z
#    x 1.634810 0.000000 0.000000 
#    y 0.000000 1.646810 0.000000 
#    z 0.000000 0.000000 1.634280 
# 
# From -- ./inp_files/12966.got.cif
#   From: 2010.05.17/outbox.cif.g08.bks.cpg/sg51_7_cif.got.tgz:12966.got - 2010.06.03 11:52:47.
