data_PCOD9402156
_publ_section_title
;
Structure prediction by ZEFSAII (Michael W. Deem and Ramdas Pophale) SiO2 
 PCOD9402156
Probable space group: P M M A
;
_chemical_formula_sum "Si O2"
_cell_formula_units_Z 64
_cell_length_a 14.982414
_cell_length_b 8.798073
_cell_length_c 26.842266
_cell_angle_alpha 90.000000
_cell_angle_beta 90.000000
_cell_angle_gamma 90.000000
_cell_volume 3538.250123
_symmetry_space_group_name_H-M "P M M A"
_symmetry_group_IT_number 51
_symmetry_cell_setting 'orthorhombic'
loop_
_space_group_symop_operation_xyz
x,y,z
1/2-x,-y,z
1/2+x,-y,-z
-x,y,-z
-x,-y,-z
1/2+x,y,-z
1/2-x,y,z
x,-y,z
loop_
_atom_site_type_symbol
_atom_site_label
_atom_site_fract_x
_atom_site_fract_y
_atom_site_fract_z
Si Si1 0.994955 0.816619 0.557417
Si Si2 0.354027 0.816377 0.636035
Si Si3 0.893074 0.674725 0.999980
Si Si4 0.646378 0.683431 0.632234
Si Si5 0.347894 0.182625 0.105050
Si Si6 0.146667 0.323357 0.889353
Si Si7 0.002488 0.181404 0.820722
Si Si8 0.495683 0.682103 0.711079
O O1 0.909258 0.748424 0.585613
O O2 0.000000 0.768663 0.500000
O O3 0.084803 0.774509 0.588104
O O4 0.987983 0.000000 0.558968
O O5 0.250000 0.768311 0.633407
O O6 0.409516 0.748833 0.682334
O O7 0.354673 0.000000 0.639708
O O8 0.861778 0.500000 0.996479
O O9 0.863459 0.734672 0.053866
O O10 0.861867 0.761543 0.951172
O O11 0.000000 0.675938 0.000000
O O12 0.750000 0.733577 0.634761
O O13 0.646508 0.500000 0.629368
O O14 0.584740 0.726308 0.679792
O O15 0.250000 0.230614 0.122231
O O16 0.423080 0.237039 0.143016
O O17 0.352086 0.000000 0.104394
O O18 0.250000 0.323072 0.876178
O O19 0.114675 0.500000 0.889399
O O20 0.090947 0.227277 0.850482
O O21 0.999441 0.256682 0.766848
O O22 0.996400 0.000000 0.815242
O O23 0.489716 0.500000 0.710962
#
# Coordination Sequence:
#
# PCOD9402156 Si02
#       8
#     8   8   8   8   8   8   8   8
#     4   9  18  32  52  82 117 149 183 222 263 309
#     4   9  18  34  55  78 107 144 183 221 263 312
#     4  10  19  34  58  82 106 136 172 213 257 308
#     4   9  19  36  56  79 108 143 183 224 267 317
#     4  10  22  38  55  78 108 140 173 210 256 313
#     4  10  21  37  56  79 107 138 173 213 258 311
#     4  11  23  38  56  78 106 137 173 217 266 318
#     4  10  21  37  57  78 103 135 175 224 273 318
#
# _framework density 18.088035999999999
#
# number of rings (size 3 to 8) (size 9 to 14) (size 15 to 20)
#    0.000    2.250    1.250    1.125    0.000    5.000 
#    0.000    1.250    0.000    0.000    0.000    0.000 
#    0.000    0.000    0.000    0.000    0.000    0.000 
#
# Total GULP energy -357032.438077 kJ/mol
# GULP energy per Si atom -5578.631845 kJ/mol
# Density = 1.804687 g / cm^3
# Si number density = 18.088036 Si / 1000 Ang^3
#
#
#
# Elastic Constant Matrix: (Units=GPa)
#
#
# Indices 1 2 3 4 5 6 
#
# 1 150.4379 29.6224 73.4028 0.0000 0.0000 0.0000
# 2 29.6224 16.4957 30.6495 0.0000 0.0000 0.0000
# 3 73.4028 30.6495 158.7430 0.0000 0.0000 0.0000
# 4 0.0000 0.0000 0.0000 22.1382 0.0000 0.0000
# 5 0.0000 0.0000 0.0000 0.0000 31.6875 0.0000
# 6 0.0000 0.0000 0.0000 0.0000 0.0000 23.6356
#
#
#
# Elastic Compliance Matrix: (Units=1/GPa)
#
#
# Indices 1 2 3 4 5 6 
#
# 1 0.010646 -0.015550 -0.001921 0.000000 0.000000 0.000000
# 2 -0.015550 0.117248 -0.015448 0.000000 0.000000 0.000000
# 3 -0.001921 -0.015448 0.010170 0.000000 0.000000 0.000000
# 4 0.000000 0.000000 0.000000 0.045171 0.000000 0.000000
# 5 0.000000 0.000000 0.000000 0.000000 0.031558 0.000000
# 6 0.000000 0.000000 0.000000 0.000000 0.000000 0.042309
#
#
# Mechanical properties :
#
#
# Convention : Reuss Voigt Hill
#
# Bulk Modulus (GPa) = 13.84495 65.89176 39.86836
# Shear Modulus (GPa) = 14.40865 28.29238 21.35051
#
# Velocity S-wave (km/s) = 2.82544 3.95922 3.43937
# Velocity P-wave (km/s) = 4.27960 7.57681 6.15317
#
# Compressibility (1/GPa) = 0.07222849
#
# Stress axis : x y z
#
# Youngs Moduli (GPa) = 93.93023 8.52895 98.32749
#
# Poissons Ratio (x) = 0.13262 0.18884
# Poissons Ratio (y) = 1.46059 1.51892
# Poissons Ratio (z) = 0.18040 0.13175
#
# Static dielectric constant tensor:
#      x y z
#    x 1.626500 0.000000 0.000000 
#    y 0.000000 1.620880 0.000000 
#    z 0.000000 0.000000 1.595470 
# 
# From -- ./inp_files/35832.got.cif
#   From: 2010.05.17/outbox.cif.g08.bks.cpg/sg51_18_cif.got.tgz:35832.got - 2010.06.03 11:52:47.
