data_PCOD9402632
_publ_section_title
;
Structure prediction by ZEFSAII (Michael W. Deem and Ramdas Pophale) SiO2 
 PCOD9402632
Probable space group: P M M A
;
_chemical_formula_sum "Si O2"
_cell_formula_units_Z 48
_cell_length_a 29.405144
_cell_length_b 7.446471
_cell_length_c 10.410720
_cell_angle_alpha 90.000000
_cell_angle_beta 90.000000
_cell_angle_gamma 90.000000
_cell_volume 2279.578641
_symmetry_space_group_name_H-M "P M M A"
_symmetry_group_IT_number 51
_symmetry_cell_setting 'orthorhombic'
loop_
_space_group_symop_operation_xyz
x,y,z
1/2-x,-y,z
1/2+x,-y,-z
-x,y,-z
-x,-y,-z
1/2+x,y,-z
1/2-x,y,z
x,-y,z
loop_
_atom_site_type_symbol
_atom_site_label
_atom_site_fract_x
_atom_site_fract_y
_atom_site_fract_z
Si Si1 0.121191 0.716035 0.781898
Si Si2 0.517623 0.214595 0.136108
Si Si3 0.697405 0.281232 0.728214
Si Si4 0.965829 0.782450 0.612888
Si Si5 0.302649 0.719101 0.982748
Si Si6 0.867643 0.291880 0.507922
O O1 0.124337 0.500000 0.777640
O O2 0.070698 0.755070 0.834096
O O3 0.160931 0.780094 0.877431
O O4 0.127572 0.784684 0.635856
O O5 0.486733 0.282026 0.253338
O O6 0.511505 0.000000 0.134115
O O7 0.500000 0.285565 0.000000
O O8 0.750000 0.233617 0.711385
O O9 0.694486 0.500000 0.728655
O O10 0.667741 0.212779 0.609884
O O11 0.683767 0.224718 0.872462
O O12 0.916253 0.715696 0.576933
O O13 0.000000 0.728815 0.500000
O O14 0.963910 0.000000 0.614481
O O15 0.250000 0.773256 0.959384
O O16 0.302632 0.500000 0.981323
O O17 0.854329 0.500000 0.490073
#
# Coordination Sequence:
#
# PCOD9402632 Si02
#       6
#     8   8   8   8   8   8
#     4  10  20  32  49  77 105 128 162 206 248 287
#     4  10  22  38  53  71  97 131 169 205 244 296
#     4   8  15  29  48  71 100 132 164 198 241 293
#     4  10  20  36  54  70  95 134 169 197 241 298
#     4   8  15  29  48  70  99 133 164 197 242 294
#     4  10  20  31  49  78 104 128 162 206 247 284
#
# _framework density 21.056522999999999
#
# number of rings (size 3 to 8) (size 9 to 14) (size 15 to 20)
#    0.000    2.667    1.667    1.000    2.333    2.000 
#    0.000    3.333    0.000    1.000    0.000    4.667 
#    0.000    0.000    0.000    0.000    0.000    0.000 
#
# Total GULP energy -267937.261440 kJ/mol
# GULP energy per Si atom -5582.026280 kJ/mol
# Density = 2.100860 g / cm^3
# Si number density = 21.056523 Si / 1000 Ang^3
#
#
#
# Elastic Constant Matrix: (Units=GPa)
#
#
# Indices 1 2 3 4 5 6 
#
# 1 122.3299 -7.0754 128.9283 0.0000 0.0000 0.0000
# 2 -7.0754 62.9707 9.8512 0.0000 0.0000 0.0000
# 3 128.9283 9.8512 248.2018 0.0000 0.0000 0.0000
# 4 0.0000 0.0000 0.0000 -12.7072 0.0000 0.0000
# 5 0.0000 0.0000 0.0000 0.0000 48.1862 0.0000
# 6 0.0000 0.0000 0.0000 0.0000 0.0000 42.4575
#
#
#
# Elastic Compliance Matrix: (Units=1/GPa)
#
#
# Indices 1 2 3 4 5 6 
#
# 1 0.018874 0.003677 -0.009950 0.000000 0.000000 0.000000
# 2 0.003677 0.016696 -0.002573 0.000000 0.000000 0.000000
# 3 -0.009950 -0.002573 0.009300 0.000000 0.000000 0.000000
# 4 0.000000 0.000000 0.000000 -0.078695 0.000000 0.000000
# 5 0.000000 0.000000 0.000000 0.000000 0.020753 0.000000
# 6 0.000000 0.000000 0.000000 0.000000 0.000000 0.023553
#
#
# Mechanical properties :
#
#
# Convention : Reuss Voigt Hill
#
# Bulk Modulus (GPa) = 36.79374 77.43452 57.11413
# Shear Modulus (GPa) = 134.29698 35.70719 85.00208
#
# Velocity S-wave (km/s) = 7.99486 4.12245 6.36052
# Velocity P-wave (km/s) = 10.13585 7.71452 9.00692
#
# Compressibility (1/GPa) = 0.02717854
#
# Stress axis : x y z
#
# Youngs Moduli (GPa) = 52.98273 59.89436 107.53086
#
# Poissons Ratio (x) = -0.22025 1.06994
# Poissons Ratio (y) = -0.19483 0.27666
# Poissons Ratio (z) = 0.52718 0.15410
#
# Static dielectric constant tensor:
#      x y z
#    x 1.913410 0.000000 0.000000 
#    y 0.000000 1.810550 0.000000 
#    z 0.000000 0.000000 1.762480 
# 
# From -- ./inp_files/12304.got.cif
#   From: 2010.05.17/outbox.cif.g08.bks.cpg/sg51_7_cif.got.tgz:12304.got - 2010.06.03 11:52:47.
