data_PCOD9402577
_publ_section_title
;
Structure prediction by ZEFSAII (Michael W. Deem and Ramdas Pophale) SiO2 
 PCOD9402577
Probable space group: P M M A
;
_chemical_formula_sum "Si O2"
_cell_formula_units_Z 56
_cell_length_a 9.022786
_cell_length_b 15.244188
_cell_length_c 21.390280
_cell_angle_alpha 90.000000
_cell_angle_beta 90.000000
_cell_angle_gamma 90.000000
_cell_volume 2942.127048
_symmetry_space_group_name_H-M "P M M A"
_symmetry_group_IT_number 51
_symmetry_cell_setting 'orthorhombic'
loop_
_space_group_symop_operation_xyz
x,y,z
1/2-x,-y,z
1/2+x,-y,-z
-x,y,-z
-x,-y,-z
1/2+x,y,-z
1/2-x,y,z
x,-y,z
loop_
_atom_site_type_symbol
_atom_site_label
_atom_site_fract_x
_atom_site_fract_y
_atom_site_fract_z
Si Si1 0.583212 0.653712 0.305563
Si Si2 0.079146 0.099665 0.443278
Si Si3 0.071920 0.290454 0.180213
Si Si4 0.575273 0.902081 0.189227
Si Si5 0.925801 0.395640 0.067135
Si Si6 0.419352 0.605413 0.435491
Si Si7 0.591957 0.141702 0.329416
O O1 0.750000 0.614620 0.298962
O O2 0.489461 0.655164 0.241050
O O3 0.503873 0.623285 0.369800
O O4 0.603651 0.757034 0.314029
O O5 0.250000 0.098098 0.456385
O O6 0.000000 0.147436 0.500000
O O7 0.042183 0.135783 0.376353
O O8 0.020660 0.000000 0.439559
O O9 0.250000 0.288865 0.182511
O O10 0.012046 0.188890 0.175845
O O11 0.008483 0.340822 0.120214
O O12 0.750000 0.890258 0.172556
O O13 0.569402 0.906520 0.264576
O O14 0.527922 0.000000 0.165653
O O15 0.750000 0.375578 0.066249
O O16 0.941771 0.500000 0.079190
O O17 0.000000 0.377655 0.000000
O O18 0.500000 0.635586 0.500000
O O19 0.250000 0.640156 0.432912
O O20 0.411295 0.500000 0.440437
O O21 0.750000 0.112903 0.358330
#
# Coordination Sequence:
#
# PCOD9402577 Si02
#       7
#     8   8   8   8   8   8   8
#     4  10  21  37  55  76 104 139 180 226 278 333
#     4  10  20  31  43  60  83 114 153 198 250 309
#     4  11  22  36  57  87 123 158 195 242 291 344
#     4   9  18  34  56  80 109 148 191 235 285 340
#     4  10  21  39  64  93 125 161 199 237 281 338
#     4  10  21  37  56  77 101 133 176 226 283 349
#     4   9  18  32  49  69  93 123 162 209 262 320
#
# _framework density 19.033847999999999
#
# number of rings (size 3 to 8) (size 9 to 14) (size 15 to 20)
#    0.000    2.143    0.000    4.286    0.000    7.429 
#    0.000    0.000    0.000    0.429    0.000    0.000 
#    0.000    0.000    0.000    0.000    0.000    0.000 
#
# Total GULP energy -311813.294950 kJ/mol
# GULP energy per Si atom -5568.094553 kJ/mol
# Density = 1.899053 g / cm^3
# Si number density = 19.033848 Si / 1000 Ang^3
#
#
#
# Elastic Constant Matrix: (Units=GPa)
#
#
# Indices 1 2 3 4 5 6 
#
# 1 142.9419 41.2785 78.8885 0.0000 0.0000 0.0000
# 2 41.2785 55.4873 47.3284 0.0000 0.0000 0.0000
# 3 78.8885 47.3284 122.6980 0.0000 0.0000 0.0000
# 4 0.0000 0.0000 0.0000 4.4289 0.0000 0.0000
# 5 0.0000 0.0000 0.0000 0.0000 30.0798 0.0000
# 6 0.0000 0.0000 0.0000 0.0000 0.0000 23.1757
#
#
#
# Elastic Compliance Matrix: (Units=1/GPa)
#
#
# Indices 1 2 3 4 5 6 
#
# 1 0.011228 -0.003272 -0.005957 0.000000 0.000000 0.000000
# 2 -0.003272 0.027813 -0.008625 0.000000 0.000000 0.000000
# 3 -0.005957 -0.008625 0.015307 0.000000 0.000000 0.000000
# 4 0.000000 0.000000 0.000000 0.225787 0.000000 0.000000
# 5 0.000000 0.000000 0.000000 0.000000 0.033245 0.000000
# 6 0.000000 0.000000 0.000000 0.000000 0.000000 0.043149
#
#
# Mechanical properties :
#
#
# Convention : Reuss Voigt Hill
#
# Bulk Modulus (GPa) = 53.64586 72.90202 63.27394
# Shear Modulus (GPa) = 12.54863 21.77901 17.16382
#
# Velocity S-wave (km/s) = 2.57043 3.38631 3.00618
# Velocity P-wave (km/s) = 6.08729 7.32624 6.73532
#
# Compressibility (1/GPa) = 0.01864077
#
# Stress axis : x y z
#
# Youngs Moduli (GPa) = 89.05946 35.95497 65.32936
#
# Poissons Ratio (x) = 0.11764 0.38918
# Poissons Ratio (y) = 0.29139 0.56344
# Poissons Ratio (z) = 0.53055 0.31009
#
# Static dielectric constant tensor:
#      x y z
#    x 1.707290 0.000000 0.000000 
#    y 0.000000 1.706030 0.000000 
#    z 0.000000 0.000000 1.711760 
# 
# From -- ./inp_files/31945.got.cif
#   From: 2010.05.17/outbox.cif.g08.bks.cpg/sg51_16_cif.got.tgz:31945.got - 2010.06.03 11:52:47.
