data_PCOD9402946
_publ_section_title
;
Structure prediction by ZEFSAII (Michael W. Deem and Ramdas Pophale) SiO2 
 PCOD9402946
Probable space group: P M M A
;
_chemical_formula_sum "Si O2"
_cell_formula_units_Z 56
_cell_length_a 21.483608
_cell_length_b 7.896413
_cell_length_c 15.720316
_cell_angle_alpha 90.000000
_cell_angle_beta 90.000000
_cell_angle_gamma 90.000000
_cell_volume 2666.848508
_symmetry_space_group_name_H-M "P M M A"
_symmetry_group_IT_number 51
_symmetry_cell_setting 'orthorhombic'
loop_
_space_group_symop_operation_xyz
x,y,z
1/2-x,-y,z
1/2+x,-y,-z
-x,y,-z
-x,-y,-z
1/2+x,y,-z
1/2-x,y,z
x,-y,z
loop_
_atom_site_type_symbol
_atom_site_label
_atom_site_fract_x
_atom_site_fract_y
_atom_site_fract_z
Si Si1 0.818497 0.295854 0.031990
Si Si2 0.384460 0.694474 0.799927
Si Si3 0.014795 0.808248 0.236835
Si Si4 0.956974 0.299850 0.578395
Si Si5 0.444323 0.202545 0.061882
Si Si6 0.677848 0.194251 0.367423
Si Si7 0.819254 0.302111 0.559644
O O1 0.750000 0.231826 0.007744
O O2 0.817218 0.500000 0.025899
O O3 0.834296 0.252827 0.129983
O O4 0.877351 0.234346 0.978786
O O5 0.402095 0.500000 0.817521
O O6 0.445842 0.805778 0.802713
O O7 0.358147 0.711106 0.705832
O O8 0.013080 0.720187 0.328514
O O9 0.053627 0.729728 0.158838
O O10 0.035286 0.000000 0.253531
O O11 0.949463 0.500000 0.560185
O O12 0.886205 0.228851 0.587887
O O13 0.000000 0.232218 0.500000
O O14 0.453861 0.000000 0.069136
O O15 0.500000 0.267811 0.000000
O O16 0.750000 0.188135 0.342567
O O17 0.675252 0.284934 0.457812
O O18 0.655136 0.000000 0.376072
O O19 0.750000 0.229750 0.582172
O O20 0.817412 0.500000 0.584419
#
# Coordination Sequence:
#
# PCOD9402946 Si02
#       7
#     8   8   8   8   8   8   8
#     4  10  22  38  58  87 119 152 195 245 294 345
#     4  11  21  34  54  80 114 151 189 235 290 350
#     4  11  23  38  59  86 114 148 194 242 292 350
#     4  10  21  37  57  84 117 152 194 242 293 349
#     4  10  21  40  62  85 117 155 196 239 287 348
#     4  10  20  32  49  77 112 149 189 233 286 348
#     4   9  18  34  55  77 106 148 193 238 291 347
#
# _framework density 20.998567999999999
#
# number of rings (size 3 to 8) (size 9 to 14) (size 15 to 20)
#    0.000    1.857    1.429    2.571    0.000    5.714 
#    0.000    0.714    0.000    2.571    0.000    0.000 
#    0.000    0.000    0.000    0.000    0.000    0.000 
#
# Total GULP energy -312268.578640 kJ/mol
# GULP energy per Si atom -5576.224619 kJ/mol
# Density = 2.095077 g / cm^3
# Si number density = 20.998568 Si / 1000 Ang^3
#
#
#
# Elastic Constant Matrix: (Units=GPa)
#
#
# Indices 1 2 3 4 5 6 
#
# 1 123.9965 11.9845 40.5369 0.0000 0.0000 0.0000
# 2 11.9845 26.8746 1.6284 0.0000 0.0000 0.0000
# 3 40.5369 1.6284 74.5900 0.0000 0.0000 0.0000
# 4 0.0000 0.0000 0.0000 21.0353 0.0000 0.0000
# 5 0.0000 0.0000 0.0000 0.0000 30.7440 0.0000
# 6 0.0000 0.0000 0.0000 0.0000 0.0000 18.1984
#
#
#
# Elastic Compliance Matrix: (Units=1/GPa)
#
#
# Indices 1 2 3 4 5 6 
#
# 1 0.010269 -0.004247 -0.005488 0.000000 0.000000 0.000000
# 2 -0.004247 0.039016 0.001456 0.000000 0.000000 0.000000
# 3 -0.005488 0.001456 0.016358 0.000000 0.000000 0.000000
# 4 0.000000 0.000000 0.000000 0.047539 0.000000 0.000000
# 5 0.000000 0.000000 0.000000 0.000000 0.032527 0.000000
# 6 0.000000 0.000000 0.000000 0.000000 0.000000 0.054950
#
#
# Mechanical properties :
#
#
# Convention : Reuss Voigt Hill
#
# Bulk Modulus (GPa) = 20.37303 37.08450 28.72877
# Shear Modulus (GPa) = 21.40616 25.41632 23.41124
#
# Velocity S-wave (km/s) = 3.19628 3.48283 3.34263
# Velocity P-wave (km/s) = 4.83165 5.81999 5.34870
#
# Compressibility (1/GPa) = 0.04908451
#
# Stress axis : x y z
#
# Youngs Moduli (GPa) = 97.37582 25.63082 61.13379
#
# Poissons Ratio (x) = 0.10885 0.33553
# Poissons Ratio (y) = 0.41356 -0.08903
# Poissons Ratio (z) = 0.53444 -0.03733
#
# Static dielectric constant tensor:
#      x y z
#    x 1.808090 0.000000 0.000000 
#    y 0.000000 1.774300 0.000000 
#    z 0.000000 0.000000 1.745330 
# 
# From -- ./inp_files/25686.got.cif
#   From: 2010.05.17/outbox.cif.g08.bks.cpg/sg51_13_cif.got.tgz:25686.got - 2010.06.03 11:52:47.
