data_PCOD9402617
_publ_section_title
;
Structure prediction by ZEFSAII (Michael W. Deem and Ramdas Pophale) SiO2 
 PCOD9402617
Probable space group: P M M A
;
_chemical_formula_sum "Si O2"
_cell_formula_units_Z 48
_cell_length_a 9.235814
_cell_length_b 7.422901
_cell_length_c 36.728368
_cell_angle_alpha 90.000000
_cell_angle_beta 90.000000
_cell_angle_gamma 90.000000
_cell_volume 2517.969572
_symmetry_space_group_name_H-M "P M M A"
_symmetry_group_IT_number 51
_symmetry_cell_setting 'orthorhombic'
loop_
_space_group_symop_operation_xyz
x,y,z
1/2-x,-y,z
1/2+x,-y,-z
-x,y,-z
-x,-y,-z
1/2+x,y,-z
1/2-x,y,z
x,-y,z
loop_
_atom_site_type_symbol
_atom_site_label
_atom_site_fract_x
_atom_site_fract_y
_atom_site_fract_z
Si Si1 0.922933 0.710366 0.537158
Si Si2 0.075887 0.000000 0.403048
Si Si3 0.573364 0.292566 0.266696
Si Si4 0.918794 0.280265 0.108464
Si Si5 0.424937 0.000000 0.674590
Si Si6 0.079947 0.281252 0.812391
Si Si7 0.416235 0.279827 0.036235
O O1 0.750000 0.727934 0.532264
O O2 0.957505 0.500000 0.542842
O O3 0.000000 0.769985 0.500000
O O4 0.963612 0.828663 0.571935
O O5 0.250000 0.000000 0.397903
O O6 0.997813 0.000000 0.364540
O O7 0.750000 0.289231 0.264817
O O8 0.529494 0.500000 0.271360
O O9 0.532027 0.170770 0.300632
O O10 0.521567 0.223327 0.226966
O O11 0.750000 0.227886 0.105288
O O12 0.920555 0.500000 0.108520
O O13 0.978486 0.223684 0.148209
O O14 0.007018 0.220106 0.073389
O O15 0.250000 0.000000 0.670811
O O16 0.250000 0.232149 0.813460
O O17 0.073998 0.500000 0.811261
O O18 0.250000 0.224050 0.034994
O O19 0.419032 0.500000 0.036423
O O20 0.500000 0.222216 0.000000
#
# Coordination Sequence:
#
# PCOD9402617 Si02
#       7
#     8   4   8   8   4   8   8
#     4   9  18  33  53  76 100 128 163 201 241 284
#     4  10  21  35  49  68 100 136 162 191 237 288
#     4   8  14  26  43  64  91 118 147 191 241 279
#     4   8  12  18  29  44  59  79 115 158 197 245
#     4  10  20  31  47  72  95 122 165 205 234 272
#     4   7  10  18  34  53  71  95 127 165 214 266
#     4   9  15  20  25  35  56  88 122 156 196 241
#
# _framework density 19.062978999999999
#
# number of rings (size 3 to 8) (size 9 to 14) (size 15 to 20)
#    0.000    3.500    0.000    2.750    0.000    3.333 
#    0.000    0.000    0.000    1.000    0.000    2.333 
#    0.000    0.000    0.000    0.750    0.000    7.167 
#
# Total GULP energy -267449.153425 kJ/mol
# GULP energy per Si atom -5571.857363 kJ/mol
# Density = 1.901959 g / cm^3
# Si number density = 19.062979 Si / 1000 Ang^3
#
#
#
# Elastic Constant Matrix: (Units=GPa)
#
#
# Indices 1 2 3 4 5 6 
#
# 1 42.2741 21.4743 69.4388 0.0000 0.0000 0.0000
# 2 21.4743 78.5366 67.0562 0.0000 0.0000 0.0000
# 3 69.4388 67.0562 254.0740 0.0000 0.0000 0.0000
# 4 0.0000 0.0000 0.0000 -38.2694 0.0000 0.0000
# 5 0.0000 0.0000 0.0000 0.0000 29.8499 0.0000
# 6 0.0000 0.0000 0.0000 0.0000 0.0000 -3.5801
#
#
#
# Elastic Compliance Matrix: (Units=1/GPa)
#
#
# Indices 1 2 3 4 5 6 
#
# 1 0.043227 -0.002237 -0.011224 0.000000 0.000000 0.000000
# 2 -0.002237 0.016553 -0.003757 0.000000 0.000000 0.000000
# 3 -0.011224 -0.003757 0.007995 0.000000 0.000000 0.000000
# 4 0.000000 0.000000 0.000000 -0.026131 0.000000 0.000000
# 5 0.000000 0.000000 0.000000 0.000000 0.033501 0.000000
# 6 0.000000 0.000000 0.000000 0.000000 0.000000 -0.279322
#
#
# Mechanical properties :
#
#
# Convention : Reuss Voigt Hill
#
# Bulk Modulus (GPa) = 29.99443 76.75811 53.37627
# Shear Modulus (GPa) = -31.52032 12.06110 -9.72961
#
# Velocity S-wave (km/s) = -4.07072 2.51808 -2.26164
# Velocity P-wave (km/s) = 2.51511 6.98622 4.60877
#
# Compressibility (1/GPa) = 0.03333953
#
# Stress axis : x y z
#
# Youngs Moduli (GPa) = 23.13348 60.41353 125.07793
#
# Poissons Ratio (x) = 0.13512 1.40385
# Poissons Ratio (y) = 0.05174 0.46997
# Poissons Ratio (z) = 0.25965 0.22700
#
# Static dielectric constant tensor:
#      x y z
#    x 1.632210 0.000000 0.000000 
#    y 0.000000 1.771380 0.000000 
#    z 0.000000 0.000000 1.659150 
# 
# From -- ./inp_files/37221.got.cif
#   From: 2010.05.17/outbox.cif.g08.bks.cpg/sg51_19_cif.got.tgz:37221.got - 2010.06.03 11:52:47.
