data_PCOD9402672
_publ_section_title
;
Structure prediction by ZEFSAII (Michael W. Deem and Ramdas Pophale) SiO2 
 PCOD9402672
Probable space group: P M M A
;
_chemical_formula_sum "Si O2"
_cell_formula_units_Z 32
_cell_length_a 8.816439
_cell_length_b 13.920441
_cell_length_c 14.753726
_cell_angle_alpha 90.000000
_cell_angle_beta 90.000000
_cell_angle_gamma 90.000000
_cell_volume 1810.705891
_symmetry_space_group_name_H-M "P M M A"
_symmetry_group_IT_number 51
_symmetry_cell_setting 'orthorhombic'
loop_
_space_group_symop_operation_xyz
x,y,z
1/2-x,-y,z
1/2+x,-y,-z
-x,y,-z
-x,-y,-z
1/2+x,y,-z
1/2-x,y,z
x,-y,z
loop_
_atom_site_type_symbol
_atom_site_label
_atom_site_fract_x
_atom_site_fract_y
_atom_site_fract_z
Si Si1 0.429000 0.271775 0.742338
Si Si2 0.067720 0.111806 0.599097
Si Si3 0.921872 0.385571 0.591840
Si Si4 0.431713 0.609743 0.100258
O O1 0.250000 0.262679 0.757951
O O2 0.481678 0.179060 0.683259
O O3 0.470307 0.356718 0.673211
O O4 0.508293 0.306353 0.834292
O O5 0.250000 0.121761 0.592407
O O6 0.000000 0.135596 0.500000
O O7 0.031216 0.000000 0.616878
O O8 0.750000 0.347917 0.603188
O O9 0.911380 0.500000 0.587030
O O10 0.000000 0.350981 0.500000
O O11 0.250000 0.613833 0.097084
O O12 0.472581 0.500000 0.131650
O O13 0.500000 0.620361 0.000000
#
# Coordination Sequence:
#
# PCOD9402672 Si02
#       4
#     8   8   8   8
#     4  11  21  32  51  76 101 132 169 210 255 303
#     4   9  19  35  53  75 104 137 173 213 257 304
#     4  10  20  32  45  65  97 134 168 203 245 296
#     4  10  21  37  56  78 105 136 170 210 255 304
#
# _framework density 17.672666
#
# number of rings (size 3 to 8) (size 9 to 14) (size 15 to 20)
#    0.000    2.000    0.000    3.750    0.000   10.000 
#    0.000    0.000    0.000    0.750    0.000    0.000 
#    0.000    0.000    0.000    0.000    0.000    0.000 
#
# Total GULP energy -178409.431412 kJ/mol
# GULP energy per Si atom -5575.294732 kJ/mol
# Density = 1.763244 g / cm^3
# Si number density = 17.672666 Si / 1000 Ang^3
#
#
#
# Elastic Constant Matrix: (Units=GPa)
#
#
# Indices 1 2 3 4 5 6 
#
# 1 39.7907 41.5466 29.3736 0.0000 0.0000 0.0000
# 2 41.5466 107.8125 64.0226 0.0000 0.0000 0.0000
# 3 29.3736 64.0226 111.5518 0.0000 0.0000 0.0000
# 4 0.0000 0.0000 0.0000 33.8507 0.0000 0.0000
# 5 0.0000 0.0000 0.0000 0.0000 31.0792 0.0000
# 6 0.0000 0.0000 0.0000 0.0000 0.0000 69.6982
#
#
#
# Elastic Compliance Matrix: (Units=1/GPa)
#
#
# Indices 1 2 3 4 5 6 
#
# 1 0.042590 -0.014795 -0.002723 0.000000 0.000000 0.000000
# 2 -0.014795 0.019211 -0.007130 0.000000 0.000000 0.000000
# 3 -0.002723 -0.007130 0.013773 0.000000 0.000000 0.000000
# 4 0.000000 0.000000 0.000000 0.029542 0.000000 0.000000
# 5 0.000000 0.000000 0.000000 0.000000 0.032176 0.000000
# 6 0.000000 0.000000 0.000000 0.000000 0.000000 0.014348
#
#
# Mechanical properties :
#
#
# Convention : Reuss Voigt Hill
#
# Bulk Modulus (GPa) = 38.05521 58.78228 48.41875
# Shear Modulus (GPa) = 23.84419 35.20643 29.52531
#
# Velocity S-wave (km/s) = 3.67715 4.46818 4.09183
# Velocity P-wave (km/s) = 6.29354 7.74296 7.05557
#
# Compressibility (1/GPa) = 0.02627761
#
# Stress axis : x y z
#
# Youngs Moduli (GPa) = 23.47974 52.05439 72.60340
#
# Poissons Ratio (x) = 0.77016 0.19772
# Poissons Ratio (y) = 0.34739 0.51764
# Poissons Ratio (z) = 0.06394 0.37113
#
# Static dielectric constant tensor:
#      x y z
#    x 1.610680 0.000000 0.000000 
#    y 0.000000 1.639930 0.000000 
#    z 0.000000 0.000000 1.572060 
# 
# From -- ./inp_files/13695.got.cif
#   From: 2010.05.17/outbox.cif.g08.bks.cpg/sg51_7_cif.got.tgz:13695.got - 2010.06.03 11:52:47.
