data_PCOD9402937
_publ_section_title
;
Structure prediction by ZEFSAII (Michael W. Deem and Ramdas Pophale) SiO2 
 PCOD9402937
Probable space group: P M M A
;
_chemical_formula_sum "Si O2"
_cell_formula_units_Z 64
_cell_length_a 13.961447
_cell_length_b 17.808902
_cell_length_c 10.270529
_cell_angle_alpha 90.000000
_cell_angle_beta 90.000000
_cell_angle_gamma 90.000000
_cell_volume 2553.644215
_symmetry_space_group_name_H-M "P M M A"
_symmetry_group_IT_number 51
_symmetry_cell_setting 'orthorhombic'
loop_
_space_group_symop_operation_xyz
x,y,z
1/2-x,-y,z
1/2+x,-y,-z
-x,y,-z
-x,-y,-z
1/2+x,y,-z
1/2-x,y,z
x,-y,z
loop_
_atom_site_type_symbol
_atom_site_label
_atom_site_fract_x
_atom_site_fract_y
_atom_site_fract_z
Si Si1 0.395502 0.417638 0.936163
Si Si2 0.136049 0.582334 0.375310
Si Si3 0.360203 0.752806 0.017952
Si Si4 0.855674 0.085494 0.398026
Si Si5 0.636261 0.917521 0.967376
Si Si6 0.861957 0.360410 0.335634
Si Si7 0.962656 0.724460 0.728255
Si Si8 0.570321 0.121008 0.674404
O O1 0.354689 0.500000 0.978967
O O2 0.389329 0.416421 0.780205
O O3 0.500000 0.416586 0.000000
O O4 0.356853 0.332174 0.960415
O O5 0.250000 0.583785 0.355815
O O6 0.099939 0.500000 0.343733
O O7 0.117748 0.602597 0.525465
O O8 0.088192 0.645687 0.291140
O O9 0.250000 0.761181 0.071355
O O10 0.380289 0.836961 0.959306
O O11 0.444092 0.745790 0.124093
O O12 0.750000 0.120268 0.373130
O O13 0.876269 0.083261 0.553834
O O14 0.955257 0.115594 0.339874
O O15 0.850560 0.000000 0.350708
O O16 0.750000 0.923212 0.963696
O O17 0.601014 0.906269 0.817410
O O18 0.602175 0.000000 0.016699
O O19 0.750000 0.342580 0.329188
O O20 0.929303 0.288386 0.315764
O O21 0.909717 0.790469 0.653356
#
# Coordination Sequence:
#
# PCOD9402937 Si02
#       8
#     8   8   8   8   8   8   8   8
#     4  11  23  42  67  92 124 163 203 257 320 373
#     4  10  23  41  61  86 120 162 207 254 305 369
#     4  10  21  38  62  94 127 158 203 260 313 371
#     4  10  20  32  49  76 109 149 201 252 295 351
#     4   9  17  32  57  87 118 153 195 248 309 369
#     4  11  24  41  63  88 117 161 212 255 302 371
#     4  11  23  39  58  89 125 164 201 255 309 362
#     4  10  20  32  51  78 113 158 198 242 303 363
#
# _framework density 25.062221999999998
#
# number of rings (size 3 to 8) (size 9 to 14) (size 15 to 20)
#    0.000    1.750    1.250    3.375    3.500    6.500 
#    0.000    0.000    0.000    0.375    0.000    0.000 
#    0.000    0.000    0.000    0.250    0.000    0.000 
#
# Total GULP energy -357145.312875 kJ/mol
# GULP energy per Si atom -5580.395514 kJ/mol
# Density = 2.500518 g / cm^3
# Si number density = 25.062222 Si / 1000 Ang^3
#
#
#
# Elastic Constant Matrix: (Units=GPa)
#
#
# Indices 1 2 3 4 5 6 
#
# 1 107.7463 35.0168 9.5700 0.0000 0.0000 0.0000
# 2 35.0168 227.6687 19.6802 0.0000 0.0000 0.0000
# 3 9.5700 19.6802 38.3959 0.0000 0.0000 0.0000
# 4 0.0000 0.0000 0.0000 17.4172 0.0000 0.0000
# 5 0.0000 0.0000 0.0000 0.0000 30.0129 0.0000
# 6 0.0000 0.0000 0.0000 0.0000 0.0000 24.6291
#
#
#
# Elastic Compliance Matrix: (Units=1/GPa)
#
#
# Indices 1 2 3 4 5 6 
#
# 1 0.009882 -0.001368 -0.001762 0.000000 0.000000 0.000000
# 2 -0.001368 0.004785 -0.002112 0.000000 0.000000 0.000000
# 3 -0.001762 -0.002112 0.027566 0.000000 0.000000 0.000000
# 4 0.000000 0.000000 0.000000 0.057415 0.000000 0.000000
# 5 0.000000 0.000000 0.000000 0.000000 0.033319 0.000000
# 6 0.000000 0.000000 0.000000 0.000000 0.000000 0.040602
#
#
# Mechanical properties :
#
#
# Convention : Reuss Voigt Hill
#
# Bulk Modulus (GPa) = 31.49575 55.81610 43.65593
# Shear Modulus (GPa) = 25.68902 35.04811 30.36856
#
# Velocity S-wave (km/s) = 3.20505 3.74363 3.48476
# Velocity P-wave (km/s) = 5.12745 6.40357 5.80071
#
# Compressibility (1/GPa) = 0.03175031
#
# Stress axis : x y z
#
# Youngs Moduli (GPa) = 101.19386 208.97565 36.27643
#
# Poissons Ratio (x) = 0.28579 0.06392
# Poissons Ratio (y) = 0.13839 0.07661
# Poissons Ratio (z) = 0.17831 0.44133
#
# Static dielectric constant tensor:
#      x y z
#    x 1.982360 0.000000 0.000000 
#    y 0.000000 2.010720 0.000000 
#    z 0.000000 0.000000 2.014420 
# 
# From -- ./inp_files/16849.got.cif
#   From: 2010.05.17/outbox.cif.g08.bks.cpg/sg51_9_cif.got.tgz:16849.got - 2010.06.03 11:52:47.
