data_PCOD9402083
_publ_section_title
;
Structure prediction by ZEFSAII (Michael W. Deem and Ramdas Pophale) SiO2 
 PCOD9402083
Probable space group: P M M A
;
_chemical_formula_sum "Si O2"
_cell_formula_units_Z 48
_cell_length_a 13.442955
_cell_length_b 14.315806
_cell_length_c 13.462914
_cell_angle_alpha 90.000000
_cell_angle_beta 90.000000
_cell_angle_gamma 90.000000
_cell_volume 2590.893854
_symmetry_space_group_name_H-M "P M M A"
_symmetry_group_IT_number 51
_symmetry_cell_setting 'orthorhombic'
loop_
_space_group_symop_operation_xyz
x,y,z
1/2-x,-y,z
1/2+x,-y,-z
-x,y,-z
-x,-y,-z
1/2+x,y,-z
1/2-x,y,z
x,-y,z
loop_
_atom_site_type_symbol
_atom_site_label
_atom_site_fract_x
_atom_site_fract_y
_atom_site_fract_z
Si Si1 0.750000 0.385946 0.871870
Si Si2 0.610131 0.393419 0.038200
Si Si3 0.366068 0.266792 0.769971
Si Si4 0.367417 0.106713 0.284103
Si Si5 0.520033 0.110005 0.113197
Si Si6 0.043393 0.718381 0.390049
Si Si7 0.250000 0.612846 0.353770
O O1 0.750000 0.500000 0.865769
O O2 0.750000 0.354210 0.760805
O O3 0.661346 0.352730 0.940317
O O4 0.643228 0.500000 0.053629
O O5 0.628350 0.339148 0.138754
O O6 0.500000 0.396473 0.000000
O O7 0.250000 0.262206 0.734807
O O8 0.400966 0.170441 0.823653
O O9 0.450480 0.296027 0.688149
O O10 0.250000 0.120296 0.277469
O O11 0.419227 0.118950 0.177238
O O12 0.414419 0.180670 0.358792
O O13 0.387179 0.000000 0.315691
O O14 0.547662 0.000000 0.109392
O O15 0.500000 0.142185 0.000000
O O16 0.141996 0.651537 0.389314
O O17 0.000000 0.716565 0.500000
O O18 0.250000 0.500000 0.362437
#
# Coordination Sequence:
#
# PCOD9402083 Si02
#       7
#     4   8   8   8   8   8   4
#     4   9  18  34  57  84 114 149 189 236 295 352
#     4  10  19  34  56  84 118 153 190 239 297 359
#     4  11  23  37  57  91 125 162 204 255 308 368
#     4   9  18  37  64  92 119 153 202 257 310 363
#     4   9  19  35  54  85 130 174 210 243 292 365
#     4  11  25  43  67  88 120 162 208 263 314 363
#     4  11  24  44  66  92 122 159 208 256 302 370
#
# _framework density 18.526423999999999
#
# number of rings (size 3 to 8) (size 9 to 14) (size 15 to 20)
#    0.000    2.000    1.667    1.500    1.167    5.000 
#    0.000    1.667    0.000    0.000    0.000    0.000 
#    0.000    0.000    0.000    0.000    0.000    0.000 
#
# Total GULP energy -267254.315121 kJ/mol
# GULP energy per Si atom -5567.798232 kJ/mol
# Density = 1.848426 g / cm^3
# Si number density = 18.526424 Si / 1000 Ang^3
#
#
#
# Elastic Constant Matrix: (Units=GPa)
#
#
# Indices 1 2 3 4 5 6 
#
# 1 165.0868 49.8880 64.2238 0.0000 0.0000 0.0000
# 2 49.8880 83.8303 48.6157 0.0000 0.0000 0.0000
# 3 64.2238 48.6157 129.9633 0.0000 0.0000 0.0000
# 4 0.0000 0.0000 0.0000 18.3574 0.0000 0.0000
# 5 0.0000 0.0000 0.0000 0.0000 26.7897 0.0000
# 6 0.0000 0.0000 0.0000 0.0000 0.0000 33.0730
#
#
#
# Elastic Compliance Matrix: (Units=1/GPa)
#
#
# Indices 1 2 3 4 5 6 
#
# 1 0.008120 -0.003199 -0.002816 0.000000 0.000000 0.000000
# 2 -0.003199 0.016494 -0.004589 0.000000 0.000000 0.000000
# 3 -0.002816 -0.004589 0.010803 0.000000 0.000000 0.000000
# 4 0.000000 0.000000 0.000000 0.054474 0.000000 0.000000
# 5 0.000000 0.000000 0.000000 0.000000 0.037328 0.000000
# 6 0.000000 0.000000 0.000000 0.000000 0.000000 0.030236
#
#
# Mechanical properties :
#
#
# Convention : Reuss Voigt Hill
#
# Bulk Modulus (GPa) = 70.38109 78.25947 74.32028
# Shear Modulus (GPa) = 27.26314 30.05423 28.65868
#
# Velocity S-wave (km/s) = 3.84028 4.03207 3.93734
# Velocity P-wave (km/s) = 7.59840 8.00066 7.80212
#
# Compressibility (1/GPa) = 0.01420836
#
# Stress axis : x y z
#
# Youngs Moduli (GPa) = 123.15929 60.62814 92.57055
#
# Poissons Ratio (x) = 0.19395 0.26066
# Poissons Ratio (y) = 0.39400 0.42481
# Poissons Ratio (z) = 0.34679 0.27823
#
# Static dielectric constant tensor:
#      x y z
#    x 1.672730 0.000000 0.000000 
#    y 0.000000 1.689010 0.000000 
#    z 0.000000 0.000000 1.601990 
# 
# From -- ./inp_files/23266.got.cif
#   From: 2010.05.17/outbox.cif.g08.bks.cpg/sg51_12_cif.got.tgz:23266.got - 2010.06.03 11:52:47.
