data_PCOD9402677
_publ_section_title
;
Structure prediction by ZEFSAII (Michael W. Deem and Ramdas Pophale) SiO2 
 PCOD9402677
Probable space group: P M M A
;
_chemical_formula_sum "Si O2"
_cell_formula_units_Z 44
_cell_length_a 8.988508
_cell_length_b 13.085284
_cell_length_c 22.385242
_cell_angle_alpha 90.000000
_cell_angle_beta 90.000000
_cell_angle_gamma 90.000000
_cell_volume 2632.889036
_symmetry_space_group_name_H-M "P M M A"
_symmetry_group_IT_number 51
_symmetry_cell_setting 'orthorhombic'
loop_
_space_group_symop_operation_xyz
x,y,z
1/2-x,-y,z
1/2+x,-y,-z
-x,y,-z
-x,-y,-z
1/2+x,y,-z
1/2-x,y,z
x,-y,z
loop_
_atom_site_type_symbol
_atom_site_label
_atom_site_fract_x
_atom_site_fract_y
_atom_site_fract_z
Si Si1 0.427107 0.677138 0.645436
Si Si2 0.915471 0.122122 0.058403
Si Si3 0.070360 0.883733 0.315491
Si Si4 0.076335 0.826412 0.180401
Si Si5 0.077935 0.386459 0.234098
Si Si6 0.429703 0.500000 0.434289
O O1 0.250000 0.676622 0.635683
O O2 0.491320 0.792947 0.648040
O O3 0.469000 0.632711 0.710715
O O4 0.509341 0.600887 0.599833
O O5 0.750000 0.165161 0.060188
O O6 0.992880 0.138885 0.121774
O O7 0.906075 0.000000 0.050805
O O8 0.000000 0.162670 0.000000
O O9 0.250000 0.869812 0.318655
O O10 0.028446 0.870676 0.245097
O O11 0.035492 0.000000 0.334078
O O12 0.250000 0.852849 0.173993
O O13 0.059986 0.704514 0.187666
O O14 0.250000 0.378036 0.256781
O O15 0.058275 0.500000 0.209954
O O16 0.250000 0.500000 0.435064
O O17 0.500000 0.500000 0.500000
#
# Coordination Sequence:
#
# PCOD9402677 Si02
#       6
#     8   8   8   8   8   4
#     4  11  21  33  52  81 112 141 175 216 263 307
#     4  10  20  32  46  64  88 121 159 201 251 304
#     4   9  18  33  53  77 107 145 181 212 256 313
#     4   9  17  29  47  72  98 127 165 208 253 302
#     4   9  17  31  51  72  99 136 170 204 249 302
#     4  12  24  40  60  82 110 142 179 220 261 306
#
# _framework density 16.711679
#
# number of rings (size 3 to 8) (size 9 to 14) (size 15 to 20)
#    0.000    2.182    0.909    4.636    0.000    5.091 
#    0.000    0.000    0.000    1.091    0.000    0.000 
#    0.000    0.000    0.000    0.000    0.000    0.000 
#
# Total GULP energy -245223.214027 kJ/mol
# GULP energy per Si atom -5573.254864 kJ/mol
# Density = 1.667364 g / cm^3
# Si number density = 16.711679 Si / 1000 Ang^3
#
#
#
# Elastic Constant Matrix: (Units=GPa)
#
#
# Indices 1 2 3 4 5 6 
#
# 1 107.0330 45.8942 55.0009 0.0000 0.0000 0.0000
# 2 45.8942 111.3616 27.2782 0.0000 0.0000 0.0000
# 3 55.0009 27.2782 79.4678 0.0000 0.0000 0.0000
# 4 0.0000 0.0000 0.0000 18.4303 0.0000 0.0000
# 5 0.0000 0.0000 0.0000 0.0000 22.7623 0.0000
# 6 0.0000 0.0000 0.0000 0.0000 0.0000 19.3109
#
#
#
# Elastic Compliance Matrix: (Units=1/GPa)
#
#
# Indices 1 2 3 4 5 6 
#
# 1 0.016178 -0.004285 -0.009726 0.000000 0.000000 0.000000
# 2 -0.004285 0.010939 -0.000789 0.000000 0.000000 0.000000
# 3 -0.009726 -0.000789 0.019586 0.000000 0.000000 0.000000
# 4 0.000000 0.000000 0.000000 0.054259 0.000000 0.000000
# 5 0.000000 0.000000 0.000000 0.000000 0.043932 0.000000
# 6 0.000000 0.000000 0.000000 0.000000 0.000000 0.051784
#
#
# Mechanical properties :
#
#
# Convention : Reuss Voigt Hill
#
# Bulk Modulus (GPa) = 58.47081 61.57877 60.02479
# Shear Modulus (GPa) = 21.55348 23.41329 22.48339
#
# Velocity S-wave (km/s) = 3.59517 3.74707 3.67191
# Velocity P-wave (km/s) = 7.23171 7.45979 7.34664
#
# Compressibility (1/GPa) = 0.01710255
#
# Stress axis : x y z
#
# Youngs Moduli (GPa) = 61.81104 91.41625 51.05561
#
# Poissons Ratio (x) = 0.39171 0.49659
# Poissons Ratio (y) = 0.26485 0.04030
# Poissons Ratio (z) = 0.60120 0.07215
#
# Static dielectric constant tensor:
#      x y z
#    x 1.584170 0.000000 0.000000 
#    y 0.000000 1.590170 0.000000 
#    z 0.000000 0.000000 1.533980 
# 
# From -- ./inp_files/31616.got.cif
#   From: 2010.05.17/outbox.cif.g08.bks.cpg/sg51_16_cif.got.tgz:31616.got - 2010.06.03 11:52:47.
