data_PCOD9402203
_publ_section_title
;
Structure prediction by ZEFSAII (Michael W. Deem and Ramdas Pophale) SiO2 
 PCOD9402203
Probable space group: P M M A
;
_chemical_formula_sum "Si O2"
_cell_formula_units_Z 48
_cell_length_a 19.292849
_cell_length_b 7.588097
_cell_length_c 14.058839
_cell_angle_alpha 90.000000
_cell_angle_beta 90.000000
_cell_angle_gamma 90.000000
_cell_volume 2058.157929
_symmetry_space_group_name_H-M "P M M A"
_symmetry_group_IT_number 51
_symmetry_cell_setting 'orthorhombic'
loop_
_space_group_symop_operation_xyz
x,y,z
1/2-x,-y,z
1/2+x,-y,-z
-x,y,-z
-x,-y,-z
1/2+x,y,-z
1/2-x,y,z
x,-y,z
loop_
_atom_site_type_symbol
_atom_site_label
_atom_site_fract_x
_atom_site_fract_y
_atom_site_fract_z
Si Si1 0.330624 0.285857 0.792064
Si Si2 0.169970 0.713549 0.005670
Si Si3 0.542291 0.209069 0.698048
Si Si4 0.171551 0.288859 0.418056
Si Si5 0.593112 0.290496 0.394956
Si Si6 0.467661 0.796177 0.095704
O O1 0.250000 0.240011 0.778608
O O2 0.334423 0.500000 0.792940
O O3 0.350965 0.229213 0.898325
O O4 0.374079 0.218898 0.703074
O O5 0.250000 0.764205 0.021056
O O6 0.167104 0.500000 0.009327
O O7 0.114784 0.788374 0.078613
O O8 0.620163 0.255830 0.669358
O O9 0.488835 0.264965 0.616190
O O10 0.519119 0.284666 0.800638
O O11 0.538726 0.000000 0.705298
O O12 0.250000 0.221096 0.409133
O O13 0.176323 0.500000 0.427526
O O14 0.132042 0.219286 0.512354
O O15 0.605248 0.500000 0.395546
O O16 0.490729 0.000000 0.098229
O O17 0.500000 0.713560 0.000000
#
# Coordination Sequence:
#
# PCOD9402203 Si02
#       6
#     8   8   8   8   8   8
#     4   8  14  27  50  81 113 141 174 222 276 325
#     4   9  18  32  52  80 110 139 176 224 276 327
#     4  11  24  39  56  80 111 146 182 223 272 323
#     4  10  22  40  61  85 112 143 181 223 266 317
#     4  10  19  34  59  86 110 141 181 222 267 321
#     4  10  22  39  56  76 106 145 187 228 270 319
#
# _framework density 23.321825
#
# number of rings (size 3 to 8) (size 9 to 14) (size 15 to 20)
#    0.000    2.333    0.000    3.500    0.000    7.667 
#    0.000    3.333    0.000    2.500    0.000    0.000 
#    0.000    0.000    0.000    0.000    0.000    0.000 
#
# Total GULP energy -268200.666036 kJ/mol
# GULP energy per Si atom -5587.513876 kJ/mol
# Density = 2.326874 g / cm^3
# Si number density = 23.321825 Si / 1000 Ang^3
#
#
#
# Elastic Constant Matrix: (Units=GPa)
#
#
# Indices 1 2 3 4 5 6 
#
# 1 55.9268 -5.6476 44.8710 0.0000 0.0000 0.0000
# 2 -5.6476 58.6036 2.6330 0.0000 0.0000 0.0000
# 3 44.8710 2.6330 115.0030 0.0000 0.0000 0.0000
# 4 0.0000 0.0000 0.0000 6.0102 0.0000 0.0000
# 5 0.0000 0.0000 0.0000 0.0000 38.8599 0.0000
# 6 0.0000 0.0000 0.0000 0.0000 0.0000 40.8099
#
#
#
# Elastic Compliance Matrix: (Units=1/GPa)
#
#
# Indices 1 2 3 4 5 6 
#
# 1 0.026555 0.003028 -0.010430 0.000000 0.000000 0.000000
# 2 0.003028 0.017427 -0.001580 0.000000 0.000000 0.000000
# 3 -0.010430 -0.001580 0.012801 0.000000 0.000000 0.000000
# 4 0.000000 0.000000 0.000000 0.166384 0.000000 0.000000
# 5 0.000000 0.000000 0.000000 0.000000 0.025733 0.000000
# 6 0.000000 0.000000 0.000000 0.000000 0.000000 0.024504
#
#
# Mechanical properties :
#
#
# Convention : Reuss Voigt Hill
#
# Bulk Modulus (GPa) = 25.76209 34.80513 30.28361
# Shear Modulus (GPa) = 16.43072 29.64778 23.03925
#
# Velocity S-wave (km/s) = 2.65716 3.56932 3.14647
# Velocity P-wave (km/s) = 4.52596 5.65181 5.11993
#
# Compressibility (1/GPa) = 0.03881672
#
# Stress axis : x y z
#
# Youngs Moduli (GPa) = 37.65826 57.38358 78.11773
#
# Poissons Ratio (x) = -0.17374 0.81478
# Poissons Ratio (y) = -0.11402 0.12345
# Poissons Ratio (z) = 0.39278 0.09068
#
# Static dielectric constant tensor:
#      x y z
#    x 1.867050 0.000000 0.000000 
#    y 0.000000 1.884390 0.000000 
#    z 0.000000 0.000000 1.898820 
# 
# From -- ./inp_files/24814.got.cif
#   From: 2010.05.17/outbox.cif.g08.bks.cpg/sg51_13_cif.got.tgz:24814.got - 2010.06.03 11:52:47.
