data_PCOD9402611
_publ_section_title
;
Structure prediction by ZEFSAII (Michael W. Deem and Ramdas Pophale) SiO2 
 PCOD9402611
Probable space group: P M M A
;
_chemical_formula_sum "Si O2"
_cell_formula_units_Z 64
_cell_length_a 9.039930
_cell_length_b 24.004159
_cell_length_c 19.540645
_cell_angle_alpha 90.000000
_cell_angle_beta 90.000000
_cell_angle_gamma 90.000000
_cell_volume 4240.240182
_symmetry_space_group_name_H-M "P M M A"
_symmetry_group_IT_number 51
_symmetry_cell_setting 'orthorhombic'
loop_
_space_group_symop_operation_xyz
x,y,z
1/2-x,-y,z
1/2+x,-y,-z
-x,y,-z
-x,-y,-z
1/2+x,y,-z
1/2-x,y,z
x,-y,z
loop_
_atom_site_type_symbol
_atom_site_label
_atom_site_fract_x
_atom_site_fract_y
_atom_site_fract_z
Si Si1 0.574345 0.434337 0.427016
Si Si2 0.926409 0.166972 0.305328
Si Si3 0.573819 0.769925 0.573936
Si Si4 0.072438 0.757185 0.929399
Si Si5 0.930390 0.937349 0.215988
Si Si6 0.426228 0.721025 0.781851
Si Si7 0.072356 0.111317 0.929299
Si Si8 0.573917 0.658620 0.661021
O O1 0.500000 0.420592 0.500000
O O2 0.750000 0.424994 0.431495
O O3 0.548520 0.500000 0.414111
O O4 0.503897 0.395608 0.369372
O O5 0.750000 0.163712 0.318402
O O6 0.977095 0.110040 0.269454
O O7 0.948549 0.217870 0.251949
O O8 0.009529 0.184024 0.374266
O O9 0.500000 0.772889 0.500000
O O10 0.750000 0.775132 0.568297
O O11 0.540746 0.710270 0.609612
O O12 0.250000 0.753623 0.934399
O O13 0.026373 0.725069 0.860765
O O14 0.036178 0.822961 0.920803
O O15 0.000000 0.737879 0.000000
O O16 0.750000 0.936007 0.215816
O O17 0.976014 0.920597 0.139021
O O18 0.977466 0.000000 0.232725
O O19 0.250000 0.709952 0.779064
O O20 0.511459 0.677580 0.734348
O O21 0.250000 0.106719 0.934718
O O22 0.000000 0.091705 0.000000
O O23 0.750000 0.651429 0.663553
#
# Coordination Sequence:
#
# PCOD9402611 Si02
#       8
#     8   8   8   8   8   8   8   8
#     4  10  20  33  49  69  96 132 168 196 222 255
#     4   9  16  29  47  64  84 111 143 179 222 271
#     4  10  20  32  47  69  92 114 141 177 222 268
#     4   9  16  26  41  61  86 118 152 185 224 272
#     4   9  16  27  45  65  84 110 146 184 220 267
#     4   9  16  28  45  63  87 119 153 188 229 273
#     4   9  16  27  41  60  85 114 148 182 218 262
#     4  10  20  31  46  70  97 123 154 190 227 265
#
# _framework density 15.093486
#
# number of rings (size 3 to 8) (size 9 to 14) (size 15 to 20)
#    0.000    2.625    1.250    1.500    0.000    4.000 
#    0.000    0.625    0.000    1.500    0.000    0.000 
#    0.000    0.500    0.000    1.625    0.000    2.000 
#
# Total GULP energy -356781.659805 kJ/mol
# GULP energy per Si atom -5574.713434 kJ/mol
# Density = 1.505913 g / cm^3
# Si number density = 15.093486 Si / 1000 Ang^3
#
#
#
# Elastic Constant Matrix: (Units=GPa)
#
#
# Indices 1 2 3 4 5 6 
#
# 1 30.8589 35.5658 45.4944 0.0000 0.0000 0.0000
# 2 35.5658 68.4834 47.5403 0.0000 0.0000 0.0000
# 3 45.4944 47.5403 121.4266 0.0000 0.0000 0.0000
# 4 0.0000 0.0000 0.0000 25.0731 0.0000 0.0000
# 5 0.0000 0.0000 0.0000 0.0000 28.0207 0.0000
# 6 0.0000 0.0000 0.0000 0.0000 0.0000 13.8704
#
#
#
# Elastic Compliance Matrix: (Units=1/GPa)
#
#
# Indices 1 2 3 4 5 6 
#
# 1 0.133453 -0.047510 -0.031400 0.000000 0.000000 0.000000
# 2 -0.047510 0.036965 0.003328 0.000000 0.000000 0.000000
# 3 -0.031400 0.003328 0.018697 0.000000 0.000000 0.000000
# 4 0.000000 0.000000 0.000000 0.039883 0.000000 0.000000
# 5 0.000000 0.000000 0.000000 0.000000 0.035688 0.000000
# 6 0.000000 0.000000 0.000000 0.000000 0.000000 0.072096
#
#
# Mechanical properties :
#
#
# Convention : Reuss Voigt Hill
#
# Bulk Modulus (GPa) = 26.34872 53.10776 39.72824
# Shear Modulus (GPa) = 9.98808 19.53740 14.76274
#
# Velocity S-wave (km/s) = 2.57524 3.60172 3.13083
# Velocity P-wave (km/s) = 5.13199 7.24974 6.28077
#
# Compressibility (1/GPa) = 0.03795251
#
# Stress axis : x y z
#
# Youngs Moduli (GPa) = 7.49326 27.05235 53.48468
#
# Poissons Ratio (x) = 1.28525 1.67940
# Poissons Ratio (y) = 0.35600 -0.17798
# Poissons Ratio (z) = 0.23529 -0.09002
#
# Static dielectric constant tensor:
#      x y z
#    x 1.501860 0.000000 0.000000 
#    y 0.000000 1.490630 0.000000 
#    z 0.000000 0.000000 1.489860 
# 
# From -- ./inp_files/28629.got.cif
#   From: 2010.05.17/outbox.cif.g08.bks.cpg/sg51_15_cif.got.tgz:28629.got - 2010.06.03 11:52:47.
