data_PCOD9402276
_publ_section_title
;
Structure prediction by ZEFSAII (Michael W. Deem and Ramdas Pophale) SiO2 
 PCOD9402276
Probable space group: P M M A
;
_chemical_formula_sum "Si O2"
_cell_formula_units_Z 48
_cell_length_a 8.582361
_cell_length_b 10.557022
_cell_length_c 29.360465
_cell_angle_alpha 90.000000
_cell_angle_beta 90.000000
_cell_angle_gamma 90.000000
_cell_volume 2660.180676
_symmetry_space_group_name_H-M "P M M A"
_symmetry_group_IT_number 51
_symmetry_cell_setting 'orthorhombic'
loop_
_space_group_symop_operation_xyz
x,y,z
1/2-x,-y,z
1/2+x,-y,-z
-x,y,-z
-x,-y,-z
1/2+x,y,-z
1/2-x,y,z
x,-y,z
loop_
_atom_site_type_symbol
_atom_site_label
_atom_site_fract_x
_atom_site_fract_y
_atom_site_fract_z
Si Si1 0.939534 0.000000 0.702416
Si Si2 0.063187 0.500000 0.713730
Si Si3 0.439532 0.500000 0.608876
Si Si4 0.062302 0.851901 0.142843
Si Si5 0.061248 0.753555 0.240450
Si Si6 0.937547 0.000000 0.596914
Si Si7 0.564351 0.148744 0.047290
Si Si8 0.562504 0.744805 0.448982
O O1 0.989364 0.873966 0.729151
O O2 0.750000 0.000000 0.703071
O O3 0.988310 0.000000 0.649850
O O4 0.250000 0.500000 0.713538
O O5 0.007801 0.500000 0.661151
O O6 0.003321 0.625028 0.738871
O O7 0.250000 0.500000 0.609181
O O8 0.488617 0.626040 0.582046
O O9 0.250000 0.850505 0.140697
O O10 0.013273 0.778399 0.188214
O O11 0.997584 0.799551 0.095208
O O12 0.014389 0.000000 0.147853
O O13 0.250000 0.749874 0.241353
O O14 0.000048 0.125053 0.572210
O O15 0.750000 0.000000 0.595344
O O16 0.750000 0.153430 0.046524
O O17 0.514327 0.000000 0.047837
O O18 0.500000 0.203993 0.000000
O O19 0.500000 0.729221 0.500000
O O20 0.750000 0.748116 0.449877
#
# Coordination Sequence:
#
# PCOD9402276 Si02
#       8
#     4   4   4   8   8   4   8   8
#     4   9  18  34  58  83 106 135 180 226 262 307
#     4  11  23  38  54  78 111 143 176 216 263 316
#     4   9  21  40  60  80 106 139 175 218 267 316
#     4   9  16  28  48  72 100 134 173 217 266 314
#     4  10  19  35  56  79 105 140 180 222 268 315
#     4  11  22  36  55  83 114 143 175 214 259 313
#     4   9  16  25  39  63  98 136 174 215 262 313
#     4  11  22  39  60  82 108 139 175 216 263 315
#
# _framework density 18.043887000000002
#
# number of rings (size 3 to 8) (size 9 to 14) (size 15 to 20)
#    0.000    2.167    0.833    3.000    0.000    2.667 
#    0.000    5.000    0.000    0.000    0.000    0.583 
#    0.000    0.000    0.000    0.000    0.000    0.000 
#
# Total GULP energy -267891.433455 kJ/mol
# GULP energy per Si atom -5581.071530 kJ/mol
# Density = 1.800282 g / cm^3
# Si number density = 18.043887 Si / 1000 Ang^3
#
#
#
# Elastic Constant Matrix: (Units=GPa)
#
#
# Indices 1 2 3 4 5 6 
#
# 1 26.8174 26.0429 40.3186 0.0000 0.0000 0.0000
# 2 26.0429 135.3169 91.6892 0.0000 0.0000 0.0000
# 3 40.3186 91.6892 218.8362 0.0000 0.0000 0.0000
# 4 0.0000 0.0000 0.0000 -30.1556 0.0000 0.0000
# 5 0.0000 0.0000 0.0000 0.0000 22.8282 0.0000
# 6 0.0000 0.0000 0.0000 0.0000 0.0000 2.8828
#
#
#
# Elastic Compliance Matrix: (Units=1/GPa)
#
#
# Indices 1 2 3 4 5 6 
#
# 1 0.053981 -0.005097 -0.007810 0.000000 0.000000 0.000000
# 2 -0.005097 0.010801 -0.003586 0.000000 0.000000 0.000000
# 3 -0.007810 -0.003586 0.007511 0.000000 0.000000 0.000000
# 4 0.000000 0.000000 0.000000 -0.033161 0.000000 0.000000
# 5 0.000000 0.000000 0.000000 0.000000 0.043805 0.000000
# 6 0.000000 0.000000 0.000000 0.000000 0.000000 0.346885
#
#
# Mechanical properties :
#
#
# Convention : Reuss Voigt Hill
#
# Bulk Modulus (GPa) = 25.44117 77.45244 51.44680
# Shear Modulus (GPa) = 10.50616 13.97241 12.23928
#
# Velocity S-wave (km/s) = 2.41562 2.78575 2.60726
# Velocity P-wave (km/s) = 4.68086 7.30512 6.13495
#
# Compressibility (1/GPa) = 0.03930637
#
# Stress axis : x y z
#
# Youngs Moduli (GPa) = 18.52503 92.58243 133.13491
#
# Poissons Ratio (x) = 0.47192 1.03976
# Poissons Ratio (y) = 0.09443 0.47748
# Poissons Ratio (z) = 0.14468 0.33204
#
# Static dielectric constant tensor:
#      x y z
#    x 1.612000 0.000000 0.000000 
#    y 0.000000 1.583820 0.000000 
#    z 0.000000 0.000000 1.628650 
# 
# From -- ./inp_files/37250.got.cif
#   From: 2010.05.17/outbox.cif.g08.bks.cpg/sg51_19_cif.got.tgz:37250.got - 2010.06.03 11:52:47.
