data_PCOD9402854
_publ_section_title
;
Structure prediction by ZEFSAII (Michael W. Deem and Ramdas Pophale) SiO2 
 PCOD9402854
Probable space group: P M M A
;
_chemical_formula_sum "Si O2"
_cell_formula_units_Z 48
_cell_length_a 7.560328
_cell_length_b 7.778955
_cell_length_c 37.018723
_cell_angle_alpha 90.000000
_cell_angle_beta 90.000000
_cell_angle_gamma 90.000000
_cell_volume 2177.124825
_symmetry_space_group_name_H-M "P M M A"
_symmetry_group_IT_number 51
_symmetry_cell_setting 'orthorhombic'
loop_
_space_group_symop_operation_xyz
x,y,z
1/2-x,-y,z
1/2+x,-y,-z
-x,y,-z
-x,-y,-z
1/2+x,y,-z
1/2-x,y,z
x,-y,z
loop_
_atom_site_type_symbol
_atom_site_label
_atom_site_fract_x
_atom_site_fract_y
_atom_site_fract_z
Si Si1 0.967177 0.197855 0.093731
Si Si2 0.461689 0.000000 0.457755
Si Si3 0.959865 0.807214 0.249461
Si Si4 0.955100 0.210550 0.173072
Si Si5 0.053690 0.703873 0.328489
Si Si6 0.961791 0.500000 0.042246
Si Si7 0.532575 0.698387 0.593951
O O1 0.750000 0.197328 0.094712
O O2 0.029917 0.254425 0.133813
O O3 0.025953 0.330285 0.063232
O O4 0.020333 0.000000 0.087441
O O5 0.500000 0.000000 0.500000
O O6 0.525286 0.170505 0.436923
O O7 0.250000 0.000000 0.453801
O O8 0.750000 0.818194 0.243237
O O9 0.031032 0.729565 0.211760
O O10 0.977925 0.725784 0.288675
O O11 0.032171 0.000000 0.252827
O O12 0.750000 0.266623 0.171631
O O13 0.957643 0.000000 0.174531
O O14 0.250000 0.779696 0.326480
O O15 0.065306 0.500000 0.334230
O O16 0.970576 0.763078 0.366291
O O17 0.750000 0.500000 0.046128
O O18 0.000000 0.500000 0.000000
O O19 0.750000 0.698228 0.595478
O O20 0.478892 0.500000 0.587711
#
# Coordination Sequence:
#
# PCOD9402854 Si02
#       7
#     8   4   8   8   8   4   8
#     4   8  14  27  47  68  91 121 156 196 234 275
#     4  10  20  34  54  78 100 124 158 200 248 296
#     4   9  17  28  44  70 100 126 153 195 248 291
#     4   7  11  23  42  63  90 120 151 189 232 274
#     4   9  18  32  48  67  93 127 169 206 233 273
#     4  10  20  32  48  72  96 118 154 196 238 290
#     4   8  16  32  52  72  95 127 166 203 235 279
#
# _framework density 22.047428
#
# number of rings (size 3 to 8) (size 9 to 14) (size 15 to 20)
#    0.000    3.500    0.000    3.000    1.167    1.333 
#    1.500    0.833    0.000    2.000    0.000    2.333 
#    0.000    0.000    0.000    0.000    0.000    0.000 
#
# Total GULP energy -267284.729280 kJ/mol
# GULP energy per Si atom -5568.431860 kJ/mol
# Density = 2.199725 g / cm^3
# Si number density = 22.047428 Si / 1000 Ang^3
#
#
#
# Elastic Constant Matrix: (Units=GPa)
#
#
# Indices 1 2 3 4 5 6 
#
# 1 44.9728 4.6577 7.3020 0.0000 0.0000 0.0000
# 2 4.6577 93.5081 97.2140 0.0000 0.0000 0.0000
# 3 7.3020 97.2140 260.1131 0.0000 0.0000 0.0000
# 4 0.0000 0.0000 0.0000 45.7158 0.0000 0.0000
# 5 0.0000 0.0000 0.0000 0.0000 10.3376 0.0000
# 6 0.0000 0.0000 0.0000 0.0000 0.0000 2.7443
#
#
#
# Elastic Compliance Matrix: (Units=1/GPa)
#
#
# Indices 1 2 3 4 5 6 
#
# 1 0.022370 -0.000755 -0.000346 0.000000 0.000000 0.000000
# 2 -0.000755 0.017515 -0.006525 0.000000 0.000000 0.000000
# 3 -0.000346 -0.006525 0.006293 0.000000 0.000000 0.000000
# 4 0.000000 0.000000 0.000000 0.021874 0.000000 0.000000
# 5 0.000000 0.000000 0.000000 0.000000 0.096734 0.000000
# 6 0.000000 0.000000 0.000000 0.000000 0.000000 0.364385
#
#
# Mechanical properties :
#
#
# Convention : Reuss Voigt Hill
#
# Bulk Modulus (GPa) = 32.33403 68.54904 50.44153
# Shear Modulus (GPa) = 9.01336 31.05424 20.03380
#
# Velocity S-wave (km/s) = 2.02412 3.75710 3.01768
# Velocity P-wave (km/s) = 4.49001 7.06966 5.92201
#
# Compressibility (1/GPa) = 0.03092717
#
# Stress axis : x y z
#
# Youngs Moduli (GPa) = 44.70273 57.09246 158.91105
#
# Poissons Ratio (x) = 0.04308 0.05498
# Poissons Ratio (y) = 0.03373 1.03689
# Poissons Ratio (z) = 0.01546 0.37253
#
# Static dielectric constant tensor:
#      x y z
#    x 1.874650 0.000000 0.000000 
#    y 0.000000 1.801110 0.000000 
#    z 0.000000 0.000000 1.847410 
# 
# From -- ./inp_files/37169.got.cif
#   From: 2010.05.17/outbox.cif.g08.bks.cpg/sg51_19_cif.got.tgz:37169.got - 2010.06.03 11:52:47.
