data_PCOD9402750
_publ_section_title
;
Structure prediction by ZEFSAII (Michael W. Deem and Ramdas Pophale) SiO2 
 PCOD9402750
Probable space group: P M M A
;
_chemical_formula_sum "Si O2"
_cell_formula_units_Z 64
_cell_length_a 8.975982
_cell_length_b 15.358509
_cell_length_c 26.305433
_cell_angle_alpha 90.000000
_cell_angle_beta 90.000000
_cell_angle_gamma 90.000000
_cell_volume 3626.406500
_symmetry_space_group_name_H-M "P M M A"
_symmetry_group_IT_number 51
_symmetry_cell_setting 'orthorhombic'
loop_
_space_group_symop_operation_xyz
x,y,z
1/2-x,-y,z
1/2+x,-y,-z
-x,y,-z
-x,-y,-z
1/2+x,y,-z
1/2-x,y,z
x,-y,z
loop_
_atom_site_type_symbol
_atom_site_label
_atom_site_fract_x
_atom_site_fract_y
_atom_site_fract_z
Si Si1 0.076234 0.395204 0.842709
Si Si2 0.428122 0.399744 0.661114
Si Si3 0.582332 0.168098 0.549683
Si Si4 0.580490 0.624317 0.551435
Si Si5 0.070831 0.291658 0.247750
Si Si6 0.917101 0.900209 0.355387
Si Si7 0.572233 0.903833 0.751239
Si Si8 0.078039 0.394038 0.052145
O O1 0.250000 0.371408 0.838116
O O2 0.066412 0.500000 0.840030
O O3 0.982694 0.354009 0.797304
O O4 0.010775 0.367773 0.897390
O O5 0.250000 0.386739 0.659929
O O6 0.456389 0.500000 0.678926
O O7 0.493387 0.393050 0.603973
O O8 0.500586 0.329922 0.699945
O O9 0.500000 0.132220 0.500000
O O10 0.750000 0.132925 0.555262
O O11 0.591512 0.271761 0.544924
O O12 0.483560 0.152862 0.598863
O O13 0.500000 0.592989 0.500000
O O14 0.750000 0.592700 0.555466
O O15 0.250000 0.292011 0.253366
O O16 0.022807 0.192908 0.231756
O O17 0.750000 0.872159 0.340656
O O18 0.025925 0.899242 0.307653
O O19 0.909033 0.000000 0.372771
O O20 0.750000 0.906111 0.757309
O O21 0.515366 0.000000 0.769785
O O22 0.250000 0.366268 0.054393
O O23 0.077257 0.500000 0.051367
O O24 0.000000 0.365056 0.000000
#
# Coordination Sequence:
#
# PCOD9402750 Si02
#       8
#     8   8   8   8   8   8   8   8
#     4  10  20  33  49  72 106 147 186 222 261 304
#     4  11  24  39  54  74 101 133 166 201 246 300
#     4  10  20  33  49  68  89 114 144 179 224 278
#     4  10  21  37  56  75  93 117 153 197 243 291
#     4  11  22  35  54  78 103 134 171 211 256 304
#     4  10  20  32  47  68  91 115 145 182 228 284
#     4   9  19  36  55  74  97 125 158 198 246 300
#     4   9  16  27  45  70 102 142 187 230 267 303
#
# _framework density 17.648323000000001
#
# number of rings (size 3 to 8) (size 9 to 14) (size 15 to 20)
#    0.000    2.000    0.000    3.750    0.000   11.500 
#    0.000    0.000    0.000    0.000    0.000    0.000 
#    0.000    0.500    0.000    1.375    0.000    2.000 
#
# Total GULP energy -356830.453661 kJ/mol
# GULP energy per Si atom -5575.475838 kJ/mol
# Density = 1.760816 g / cm^3
# Si number density = 17.648323 Si / 1000 Ang^3
#
#
#
# Elastic Constant Matrix: (Units=GPa)
#
#
# Indices 1 2 3 4 5 6 
#
# 1 53.9817 27.0550 23.1634 0.0000 0.0000 0.0000
# 2 27.0550 47.5177 20.3247 0.0000 0.0000 0.0000
# 3 23.1634 20.3247 80.6088 0.0000 0.0000 0.0000
# 4 0.0000 0.0000 0.0000 3.3353 0.0000 0.0000
# 5 0.0000 0.0000 0.0000 0.0000 28.1402 0.0000
# 6 0.0000 0.0000 0.0000 0.0000 0.0000 13.7246
#
#
#
# Elastic Compliance Matrix: (Units=1/GPa)
#
#
# Indices 1 2 3 4 5 6 
#
# 1 0.027241 -0.013632 -0.004391 0.000000 0.000000 0.000000
# 2 -0.013632 0.030411 -0.003750 0.000000 0.000000 0.000000
# 3 -0.004391 -0.003750 0.014613 0.000000 0.000000 0.000000
# 4 0.000000 0.000000 0.000000 0.299824 0.000000 0.000000
# 5 0.000000 0.000000 0.000000 0.000000 0.035536 0.000000
# 6 0.000000 0.000000 0.000000 0.000000 0.000000 0.072862
#
#
# Mechanical properties :
#
#
# Convention : Reuss Voigt Hill
#
# Bulk Modulus (GPa) = 34.82124 35.91047 35.36586
# Shear Modulus (GPa) = 9.37020 16.47769 12.92395
#
# Velocity S-wave (km/s) = 2.30671 3.05891 2.70905
# Velocity P-wave (km/s) = 5.18344 5.73306 5.46516
#
# Compressibility (1/GPa) = 0.02871810
#
# Stress axis : x y z
#
# Youngs Moduli (GPa) = 36.70926 32.88320 68.43258
#
# Poissons Ratio (x) = 0.44827 0.30046
# Poissons Ratio (y) = 0.50043 0.25665
# Poissons Ratio (z) = 0.16118 0.12333
#
# Static dielectric constant tensor:
#      x y z
#    x 1.614020 0.000000 0.000000 
#    y 0.000000 1.660870 0.000000 
#    z 0.000000 0.000000 1.561210 
# 
# From -- ./inp_files/34985.got.cif
#   From: 2010.05.17/outbox.cif.g08.bks.cpg/sg51_18_cif.got.tgz:34985.got - 2010.06.03 11:52:47.
