data_PCOD9402932
_publ_section_title
;
Structure prediction by ZEFSAII (Michael W. Deem and Ramdas Pophale) SiO2 
 PCOD9402932
Probable space group: P M M A
;
_chemical_formula_sum "Si O2"
_cell_formula_units_Z 64
_cell_length_a 8.734422
_cell_length_b 16.443435
_cell_length_c 23.088519
_cell_angle_alpha 90.000000
_cell_angle_beta 90.000000
_cell_angle_gamma 90.000000
_cell_volume 3316.063154
_symmetry_space_group_name_H-M "P M M A"
_symmetry_group_IT_number 51
_symmetry_cell_setting 'orthorhombic'
loop_
_space_group_symop_operation_xyz
x,y,z
1/2-x,-y,z
1/2+x,-y,-z
-x,y,-z
-x,-y,-z
1/2+x,y,-z
1/2-x,y,z
x,-y,z
loop_
_atom_site_type_symbol
_atom_site_label
_atom_site_fract_x
_atom_site_fract_y
_atom_site_fract_z
Si Si1 0.427376 0.712394 0.687133
Si Si2 0.932998 0.232545 0.061936
Si Si3 0.068647 0.124434 0.274334
Si Si4 0.432337 0.406725 0.095712
Si Si5 0.579501 0.594687 0.766515
Si Si6 0.564953 0.087996 0.596454
Si Si7 0.435811 0.908390 0.144289
Si Si8 0.068391 0.257511 0.558884
O O1 0.250000 0.737972 0.687005
O O2 0.527881 0.781638 0.717305
O O3 0.454432 0.634985 0.726384
O O4 0.475140 0.701570 0.620201
O O5 0.750000 0.230249 0.062204
O O6 0.986436 0.326594 0.070882
O O7 0.996035 0.167939 0.109204
O O8 0.000000 0.206435 0.000000
O O9 0.250000 0.109912 0.273203
O O10 0.014971 0.088486 0.335771
O O11 0.011949 0.096179 0.211712
O O12 0.250000 0.402143 0.082878
O O13 0.482331 0.500000 0.079688
O O14 0.450540 0.398259 0.165115
O O15 0.750000 0.629511 0.755254
O O16 0.585418 0.500000 0.753696
O O17 0.750000 0.097461 0.594916
O O18 0.489563 0.164908 0.566370
O O19 0.525349 0.000000 0.571598
O O20 0.250000 0.901052 0.142984
O O21 0.474294 0.000000 0.122496
O O22 0.250000 0.258257 0.553867
O O23 0.000000 0.292661 0.500000
#
# Coordination Sequence:
#
# PCOD9402932 Si02
#       8
#     8   8   8   8   8   8   8   8
#     4  10  20  32  49  76 107 137 170 214 265 311
#     4  12  26  42  60  82 111 148 190 233 276 326
#     4   9  17  31  53  79 106 137 172 210 258 318
#     4   9  19  38  63  90 120 150 180 218 265 321
#     4   9  18  33  55  83 112 141 170 200 244 307
#     4   9  17  30  49  73 100 130 165 205 251 306
#     4  10  21  38  60  84 111 145 186 233 281 327
#     4  10  21  35  49  67  93 129 174 217 258 304
#
# _framework density 19.299994999999999
#
# number of rings (size 3 to 8) (size 9 to 14) (size 15 to 20)
#    0.000    2.250    0.000    3.750    0.000    8.750 
#    0.000    1.250    0.000    2.625    0.000    0.000 
#    0.000    0.000    0.000    0.000    0.000    0.000 
#
# Total GULP energy -356786.731464 kJ/mol
# GULP energy per Si atom -5574.792679 kJ/mol
# Density = 1.925607 g / cm^3
# Si number density = 19.299995 Si / 1000 Ang^3
#
#
#
# Elastic Constant Matrix: (Units=GPa)
#
#
# Indices 1 2 3 4 5 6 
#
# 1 33.9823 20.7755 23.5707 0.0000 0.0000 0.0000
# 2 20.7755 65.1876 36.1256 0.0000 0.0000 0.0000
# 3 23.5707 36.1256 71.2703 0.0000 0.0000 0.0000
# 4 0.0000 0.0000 0.0000 198.5935 0.0000 0.0000
# 5 0.0000 0.0000 0.0000 0.0000 26.3007 0.0000
# 6 0.0000 0.0000 0.0000 0.0000 0.0000 7.7606
#
#
#
# Elastic Compliance Matrix: (Units=1/GPa)
#
#
# Indices 1 2 3 4 5 6 
#
# 1 0.040776 -0.007679 -0.009593 0.000000 0.000000 0.000000
# 2 -0.007679 0.022779 -0.009007 0.000000 0.000000 0.000000
# 3 -0.009593 -0.009007 0.021769 0.000000 0.000000 0.000000
# 4 0.000000 0.000000 0.000000 0.005035 0.000000 0.000000
# 5 0.000000 0.000000 0.000000 0.000000 0.038022 0.000000
# 6 0.000000 0.000000 0.000000 0.000000 0.000000 0.128856
#
#
# Mechanical properties :
#
#
# Convention : Reuss Voigt Hill
#
# Bulk Modulus (GPa) = 30.51928 36.82044 33.66986
# Shear Modulus (GPa) = 15.59010 52.52886 34.05948
#
# Velocity S-wave (km/s) = 2.84523 5.22265 4.20544
# Velocity P-wave (km/s) = 5.16151 7.44899 6.40815
#
# Compressibility (1/GPa) = 0.03276617
#
# Stress axis : x y z
#
# Youngs Moduli (GPa) = 24.52446 43.90025 45.93694
#
# Poissons Ratio (x) = 0.33711 0.44068
# Poissons Ratio (y) = 0.18832 0.41373
# Poissons Ratio (z) = 0.23526 0.39539
#
# Static dielectric constant tensor:
#      x y z
#    x 1.695200 0.000000 0.000000 
#    y 0.000000 1.709960 0.000000 
#    z 0.000000 0.000000 1.696810 
# 
# From -- ./inp_files/34879.got.cif
#   From: 2010.05.17/outbox.cif.g08.bks.cpg/sg51_18_cif.got.tgz:34879.got - 2010.06.03 11:52:47.
