data_PCOD9402036
_publ_section_title
;
Structure prediction by ZEFSAII (Michael W. Deem and Ramdas Pophale) SiO2 
 PCOD9402036
Probable space group: P M M A
;
_chemical_formula_sum "Si O2"
_cell_formula_units_Z 64
_cell_length_a 24.425359
_cell_length_b 8.079036
_cell_length_c 15.083215
_cell_angle_alpha 90.000000
_cell_angle_beta 90.000000
_cell_angle_gamma 90.000000
_cell_volume 2976.421415
_symmetry_space_group_name_H-M "P M M A"
_symmetry_group_IT_number 51
_symmetry_cell_setting 'orthorhombic'
loop_
_space_group_symop_operation_xyz
x,y,z
1/2-x,-y,z
1/2+x,-y,-z
-x,y,-z
-x,-y,-z
1/2+x,y,-z
1/2-x,y,z
x,-y,z
loop_
_atom_site_type_symbol
_atom_site_label
_atom_site_fract_x
_atom_site_fract_y
_atom_site_fract_z
Si Si1 0.006844 0.703770 0.211054
Si Si2 0.690027 0.801725 0.253801
Si Si3 0.129927 0.304699 0.190824
Si Si4 0.023088 0.694324 0.591986
Si Si5 0.189389 0.193061 0.021786
Si Si6 0.398627 0.690564 0.880745
Si Si7 0.686968 0.200474 0.632531
Si Si8 0.355524 0.801453 0.560125
O O1 0.005214 0.500000 0.212399
O O2 0.997010 0.760710 0.312921
O O3 0.957308 0.764000 0.148221
O O4 0.067257 0.753304 0.180123
O O5 0.750000 0.751321 0.220856
O O6 0.641060 0.713173 0.203690
O O7 0.685304 0.772241 0.358520
O O8 0.684350 0.000000 0.239119
O O9 0.131349 0.500000 0.172609
O O10 0.171548 0.220843 0.122931
O O11 0.149056 0.271931 0.290791
O O12 0.008016 0.500000 0.592457
O O13 0.087927 0.715173 0.584936
O O14 0.000000 0.768521 0.500000
O O15 0.250000 0.268750 0.005120
O O16 0.194333 0.000000 0.003948
O O17 0.138758 0.249421 0.961413
O O18 0.409530 0.500000 0.899213
O O19 0.750000 0.250510 0.646109
O O20 0.666951 0.251492 0.534975
O O21 0.684732 0.000000 0.636402
O O22 0.365045 0.000000 0.556454
#
# Coordination Sequence:
#
# PCOD9402036 Si02
#       8
#     8   8   8   8   8   8   8   8
#     4   9  20  38  58  86 123 159 193 240 302 353
#     4  10  20  35  55  82 118 157 195 239 293 347
#     4  11  23  41  65  90 117 153 200 249 298 356
#     4  10  19  34  56  80 114 160 203 243 293 350
#     4  11  25  45  66  90 122 156 191 239 303 364
#     4  11  22  39  63  89 120 156 198 242 289 350
#     4  10  21  38  58  83 120 162 201 247 305 359
#     4  10  20  34  54  82 115 155 201 244 291 349
#
# _framework density 21.502331999999999
#
# number of rings (size 3 to 8) (size 9 to 14) (size 15 to 20)
#    0.000    1.750    1.250    3.000    0.000    8.250 
#    0.000    6.250    0.000    2.250    0.000    0.000 
#    0.000    0.000    0.000    0.000    0.000    0.000 
#
# Total GULP energy -357458.176391 kJ/mol
# GULP energy per Si atom -5585.284006 kJ/mol
# Density = 2.145339 g / cm^3
# Si number density = 21.502332 Si / 1000 Ang^3
#
#
#
# Elastic Constant Matrix: (Units=GPa)
#
#
# Indices 1 2 3 4 5 6 
#
# 1 87.9555 -5.9352 7.5678 0.0000 0.0000 0.0000
# 2 -5.9352 6.8526 -3.5286 0.0000 0.0000 0.0000
# 3 7.5678 -3.5286 60.6182 0.0000 0.0000 0.0000
# 4 0.0000 0.0000 0.0000 26.8211 0.0000 0.0000
# 5 0.0000 0.0000 0.0000 0.0000 7.9057 0.0000
# 6 0.0000 0.0000 0.0000 0.0000 0.0000 23.1098
#
#
#
# Elastic Compliance Matrix: (Units=1/GPa)
#
#
# Indices 1 2 3 4 5 6 
#
# 1 0.012126 0.010023 -0.000930 0.000000 0.000000 0.000000
# 2 0.010023 0.158724 0.007988 0.000000 0.000000 0.000000
# 3 -0.000930 0.007988 0.017078 0.000000 0.000000 0.000000
# 4 0.000000 0.000000 0.000000 0.037284 0.000000 0.000000
# 5 0.000000 0.000000 0.000000 0.000000 0.126491 0.000000
# 6 0.000000 0.000000 0.000000 0.000000 0.000000 0.043272
#
#
# Mechanical properties :
#
#
# Convention : Reuss Voigt Hill
#
# Bulk Modulus (GPa) = 4.50269 16.84827 10.67548
# Shear Modulus (GPa) = 11.49841 22.05548 16.77694
#
# Velocity S-wave (km/s) = 2.31498 3.20617 2.79631
# Velocity P-wave (km/s) = 3.04041 4.64312 3.92445
#
# Compressibility (1/GPa) = 0.22208942
#
# Stress axis : x y z
#
# Youngs Moduli (GPa) = 82.46875 6.30024 58.55545
#
# Poissons Ratio (x) = -0.06315 0.05448
# Poissons Ratio (y) = -0.82661 -0.46774
# Poissons Ratio (z) = 0.07673 -0.05033
#
# Static dielectric constant tensor:
#      x y z
#    x 1.815580 0.000000 0.000000 
#    y 0.000000 1.777710 0.000000 
#    z 0.000000 0.000000 1.785540 
# 
# From -- ./inp_files/26217.got.cif
#   From: 2010.05.17/outbox.cif.g08.bks.cpg/sg51_14_cif.got.tgz:26217.got - 2010.06.03 11:52:47.
