data_PCOD9402144
_publ_section_title
;
Structure prediction by ZEFSAII (Michael W. Deem and Ramdas Pophale) SiO2 
 PCOD9402144
Probable space group: P M M A
;
_chemical_formula_sum "Si O2"
_cell_formula_units_Z 64
_cell_length_a 24.158243
_cell_length_b 7.812026
_cell_length_c 15.894739
_cell_angle_alpha 90.000000
_cell_angle_beta 90.000000
_cell_angle_gamma 90.000000
_cell_volume 2999.731795
_symmetry_space_group_name_H-M "P M M A"
_symmetry_group_IT_number 51
_symmetry_cell_setting 'orthorhombic'
loop_
_space_group_symop_operation_xyz
x,y,z
1/2-x,-y,z
1/2+x,-y,-z
-x,y,-z
-x,-y,-z
1/2+x,y,-z
1/2-x,y,z
x,-y,z
loop_
_atom_site_type_symbol
_atom_site_label
_atom_site_fract_x
_atom_site_fract_y
_atom_site_fract_z
Si Si1 0.187030 0.210156 0.489300
Si Si2 0.495144 0.793085 0.099001
Si Si3 0.876408 0.698690 0.834124
Si Si4 0.386097 0.206123 0.840329
Si Si5 0.367990 0.801237 0.658718
Si Si6 0.485340 0.301057 0.593893
Si Si7 0.812928 0.293241 0.998175
Si Si8 0.398582 0.801269 0.348099
O O1 0.250000 0.261901 0.472110
O O2 0.166606 0.271220 0.580802
O O3 0.143138 0.267064 0.419015
O O4 0.185800 0.000000 0.488745
O O5 0.439907 0.714682 0.136564
O O6 0.551216 0.733349 0.143863
O O7 0.490841 0.000000 0.107323
O O8 0.500000 0.754056 0.000000
O O9 0.862027 0.500000 0.822519
O O10 0.872075 0.785508 0.743735
O O11 0.840172 0.770025 0.911208
O O12 0.362624 0.274406 0.752055
O O13 0.349423 0.245313 0.921431
O O14 0.389417 0.000000 0.833426
O O15 0.432739 0.791950 0.633439
O O16 0.351233 0.000000 0.664407
O O17 0.500000 0.236237 0.500000
O O18 0.469584 0.500000 0.586111
O O19 0.541470 0.285985 0.647248
O O20 0.750000 0.233268 0.007168
O O21 0.812844 0.500000 0.993847
O O22 0.409224 0.000000 0.366528
#
# Coordination Sequence:
#
# PCOD9402144 Si02
#       8
#     8   8   8   8   8   8   8   8
#     4   9  19  36  57  82 112 148 193 240 285 339
#     4  10  19  34  57  85 119 151 185 232 284 342
#     4  11  23  38  59  86 116 150 192 239 291 347
#     4  10  21  36  58  88 116 147 189 238 288 338
#     4  10  20  36  60  88 118 153 190 233 288 346
#     4  11  22  36  58  88 122 154 190 236 285 342
#     4  10  23  42  60  80 113 157 197 235 285 345
#     4  11  22  37  60  85 114 153 195 238 290 345
#
# _framework density 21.335239999999999
#
# number of rings (size 3 to 8) (size 9 to 14) (size 15 to 20)
#    0.000    1.750    2.500    1.875    0.000    4.500 
#    0.000    1.250    0.000    3.000    0.000    0.000 
#    0.000    0.000    0.000    0.000    0.000    0.000 
#
# Total GULP energy -357681.006255 kJ/mol
# GULP energy per Si atom -5588.765723 kJ/mol
# Density = 2.128668 g / cm^3
# Si number density = 21.335240 Si / 1000 Ang^3
#
#
#
# Elastic Constant Matrix: (Units=GPa)
#
#
# Indices 1 2 3 4 5 6 
#
# 1 68.6807 -12.2394 -8.1858 0.0000 0.0000 0.0000
# 2 -12.2394 26.5908 -4.6730 0.0000 0.0000 0.0000
# 3 -8.1858 -4.6730 85.6015 0.0000 0.0000 0.0000
# 4 0.0000 0.0000 0.0000 13.6561 0.0000 0.0000
# 5 0.0000 0.0000 0.0000 0.0000 6.1985 0.0000
# 6 0.0000 0.0000 0.0000 0.0000 0.0000 -10.5147
#
#
#
# Elastic Compliance Matrix: (Units=1/GPa)
#
#
# Indices 1 2 3 4 5 6 
#
# 1 0.016185 0.007796 0.001973 0.000000 0.000000 0.000000
# 2 0.007796 0.041727 0.003023 0.000000 0.000000 0.000000
# 3 0.001973 0.003023 0.012036 0.000000 0.000000 0.000000
# 4 0.000000 0.000000 0.000000 0.073228 0.000000 0.000000
# 5 0.000000 0.000000 0.000000 0.000000 0.161328 0.000000
# 6 0.000000 0.000000 0.000000 0.000000 0.000000 -0.095105
#
#
# Mechanical properties :
#
#
# Convention : Reuss Voigt Hill
#
# Bulk Modulus (GPa) = 10.46755 14.51964 12.49359
# Shear Modulus (GPa) = 23.18505 15.59939 19.39222
#
# Velocity S-wave (km/s) = 3.30009 2.70692 3.01812
# Velocity P-wave (km/s) = 4.40882 4.07310 4.24428
#
# Compressibility (1/GPa) = 0.09553335
#
# Stress axis : x y z
#
# Youngs Moduli (GPa) = 61.78679 23.96540 83.08555
#
# Poissons Ratio (x) = -0.18684 -0.16395
# Poissons Ratio (y) = -0.48171 -0.25120
# Poissons Ratio (z) = -0.12192 -0.07246
#
# Static dielectric constant tensor:
#      x y z
#    x 1.728940 0.000000 0.000000 
#    y 0.000000 1.798600 0.000000 
#    z 0.000000 0.000000 1.776970 
# 
# From -- ./inp_files/26243.got.cif
#   From: 2010.05.17/outbox.cif.g08.bks.cpg/sg51_14_cif.got.tgz:26243.got - 2010.06.03 11:52:47.
