data_PCOD9402985
_publ_section_title
;
Structure prediction by ZEFSAII (Michael W. Deem and Ramdas Pophale) SiO2 
 PCOD9402985
Probable space group: P M M A
;
_chemical_formula_sum "Si O2"
_cell_formula_units_Z 52
_cell_length_a 9.674269
_cell_length_b 17.136459
_cell_length_c 17.982971
_cell_angle_alpha 90.000000
_cell_angle_beta 90.000000
_cell_angle_gamma 90.000000
_cell_volume 2981.265739
_symmetry_space_group_name_H-M "P M M A"
_symmetry_group_IT_number 51
_symmetry_cell_setting 'orthorhombic'
loop_
_space_group_symop_operation_xyz
x,y,z
1/2-x,-y,z
1/2+x,-y,-z
-x,y,-z
-x,-y,-z
1/2+x,y,-z
1/2-x,y,z
x,-y,z
loop_
_atom_site_type_symbol
_atom_site_label
_atom_site_fract_x
_atom_site_fract_y
_atom_site_fract_z
Si Si1 0.091430 0.157587 0.068599
Si Si2 0.089226 0.000000 0.426094
Si Si3 0.017339 0.315516 0.854243
Si Si4 0.250000 0.593588 0.944331
Si Si5 0.593823 0.910234 0.773806
Si Si6 0.089661 0.776379 0.709588
Si Si7 0.250000 0.407830 0.122226
Si Si8 0.084277 0.177088 0.422358
O O1 0.250000 0.171799 0.045836
O O2 0.091555 0.097722 0.136916
O O3 0.028398 0.237958 0.101088
O O4 0.000000 0.131156 0.000000
O O5 0.065690 0.913311 0.393499
O O6 0.000000 0.000000 0.500000
O O7 0.250000 0.000000 0.446065
O O8 0.120603 0.365350 0.904908
O O9 0.075905 0.287915 0.774669
O O10 0.882987 0.367654 0.843175
O O11 0.250000 0.500000 0.932833
O O12 0.250000 0.607246 0.032926
O O13 0.750000 0.882302 0.751244
O O14 0.471940 0.854763 0.746800
O O15 0.580777 0.000000 0.751571
O O16 0.250000 0.784378 0.688053
O O17 0.990142 0.767708 0.638038
O O18 0.250000 0.500000 0.132597
O O19 0.250000 0.190129 0.430828
O O20 0.000000 0.182755 0.500000
#
# Coordination Sequence:
#
# PCOD9402985 Si02
#       8
#     8   4   8   4   8   8   4   8
#     4  10  20  32  51  72  96 134 178 226 281 330
#     4   8  16  30  48  76 108 142 175 218 275 325
#     4  11  22  37  54  80 114 147 185 226 272 335
#     4  11  22  38  58  84 116 150 181 226 280 330
#     4   9  20  37  52  69  96 134 184 235 284 330
#     4  11  23  37  54  78 111 151 187 228 277 329
#     4  11  22  36  60  88 114 146 187 230 276 334
#     4  10  20  35  57  83 112 145 186 230 278 336
#
# _framework density 17.442256
#
# number of rings (size 3 to 8) (size 9 to 14) (size 15 to 20)
#    0.000    1.846    1.538    2.769    4.308    3.077 
#    0.000    0.000    0.000    0.000    0.000    0.000 
#    0.000    3.692    0.000    0.000    0.000    0.000 
#
# Total GULP energy -290048.817834 kJ/mol
# GULP energy per Si atom -5577.861881 kJ/mol
# Density = 1.740256 g / cm^3
# Si number density = 17.442256 Si / 1000 Ang^3
#
#
#
# Elastic Constant Matrix: (Units=GPa)
#
#
# Indices 1 2 3 4 5 6 
#
# 1 113.3998 22.4110 37.9445 0.0000 0.0000 0.0000
# 2 22.4110 53.5952 14.3440 0.0000 0.0000 0.0000
# 3 37.9445 14.3440 79.0431 0.0000 0.0000 0.0000
# 4 0.0000 0.0000 0.0000 113.7774 0.0000 0.0000
# 5 0.0000 0.0000 0.0000 0.0000 33.3469 0.0000
# 6 0.0000 0.0000 0.0000 0.0000 0.0000 26.3120
#
#
#
# Elastic Compliance Matrix: (Units=1/GPa)
#
#
# Indices 1 2 3 4 5 6 
#
# 1 0.011055 -0.003366 -0.004696 0.000000 0.000000 0.000000
# 2 -0.003366 0.020636 -0.002129 0.000000 0.000000 0.000000
# 3 -0.004696 -0.002129 0.015292 0.000000 0.000000 0.000000
# 4 0.000000 0.000000 0.000000 0.008789 0.000000 0.000000
# 5 0.000000 0.000000 0.000000 0.000000 0.029988 0.000000
# 6 0.000000 0.000000 0.000000 0.000000 0.000000 0.038006
#
#
# Mechanical properties :
#
#
# Convention : Reuss Voigt Hill
#
# Bulk Modulus (GPa) = 37.59296 43.93746 40.76521
# Shear Modulus (GPa) = 32.67684 46.10983 39.39333
#
# Velocity S-wave (km/s) = 4.33301 5.14714 4.75752
# Velocity P-wave (km/s) = 6.82883 7.78261 7.32127
#
# Compressibility (1/GPa) = 0.02660073
#
# Stress axis : x y z
#
# Youngs Moduli (GPa) = 90.45783 48.45994 65.39351
#
# Poissons Ratio (x) = 0.16311 0.30709
# Poissons Ratio (y) = 0.30446 0.13922
# Poissons Ratio (z) = 0.42480 0.10317
#
# Static dielectric constant tensor:
#      x y z
#    x 1.578050 0.000000 0.000000 
#    y 0.000000 1.576770 0.000000 
#    z 0.000000 0.000000 1.622980 
# 
# From -- ./inp_files/27997.got.cif
#   From: 2010.05.17/outbox.cif.g08.bks.cpg/sg51_14_cif.got.tgz:27997.got - 2010.06.03 11:52:47.
