data_PCOD9402761
_publ_section_title
;
Structure prediction by ZEFSAII (Michael W. Deem and Ramdas Pophale) SiO2 
 PCOD9402761
Probable space group: P M M A
;
_chemical_formula_sum "Si O2"
_cell_formula_units_Z 44
_cell_length_a 8.565205
_cell_length_b 30.169216
_cell_length_c 9.461672
_cell_angle_alpha 90.000000
_cell_angle_beta 90.000000
_cell_angle_gamma 90.000000
_cell_volume 2444.948271
_symmetry_space_group_name_H-M "P M M A"
_symmetry_group_IT_number 51
_symmetry_cell_setting 'orthorhombic'
loop_
_space_group_symop_operation_xyz
x,y,z
1/2-x,-y,z
1/2+x,-y,-z
-x,y,-z
-x,-y,-z
1/2+x,y,-z
1/2-x,y,z
x,-y,z
loop_
_atom_site_type_symbol
_atom_site_label
_atom_site_fract_x
_atom_site_fract_y
_atom_site_fract_z
Si Si1 0.937482 0.584750 0.340697
Si Si2 0.937449 0.320484 0.658834
Si Si3 0.936912 0.764354 0.840426
Si Si4 0.062520 0.856484 0.838433
Si Si5 0.438648 0.047679 0.838562
Si Si6 0.561500 0.500000 0.158437
O O1 0.750000 0.585876 0.345774
O O2 0.988605 0.543957 0.243162
O O3 0.000000 0.578592 0.500000
O O4 0.998762 0.632297 0.288091
O O5 0.750000 0.322356 0.655881
O O6 0.986734 0.278595 0.752308
O O7 0.000000 0.315067 0.500000
O O8 0.750000 0.765806 0.845287
O O9 0.996607 0.810937 0.776203
O O10 0.000000 0.760858 0.000000
O O11 0.250000 0.853917 0.840666
O O12 0.014233 0.904492 0.775581
O O13 0.000000 0.857032 0.000000
O O14 0.250000 0.047833 0.842469
O O15 0.488688 0.000000 0.775198
O O16 0.500000 0.047591 0.000000
O O17 0.750000 0.500000 0.155866
O O18 0.500000 0.500000 0.000000
#
# Coordination Sequence:
#
# PCOD9402761 Si02
#       6
#     8   8   8   8   8   4
#     4  10  20  36  57  79 102 131 166 201 239 285
#     4  10  21  36  54  76  99 127 163 202 243 285
#     4  10  20  32  47  68  95 126 159 195 238 287
#     4   9  15  23  37  56  81 115 152 189 231 279
#     4   8  13  20  30  47  73 106 144 184 225 271
#     4  10  23  38  54  80 110 138 167 200 240 282
#
# _framework density 17.996290999999999
#
# number of rings (size 3 to 8) (size 9 to 14) (size 15 to 20)
#    0.000    2.545    0.000    4.636    0.000    5.818 
#    0.000    3.636    0.000    0.000    0.000    0.000 
#    0.000    0.727    0.000    1.636    0.000    8.545 
#
# Total GULP energy -245100.700671 kJ/mol
# GULP energy per Si atom -5570.470470 kJ/mol
# Density = 1.795533 g / cm^3
# Si number density = 17.996291 Si / 1000 Ang^3
#
#
#
# Elastic Constant Matrix: (Units=GPa)
#
#
# Indices 1 2 3 4 5 6 
#
# 1 37.2913 41.6607 12.4486 0.0000 0.0000 0.0000
# 2 41.6607 245.1278 68.2870 0.0000 0.0000 0.0000
# 3 12.4486 68.2870 34.6367 0.0000 0.0000 0.0000
# 4 0.0000 0.0000 0.0000 191.0892 0.0000 0.0000
# 5 0.0000 0.0000 0.0000 0.0000 18.1240 0.0000
# 6 0.0000 0.0000 0.0000 0.0000 0.0000 51.9352
#
#
#
# Elastic Compliance Matrix: (Units=1/GPa)
#
#
# Indices 1 2 3 4 5 6 
#
# 1 0.033151 -0.005136 -0.001790 0.000000 0.000000 0.000000
# 2 -0.005136 0.009845 -0.017565 0.000000 0.000000 0.000000
# 3 -0.001790 -0.017565 0.064144 0.000000 0.000000 0.000000
# 4 0.000000 0.000000 0.000000 0.005233 0.000000 0.000000
# 5 0.000000 0.000000 0.000000 0.000000 0.055175 0.000000
# 6 0.000000 0.000000 0.000000 0.000000 0.000000 0.019255
#
#
# Mechanical properties :
#
#
# Convention : Reuss Voigt Hill
#
# Bulk Modulus (GPa) = 17.19403 62.42761 39.81082
# Shear Modulus (GPa) = 19.59481 65.20698 42.40090
#
# Velocity S-wave (km/s) = 3.30331 6.02596 4.85922
# Velocity P-wave (km/s) = 4.91163 9.12035 7.32478
#
# Compressibility (1/GPa) = 0.05815971
#
# Stress axis : x y z
#
# Youngs Moduli (GPa) = 30.16537 101.56964 15.59001
#
# Poissons Ratio (x) = 0.52162 0.02790
# Poissons Ratio (y) = 0.15492 0.27384
# Poissons Ratio (z) = 0.05399 1.78405
#
# Static dielectric constant tensor:
#      x y z
#    x 1.609940 0.000000 0.000000 
#    y 0.000000 1.694260 0.000000 
#    z 0.000000 0.000000 1.576600 
# 
# From -- ./inp_files/5772.got.cif
#   From: 2010.05.17/outbox.cif.g08.bks.cpg/sg51_3_cif.got.tgz:5772.got - 2010.06.03 11:52:47.
