data_PCOD9402424
_publ_section_title
;
Structure prediction by ZEFSAII (Michael W. Deem and Ramdas Pophale) SiO2 
 PCOD9402424
Probable space group: P M M A
;
_chemical_formula_sum "Si O2"
_cell_formula_units_Z 48
_cell_length_a 8.869079
_cell_length_b 14.989754
_cell_length_c 20.709550
_cell_angle_alpha 90.000000
_cell_angle_beta 90.000000
_cell_angle_gamma 90.000000
_cell_volume 2753.237595
_symmetry_space_group_name_H-M "P M M A"
_symmetry_group_IT_number 51
_symmetry_cell_setting 'orthorhombic'
loop_
_space_group_symop_operation_xyz
x,y,z
1/2-x,-y,z
1/2+x,-y,-z
-x,y,-z
-x,-y,-z
1/2+x,y,-z
1/2-x,y,z
x,-y,z
loop_
_atom_site_type_symbol
_atom_site_label
_atom_site_fract_x
_atom_site_fract_y
_atom_site_fract_z
Si Si1 0.424289 0.101710 0.794820
Si Si2 0.924022 0.842678 0.354173
Si Si3 0.567500 0.500000 0.425819
Si Si4 0.071885 0.000000 0.431051
Si Si5 0.930260 0.292760 0.811179
Si Si6 0.928561 0.606295 0.068017
Si Si7 0.931026 0.654284 0.665796
O O1 0.250000 0.107945 0.817209
O O2 0.422873 0.115962 0.717684
O O3 0.514501 0.189757 0.816520
O O4 0.478278 0.000000 0.809216
O O5 0.750000 0.828348 0.373218
O O6 0.015920 0.751503 0.356432
O O7 0.008436 0.913541 0.396598
O O8 0.750000 0.500000 0.430289
O O9 0.500000 0.500000 0.500000
O O10 0.509917 0.416769 0.381650
O O11 0.000000 0.000000 0.500000
O O12 0.250000 0.000000 0.431902
O O13 0.750000 0.293409 0.812570
O O14 0.974699 0.340481 0.742656
O O15 0.997829 0.345823 0.871089
O O16 0.750000 0.622331 0.067171
O O17 0.954278 0.500000 0.073642
O O18 0.000000 0.635752 0.000000
O O19 0.750000 0.642276 0.662373
#
# Coordination Sequence:
#
# PCOD9402424 Si02
#       7
#     8   8   4   4   8   8   8
#     4   9  17  32  55  81 111 146 183 228 277 328
#     4  10  19  36  57  80 108 140 180 229 281 336
#     4  12  26  44  64  84 109 148 191 238 292 350
#     4  12  24  36  52  76 106 142 181 226 281 344
#     4  10  21  35  56  87 120 153 190 236 282 332
#     4  10  21  37  58  85 118 157 196 236 283 339
#     4  10  22  40  60  87 116 148 189 237 287 339
#
# _framework density 17.434021000000001
#
# number of rings (size 3 to 8) (size 9 to 14) (size 15 to 20)
#    0.000    1.833    0.833    3.500    1.167    4.667 
#    0.000    3.333    0.000    0.500    0.000    0.000 
#    0.000    0.000    0.000    0.000    0.000    0.000 
#
# Total GULP energy -267602.131297 kJ/mol
# GULP energy per Si atom -5575.044402 kJ/mol
# Density = 1.739434 g / cm^3
# Si number density = 17.434021 Si / 1000 Ang^3
#
#
#
# Elastic Constant Matrix: (Units=GPa)
#
#
# Indices 1 2 3 4 5 6 
#
# 1 73.3884 43.0960 69.3650 0.0000 0.0000 0.0000
# 2 43.0960 94.8516 83.0893 0.0000 0.0000 0.0000
# 3 69.3650 83.0893 130.4427 0.0000 0.0000 0.0000
# 4 0.0000 0.0000 0.0000 40.9578 0.0000 0.0000
# 5 0.0000 0.0000 0.0000 0.0000 29.5587 0.0000
# 6 0.0000 0.0000 0.0000 0.0000 0.0000 33.3161
#
#
#
# Elastic Compliance Matrix: (Units=1/GPa)
#
#
# Indices 1 2 3 4 5 6 
#
# 1 0.027417 0.000712 -0.015032 0.000000 0.000000 0.000000
# 2 0.000712 0.023870 -0.015583 0.000000 0.000000 0.000000
# 3 -0.015032 -0.015583 0.025586 0.000000 0.000000 0.000000
# 4 0.000000 0.000000 0.000000 0.024415 0.000000 0.000000
# 5 0.000000 0.000000 0.000000 0.000000 0.033831 0.000000
# 6 0.000000 0.000000 0.000000 0.000000 0.000000 0.030016
#
#
# Mechanical properties :
#
#
# Convention : Reuss Voigt Hill
#
# Bulk Modulus (GPa) = 58.60041 76.64258 67.62150
# Shear Modulus (GPa) = 21.67958 27.64201 24.66080
#
# Velocity S-wave (km/s) = 3.53019 3.98618 3.76509
# Velocity P-wave (km/s) = 7.09239 8.07732 7.60082
#
# Compressibility (1/GPa) = 0.01706473
#
# Stress axis : x y z
#
# Youngs Moduli (GPa) = 36.47420 41.89299 39.08359
#
# Poissons Ratio (x) = -0.02981 0.58752
# Poissons Ratio (y) = -0.02595 0.60905
# Poissons Ratio (z) = 0.54830 0.65283
#
# Static dielectric constant tensor:
#      x y z
#    x 1.587450 0.000000 0.000000 
#    y 0.000000 1.578640 0.000000 
#    z 0.000000 0.000000 1.575440 
# 
# From -- ./inp_files/27631.got.cif
#   From: 2010.05.17/outbox.cif.g08.bks.cpg/sg51_14_cif.got.tgz:27631.got - 2010.06.03 11:52:47.
