data_PCOD9402295
_publ_section_title
;
Structure prediction by ZEFSAII (Michael W. Deem and Ramdas Pophale) SiO2 
 PCOD9402295
Probable space group: P M M A
;
_chemical_formula_sum "Si O2"
_cell_formula_units_Z 40
_cell_length_a 9.212089
_cell_length_b 10.263867
_cell_length_c 25.489846
_cell_angle_alpha 90.000000
_cell_angle_beta 90.000000
_cell_angle_gamma 90.000000
_cell_volume 2410.107158
_symmetry_space_group_name_H-M "P M M A"
_symmetry_group_IT_number 51
_symmetry_cell_setting 'orthorhombic'
loop_
_space_group_symop_operation_xyz
x,y,z
1/2-x,-y,z
1/2+x,-y,-z
-x,y,-z
-x,-y,-z
1/2+x,y,-z
1/2-x,y,z
x,-y,z
loop_
_atom_site_type_symbol
_atom_site_label
_atom_site_fract_x
_atom_site_fract_y
_atom_site_fract_z
Si Si1 0.417726 0.841316 0.156676
Si Si2 0.579000 0.000000 0.555149
Si Si3 0.924715 0.265268 0.617931
Si Si4 0.926701 0.150721 0.727519
Si Si5 0.916773 0.158948 0.052432
Si Si6 0.424851 0.500000 0.557263
O O1 0.250000 0.800870 0.150904
O O2 0.473341 0.803761 0.214573
O O3 0.508272 0.797982 0.106436
O O4 0.418252 0.000000 0.157191
O O5 0.500000 0.000000 0.500000
O O6 0.547729 0.128909 0.588498
O O7 0.750000 0.000000 0.544810
O O8 0.750000 0.292393 0.615076
O O9 0.965895 0.240882 0.678609
O O10 0.015884 0.375674 0.589200
O O11 0.750000 0.146803 0.728801
O O12 0.973547 0.000000 0.719043
O O13 0.750000 0.198856 0.050394
O O14 0.920688 0.000000 0.052703
O O15 0.000000 0.201086 0.000000
O O16 0.250000 0.500000 0.552507
O O17 0.500000 0.500000 0.500000
#
# Coordination Sequence:
#
# PCOD9402295 Si02
#       6
#     8   4   8   8   8   4
#     4   8  13  21  35  55  79 109 144 183 226 275
#     4  10  20  32  52  78 102 124 155 196 239 286
#     4  10  19  35  57  79 101 129 161 199 243 292
#     4   8  13  25  47  72  95 119 152 192 236 287
#     4   9  15  21  29  43  68 105 149 193 232 273
#     4  12  26  42  56  74 100 132 167 202 243 294
#
# _framework density 16.596771
#
# number of rings (size 3 to 8) (size 9 to 14) (size 15 to 20)
#    0.000    2.800    1.000    3.300    0.000    4.800 
#    0.000    1.000    0.000    1.200    0.000    0.000 
#    0.000    0.000    0.000    0.900    0.000   10.400 
#
# Total GULP energy -222799.311495 kJ/mol
# GULP energy per Si atom -5569.982787 kJ/mol
# Density = 1.655900 g / cm^3
# Si number density = 16.596771 Si / 1000 Ang^3
#
#
#
# Elastic Constant Matrix: (Units=GPa)
#
#
# Indices 1 2 3 4 5 6 
#
# 1 82.1132 40.3415 84.6085 0.0000 0.0000 0.0000
# 2 40.3415 56.5883 46.6370 0.0000 0.0000 0.0000
# 3 84.6085 46.6370 203.2889 0.0000 0.0000 0.0000
# 4 0.0000 0.0000 0.0000 12.4794 0.0000 0.0000
# 5 0.0000 0.0000 0.0000 0.0000 26.9687 0.0000
# 6 0.0000 0.0000 0.0000 0.0000 0.0000 11.9741
#
#
#
# Elastic Compliance Matrix: (Units=1/GPa)
#
#
# Indices 1 2 3 4 5 6 
#
# 1 0.026772 -0.012212 -0.008341 0.000000 0.000000 0.000000
# 2 -0.012212 0.027362 -0.001195 0.000000 0.000000 0.000000
# 3 -0.008341 -0.001195 0.008665 0.000000 0.000000 0.000000
# 4 0.000000 0.000000 0.000000 0.080132 0.000000 0.000000
# 5 0.000000 0.000000 0.000000 0.000000 0.037080 0.000000
# 6 0.000000 0.000000 0.000000 0.000000 0.000000 0.083514
#
#
# Mechanical properties :
#
#
# Convention : Reuss Voigt Hill
#
# Bulk Modulus (GPa) = 51.80268 76.12939 63.96604
# Shear Modulus (GPa) = 15.95132 21.64466 18.79799
#
# Velocity S-wave (km/s) = 3.10354 3.61522 3.36911
# Velocity P-wave (km/s) = 6.64251 7.96216 7.33208
#
# Compressibility (1/GPa) = 0.01930402
#
# Stress axis : x y z
#
# Youngs Moduli (GPa) = 37.35203 36.54760 115.41021
#
# Poissons Ratio (x) = 0.44630 0.96265
# Poissons Ratio (y) = 0.45612 0.13788
# Poissons Ratio (z) = 0.31156 0.04366
#
# Static dielectric constant tensor:
#      x y z
#    x 1.555730 0.000000 0.000000 
#    y 0.000000 1.563320 0.000000 
#    z 0.000000 0.000000 1.587860 
# 
# From -- ./inp_files/36046.got.cif
#   From: 2010.05.17/outbox.cif.g08.bks.cpg/sg51_19_cif.got.tgz:36046.got - 2010.06.03 11:52:47.
