data_PCOD9402359
_publ_section_title
;
Structure prediction by ZEFSAII (Michael W. Deem and Ramdas Pophale) SiO2 
 PCOD9402359
Probable space group: P M M A
;
_chemical_formula_sum "Si O2"
_cell_formula_units_Z 64
_cell_length_a 25.924420
_cell_length_b 8.366291
_cell_length_c 15.034272
_cell_angle_alpha 90.000000
_cell_angle_beta 90.000000
_cell_angle_gamma 90.000000
_cell_volume 3260.801923
_symmetry_space_group_name_H-M "P M M A"
_symmetry_group_IT_number 51
_symmetry_cell_setting 'orthorhombic'
loop_
_space_group_symop_operation_xyz
x,y,z
1/2-x,-y,z
1/2+x,-y,-z
-x,y,-z
-x,-y,-z
1/2+x,y,-z
1/2-x,y,z
x,-y,z
loop_
_atom_site_type_symbol
_atom_site_label
_atom_site_fract_x
_atom_site_fract_y
_atom_site_fract_z
Si Si1 0.603134 0.804973 0.654701
Si Si2 0.193673 0.692992 0.820935
Si Si3 0.510003 0.815542 0.773784
Si Si4 0.058284 0.192620 0.524999
Si Si5 0.052439 0.682078 0.054721
Si Si6 0.841485 0.191462 0.991518
Si Si7 0.592977 0.311792 0.282209
Si Si8 0.191371 0.805002 0.208117
O O1 0.548206 0.757239 0.696984
O O2 0.598528 0.755815 0.552076
O O3 0.649682 0.749769 0.718401
O O4 0.604589 0.000000 0.657664
O O5 0.250000 0.742490 0.786063
O O6 0.191412 0.500000 0.820410
O O7 0.144967 0.753552 0.763582
O O8 0.188952 0.747309 0.923152
O O9 0.543746 0.796767 0.861952
O O10 0.456993 0.720568 0.779047
O O11 0.497049 0.000000 0.757348
O O12 0.077345 0.242638 0.622011
O O13 0.000000 0.248272 0.500000
O O14 0.056172 0.000000 0.523420
O O15 0.061508 0.500000 0.085181
O O16 0.100748 0.742217 0.999377
O O17 0.000000 0.685162 0.000000
O O18 0.822235 0.244076 0.893295
O O19 0.841044 0.000000 0.992155
O O20 0.599654 0.500000 0.292834
O O21 0.250000 0.756410 0.229011
O O22 0.189887 0.000000 0.208275
#
# Coordination Sequence:
#
# PCOD9402359 Si02
#       8
#     8   8   8   8   8   8   8   8
#     4   9  17  32  53  79 111 145 180 221 280 342
#     4  10  23  43  61  78 111 158 198 236 288 344
#     4  11  20  35  57  82 114 148 185 231 287 344
#     4  10  19  35  59  84 114 150 184 226 284 347
#     4  11  23  36  50  76 116 157 193 232 283 343
#     4  11  21  35  58  87 114 146 194 244 287 335
#     4  11  23  38  58  86 115 147 191 238 288 347
#     4   9  17  31  53  82 114 145 181 228 278 330
#
# _framework density 19.627072999999999
#
# number of rings (size 3 to 8) (size 9 to 14) (size 15 to 20)
#    0.000    1.750    2.500    2.625    0.000    6.000 
#    0.000    0.625    0.000    0.750    0.000    0.000 
#    0.000    0.000    0.000    0.000    0.000    0.000 
#
# Total GULP energy -357187.300027 kJ/mol
# GULP energy per Si atom -5581.051563 kJ/mol
# Density = 1.958240 g / cm^3
# Si number density = 19.627073 Si / 1000 Ang^3
#
#
#
# Elastic Constant Matrix: (Units=GPa)
#
#
# Indices 1 2 3 4 5 6 
#
# 1 139.8127 14.2464 51.0186 0.0000 0.0000 0.0000
# 2 14.2464 11.0782 11.0138 0.0000 0.0000 0.0000
# 3 51.0186 11.0138 87.0312 0.0000 0.0000 0.0000
# 4 0.0000 0.0000 0.0000 54.3100 0.0000 0.0000
# 5 0.0000 0.0000 0.0000 0.0000 16.8387 0.0000
# 6 0.0000 0.0000 0.0000 0.0000 0.0000 3.5664
#
#
#
# Elastic Compliance Matrix: (Units=1/GPa)
#
#
# Indices 1 2 3 4 5 6 
#
# 1 0.009649 -0.007761 -0.004674 0.000000 0.000000 0.000000
# 2 -0.007761 0.109502 -0.009308 0.000000 0.000000 0.000000
# 3 -0.004674 -0.009308 0.015408 0.000000 0.000000 0.000000
# 4 0.000000 0.000000 0.000000 0.018413 0.000000 0.000000
# 5 0.000000 0.000000 0.000000 0.000000 0.059387 0.000000
# 6 0.000000 0.000000 0.000000 0.000000 0.000000 0.280398
#
#
# Mechanical properties :
#
#
# Convention : Reuss Voigt Hill
#
# Bulk Modulus (GPa) = 10.98027 43.38662 27.18344
# Shear Modulus (GPa) = 8.82457 25.71923 17.27190
#
# Velocity S-wave (km/s) = 2.12271 3.62387 2.96970
# Velocity P-wave (km/s) = 3.40800 6.29789 5.06349
#
# Compressibility (1/GPa) = 0.09107244
#
# Stress axis : x y z
#
# Youngs Moduli (GPa) = 103.63891 9.13227 64.90128
#
# Poissons Ratio (x) = 0.07088 0.30335
# Poissons Ratio (y) = 0.80438 0.60408
# Poissons Ratio (z) = 0.48442 0.08500
#
# Static dielectric constant tensor:
#      x y z
#    x 1.703690 0.000000 0.000000 
#    y 0.000000 1.687840 0.000000 
#    z 0.000000 0.000000 1.703210 
# 
# From -- ./inp_files/26260.got.cif
#   From: 2010.05.17/outbox.cif.g08.bks.cpg/sg51_14_cif.got.tgz:26260.got - 2010.06.03 11:52:47.
