data_PCOD9402935
_publ_section_title
;
Structure prediction by ZEFSAII (Michael W. Deem and Ramdas Pophale) SiO2 
 PCOD9402935
Probable space group: P M M A
;
_chemical_formula_sum "Si O2"
_cell_formula_units_Z 48
_cell_length_a 9.444463
_cell_length_b 16.808081
_cell_length_c 14.903099
_cell_angle_alpha 90.000000
_cell_angle_beta 90.000000
_cell_angle_gamma 90.000000
_cell_volume 2365.767102
_symmetry_space_group_name_H-M "P M M A"
_symmetry_group_IT_number 51
_symmetry_cell_setting 'orthorhombic'
loop_
_space_group_symop_operation_xyz
x,y,z
1/2-x,-y,z
1/2+x,-y,-z
-x,y,-z
-x,-y,-z
1/2+x,y,-z
1/2-x,y,z
x,-y,z
loop_
_atom_site_type_symbol
_atom_site_label
_atom_site_fract_x
_atom_site_fract_y
_atom_site_fract_z
Si Si1 0.918150 0.812542 0.906330
Si Si2 0.414175 0.659147 0.222767
Si Si3 0.917705 0.592868 0.590652
Si Si4 0.096454 0.592809 0.921672
Si Si5 0.087516 0.904788 0.765201
Si Si6 0.414301 0.902791 0.410941
O O1 0.750000 0.826245 0.920892
O O2 0.929843 0.739906 0.834319
O O3 0.999054 0.882120 0.853080
O O4 0.000000 0.800238 0.000000
O O5 0.250000 0.633987 0.213669
O O6 0.448872 0.652779 0.327552
O O7 0.517736 0.600293 0.171417
O O8 0.750000 0.596428 0.573606
O O9 0.950163 0.500000 0.615794
O O10 0.000000 0.611617 0.500000
O O11 0.250000 0.631837 0.920775
O O12 0.113041 0.500000 0.941896
O O13 0.000000 0.627187 0.000000
O O14 0.250000 0.874143 0.767405
O O15 0.000047 0.876999 0.677482
O O16 0.095576 0.000000 0.758319
O O17 0.500000 0.878499 0.500000
O O18 0.250000 0.876117 0.410157
O O19 0.411140 0.000000 0.410984
#
# Coordination Sequence:
#
# PCOD9402935 Si02
#       6
#     8   8   8   8   8   8
#     4  11  24  41  60  82 110 145 187 235 291 354
#     4  10  21  37  57  80 109 147 187 228 277 333
#     4   9  18  34  57  85 117 152 190 232 275 320
#     4  10  20  32  49  76 108 142 181 224 269 319
#     4  10  21  38  60  85 112 145 189 239 293 355
#     4   9  16  28  50  81 115 147 178 217 268 326
#
# _framework density 20.289404000000001
#
# number of rings (size 3 to 8) (size 9 to 14) (size 15 to 20)
#    0.000    2.167    0.000    3.000    0.000    8.333 
#    0.000    2.500    0.000    2.000    0.000    0.000 
#    0.000    0.000    0.000    0.000    0.000    0.000 
#
# Total GULP energy -267722.753344 kJ/mol
# GULP energy per Si atom -5577.557361 kJ/mol
# Density = 2.024322 g / cm^3
# Si number density = 20.289404 Si / 1000 Ang^3
#
#
#
# Elastic Constant Matrix: (Units=GPa)
#
#
# Indices 1 2 3 4 5 6 
#
# 1 142.0535 30.2580 93.6573 0.0000 0.0000 0.0000
# 2 30.2580 15.0316 26.9050 0.0000 0.0000 0.0000
# 3 93.6573 26.9050 172.3219 0.0000 0.0000 0.0000
# 4 0.0000 0.0000 0.0000 -6.4605 0.0000 0.0000
# 5 0.0000 0.0000 0.0000 0.0000 34.6384 0.0000
# 6 0.0000 0.0000 0.0000 0.0000 0.0000 280.5365
#
#
#
# Elastic Compliance Matrix: (Units=1/GPa)
#
#
# Indices 1 2 3 4 5 6 
#
# 1 0.014581 -0.021049 -0.004639 0.000000 0.000000 0.000000
# 2 -0.021049 0.122715 -0.007719 0.000000 0.000000 0.000000
# 3 -0.004639 -0.007719 0.009529 0.000000 0.000000 0.000000
# 4 0.000000 0.000000 0.000000 -0.154786 0.000000 0.000000
# 5 0.000000 0.000000 0.000000 0.000000 0.028870 0.000000
# 6 0.000000 0.000000 0.000000 0.000000 0.000000 0.003565
#
#
# Mechanical properties :
#
#
# Convention : Reuss Voigt Hill
#
# Bulk Modulus (GPa) = 12.49822 70.11640 41.30731
# Shear Modulus (GPa) = 42.38738 73.64865 58.01802
#
# Velocity S-wave (km/s) = 4.57567 6.03141 5.35325
# Velocity P-wave (km/s) = 5.83858 9.11795 7.65591
#
# Compressibility (1/GPa) = 0.08001139
#
# Stress axis : x y z
#
# Youngs Moduli (GPa) = 68.58011 8.14894 104.93830
#
# Poissons Ratio (x) = 0.17153 0.48676
# Poissons Ratio (y) = 1.44357 0.81006
# Poissons Ratio (z) = 0.31811 0.06290
#
# Static dielectric constant tensor:
#      x y z
#    x 1.786740 0.000000 0.000000 
#    y 0.000000 1.780640 0.000000 
#    z 0.000000 0.000000 1.704860 
# 
# From -- ./inp_files/21123.got.cif
#   From: 2010.05.17/outbox.cif.g08.bks.cpg/sg51_11_cif.got.tgz:21123.got - 2010.06.03 11:52:47.
