data_PCOD9402741
_publ_section_title
;
Structure prediction by ZEFSAII (Michael W. Deem and Ramdas Pophale) SiO2 
 PCOD9402741
Probable space group: P M M A
;
_chemical_formula_sum "Si O2"
_cell_formula_units_Z 56
_cell_length_a 17.450794
_cell_length_b 7.377567
_cell_length_c 20.068184
_cell_angle_alpha 90.000000
_cell_angle_beta 90.000000
_cell_angle_gamma 90.000000
_cell_volume 2583.666347
_symmetry_space_group_name_H-M "P M M A"
_symmetry_group_IT_number 51
_symmetry_cell_setting 'orthorhombic'
loop_
_space_group_symop_operation_xyz
x,y,z
1/2-x,-y,z
1/2+x,-y,-z
-x,y,-z
-x,-y,-z
1/2+x,y,-z
1/2-x,y,z
x,-y,z
loop_
_atom_site_type_symbol
_atom_site_label
_atom_site_fract_x
_atom_site_fract_y
_atom_site_fract_z
Si Si1 0.568089 0.778315 0.653792
Si Si2 0.897305 0.221435 0.378838
Si Si3 0.571240 0.282400 0.913707
Si Si4 0.099983 0.278638 0.936584
Si Si5 0.336417 0.214107 0.219843
Si Si6 0.750000 0.215963 0.297141
Si Si7 0.750000 0.716650 0.140396
Si Si8 0.338606 0.220780 0.477034
O O1 0.480227 0.719520 0.646630
O O2 0.610077 0.714818 0.720782
O O3 0.616312 0.722692 0.588881
O O4 0.567101 0.000000 0.654285
O O5 0.827049 0.283485 0.332754
O O6 0.880029 0.276416 0.454782
O O7 0.897799 0.000000 0.378250
O O8 0.569130 0.500000 0.916299
O O9 0.482783 0.220968 0.908213
O O10 0.623107 0.233557 0.851356
O O11 0.602437 0.222541 0.985856
O O12 0.100332 0.500000 0.935594
O O13 0.172738 0.215045 0.894862
O O14 0.250000 0.288673 0.219962
O O15 0.329882 0.000000 0.232565
O O16 0.750000 0.248742 0.218765
O O17 0.750000 0.000000 0.307714
O O18 0.750000 0.500000 0.131144
O O19 0.250000 0.278657 0.476845
O O20 0.338068 0.000000 0.476990
#
# Coordination Sequence:
#
# PCOD9402741 Si02
#       8
#     8   8   8   8   8   4   4   8
#     4   9  17  27  42  62  92 133 167 194 239 297
#     4   9  16  27  42  64  94 127 163 202 243 284
#     4   9  18  35  57  77  97 126 166 207 245 290
#     4   8  17  34  55  78 100 124 163 210 245 282
#     4  10  21  34  47  71 105 134 161 202 251 296
#     4  10  20  32  46  72 105 130 156 202 251 290
#     4  10  20  34  54  76 101 132 164 198 243 296
#     4   9  14  23  40  62  90 125 164 203 239 281
#
# _framework density 21.674624999999999
#
# number of rings (size 3 to 8) (size 9 to 14) (size 15 to 20)
#    0.000    2.857    0.714    1.714    3.000    3.714 
#    0.000    2.143    0.000    0.000    0.000    1.000 
#    0.000    2.286    0.000    0.000    0.000    0.000 
#
# Total GULP energy -312826.589382 kJ/mol
# GULP energy per Si atom -5586.189096 kJ/mol
# Density = 2.162529 g / cm^3
# Si number density = 21.674625 Si / 1000 Ang^3
#
#
#
# Elastic Constant Matrix: (Units=GPa)
#
#
# Indices 1 2 3 4 5 6 
#
# 1 212.5974 4.9132 137.1494 0.0000 0.0000 0.0000
# 2 4.9132 74.8120 -2.9131 0.0000 0.0000 0.0000
# 3 137.1494 -2.9131 173.8103 0.0000 0.0000 0.0000
# 4 0.0000 0.0000 0.0000 23.5939 0.0000 0.0000
# 5 0.0000 0.0000 0.0000 0.0000 27.4789 0.0000
# 6 0.0000 0.0000 0.0000 0.0000 0.0000 -2.8298
#
#
#
# Elastic Compliance Matrix: (Units=1/GPa)
#
#
# Indices 1 2 3 4 5 6 
#
# 1 0.009645 -0.000930 -0.007626 0.000000 0.000000 0.000000
# 2 -0.000930 0.013465 0.000960 0.000000 0.000000 0.000000
# 3 -0.007626 0.000960 0.011787 0.000000 0.000000 0.000000
# 4 0.000000 0.000000 0.000000 0.042384 0.000000 0.000000
# 5 0.000000 0.000000 0.000000 0.000000 0.036392 0.000000
# 6 0.000000 0.000000 0.000000 0.000000 0.000000 -0.353380
#
#
# Mechanical properties :
#
#
# Convention : Reuss Voigt Hill
#
# Bulk Modulus (GPa) = 50.75137 82.16877 66.46007
# Shear Modulus (GPa) = -22.94148 31.11994 4.08923
#
# Velocity S-wave (km/s) = -3.25691 3.79328 1.37504
# Velocity P-wave (km/s) = 3.05330 7.56159 5.76630
#
# Compressibility (1/GPa) = 0.01970390
#
# Stress axis : x y z
#
# Youngs Moduli (GPa) = 103.68047 74.26483 84.83806
#
# Poissons Ratio (x) = 0.06910 0.64700
# Poissons Ratio (y) = 0.09646 -0.08143
# Poissons Ratio (z) = 0.79069 -0.07128
#
# Static dielectric constant tensor:
#      x y z
#    x 1.755900 0.000000 0.000000 
#    y 0.000000 1.859010 0.000000 
#    z 0.000000 0.000000 1.733470 
# 
# From -- ./inp_files/33585.got.cif
#   From: 2010.05.17/outbox.cif.g08.bks.cpg/sg51_17_cif.got.tgz:33585.got - 2010.06.03 11:52:47.
