data_PCOD9402566
_publ_section_title
;
Structure prediction by ZEFSAII (Michael W. Deem and Ramdas Pophale) SiO2 
 PCOD9402566
Probable space group: P M M A
;
_chemical_formula_sum "Si O2"
_cell_formula_units_Z 48
_cell_length_a 24.674505
_cell_length_b 7.562379
_cell_length_c 14.356959
_cell_angle_alpha 90.000000
_cell_angle_beta 90.000000
_cell_angle_gamma 90.000000
_cell_volume 2678.979239
_symmetry_space_group_name_H-M "P M M A"
_symmetry_group_IT_number 51
_symmetry_cell_setting 'orthorhombic'
loop_
_space_group_symop_operation_xyz
x,y,z
1/2-x,-y,z
1/2+x,-y,-z
-x,y,-z
-x,-y,-z
1/2+x,y,-z
1/2-x,y,z
x,-y,z
loop_
_atom_site_type_symbol
_atom_site_label
_atom_site_fract_x
_atom_site_fract_y
_atom_site_fract_z
Si Si1 0.810633 0.292248 0.141383
Si Si2 0.977108 0.283632 0.645683
Si Si3 0.524704 0.715578 0.855817
Si Si4 0.083166 0.288418 0.535942
Si Si5 0.584309 0.283751 0.038209
Si Si6 0.810699 0.209629 0.353196
O O1 0.750000 0.216072 0.130371
O O2 0.807080 0.500000 0.119024
O O3 0.858837 0.218308 0.078462
O O4 0.825380 0.280152 0.250651
O O5 0.976887 0.500000 0.647599
O O6 0.966696 0.223214 0.750569
O O7 0.934131 0.226272 0.566991
O O8 0.036296 0.227773 0.607654
O O9 0.525282 0.500000 0.854835
O O10 0.465642 0.767791 0.894921
O O11 0.568180 0.770949 0.933758
O O12 0.078708 0.500000 0.533752
O O13 0.142626 0.247214 0.572757
O O14 0.585222 0.500000 0.039204
O O15 0.750000 0.276035 0.376978
O O16 0.807576 0.000000 0.343498
#
# Coordination Sequence:
#
# PCOD9402566 Si02
#       6
#     8   8   8   8   8   8
#     4   9  16  26  41  60  80 102 130 165 202 240
#     4   8  14  24  40  63  88 111 135 167 205 243
#     4   8  12  19  33  56  85 109 128 156 195 236
#     4   9  16  27  44  64  84 108 139 171 203 241
#     4   8  13  20  34  58  83 106 131 158 192 235
#     4  10  20  31  42  59  83 109 136 168 208 249
#
# _framework density 17.917272000000001
#
# number of rings (size 3 to 8) (size 9 to 14) (size 15 to 20)
#    0.000    3.333    0.000    3.500    0.000    3.667 
#    0.000    1.667    0.000    1.000    0.000   15.167 
#    0.000    2.667    0.000    0.000    0.000    0.000 
#
# Total GULP energy -267439.312708 kJ/mol
# GULP energy per Si atom -5571.652348 kJ/mol
# Density = 1.787649 g / cm^3
# Si number density = 17.917272 Si / 1000 Ang^3
#
#
#
# Elastic Constant Matrix: (Units=GPa)
#
#
# Indices 1 2 3 4 5 6 
#
# 1 134.0307 4.4421 100.8949 0.0000 0.0000 0.0000
# 2 4.4421 38.8954 3.4317 0.0000 0.0000 0.0000
# 3 100.8949 3.4317 166.1890 0.0000 0.0000 0.0000
# 4 0.0000 0.0000 0.0000 -25.2927 0.0000 0.0000
# 5 0.0000 0.0000 0.0000 0.0000 25.6202 0.0000
# 6 0.0000 0.0000 0.0000 0.0000 0.0000 -51.6750
#
#
#
# Elastic Compliance Matrix: (Units=1/GPa)
#
#
# Indices 1 2 3 4 5 6 
#
# 1 0.013768 -0.000836 -0.008341 0.000000 0.000000 0.000000
# 2 -0.000836 0.025808 -0.000025 0.000000 0.000000 0.000000
# 3 -0.008341 -0.000025 0.011082 0.000000 0.000000 0.000000
# 4 0.000000 0.000000 0.000000 -0.039537 0.000000 0.000000
# 5 0.000000 0.000000 0.000000 0.000000 0.039032 0.000000
# 6 0.000000 0.000000 0.000000 0.000000 0.000000 -0.019352
#
#
# Mechanical properties :
#
#
# Convention : Reuss Voigt Hill
#
# Bulk Modulus (GPa) = 31.00610 61.85028 46.42819
# Shear Modulus (GPa) = 83.39367 5.08691 44.24029
#
# Velocity S-wave (km/s) = 6.82970 1.68679 4.97444
# Velocity P-wave (km/s) = 8.91828 6.19585 7.67868
#
# Compressibility (1/GPa) = 0.03225172
#
# Stress axis : x y z
#
# Youngs Moduli (GPa) = 72.63315 38.74808 90.23767
#
# Poissons Ratio (x) = 0.03241 0.75270
# Poissons Ratio (y) = 0.06075 0.00227
# Poissons Ratio (z) = 0.60585 0.00097
#
# Static dielectric constant tensor:
#      x y z
#    x 1.644330 0.000000 0.000000 
#    y 0.000000 1.665290 0.000000 
#    z 0.000000 0.000000 1.603620 
# 
# From -- ./inp_files/25495.got.cif
#   From: 2010.05.17/outbox.cif.g08.bks.cpg/sg51_13_cif.got.tgz:25495.got - 2010.06.03 11:52:47.
