data_PCOD9402094
_publ_section_title
;
Structure prediction by ZEFSAII (Michael W. Deem and Ramdas Pophale) SiO2 
 PCOD9402094
Probable space group: P M M A
;
_chemical_formula_sum "Si O2"
_cell_formula_units_Z 56
_cell_length_a 16.610272
_cell_length_b 7.524803
_cell_length_c 19.568342
_cell_angle_alpha 90.000000
_cell_angle_beta 90.000000
_cell_angle_gamma 90.000000
_cell_volume 2445.827979
_symmetry_space_group_name_H-M "P M M A"
_symmetry_group_IT_number 51
_symmetry_cell_setting 'orthorhombic'
loop_
_space_group_symop_operation_xyz
x,y,z
1/2-x,-y,z
1/2+x,-y,-z
-x,y,-z
-x,-y,-z
1/2+x,y,-z
1/2-x,y,z
x,-y,z
loop_
_atom_site_type_symbol
_atom_site_label
_atom_site_fract_x
_atom_site_fract_y
_atom_site_fract_z
Si Si1 0.934013 0.797354 0.214950
Si Si2 0.422023 0.284584 0.044056
Si Si3 0.498649 0.212562 0.577391
Si Si4 0.892515 0.300746 0.804524
Si Si5 0.836998 0.286303 0.088198
Si Si6 0.838230 0.285686 0.661514
Si Si7 0.660468 0.216322 0.342859
O O1 0.904308 0.788515 0.137638
O O2 0.862778 0.737983 0.264789
O O3 0.015408 0.689986 0.221587
O O4 0.954257 0.000000 0.233662
O O5 0.432635 0.500000 0.051632
O O6 0.402038 0.217047 0.119983
O O7 0.500000 0.224369 0.000000
O O8 0.351046 0.247024 0.990970
O O9 0.500000 0.281456 0.500000
O O10 0.582686 0.242457 0.617145
O O11 0.417473 0.278494 0.614774
O O12 0.489594 0.000000 0.574331
O O13 0.859331 0.500000 0.814837
O O14 0.847513 0.218154 0.739791
O O15 0.750000 0.222978 0.110982
O O16 0.841437 0.500000 0.094719
O O17 0.750000 0.229304 0.634254
O O18 0.837716 0.500000 0.665729
O O19 0.750000 0.280117 0.361502
O O20 0.663197 0.000000 0.347581
#
# Coordination Sequence:
#
# PCOD9402094 Si02
#       7
#     8   8   8   8   8   8   8
#     4  11  20  32  53  77 106 143 183 225 280 336
#     4   9  16  29  50  73  98 132 178 230 281 328
#     4  10  21  38  62  90 117 149 189 229 275 333
#     4  10  19  34  57  79 106 144 191 237 279 330
#     4  10  20  33  50  74 103 136 178 228 279 332
#     4  10  22  39  60  87 119 155 193 236 287 338
#     4   9  18  33  53  79 111 143 179 225 275 328
#
# _framework density 22.896131
#
# number of rings (size 3 to 8) (size 9 to 14) (size 15 to 20)
#    0.000    2.143    2.857    0.857    0.000    2.571 
#    0.000    5.714    0.000    1.286    0.000    2.000 
#    0.000    0.000    0.000    0.000    0.000    0.000 
#
# Total GULP energy -312396.997663 kJ/mol
# GULP energy per Si atom -5578.517815 kJ/mol
# Density = 2.284402 g / cm^3
# Si number density = 22.896131 Si / 1000 Ang^3
#
#
#
# Elastic Constant Matrix: (Units=GPa)
#
#
# Indices 1 2 3 4 5 6 
#
# 1 150.6157 1.9399 62.1488 0.0000 0.0000 0.0000
# 2 1.9399 59.0541 1.5356 0.0000 0.0000 0.0000
# 3 62.1488 1.5356 151.3464 0.0000 0.0000 0.0000
# 4 0.0000 0.0000 0.0000 0.9452 0.0000 0.0000
# 5 0.0000 0.0000 0.0000 0.0000 17.0264 0.0000
# 6 0.0000 0.0000 0.0000 0.0000 0.0000 14.6302
#
#
#
# Elastic Compliance Matrix: (Units=1/GPa)
#
#
# Indices 1 2 3 4 5 6 
#
# 1 0.007996 -0.000177 -0.003282 0.000000 0.000000 0.000000
# 2 -0.000177 0.016942 -0.000099 0.000000 0.000000 0.000000
# 3 -0.003282 -0.000099 0.007956 0.000000 0.000000 0.000000
# 4 0.000000 0.000000 0.000000 1.057988 0.000000 0.000000
# 5 0.000000 0.000000 0.000000 0.000000 0.058732 0.000000
# 6 0.000000 0.000000 0.000000 0.000000 0.000000 0.068352
#
#
# Mechanical properties :
#
#
# Convention : Reuss Voigt Hill
#
# Bulk Modulus (GPa) = 38.79318 54.69609 46.74463
# Shear Modulus (GPa) = 4.05293 26.21316 15.13305
#
# Velocity S-wave (km/s) = 1.33191 3.38727 2.57367
# Velocity P-wave (km/s) = 4.39832 6.26409 5.41221
#
# Compressibility (1/GPa) = 0.02577773
#
# Stress axis : x y z
#
# Youngs Moduli (GPa) = 125.06591 59.02486 125.69268
#
# Poissons Ratio (x) = 0.01047 0.41247
# Poissons Ratio (y) = 0.02218 0.01245
# Poissons Ratio (z) = 0.41041 0.00585
#
# Static dielectric constant tensor:
#      x y z
#    x 1.853460 0.000000 0.000000 
#    y 0.000000 1.910530 0.000000 
#    z 0.000000 0.000000 1.868730 
# 
# From -- ./inp_files/33403.got.cif
#   From: 2010.05.17/outbox.cif.g08.bks.cpg/sg51_17_cif.got.tgz:33403.got - 2010.06.03 11:52:47.
