data_PCOD9402112
_publ_section_title
;
Structure prediction by ZEFSAII (Michael W. Deem and Ramdas Pophale) SiO2 
 PCOD9402112
Probable space group: P M M A
;
_chemical_formula_sum "Si O2"
_cell_formula_units_Z 56
_cell_length_a 15.728418
_cell_length_b 9.329060
_cell_length_c 20.080253
_cell_angle_alpha 90.000000
_cell_angle_beta 90.000000
_cell_angle_gamma 90.000000
_cell_volume 2946.402736
_symmetry_space_group_name_H-M "P M M A"
_symmetry_group_IT_number 51
_symmetry_cell_setting 'orthorhombic'
loop_
_space_group_symop_operation_xyz
x,y,z
1/2-x,-y,z
1/2+x,-y,-z
-x,y,-z
-x,-y,-z
1/2+x,y,-z
1/2-x,y,z
x,-y,z
loop_
_atom_site_type_symbol
_atom_site_label
_atom_site_fract_x
_atom_site_fract_y
_atom_site_fract_z
Si Si1 0.147150 0.163068 0.570246
Si Si2 0.100295 0.665114 0.701735
Si Si3 0.647339 0.664782 0.559098
Si Si4 0.653453 0.671721 0.151059
Si Si5 0.000606 0.830870 0.079545
Si Si6 0.153473 0.327423 0.152792
Si Si7 0.101550 0.666638 0.296781
O O1 0.250000 0.162246 0.567866
O O2 0.121513 0.240423 0.638190
O O3 0.117025 0.247901 0.504890
O O4 0.116796 0.000000 0.569319
O O5 0.124281 0.500000 0.687263
O O6 0.144601 0.708534 0.770571
O O7 0.999301 0.669913 0.714224
O O8 0.750000 0.661488 0.557765
O O9 0.616266 0.500000 0.554568
O O10 0.621381 0.729211 0.630636
O O11 0.750000 0.700038 0.128946
O O12 0.637577 0.500000 0.145947
O O13 0.582843 0.757241 0.110613
O O14 0.082894 0.752697 0.110027
O O15 0.002092 0.000000 0.095629
O O16 0.000000 0.814816 0.000000
O O17 0.250000 0.303224 0.129862
O O18 0.137415 0.500000 0.151796
O O19 0.144597 0.277364 0.229813
O O20 0.129727 0.500000 0.302116
#
# Coordination Sequence:
#
# PCOD9402112 Si02
#       7
#     8   8   8   8   8   8   8
#     4  10  21  35  49  70 105 147 191 239 288 341
#     4  10  19  34  57  82 111 145 185 238 295 349
#     4   9  17  31  52  76 103 140 187 235 284 341
#     4  10  21  39  65  94 121 153 199 252 301 350
#     4  11  25  43  62  88 126 166 199 236 287 354
#     4  10  20  38  66  95 122 155 198 249 301 350
#     4   9  17  32  56  85 113 142 184 239 293 346
#
# _framework density 19.006228
#
# number of rings (size 3 to 8) (size 9 to 14) (size 15 to 20)
#    0.000    2.143    1.429    1.714    0.000    6.571 
#    0.000    7.143    0.000    1.714    0.000    0.000 
#    0.000    0.000    0.000    0.000    0.000    0.000 
#
# Total GULP energy -312589.465963 kJ/mol
# GULP energy per Si atom -5581.954749 kJ/mol
# Density = 1.896297 g / cm^3
# Si number density = 19.006228 Si / 1000 Ang^3
#
#
#
# Elastic Constant Matrix: (Units=GPa)
#
#
# Indices 1 2 3 4 5 6 
#
# 1 95.8172 57.8299 63.8151 0.0000 0.0000 0.0000
# 2 57.8299 79.2594 70.3369 0.0000 0.0000 0.0000
# 3 63.8151 70.3369 116.9547 0.0000 0.0000 0.0000
# 4 0.0000 0.0000 0.0000 -775.2300 0.0000 0.0000
# 5 0.0000 0.0000 0.0000 0.0000 110.6476 0.0000
# 6 0.0000 0.0000 0.0000 0.0000 0.0000 14.5784
#
#
#
# Elastic Compliance Matrix: (Units=1/GPa)
#
#
# Indices 1 2 3 4 5 6 
#
# 1 0.019701 -0.010368 -0.004514 0.000000 0.000000 0.000000
# 2 -0.010368 0.032514 -0.013897 0.000000 0.000000 0.000000
# 3 -0.004514 -0.013897 0.019371 0.000000 0.000000 0.000000
# 4 0.000000 0.000000 0.000000 -0.001290 0.000000 0.000000
# 5 0.000000 0.000000 0.000000 0.000000 0.009038 0.000000
# 6 0.000000 0.000000 0.000000 0.000000 0.000000 0.068595
#
#
# Mechanical properties :
#
#
# Convention : Reuss Voigt Hill
#
# Bulk Modulus (GPa) = 71.28780 75.11056 73.19918
# Shear Modulus (GPa) = 23.79121 -123.33085 -49.76982
#
# Velocity S-wave (km/s) = 3.54186 -8.06415 -5.12278
# Velocity P-wave (km/s) = 7.36990 6.86314 1.89903
#
# Compressibility (1/GPa) = 0.01402765
#
# Stress axis : x y z
#
# Youngs Moduli (GPa) = 50.75996 30.75579 51.62415
#
# Poissons Ratio (x) = 0.31889 0.23302
# Poissons Ratio (y) = 0.52630 0.71741
# Poissons Ratio (z) = 0.22912 0.42740
#
# Static dielectric constant tensor:
#      x y z
#    x 1.664090 0.000000 0.000000 
#    y 0.000000 1.644970 0.000000 
#    z 0.000000 0.000000 1.655440 
# 
# From -- ./inp_files/33482.got.cif
#   From: 2010.05.17/outbox.cif.g08.bks.cpg/sg51_17_cif.got.tgz:33482.got - 2010.06.03 11:52:47.
