data_PCOD9402991
_publ_section_title
;
Structure prediction by ZEFSAII (Michael W. Deem and Ramdas Pophale) SiO2 
 PCOD9402991
Probable space group: P M M A
;
_chemical_formula_sum "Si O2"
_cell_formula_units_Z 64
_cell_length_a 19.524004
_cell_length_b 7.618095
_cell_length_c 21.251340
_cell_angle_alpha 90.000000
_cell_angle_beta 90.000000
_cell_angle_gamma 90.000000
_cell_volume 3160.833297
_symmetry_space_group_name_H-M "P M M A"
_symmetry_group_IT_number 51
_symmetry_cell_setting 'orthorhombic'
loop_
_space_group_symop_operation_xyz
x,y,z
1/2-x,-y,z
1/2+x,-y,-z
-x,y,-z
-x,-y,-z
1/2+x,y,-z
1/2-x,y,z
x,-y,z
loop_
_atom_site_type_symbol
_atom_site_label
_atom_site_fract_x
_atom_site_fract_y
_atom_site_fract_z
Si Si1 0.603402 0.706986 0.260768
Si Si2 0.825875 0.714354 0.612491
Si Si3 0.959493 0.206919 0.059554
Si Si4 0.326037 0.714109 0.242165
Si Si5 0.327078 0.787267 0.871843
Si Si6 0.828066 0.204256 0.391989
Si Si7 0.424392 0.705781 0.493571
Si Si8 0.030076 0.713264 0.190351
O O1 0.597780 0.500000 0.272157
O O2 0.648946 0.737088 0.198405
O O3 0.638877 0.782136 0.322661
O O4 0.527348 0.772125 0.241213
O O5 0.750000 0.767346 0.591213
O O6 0.826950 0.500000 0.612097
O O7 0.834712 0.766045 0.684882
O O8 0.882092 0.781917 0.564651
O O9 0.884869 0.278463 0.079501
O O10 0.004602 0.226997 0.122289
O O11 0.949293 0.000000 0.046814
O O12 0.000000 0.282926 0.000000
O O13 0.250000 0.771117 0.220994
O O14 0.325794 0.500000 0.240441
O O15 0.393176 0.773023 0.205204
O O16 0.250000 0.726546 0.884205
O O17 0.327449 0.000000 0.873879
O O18 0.750000 0.276375 0.392454
O O19 0.878684 0.284653 0.443702
O O20 0.823785 0.000000 0.408186
O O21 0.500000 0.783274 0.500000
O O22 0.433621 0.500000 0.478457
O O23 0.028987 0.500000 0.190978
#
# Coordination Sequence:
#
# PCOD9402991 Si02
#       8
#     8   8   8   8   8   8   8   8
#     4  10  20  32  51  78 104 129 162 211 263 306
#     4   8  14  26  46  70  95 125 160 199 244 294
#     4   9  18  33  51  71  99 135 170 201 238 288
#     4   8  14  26  47  73  99 127 160 199 244 296
#     4   9  17  31  51  73  99 132 170 207 245 296
#     4  11  24  39  53  71 101 140 175 208 253 309
#     4  10  21  34  53  78 102 129 166 216 262 303
#     4   9  18  31  51  77 103 129 161 205 251 294
#
# _framework density 20.247824000000001
#
# number of rings (size 3 to 8) (size 9 to 14) (size 15 to 20)
#    0.000    2.750    0.000    2.250    1.750    4.250 
#    0.000    0.625    0.000    1.125    0.000    1.750 
#    0.000    0.000    0.000    0.000    0.000    0.000 
#
# Total GULP energy -356988.953987 kJ/mol
# GULP energy per Si atom -5577.952406 kJ/mol
# Density = 2.020174 g / cm^3
# Si number density = 20.247824 Si / 1000 Ang^3
#
#
#
# Elastic Constant Matrix: (Units=GPa)
#
#
# Indices 1 2 3 4 5 6 
#
# 1 180.3426 -7.7172 55.7700 0.0000 0.0000 0.0000
# 2 -7.7172 38.4048 -17.0307 0.0000 0.0000 0.0000
# 3 55.7700 -17.0307 45.2465 0.0000 0.0000 0.0000
# 4 0.0000 0.0000 0.0000 15.4011 0.0000 0.0000
# 5 0.0000 0.0000 0.0000 0.0000 27.2675 0.0000
# 6 0.0000 0.0000 0.0000 0.0000 0.0000 2.5350
#
#
#
# Elastic Compliance Matrix: (Units=1/GPa)
#
#
# Indices 1 2 3 4 5 6 
#
# 1 0.009426 -0.003911 -0.013090 0.000000 0.000000 0.000000
# 2 -0.003911 0.032878 0.017195 0.000000 0.000000 0.000000
# 3 -0.013090 0.017195 0.044708 0.000000 0.000000 0.000000
# 4 0.000000 0.000000 0.000000 0.064930 0.000000 0.000000
# 5 0.000000 0.000000 0.000000 0.000000 0.036674 0.000000
# 6 0.000000 0.000000 0.000000 0.000000 0.000000 0.394483
#
#
# Mechanical properties :
#
#
# Convention : Reuss Voigt Hill
#
# Bulk Modulus (GPa) = 11.44150 36.22647 23.83398
# Shear Modulus (GPa) = 8.17204 24.57216 16.37210
#
# Velocity S-wave (km/s) = 2.01116 3.48741 2.84665
# Velocity P-wave (km/s) = 3.32506 5.84350 4.75408
#
# Compressibility (1/GPa) = 0.08740113
#
# Stress axis : x y z
#
# Youngs Moduli (GPa) = 106.09387 30.41552 22.36749
#
# Poissons Ratio (x) = 0.11895 0.29279
# Poissons Ratio (y) = 0.41490 -0.38462
# Poissons Ratio (z) = 1.38875 -0.52301
#
# Static dielectric constant tensor:
#      x y z
#    x 1.958860 0.000000 0.000000 
#    y 0.000000 1.756270 0.000000 
#    z 0.000000 0.000000 1.669310 
# 
# From -- ./inp_files/33984.got.cif
#   From: 2010.05.17/outbox.cif.g08.bks.cpg/sg51_17_cif.got.tgz:33984.got - 2010.06.03 11:52:47.
