data_PCOD9402055
_publ_section_title
;
Structure prediction by ZEFSAII (Michael W. Deem and Ramdas Pophale) SiO2 
 PCOD9402055
Probable space group: P M M A
;
_chemical_formula_sum "Si O2"
_cell_formula_units_Z 48
_cell_length_a 8.286277
_cell_length_b 32.131538
_cell_length_c 9.494036
_cell_angle_alpha 90.000000
_cell_angle_beta 90.000000
_cell_angle_gamma 90.000000
_cell_volume 2527.794911
_symmetry_space_group_name_H-M "P M M A"
_symmetry_group_IT_number 51
_symmetry_cell_setting 'orthorhombic'
loop_
_space_group_symop_operation_xyz
x,y,z
1/2-x,-y,z
1/2+x,-y,-z
-x,y,-z
-x,-y,-z
1/2+x,y,-z
1/2-x,y,z
x,-y,z
loop_
_atom_site_type_symbol
_atom_site_label
_atom_site_fract_x
_atom_site_fract_y
_atom_site_fract_z
Si Si1 0.445282 0.749427 0.339410
Si Si2 0.556310 0.409028 0.337687
Si Si3 0.945187 0.000000 0.659729
Si Si4 0.944496 0.500000 0.337841
Si Si5 0.555017 0.827983 0.840285
Si Si6 0.442704 0.330198 0.160623
Si Si7 0.444920 0.921651 0.159322
O O1 0.500000 0.746387 0.500000
O O2 0.250000 0.749340 0.337429
O O3 0.501380 0.792061 0.264996
O O4 0.502581 0.709973 0.247941
O O5 0.500000 0.404014 0.500000
O O6 0.750000 0.408461 0.338129
O O7 0.500782 0.454845 0.283009
O O8 0.495312 0.371822 0.241270
O O9 0.002463 0.958441 0.739772
O O10 0.000000 0.000000 0.500000
O O11 0.750000 0.000000 0.664637
O O12 0.750000 0.500000 0.331898
O O13 0.000000 0.500000 0.500000
O O14 0.750000 0.827878 0.839221
O O15 0.500205 0.874835 0.802313
O O16 0.500000 0.819336 0.000000
O O17 0.250000 0.328599 0.160317
O O18 0.500000 0.329432 0.000000
O O19 0.250000 0.921597 0.161827
O O20 0.500000 0.929823 0.000000
#
# Coordination Sequence:
#
# PCOD9402055 Si02
#       7
#     8   8   4   4   8   8   8
#     4  10  22  37  54  77 105 135 170 210 255 305
#     4  10  19  34  56  82 110 140 175 215 257 306
#     4  10  21  34  48  72 104 136 169 212 258 302
#     4   8  16  30  51  78 107 138 172 210 254 302
#     4   9  18  34  54  77 103 133 168 209 254 303
#     4  11  23  38  55  77 104 137 175 217 263 311
#     4   9  18  33  53  75 101 132 170 211 253 302
#
# _framework density 18.988880999999999
#
# number of rings (size 3 to 8) (size 9 to 14) (size 15 to 20)
#    0.000    2.333    0.000    2.250    0.000    5.333 
#    0.000    0.417    0.000    0.000    0.000    0.000 
#    0.000    0.000    0.000    0.000    0.000    0.000 
#
# Total GULP energy -267828.855174 kJ/mol
# GULP energy per Si atom -5579.767816 kJ/mol
# Density = 1.894566 g / cm^3
# Si number density = 18.988881 Si / 1000 Ang^3
#
#
#
# Elastic Constant Matrix: (Units=GPa)
#
#
# Indices 1 2 3 4 5 6 
#
# 1 14.9681 25.2892 16.1090 0.0000 0.0000 0.0000
# 2 25.2892 213.2461 135.3685 0.0000 0.0000 0.0000
# 3 16.1090 135.3685 146.4878 0.0000 0.0000 0.0000
# 4 0.0000 0.0000 0.0000 38.1139 0.0000 0.0000
# 5 0.0000 0.0000 0.0000 0.0000 33.6742 0.0000
# 6 0.0000 0.0000 0.0000 0.0000 0.0000 27.6835
#
#
#
# Elastic Compliance Matrix: (Units=1/GPa)
#
#
# Indices 1 2 3 4 5 6 
#
# 1 0.083550 -0.009860 -0.000076 0.000000 0.000000 0.000000
# 2 -0.009860 0.012507 -0.010474 0.000000 0.000000 0.000000
# 3 -0.000076 -0.010474 0.016514 0.000000 0.000000 0.000000
# 4 0.000000 0.000000 0.000000 0.026237 0.000000 0.000000
# 5 0.000000 0.000000 0.000000 0.000000 0.029696 0.000000
# 6 0.000000 0.000000 0.000000 0.000000 0.000000 0.036123
#
#
# Mechanical properties :
#
#
# Convention : Reuss Voigt Hill
#
# Bulk Modulus (GPa) = 13.93713 80.91506 47.42609
# Shear Modulus (GPa) = 18.56224 33.09001 25.82613
#
# Velocity S-wave (km/s) = 3.12994 4.17897 3.69191
# Velocity P-wave (km/s) = 4.51859 8.12339 6.57294
#
# Compressibility (1/GPa) = 0.07175080
#
# Stress axis : x y z
#
# Youngs Moduli (GPa) = 11.96892 79.95223 60.55578
#
# Poissons Ratio (x) = 0.78831 0.00463
# Poissons Ratio (y) = 0.11801 0.63425
# Poissons Ratio (z) = 0.00092 0.83740
#
# Static dielectric constant tensor:
#      x y z
#    x 1.665040 0.000000 0.000000 
#    y 0.000000 1.700270 0.000000 
#    z 0.000000 0.000000 1.601860 
# 
# From -- ./inp_files/6174.got.cif
#   From: 2010.05.17/outbox.cif.g08.bks.cpg/sg51_4_cif.got.tgz:6174.got - 2010.06.03 11:52:47.
