data_PCOD9402353
_publ_section_title
;
Structure prediction by ZEFSAII (Michael W. Deem and Ramdas Pophale) SiO2 
 PCOD9402353
Probable space group: P M M A
;
_chemical_formula_sum "Si O2"
_cell_formula_units_Z 40
_cell_length_a 16.708382
_cell_length_b 13.086362
_cell_length_c 7.555995
_cell_angle_alpha 90.000000
_cell_angle_beta 90.000000
_cell_angle_gamma 90.000000
_cell_volume 1652.132930
_symmetry_space_group_name_H-M "P M M A"
_symmetry_group_IT_number 51
_symmetry_cell_setting 'orthorhombic'
loop_
_space_group_symop_operation_xyz
x,y,z
1/2-x,-y,z
1/2+x,-y,-z
-x,y,-z
-x,-y,-z
1/2+x,y,-z
1/2-x,y,z
x,-y,z
loop_
_atom_site_type_symbol
_atom_site_label
_atom_site_fract_x
_atom_site_fract_y
_atom_site_fract_z
Si Si1 0.160895 0.832976 0.010568
Si Si2 0.161435 0.149879 0.437931
Si Si3 0.596045 0.610635 0.982018
Si Si4 0.532242 0.889418 0.269951
Si Si5 0.433904 0.319485 0.377533
O O1 0.250000 0.861815 0.949487
O O2 0.159093 0.858581 0.221939
O O3 0.145868 0.711808 0.973343
O O4 0.088312 0.881370 0.902494
O O5 0.250000 0.119296 0.492080
O O6 0.092767 0.104418 0.562380
O O7 0.141738 0.269150 0.472670
O O8 0.617372 0.500000 0.059718
O O9 0.600999 0.610096 0.770910
O O10 0.500000 0.626479 0.000000
O O11 0.482865 0.782390 0.296968
O O12 0.489846 0.000000 0.260174
O O13 0.500000 0.369029 0.500000
#
# Coordination Sequence:
#
# PCOD9402353 Si02
#       5
#     8   8   8   8   8
#     4  10  21  38  59  84 115 149 188 234 287 339
#     4   9  20  36  54  78 110 146 185 233 281 332
#     4  10  19  35  59  83 111 145 185 230 283 340
#     4  11  22  37  57  81 113 153 194 234 281 337
#     4   9  19  36  57  82 113 147 190 236 284 337
#
# _framework density 24.211127999999999
#
# number of rings (size 3 to 8) (size 9 to 14) (size 15 to 20)
#    0.000    2.200    2.000    0.600    0.000    6.800 
#    0.000    9.000    0.000    0.000    0.000    2.800 
#    0.000    0.000    0.000    0.000    0.000    0.000 
#
# Total GULP energy -222702.817130 kJ/mol
# GULP energy per Si atom -5567.570428 kJ/mol
# Density = 2.415602 g / cm^3
# Si number density = 24.211128 Si / 1000 Ang^3
#
#
#
# Elastic Constant Matrix: (Units=GPa)
#
#
# Indices 1 2 3 4 5 6 
#
# 1 99.5966 17.2146 2.1681 0.0000 0.0000 0.0000
# 2 17.2146 115.2923 4.7726 0.0000 0.0000 0.0000
# 3 2.1681 4.7726 51.5375 0.0000 0.0000 0.0000
# 4 0.0000 0.0000 0.0000 18.3768 0.0000 0.0000
# 5 0.0000 0.0000 0.0000 0.0000 33.1544 0.0000
# 6 0.0000 0.0000 0.0000 0.0000 0.0000 3.1336
#
#
#
# Elastic Compliance Matrix: (Units=1/GPa)
#
#
# Indices 1 2 3 4 5 6 
#
# 1 0.010311 -0.001527 -0.000292 0.000000 0.000000 0.000000
# 2 -0.001527 0.008933 -0.000763 0.000000 0.000000 0.000000
# 3 -0.000292 -0.000763 0.019486 0.000000 0.000000 0.000000
# 4 0.000000 0.000000 0.000000 0.054417 0.000000 0.000000
# 5 0.000000 0.000000 0.000000 0.000000 0.030162 0.000000
# 6 0.000000 0.000000 0.000000 0.000000 0.000000 0.319124
#
#
# Mechanical properties :
#
#
# Convention : Reuss Voigt Hill
#
# Bulk Modulus (GPa) = 29.79299 34.97077 32.38188
# Shear Modulus (GPa) = 10.89832 27.08437 18.99134
#
# Velocity S-wave (km/s) = 2.12394 3.34829 2.80376
# Velocity P-wave (km/s) = 4.28335 5.42434 4.88726
#
# Compressibility (1/GPa) = 0.03356494
#
# Stress axis : x y z
#
# Youngs Moduli (GPa) = 96.98503 111.94129 51.31809
#
# Poissons Ratio (x) = 0.17098 0.01500
# Poissons Ratio (y) = 0.14814 0.03916
# Poissons Ratio (z) = 0.02835 0.08541
#
# Static dielectric constant tensor:
#      x y z
#    x 1.987630 0.000000 0.000000 
#    y 0.000000 2.033800 0.000000 
#    z 0.000000 0.000000 2.102470 
# 
# From -- ./inp_files/9293.got.cif
#   From: 2010.05.17/outbox.cif.g08.bks.cpg/sg51_5_cif.got.tgz:9293.got - 2010.06.03 11:52:47.
