data_PCOD9402477
_publ_section_title
;
Structure prediction by ZEFSAII (Michael W. Deem and Ramdas Pophale) SiO2 
 PCOD9402477
Probable space group: P M M A
;
_chemical_formula_sum "Si O2"
_cell_formula_units_Z 64
_cell_length_a 14.777305
_cell_length_b 16.993288
_cell_length_c 12.587560
_cell_angle_alpha 90.000000
_cell_angle_beta 90.000000
_cell_angle_gamma 90.000000
_cell_volume 3160.925126
_symmetry_space_group_name_H-M "P M M A"
_symmetry_group_IT_number 51
_symmetry_cell_setting 'orthorhombic'
loop_
_space_group_symop_operation_xyz
x,y,z
1/2-x,-y,z
1/2+x,-y,-z
-x,y,-z
-x,-y,-z
1/2+x,y,-z
1/2-x,y,z
x,-y,z
loop_
_atom_site_type_symbol
_atom_site_label
_atom_site_fract_x
_atom_site_fract_y
_atom_site_fract_z
Si Si1 0.859792 0.352925 0.336723
Si Si2 0.357593 0.414928 0.889233
Si Si3 0.643263 0.271203 0.727125
Si Si4 0.518912 0.794600 0.377696
Si Si5 0.648899 0.907840 0.283067
Si Si6 0.604598 0.910590 0.036149
Si Si7 0.604592 0.259799 0.971736
Si Si8 0.859838 0.586696 0.570961
O O1 0.750000 0.341779 0.335881
O O2 0.886235 0.402042 0.232902
O O3 0.914590 0.271984 0.330739
O O4 0.884084 0.391697 0.449892
O O5 0.250000 0.421993 0.886644
O O6 0.393838 0.500000 0.929387
O O7 0.371789 0.334776 0.955007
O O8 0.750000 0.255960 0.710160
O O9 0.575142 0.204485 0.685775
O O10 0.624952 0.283789 0.851039
O O11 0.615361 0.346379 0.655195
O O12 0.500000 0.777619 0.500000
O O13 0.576778 0.872321 0.362629
O O14 0.750000 0.872987 0.293440
O O15 0.655541 0.000000 0.300795
O O16 0.614718 0.897389 0.162353
O O17 0.644213 0.828847 0.988293
O O18 0.641762 0.000000 0.013856
O O19 0.500000 0.914699 0.000000
O O20 0.500000 0.248658 0.000000
O O21 0.750000 0.584403 0.572969
O O22 0.894124 0.500000 0.598488
#
# Coordination Sequence:
#
# PCOD9402477 Si02
#       8
#     8   8   8   8   8   8   8   8
#     4  10  19  36  61  90 121 154 203 266 321 375
#     4  10  21  36  57  85 118 161 210 259 319 381
#     4  11  24  41  59  87 125 166 210 256 312 380
#     4  12  23  38  63  89 121 162 210 260 319 377
#     4  10  22  40  64  95 127 160 203 256 315 381
#     4   9  18  36  63  94 126 159 197 246 305 373
#     4  11  22  38  60  86 125 163 208 261 315 376
#     4   9  18  35  59  85 117 160 208 259 314 370
#
# _framework density 20.247236000000001
#
# number of rings (size 3 to 8) (size 9 to 14) (size 15 to 20)
#    0.000    1.750    1.250    4.125    0.000    5.000 
#    0.000    4.375    0.000    1.125    0.000    0.000 
#    0.000    0.000    0.000    0.000    0.000    0.000 
#
# Total GULP energy -356866.275305 kJ/mol
# GULP energy per Si atom -5576.035552 kJ/mol
# Density = 2.020115 g / cm^3
# Si number density = 20.247236 Si / 1000 Ang^3
#
#
#
# Elastic Constant Matrix: (Units=GPa)
#
#
# Indices 1 2 3 4 5 6 
#
# 1 87.5742 16.5999 23.5946 0.0000 0.0000 0.0000
# 2 16.5999 109.0625 52.7772 0.0000 0.0000 0.0000
# 3 23.5946 52.7772 81.7975 0.0000 0.0000 0.0000
# 4 0.0000 0.0000 0.0000 244.9504 0.0000 0.0000
# 5 0.0000 0.0000 0.0000 0.0000 19.0456 0.0000
# 6 0.0000 0.0000 0.0000 0.0000 0.0000 45.5914
#
#
#
# Elastic Compliance Matrix: (Units=1/GPa)
#
#
# Indices 1 2 3 4 5 6 
#
# 1 0.012385 -0.000227 -0.003426 0.000000 0.000000 0.000000
# 2 -0.000227 0.013336 -0.008539 0.000000 0.000000 0.000000
# 3 -0.003426 -0.008539 0.018723 0.000000 0.000000 0.000000
# 4 0.000000 0.000000 0.000000 0.004082 0.000000 0.000000
# 5 0.000000 0.000000 0.000000 0.000000 0.052505 0.000000
# 6 0.000000 0.000000 0.000000 0.000000 0.000000 0.021934
#
#
# Mechanical properties :
#
#
# Convention : Reuss Voigt Hill
#
# Bulk Modulus (GPa) = 49.85123 51.59752 50.72438
# Shear Modulus (GPa) = 32.45988 74.28165 53.37077
#
# Velocity S-wave (km/s) = 4.00831 6.06358 5.13972
# Velocity P-wave (km/s) = 6.78946 8.63491 7.76719
#
# Compressibility (1/GPa) = 0.02005968
#
# Stress axis : x y z
#
# Youngs Moduli (GPa) = 80.74307 74.98616 53.41022
#
# Poissons Ratio (x) = 0.01704 0.18298
# Poissons Ratio (y) = 0.01835 0.45607
# Poissons Ratio (z) = 0.27661 0.64030
#
# Static dielectric constant tensor:
#      x y z
#    x 1.743180 0.000000 0.000000 
#    y 0.000000 1.797580 0.000000 
#    z 0.000000 0.000000 1.690930 
# 
# From -- ./inp_files/16900.got.cif
#   From: 2010.05.17/outbox.cif.g08.bks.cpg/sg51_9_cif.got.tgz:16900.got - 2010.06.03 11:52:47.
