data_PCOD9402655
_publ_section_title
;
Structure prediction by ZEFSAII (Michael W. Deem and Ramdas Pophale) SiO2 
 PCOD9402655
Probable space group: P M M A
;
_chemical_formula_sum "Si O2"
_cell_formula_units_Z 64
_cell_length_a 18.216579
_cell_length_b 7.548794
_cell_length_c 23.993637
_cell_angle_alpha 90.000000
_cell_angle_beta 90.000000
_cell_angle_gamma 90.000000
_cell_volume 3299.441858
_symmetry_space_group_name_H-M "P M M A"
_symmetry_group_IT_number 51
_symmetry_cell_setting 'orthorhombic'
loop_
_space_group_symop_operation_xyz
x,y,z
1/2-x,-y,z
1/2+x,-y,-z
-x,y,-z
-x,-y,-z
1/2+x,y,-z
1/2-x,y,z
x,-y,z
loop_
_atom_site_type_symbol
_atom_site_label
_atom_site_fract_x
_atom_site_fract_y
_atom_site_fract_z
Si Si1 0.166496 0.717354 0.565132
Si Si2 0.023680 0.292004 0.630461
Si Si3 0.331010 0.214584 0.824446
Si Si4 0.528736 0.792695 0.242802
Si Si5 0.449600 0.286109 0.132973
Si Si6 0.590063 0.292435 0.064965
Si Si7 0.166240 0.717058 0.046606
Si Si8 0.925374 0.296729 0.537027
O O1 0.250000 0.774416 0.576362
O O2 0.167132 0.500000 0.565139
O O3 0.103383 0.774925 0.609136
O O4 0.136506 0.777368 0.504340
O O5 0.024373 0.500000 0.615828
O O6 0.013902 0.279106 0.696179
O O7 0.955754 0.215256 0.594464
O O8 0.250000 0.271465 0.807013
O O9 0.396621 0.281405 0.785203
O O10 0.348568 0.273645 0.887305
O O11 0.333193 0.000000 0.824465
O O12 0.466512 0.768254 0.195977
O O13 0.540529 0.000000 0.250621
O O14 0.452450 0.500000 0.132559
O O15 0.516579 0.218935 0.093748
O O16 0.374856 0.230940 0.103245
O O17 0.575152 0.500000 0.055139
O O18 0.619254 0.220441 0.006697
O O19 0.250000 0.776012 0.043175
O O20 0.166852 0.500000 0.044624
O O21 0.902116 0.500000 0.547847
O O22 0.000000 0.299195 0.500000
#
# Coordination Sequence:
#
# PCOD9402655 Si02
#       8
#     8   8   8   8   8   8   8   8
#     4   8  13  22  40  68  96 115 135 170 212 251
#     4   9  16  27  44  65  87 113 145 177 210 251
#     4   9  18  31  43  57  83 117 147 176 214 260
#     4  10  20  32  45  61  83 115 153 187 217 251
#     4   9  17  30  47  65  87 116 147 179 216 259
#     4   9  16  27  45  68  90 111 138 173 215 265
#     4   9  16  26  44  70  93 110 134 175 225 270
#     4   7  11  21  38  60  86 113 136 161 199 243
#
# _framework density 19.397219
#
# number of rings (size 3 to 8) (size 9 to 14) (size 15 to 20)
#    0.000    3.250    0.000    2.625    0.000    3.250 
#    0.000    0.625    0.000    8.250    0.000    3.500 
#    0.000    0.000    0.000    0.000    0.000    0.000 
#
# Total GULP energy -356501.577120 kJ/mol
# GULP energy per Si atom -5570.337143 kJ/mol
# Density = 1.935307 g / cm^3
# Si number density = 19.397219 Si / 1000 Ang^3
#
#
#
# Elastic Constant Matrix: (Units=GPa)
#
#
# Indices 1 2 3 4 5 6 
#
# 1 49.1671 -0.4603 43.5728 0.0000 0.0000 0.0000
# 2 -0.4603 42.7806 -6.0981 0.0000 0.0000 0.0000
# 3 43.5728 -6.0981 139.3189 0.0000 0.0000 0.0000
# 4 0.0000 0.0000 0.0000 337.7355 0.0000 0.0000
# 5 0.0000 0.0000 0.0000 0.0000 11.7073 0.0000
# 6 0.0000 0.0000 0.0000 0.0000 0.0000 2.5845
#
#
#
# Elastic Compliance Matrix: (Units=1/GPa)
#
#
# Indices 1 2 3 4 5 6 
#
# 1 0.028177 -0.000959 -0.008854 0.000000 0.000000 0.000000
# 2 -0.000959 0.023554 0.001331 0.000000 0.000000 0.000000
# 3 -0.008854 0.001331 0.010005 0.000000 0.000000 0.000000
# 4 0.000000 0.000000 0.000000 0.002961 0.000000 0.000000
# 5 0.000000 0.000000 0.000000 0.000000 0.085417 0.000000
# 6 0.000000 0.000000 0.000000 0.000000 0.000000 0.386927
#
#
# Mechanical properties :
#
#
# Convention : Reuss Voigt Hill
#
# Bulk Modulus (GPa) = 22.33558 33.92171 28.12865
# Shear Modulus (GPa) = 8.78844 83.35559 46.07201
#
# Velocity S-wave (km/s) = 2.13087 6.56249 4.87888
# Velocity P-wave (km/s) = 4.19452 8.65723 6.80226
#
# Compressibility (1/GPa) = 0.04477162
#
# Stress axis : x y z
#
# Youngs Moduli (GPa) = 35.49019 42.45482 99.94693
#
# Poissons Ratio (x) = 0.04071 0.88497
# Poissons Ratio (y) = 0.03403 -0.13302
# Poissons Ratio (z) = 0.31425 -0.05650
#
# Static dielectric constant tensor:
#      x y z
#    x 1.684100 0.000000 0.000000 
#    y 0.000000 1.740420 0.000000 
#    z 0.000000 0.000000 1.681510 
# 
# From -- ./inp_files/33781.got.cif
#   From: 2010.05.17/outbox.cif.g08.bks.cpg/sg51_17_cif.got.tgz:33781.got - 2010.06.03 11:52:47.
