data_PCOD9402986
_publ_section_title
;
Structure prediction by ZEFSAII (Michael W. Deem and Ramdas Pophale) SiO2 
 PCOD9402986
Probable space group: P M M A
;
_chemical_formula_sum "Si O2"
_cell_formula_units_Z 48
_cell_length_a 9.760868
_cell_length_b 16.135707
_cell_length_c 16.055790
_cell_angle_alpha 90.000000
_cell_angle_beta 90.000000
_cell_angle_gamma 90.000000
_cell_volume 2528.762939
_symmetry_space_group_name_H-M "P M M A"
_symmetry_group_IT_number 51
_symmetry_cell_setting 'orthorhombic'
loop_
_space_group_symop_operation_xyz
x,y,z
1/2-x,-y,z
1/2+x,-y,-z
-x,y,-z
-x,-y,-z
1/2+x,y,-z
1/2-x,y,z
x,-y,z
loop_
_atom_site_type_symbol
_atom_site_label
_atom_site_fract_x
_atom_site_fract_y
_atom_site_fract_z
Si Si1 0.988739 0.694475 0.363358
Si Si2 0.250000 0.594943 0.548860
Si Si3 0.410474 0.867928 0.422666
Si Si4 0.250000 0.406328 0.348110
Si Si5 0.086192 0.407552 0.915304
Si Si6 0.904883 0.243954 0.189021
Si Si7 0.586748 0.093017 0.769179
O O1 0.058477 0.769953 0.412703
O O2 0.111994 0.640846 0.325173
O O3 0.885257 0.640770 0.418177
O O4 0.906289 0.732274 0.286399
O O5 0.250000 0.500000 0.578872
O O6 0.250000 0.593748 0.449188
O O7 0.500000 0.899072 0.500000
O O8 0.250000 0.881528 0.438917
O O9 0.443094 0.902713 0.330617
O O10 0.250000 0.500000 0.317882
O O11 0.250000 0.403891 0.931686
O O12 0.060205 0.500000 0.877760
O O13 0.052679 0.327374 0.859688
O O14 0.000000 0.403061 0.000000
O O15 0.750000 0.222313 0.163429
O O16 0.005029 0.165329 0.184193
O O17 0.750000 0.107033 0.776639
O O18 0.554429 0.000000 0.798133
#
# Coordination Sequence:
#
# PCOD9402986 Si02
#       7
#     8   4   8   4   8   8   8
#     4  11  21  35  49  70 100 136 184 233 279 328
#     4  11  22  34  48  64  92 138 184 231 284 328
#     4  10  20  32  51  72  98 135 179 231 287 339
#     4  11  22  34  46  66  96 136 186 237 280 320
#     4   9  19  37  60  88 121 152 182 218 265 323
#     4  10  21  37  58  84 112 146 184 223 274 330
#     4   9  20  38  57  79 110 145 184 233 287 338
#
# _framework density 18.981612999999999
#
# number of rings (size 3 to 8) (size 9 to 14) (size 15 to 20)
#    0.000    2.000    1.667    2.000    2.333    4.667 
#    0.000    0.000    0.000    0.500    0.000    0.000 
#    0.000    0.000    0.000    0.000    0.000    0.000 
#
# Total GULP energy -267824.793309 kJ/mol
# GULP energy per Si atom -5579.683194 kJ/mol
# Density = 1.893841 g / cm^3
# Si number density = 18.981613 Si / 1000 Ang^3
#
#
#
# Elastic Constant Matrix: (Units=GPa)
#
#
# Indices 1 2 3 4 5 6 
#
# 1 81.2906 57.6910 17.0008 0.0000 0.0000 0.0000
# 2 57.6910 152.8471 29.2226 0.0000 0.0000 0.0000
# 3 17.0008 29.2226 34.2424 0.0000 0.0000 0.0000
# 4 0.0000 0.0000 0.0000 10.1542 0.0000 0.0000
# 5 0.0000 0.0000 0.0000 0.0000 5.5547 0.0000
# 6 0.0000 0.0000 0.0000 0.0000 0.0000 30.7597
#
#
#
# Elastic Compliance Matrix: (Units=1/GPa)
#
#
# Indices 1 2 3 4 5 6 
#
# 1 0.017161 -0.005794 -0.003576 0.000000 0.000000 0.000000
# 2 -0.005794 0.009774 -0.005465 0.000000 0.000000 0.000000
# 3 -0.003576 -0.005465 0.035643 0.000000 0.000000 0.000000
# 4 0.000000 0.000000 0.000000 0.098481 0.000000 0.000000
# 5 0.000000 0.000000 0.000000 0.000000 0.180028 0.000000
# 6 0.000000 0.000000 0.000000 0.000000 0.000000 0.032510
#
#
# Mechanical properties :
#
#
# Convention : Reuss Voigt Hill
#
# Bulk Modulus (GPa) = 30.38674 52.91211 41.64942
# Shear Modulus (GPa) = 12.07042 20.25809 16.16426
#
# Velocity S-wave (km/s) = 2.52444 3.27042 2.92134
# Velocity P-wave (km/s) = 4.95382 6.49591 5.77656
#
# Compressibility (1/GPa) = 0.03290910
#
# Stress axis : x y z
#
# Youngs Moduli (GPa) = 58.27131 102.31164 28.05637
#
# Poissons Ratio (x) = 0.59276 0.10033
# Poissons Ratio (y) = 0.33760 0.15332
# Poissons Ratio (z) = 0.20837 0.55911
#
# Static dielectric constant tensor:
#      x y z
#    x 1.685860 0.000000 0.000000 
#    y 0.000000 1.688110 0.000000 
#    z 0.000000 0.000000 1.637860 
# 
# From -- ./inp_files/27665.got.cif
#   From: 2010.05.17/outbox.cif.g08.bks.cpg/sg51_14_cif.got.tgz:27665.got - 2010.06.03 11:52:47.
