data_PCOD9402604
_publ_section_title
;
Structure prediction by ZEFSAII (Michael W. Deem and Ramdas Pophale) SiO2 
 PCOD9402604
Probable space group: P M M A
;
_chemical_formula_sum "Si O2"
_cell_formula_units_Z 52
_cell_length_a 9.231640
_cell_length_b 8.260666
_cell_length_c 37.108900
_cell_angle_alpha 90.000000
_cell_angle_beta 90.000000
_cell_angle_gamma 90.000000
_cell_volume 2829.905962
_symmetry_space_group_name_H-M "P M M A"
_symmetry_group_IT_number 51
_symmetry_cell_setting 'orthorhombic'
loop_
_space_group_symop_operation_xyz
x,y,z
1/2-x,-y,z
1/2+x,-y,-z
-x,y,-z
-x,-y,-z
1/2+x,y,-z
1/2-x,y,z
x,-y,z
loop_
_atom_site_type_symbol
_atom_site_label
_atom_site_fract_x
_atom_site_fract_y
_atom_site_fract_z
Si Si1 0.585051 0.807359 0.736923
Si Si2 0.917291 0.307446 0.812718
Si Si3 0.426397 0.313038 0.586260
Si Si4 0.417601 0.192699 0.111689
Si Si5 0.583384 0.304829 0.964564
Si Si6 0.074296 0.000000 0.538780
Si Si7 0.414932 0.694494 0.667199
O O1 0.750000 0.742481 0.734831
O O2 0.517639 0.745472 0.774524
O O3 0.503334 0.758204 0.700882
O O4 0.590155 0.000000 0.739036
O O5 0.750000 0.243114 0.812158
O O6 0.912728 0.500000 0.813758
O O7 0.983956 0.247608 0.850304
O O8 0.250000 0.317373 0.587110
O O9 0.472002 0.500000 0.577545
O O10 0.467374 0.165819 0.559952
O O11 0.473584 0.270183 0.627104
O O12 0.250000 0.255838 0.111848
O O13 0.481580 0.252808 0.073929
O O14 0.413967 0.000000 0.111169
O O15 0.750000 0.247054 0.966081
O O16 0.584589 0.500000 0.965253
O O17 0.500000 0.247155 0.000000
O O18 0.000000 0.000000 0.500000
O O19 0.250000 0.000000 0.535759
O O20 0.250000 0.756378 0.669220
O O21 0.410618 0.500000 0.669393
#
# Coordination Sequence:
#
# PCOD9402604 Si02
#       7
#     8   8   8   8   8   4   8
#     4  10  20  31  45  71 104 133 160 197 247 297
#     4   9  16  27  44  64  89 123 159 193 232 280
#     4   8  16  32  53  76 101 132 173 214 250 298
#     4   9  16  26  42  64  88 114 147 188 228 270
#     4   9  17  29  45  65  88 113 143 179 220 268
#     4  10  20  34  54  78 104 136 170 210 258 304
#     4   9  18  33  53  75  97 127 171 214 247 288
#
# _framework density 18.375170000000001
#
# number of rings (size 3 to 8) (size 9 to 14) (size 15 to 20)
#    0.000    2.923    0.000    2.308    1.077    5.538 
#    0.000    0.769    0.000    1.846    0.000    2.154 
#    0.000    0.000    0.000    0.000    0.000    0.000 
#
# Total GULP energy -289535.256477 kJ/mol
# GULP energy per Si atom -5567.985701 kJ/mol
# Density = 1.833335 g / cm^3
# Si number density = 18.375170 Si / 1000 Ang^3
#
#
#
# Elastic Constant Matrix: (Units=GPa)
#
#
# Indices 1 2 3 4 5 6 
#
# 1 15.1076 14.1825 37.3443 0.0000 0.0000 0.0000
# 2 14.1825 59.1305 74.2506 0.0000 0.0000 0.0000
# 3 37.3443 74.2506 207.9819 0.0000 0.0000 0.0000
# 4 0.0000 0.0000 0.0000 52.5208 0.0000 0.0000
# 5 0.0000 0.0000 0.0000 0.0000 21.5649 0.0000
# 6 0.0000 0.0000 0.0000 0.0000 0.0000 12.3282
#
#
#
# Elastic Compliance Matrix: (Units=1/GPa)
#
#
# Indices 1 2 3 4 5 6 
#
# 1 0.119331 -0.003111 -0.020316 0.000000 0.000000 0.000000
# 2 -0.003111 0.030735 -0.010414 0.000000 0.000000 0.000000
# 3 -0.020316 -0.010414 0.012174 0.000000 0.000000 0.000000
# 4 0.000000 0.000000 0.000000 0.019040 0.000000 0.000000
# 5 0.000000 0.000000 0.000000 0.000000 0.046372 0.000000
# 6 0.000000 0.000000 0.000000 0.000000 0.000000 0.081115
#
#
# Mechanical properties :
#
#
# Convention : Reuss Voigt Hill
#
# Bulk Modulus (GPa) = 10.57547 59.30830 34.94189
# Shear Modulus (GPa) = 12.25590 27.71229 19.98410
#
# Velocity S-wave (km/s) = 2.58540 3.88769 3.30140
# Velocity P-wave (km/s) = 3.83147 7.24559 5.79563
#
# Compressibility (1/GPa) = 0.09455840
#
# Stress axis : x y z
#
# Youngs Moduli (GPa) = 8.38004 32.53659 82.14381
#
# Poissons Ratio (x) = 0.10121 1.66884
# Poissons Ratio (y) = 0.02607 0.85543
# Poissons Ratio (z) = 0.17025 0.33883
#
# Static dielectric constant tensor:
#      x y z
#    x 1.652890 0.000000 0.000000 
#    y 0.000000 1.626460 0.000000 
#    z 0.000000 0.000000 1.663070 
# 
# From -- ./inp_files/37694.got.cif
#   From: 2010.05.17/outbox.cif.g08.bks.cpg/sg51_19_cif.got.tgz:37694.got - 2010.06.03 11:52:47.
