data_PCOD9402569
_publ_section_title
;
Structure prediction by ZEFSAII (Michael W. Deem and Ramdas Pophale) SiO2 
 PCOD9402569
Probable space group: P M M A
;
_chemical_formula_sum "Si O2"
_cell_formula_units_Z 64
_cell_length_a 18.286722
_cell_length_b 7.607332
_cell_length_c 23.963481
_cell_angle_alpha 90.000000
_cell_angle_beta 90.000000
_cell_angle_gamma 90.000000
_cell_volume 3333.635697
_symmetry_space_group_name_H-M "P M M A"
_symmetry_group_IT_number 51
_symmetry_cell_setting 'orthorhombic'
loop_
_space_group_symop_operation_xyz
x,y,z
1/2-x,-y,z
1/2+x,-y,-z
-x,y,-z
-x,-y,-z
1/2+x,y,-z
1/2-x,y,z
x,-y,z
loop_
_atom_site_type_symbol
_atom_site_label
_atom_site_fract_x
_atom_site_fract_y
_atom_site_fract_z
Si Si1 0.981763 0.202214 0.742915
Si Si2 0.570135 0.290639 0.034382
Si Si3 0.458056 0.784871 0.628299
Si Si4 0.110022 0.787396 0.425973
Si Si5 0.973430 0.210807 0.866970
Si Si6 0.329676 0.706424 0.308232
Si Si7 0.332208 0.792589 0.063274
Si Si8 0.166700 0.215145 0.546512
O O1 0.982123 0.282019 0.804446
O O2 0.898330 0.204060 0.720943
O O3 0.027939 0.279248 0.691312
O O4 0.006019 0.000000 0.748851
O O5 0.571458 0.500000 0.029837
O O6 0.546386 0.245380 0.096920
O O7 0.500000 0.219449 0.000000
O O8 0.640902 0.226388 0.000983
O O9 0.528050 0.733461 0.590902
O O10 0.385351 0.728438 0.596864
O O11 0.458770 0.000000 0.630200
O O12 0.160277 0.727537 0.374730
O O13 0.135274 0.727276 0.486593
O O14 0.111809 0.000000 0.426264
O O15 0.899894 0.278980 0.898885
O O16 0.964383 0.000000 0.863760
O O17 0.250000 0.774394 0.291508
O O18 0.333582 0.500000 0.294994
O O19 0.250000 0.720054 0.071749
O O20 0.328283 0.000000 0.075135
O O21 0.250000 0.271393 0.552744
O O22 0.165671 0.000000 0.545889
#
# Coordination Sequence:
#
# PCOD9402569 Si02
#       8
#     8   8   8   8   8   8   8   8
#     4   9  18  31  48  66  85 117 157 190 218 255
#     4   9  17  29  46  68  93 122 153 182 216 261
#     4   8  14  25  40  60  86 113 142 180 223 263
#     4   9  16  27  44  63  82 108 144 182 220 269
#     4   9  17  30  48  69  91 118 155 193 224 260
#     4  10  20  31  42  60  89 120 146 179 225 271
#     4   9  17  29  46  69  96 121 144 179 228 271
#     4   9  15  22  38  65  89 107 134 178 230 277
#
# _framework density 19.198257999999999
#
# number of rings (size 3 to 8) (size 9 to 14) (size 15 to 20)
#    0.000    3.000    0.000    2.250    0.000    5.750 
#    0.000    1.250    0.000    6.750    0.000    3.500 
#    0.000    0.000    0.000    0.000    0.000    0.000 
#
# Total GULP energy -356616.746462 kJ/mol
# GULP energy per Si atom -5572.136663 kJ/mol
# Density = 1.915456 g / cm^3
# Si number density = 19.198258 Si / 1000 Ang^3
#
#
#
# Elastic Constant Matrix: (Units=GPa)
#
#
# Indices 1 2 3 4 5 6 
#
# 1 68.3216 1.1875 41.7905 0.0000 0.0000 0.0000
# 2 1.1875 42.4662 -2.6828 0.0000 0.0000 0.0000
# 3 41.7905 -2.6828 114.0012 0.0000 0.0000 0.0000
# 4 0.0000 0.0000 0.0000 -20.6077 0.0000 0.0000
# 5 0.0000 0.0000 0.0000 0.0000 6.6636 0.0000
# 6 0.0000 0.0000 0.0000 0.0000 0.0000 -12.9902
#
#
#
# Elastic Compliance Matrix: (Units=1/GPa)
#
#
# Indices 1 2 3 4 5 6 
#
# 1 0.018907 -0.000968 -0.006954 0.000000 0.000000 0.000000
# 2 -0.000968 0.023633 0.000911 0.000000 0.000000 0.000000
# 3 -0.006954 0.000911 0.011342 0.000000 0.000000 0.000000
# 4 0.000000 0.000000 0.000000 -0.048526 0.000000 0.000000
# 5 0.000000 0.000000 0.000000 0.000000 0.150068 0.000000
# 6 0.000000 0.000000 0.000000 0.000000 0.000000 -0.076981
#
#
# Mechanical properties :
#
#
# Convention : Reuss Voigt Hill
#
# Bulk Modulus (GPa) = 25.08739 33.93105 29.50922
# Shear Modulus (GPa) = 47.28048 6.91273 27.09660
#
# Velocity S-wave (km/s) = 4.96799 1.89961 3.76095
# Velocity P-wave (km/s) = 6.78261 4.74592 5.85353
#
# Compressibility (1/GPa) = 0.03986066
#
# Stress axis : x y z
#
# Youngs Moduli (GPa) = 52.89090 42.31410 88.16519
#
# Poissons Ratio (x) = 0.04096 0.61307
# Poissons Ratio (y) = 0.05120 -0.08032
# Poissons Ratio (z) = 0.36778 -0.03855
#
# Static dielectric constant tensor:
#      x y z
#    x 1.662920 0.000000 0.000000 
#    y 0.000000 1.711420 0.000000 
#    z 0.000000 0.000000 1.689190 
# 
# From -- ./inp_files/35918.got.cif
#   From: 2010.05.17/outbox.cif.g08.bks.cpg/sg51_18_cif.got.tgz:35918.got - 2010.06.03 11:52:47.
