data_PCOD9402867
_publ_section_title
;
Structure prediction by ZEFSAII (Michael W. Deem and Ramdas Pophale) SiO2 
 PCOD9402867
Probable space group: P M M A
;
_chemical_formula_sum "Si O2"
_cell_formula_units_Z 44
_cell_length_a 9.207318
_cell_length_b 8.056439
_cell_length_c 31.156165
_cell_angle_alpha 90.000000
_cell_angle_beta 90.000000
_cell_angle_gamma 90.000000
_cell_volume 2311.108108
_symmetry_space_group_name_H-M "P M M A"
_symmetry_group_IT_number 51
_symmetry_cell_setting 'orthorhombic'
loop_
_space_group_symop_operation_xyz
x,y,z
1/2-x,-y,z
1/2+x,-y,-z
-x,y,-z
-x,-y,-z
1/2+x,y,-z
1/2-x,y,z
x,-y,z
loop_
_atom_site_type_symbol
_atom_site_label
_atom_site_fract_x
_atom_site_fract_y
_atom_site_fract_z
Si Si1 0.083123 0.301857 0.713592
Si Si2 0.084269 0.200515 0.371767
Si Si3 0.082978 0.203089 0.542986
Si Si4 0.926270 0.000000 0.046204
Si Si5 0.427041 0.683436 0.896890
Si Si6 0.078497 0.196002 0.805807
O O1 0.250000 0.239476 0.708950
O O2 0.087630 0.500000 0.716340
O O3 0.019350 0.236950 0.758728
O O4 0.993241 0.250863 0.672115
O O5 0.250000 0.259860 0.372966
O O6 0.996901 0.258619 0.413703
O O7 0.086246 0.000000 0.373395
O O8 0.250000 0.256097 0.542482
O O9 0.000000 0.256128 0.500000
O O10 0.081779 0.000000 0.543072
O O11 0.969987 0.164178 0.072914
O O12 0.750000 0.000000 0.042425
O O13 0.000000 0.000000 0.000000
O O14 0.250000 0.688157 0.895419
O O15 0.470427 0.500000 0.911916
O O16 0.479193 0.712748 0.847988
O O17 0.250000 0.240873 0.802875
O O18 0.068763 0.000000 0.813831
#
# Coordination Sequence:
#
# PCOD9402867 Si02
#       6
#     8   8   8   4   8   8
#     4  10  20  32  48  73 102 131 164 205 255 308
#     4  10  20  33  49  70  98 133 172 210 251 303
#     4   9  16  27  46  72 100 128 162 208 260 311
#     4  10  20  34  52  76 106 140 180 224 271 318
#     4   9  16  28  48  75 106 138 175 220 268 319
#     4   9  15  26  47  75 104 131 164 209 259 309
#
# _framework density 19.038488000000001
#
# number of rings (size 3 to 8) (size 9 to 14) (size 15 to 20)
#    0.000    2.545    0.909    2.182    0.000    6.909 
#    0.000    0.000    0.000    1.636    0.000    0.000 
#    0.000    0.000    0.000    0.000    0.000    0.000 
#
# Total GULP energy -245421.683096 kJ/mol
# GULP energy per Si atom -5577.765525 kJ/mol
# Density = 1.899516 g / cm^3
# Si number density = 19.038488 Si / 1000 Ang^3
#
#
#
# Elastic Constant Matrix: (Units=GPa)
#
#
# Indices 1 2 3 4 5 6 
#
# 1 69.3824 22.3139 56.0878 0.0000 0.0000 0.0000
# 2 22.3139 59.9383 62.8831 0.0000 0.0000 0.0000
# 3 56.0878 62.8831 179.0065 0.0000 0.0000 0.0000
# 4 0.0000 0.0000 0.0000 -6.1262 0.0000 0.0000
# 5 0.0000 0.0000 0.0000 0.0000 27.1233 0.0000
# 6 0.0000 0.0000 0.0000 0.0000 0.0000 7.9541
#
#
#
# Elastic Compliance Matrix: (Units=1/GPa)
#
#
# Indices 1 2 3 4 5 6 
#
# 1 0.019369 -0.001336 -0.005600 0.000000 0.000000 0.000000
# 2 -0.001336 0.026514 -0.008895 0.000000 0.000000 0.000000
# 3 -0.005600 -0.008895 0.010466 0.000000 0.000000 0.000000
# 4 0.000000 0.000000 0.000000 -0.163234 0.000000 0.000000
# 5 0.000000 0.000000 0.000000 0.000000 0.036869 0.000000
# 6 0.000000 0.000000 0.000000 0.000000 0.000000 0.125721
#
#
# Mechanical properties :
#
#
# Convention : Reuss Voigt Hill
#
# Bulk Modulus (GPa) = 40.50794 65.65522 53.08158
# Shear Modulus (GPa) = 52.30402 16.92640 34.61521
#
# Velocity S-wave (km/s) = 5.24713 2.98495 4.26863
# Velocity P-wave (km/s) = 7.61794 6.81471 7.22749
#
# Compressibility (1/GPa) = 0.02468652
#
# Stress axis : x y z
#
# Youngs Moduli (GPa) = 51.62838 37.71654 95.55011
#
# Poissons Ratio (x) = 0.05039 0.53504
# Poissons Ratio (y) = 0.06898 0.84995
# Poissons Ratio (z) = 0.28910 0.33550
#
# Static dielectric constant tensor:
#      x y z
#    x 1.649730 0.000000 0.000000 
#    y 0.000000 1.683070 0.000000 
#    z 0.000000 0.000000 1.652630 
# 
# From -- ./inp_files/36779.got.cif
#   From: 2010.05.17/outbox.cif.g08.bks.cpg/sg51_19_cif.got.tgz:36779.got - 2010.06.03 11:52:47.
