data_PCOD9402993
_publ_section_title
;
Structure prediction by ZEFSAII (Michael W. Deem and Ramdas Pophale) SiO2 
 PCOD9402993
Probable space group: P M M A
;
_chemical_formula_sum "Si O2"
_cell_formula_units_Z 48
_cell_length_a 15.423121
_cell_length_b 8.690159
_cell_length_c 19.622992
_cell_angle_alpha 90.000000
_cell_angle_beta 90.000000
_cell_angle_gamma 90.000000
_cell_volume 2630.057329
_symmetry_space_group_name_H-M "P M M A"
_symmetry_group_IT_number 51
_symmetry_cell_setting 'orthorhombic'
loop_
_space_group_symop_operation_xyz
x,y,z
1/2-x,-y,z
1/2+x,-y,-z
-x,y,-z
-x,-y,-z
1/2+x,y,-z
1/2-x,y,z
x,-y,z
loop_
_atom_site_type_symbol
_atom_site_label
_atom_site_fract_x
_atom_site_fract_y
_atom_site_fract_z
Si Si1 0.850930 0.815969 0.323704
Si Si2 0.350822 0.315807 0.824145
Si Si3 0.848167 0.312725 0.674388
Si Si4 0.995178 0.313657 0.421356
Si Si5 0.149086 0.685285 0.169231
Si Si6 0.496478 0.815903 0.921370
O O1 0.750000 0.773797 0.334632
O O2 0.876874 0.749143 0.249916
O O3 0.911725 0.749328 0.382177
O O4 0.857496 0.000000 0.321705
O O5 0.250000 0.272105 0.835856
O O6 0.356365 0.500000 0.822025
O O7 0.414261 0.252679 0.881652
O O8 0.750000 0.262143 0.658408
O O9 0.847430 0.500000 0.673752
O O10 0.869073 0.268082 0.752279
O O11 0.920209 0.261824 0.621009
O O12 0.992510 0.500000 0.419596
O O13 0.000000 0.265624 0.500000
O O14 0.250000 0.721392 0.155000
O O15 0.139516 0.500000 0.165380
O O16 0.082361 0.762368 0.118242
O O17 0.490701 0.000000 0.919693
O O18 0.500000 0.765180 0.000000
#
# Coordination Sequence:
#
# PCOD9402993 Si02
#       6
#     8   8   8   8   8   8
#     4  10  21  37  57  80 108 144 183 225 276 331
#     4  10  21  38  61  85 107 137 182 234 281 326
#     4   8  15  30  51  74 101 133 170 215 266 312
#     4  10  20  32  51  81 112 144 183 225 267 314
#     4   9  18  34  57  80 101 134 183 232 272 314
#     4  11  24  38  53  78 113 149 179 213 266 330
#
# _framework density 18.250553
#
# number of rings (size 3 to 8) (size 9 to 14) (size 15 to 20)
#    0.000    2.333    0.000    3.500    0.000    6.667 
#    0.000    5.000    0.000    1.500    0.000    0.000 
#    0.000    0.000    0.000    0.000    0.000    0.000 
#
# Total GULP energy -267994.524535 kJ/mol
# GULP energy per Si atom -5583.219261 kJ/mol
# Density = 1.820901 g / cm^3
# Si number density = 18.250553 Si / 1000 Ang^3
#
#
#
# Elastic Constant Matrix: (Units=GPa)
#
#
# Indices 1 2 3 4 5 6 
#
# 1 115.1732 33.9528 115.7569 0.0000 0.0000 0.0000
# 2 33.9528 23.6388 41.5139 0.0000 0.0000 0.0000
# 3 115.7569 41.5139 183.8062 0.0000 0.0000 0.0000
# 4 0.0000 0.0000 0.0000 22.5039 0.0000 0.0000
# 5 0.0000 0.0000 0.0000 0.0000 -15.2244 0.0000
# 6 0.0000 0.0000 0.0000 0.0000 0.0000 21.3777
#
#
#
# Elastic Compliance Matrix: (Units=1/GPa)
#
#
# Indices 1 2 3 4 5 6 
#
# 1 0.026318 -0.014408 -0.013320 0.000000 0.000000 0.000000
# 2 -0.014408 0.078001 -0.008543 0.000000 0.000000 0.000000
# 3 -0.013320 -0.008543 0.015759 0.000000 0.000000 0.000000
# 4 0.000000 0.000000 0.000000 0.044437 0.000000 0.000000
# 5 0.000000 0.000000 0.000000 0.000000 -0.065684 0.000000
# 6 0.000000 0.000000 0.000000 0.000000 0.000000 0.046778
#
#
# Mechanical properties :
#
#
# Convention : Reuss Voigt Hill
#
# Bulk Modulus (GPa) = 21.03720 78.34059 49.68890
# Shear Modulus (GPa) = 21.36795 14.49110 17.92953
#
# Velocity S-wave (km/s) = 3.42542 2.82087 3.13774
# Velocity P-wave (km/s) = 5.21504 7.32311 6.35707
#
# Compressibility (1/GPa) = 0.04753484
#
# Stress axis : x y z
#
# Youngs Moduli (GPa) = 37.99752 12.82033 63.45689
#
# Poissons Ratio (x) = 0.18471 0.84525
# Poissons Ratio (y) = 0.54746 0.54213
# Poissons Ratio (z) = 0.50613 0.10953
#
# Static dielectric constant tensor:
#      x y z
#    x 1.621880 0.000000 0.000000 
#    y 0.000000 1.613650 0.000000 
#    z 0.000000 0.000000 1.602490 
# 
# From -- ./inp_files/29421.got.cif
#   From: 2010.05.17/outbox.cif.g08.bks.cpg/sg51_15_cif.got.tgz:29421.got - 2010.06.03 11:52:47.
