data_PCOD9402384
_publ_section_title
;
Structure prediction by ZEFSAII (Michael W. Deem and Ramdas Pophale) SiO2 
 PCOD9402384
Probable space group: P M M A
;
_chemical_formula_sum "Si O2"
_cell_formula_units_Z 40
_cell_length_a 17.330366
_cell_length_b 11.514105
_cell_length_c 9.892055
_cell_angle_alpha 90.000000
_cell_angle_beta 90.000000
_cell_angle_gamma 90.000000
_cell_volume 1973.896798
_symmetry_space_group_name_H-M "P M M A"
_symmetry_group_IT_number 51
_symmetry_cell_setting 'orthorhombic'
loop_
_space_group_symop_operation_xyz
x,y,z
1/2-x,-y,z
1/2+x,-y,-z
-x,y,-z
-x,-y,-z
1/2+x,y,-z
1/2-x,y,z
x,-y,z
loop_
_atom_site_type_symbol
_atom_site_label
_atom_site_fract_x
_atom_site_fract_y
_atom_site_fract_z
Si Si1 0.561526 0.776141 0.894563
Si Si2 0.122126 0.000000 0.512660
Si Si3 0.835981 0.249245 0.400215
Si Si4 0.342657 0.864569 0.863452
Si Si5 0.841947 0.638272 0.671951
Si Si6 0.483542 0.000000 0.269207
O O1 0.603478 0.697215 0.783598
O O2 0.519496 0.884995 0.821962
O O3 0.500000 0.721017 0.000000
O O4 0.627317 0.828326 0.991446
O O5 0.166383 0.117805 0.543401
O O6 0.094434 0.000000 0.358853
O O7 0.048469 0.000000 0.614153
O O8 0.750000 0.297256 0.380407
O O9 0.870904 0.226024 0.252304
O O10 0.870967 0.322978 0.522274
O O11 0.250000 0.860560 0.856799
O O12 0.363774 0.000000 0.839051
O O13 0.750000 0.672874 0.684072
O O14 0.844748 0.500000 0.684271
#
# Coordination Sequence:
#
# PCOD9402384 Si02
#       6
#     8   4   8   8   8   4
#     4  12  23  38  58  90 126 163 198 240 303 372
#     4  11  19  34  55  87 122 154 193 240 295 355
#     4  10  19  35  60  87 114 151 195 249 303 354
#     4  10  20  34  56  89 128 158 191 241 299 363
#     4  10  23  44  65  84 112 155 211 264 302 345
#     4  11  23  34  55  85 129 165 188 232 298 366
#
# _framework density 20.264485000000001
#
# number of rings (size 3 to 8) (size 9 to 14) (size 15 to 20)
#    0.000    1.400    4.000    2.400    0.000    0.400 
#    0.000    1.000    0.000   12.000    0.000    0.000 
#    0.000    0.000    0.000    0.000    0.000    0.000 
#
# Total GULP energy -223071.598909 kJ/mol
# GULP energy per Si atom -5576.789973 kJ/mol
# Density = 2.021836 g / cm^3
# Si number density = 20.264485 Si / 1000 Ang^3
#
#
#
# Elastic Constant Matrix: (Units=GPa)
#
#
# Indices 1 2 3 4 5 6 
#
# 1 55.8084 30.5945 45.7022 0.0000 0.0000 0.0000
# 2 30.5945 76.4604 49.3292 0.0000 0.0000 0.0000
# 3 45.7022 49.3292 156.6803 0.0000 0.0000 0.0000
# 4 0.0000 0.0000 0.0000 8.0856 0.0000 0.0000
# 5 0.0000 0.0000 0.0000 0.0000 38.4710 0.0000
# 6 0.0000 0.0000 0.0000 0.0000 0.0000 15.4056
#
#
#
# Elastic Compliance Matrix: (Units=1/GPa)
#
#
# Indices 1 2 3 4 5 6 
#
# 1 0.026200 -0.006969 -0.005448 0.000000 0.000000 0.000000
# 2 -0.006969 0.018266 -0.003718 0.000000 0.000000 0.000000
# 3 -0.005448 -0.003718 0.009142 0.000000 0.000000 0.000000
# 4 0.000000 0.000000 0.000000 0.123676 0.000000 0.000000
# 5 0.000000 0.000000 0.000000 0.000000 0.025994 0.000000
# 6 0.000000 0.000000 0.000000 0.000000 0.000000 0.064912
#
#
# Mechanical properties :
#
#
# Convention : Reuss Voigt Hill
#
# Bulk Modulus (GPa) = 46.86419 60.02232 53.44325
# Shear Modulus (GPa) = 16.25628 23.28065 19.76847
#
# Velocity S-wave (km/s) = 2.83540 3.39313 3.12672
# Velocity P-wave (km/s) = 5.82201 6.71080 6.28214
#
# Compressibility (1/GPa) = 0.02133825
#
# Stress axis : x y z
#
# Youngs Moduli (GPa) = 38.16725 54.74701 109.38165
#
# Poissons Ratio (x) = 0.38151 0.59596
# Poissons Ratio (y) = 0.26597 0.40670
# Poissons Ratio (z) = 0.20795 0.20356
#
# Static dielectric constant tensor:
#      x y z
#    x 1.790770 0.000000 0.000000 
#    y 0.000000 1.677270 0.000000 
#    z 0.000000 0.000000 1.734750 
# 
# From -- ./inp_files/10683.got.cif
#   From: 2010.05.17/outbox.cif.g08.bks.cpg/sg51_6_cif.got.tgz:10683.got - 2010.06.03 11:52:47.
