data_PCOD9402024
_publ_section_title
;
Structure prediction by ZEFSAII (Michael W. Deem and Ramdas Pophale) SiO2 
 PCOD9402024
Probable space group: P M M A
;
_chemical_formula_sum "Si O2"
_cell_formula_units_Z 38
_cell_length_a 7.520690
_cell_length_b 12.892967
_cell_length_c 17.064765
_cell_angle_alpha 90.000000
_cell_angle_beta 90.000000
_cell_angle_gamma 90.000000
_cell_volume 1654.668010
_symmetry_space_group_name_H-M "P M M A"
_symmetry_group_IT_number 51
_symmetry_cell_setting 'orthorhombic'
loop_
_space_group_symop_operation_xyz
x,y,z
1/2-x,-y,z
1/2+x,-y,-z
-x,y,-z
-x,-y,-z
1/2+x,y,-z
1/2-x,y,z
x,-y,z
loop_
_atom_site_type_symbol
_atom_site_label
_atom_site_fract_x
_atom_site_fract_y
_atom_site_fract_z
Si Si1 0.961700 0.500000 0.909649
Si Si2 0.463275 0.882270 0.090009
Si Si3 0.468260 0.308891 0.191242
Si Si4 0.000000 0.500000 0.500000
Si Si5 0.045571 0.341255 0.364464
Si Si6 0.038336 0.111593 0.592384
O O1 0.750000 0.500000 0.897595
O O2 0.027315 0.604087 0.869415
O O3 0.000000 0.500000 0.000000
O O4 0.250000 0.886025 0.097051
O O5 0.526978 0.801602 0.155939
O O6 0.532175 0.000000 0.098820
O O7 0.500000 0.848144 0.000000
O O8 0.250000 0.305146 0.195605
O O9 0.528044 0.346695 0.276760
O O10 0.960289 0.408643 0.433399
O O11 0.250000 0.378987 0.365939
O O12 0.044260 0.218053 0.379086
O O13 0.250000 0.118324 0.604493
O O14 0.000000 0.108328 0.500000
O O15 0.976309 0.000000 0.625628
#
# Coordination Sequence:
#
# PCOD9402024 Si02
#       6
#     4   8   8   2   8   8
#     4  10  19  34  56  79 108 144 186 231 278 333
#     4   9  17  31  53  81 113 147 184 223 268 327
#     4   9  19  35  55  81 110 145 187 231 277 335
#     4  12  24  36  58  86 112 144 194 252 302 356
#     4  11  23  39  61  85 114 153 197 244 298 353
#     4  10  21  38  60  86 115 146 185 233 285 342
#
# _framework density 22.965330999999999
#
# number of rings (size 3 to 8) (size 9 to 14) (size 15 to 20)
#    0.000    2.105    1.053    2.211    0.000    4.632 
#    0.000    4.211    0.000    5.053    0.000    0.000 
#    0.000    0.000    0.000    0.000    0.000    0.000 
#
# Total GULP energy -211655.659004 kJ/mol
# GULP energy per Si atom -5569.885763 kJ/mol
# Density = 2.291306 g / cm^3
# Si number density = 22.965331 Si / 1000 Ang^3
#
#
#
# Elastic Constant Matrix: (Units=GPa)
#
#
# Indices 1 2 3 4 5 6 
#
# 1 67.3971 9.1196 -3.7690 0.0000 0.0000 0.0000
# 2 9.1196 166.8974 81.4944 0.0000 0.0000 0.0000
# 3 -3.7690 81.4944 170.6464 0.0000 0.0000 0.0000
# 4 0.0000 0.0000 0.0000 -32.3412 0.0000 0.0000
# 5 0.0000 0.0000 0.0000 0.0000 9.3862 0.0000
# 6 0.0000 0.0000 0.0000 0.0000 0.0000 -29.0227
#
#
#
# Elastic Compliance Matrix: (Units=1/GPa)
#
#
# Indices 1 2 3 4 5 6 
#
# 1 0.015064 -0.001285 0.000947 0.000000 0.000000 0.000000
# 2 -0.001285 0.007923 -0.003812 0.000000 0.000000 0.000000
# 3 0.000947 -0.003812 0.007702 0.000000 0.000000 0.000000
# 4 0.000000 0.000000 0.000000 -0.030920 0.000000 0.000000
# 5 0.000000 0.000000 0.000000 0.000000 0.106539 0.000000
# 6 0.000000 0.000000 0.000000 0.000000 0.000000 -0.034456
#
#
# Mechanical properties :
#
#
# Convention : Reuss Voigt Hill
#
# Bulk Modulus (GPa) = 44.66857 64.29231 54.48044
# Shear Modulus (GPa) = 57.06643 10.81087 33.93865
#
# Velocity S-wave (km/s) = 4.99028 2.17202 3.84841
# Velocity P-wave (km/s) = 7.25924 5.86058 6.59708
#
# Compressibility (1/GPa) = 0.02238711
#
# Stress axis : x y z
#
# Youngs Moduli (GPa) = 66.38221 126.20743 129.84304
#
# Poissons Ratio (x) = 0.16222 -0.12290
# Poissons Ratio (y) = 0.08532 0.49501
# Poissons Ratio (z) = -0.06283 0.48115
#
# Static dielectric constant tensor:
#      x y z
#    x 1.913670 0.000000 0.000000 
#    y 0.000000 1.896640 0.000000 
#    z 0.000000 0.000000 1.819050 
# 
# From -- ./inp_files/27077.got.cif
#   From: 2010.05.17/outbox.cif.g08.bks.cpg/sg51_14_cif.got.tgz:27077.got - 2010.06.03 11:52:47.
