data_PCOD9402221
_publ_section_title
;
Structure prediction by ZEFSAII (Michael W. Deem and Ramdas Pophale) SiO2 
 PCOD9402221
Probable space group: P M M A
;
_chemical_formula_sum "Si O2"
_cell_formula_units_Z 44
_cell_length_a 8.782357
_cell_length_b 18.174700
_cell_length_c 14.635660
_cell_angle_alpha 90.000000
_cell_angle_beta 90.000000
_cell_angle_gamma 90.000000
_cell_volume 2336.095807
_symmetry_space_group_name_H-M "P M M A"
_symmetry_group_IT_number 51
_symmetry_cell_setting 'orthorhombic'
loop_
_space_group_symop_operation_xyz
x,y,z
1/2-x,-y,z
1/2+x,-y,-z
-x,y,-z
-x,-y,-z
1/2+x,y,-z
1/2-x,y,z
x,-y,z
loop_
_atom_site_type_symbol
_atom_site_label
_atom_site_fract_x
_atom_site_fract_y
_atom_site_fract_z
Si Si1 0.932602 0.135670 0.714260
Si Si2 0.431792 0.718406 0.400120
Si Si3 0.067703 0.646493 0.904060
Si Si4 0.432205 0.000000 0.601794
Si Si5 0.432601 0.820078 0.902750
Si Si6 0.065871 0.416500 0.709897
O O1 0.750000 0.127202 0.714652
O O2 0.970801 0.213349 0.665896
O O3 0.995989 0.138327 0.816925
O O4 0.008023 0.071102 0.656012
O O5 0.500000 0.731240 0.500000
O O6 0.250000 0.713941 0.406375
O O7 0.496718 0.643766 0.357109
O O8 0.250000 0.641753 0.909881
O O9 0.027649 0.732975 0.892898
O O10 0.018219 0.603311 0.813708
O O11 0.000000 0.620181 0.000000
O O12 0.500000 0.000000 0.500000
O O13 0.250000 0.000000 0.597466
O O14 0.250000 0.826500 0.902450
O O15 0.500000 0.844392 0.000000
O O16 0.250000 0.411132 0.706478
O O17 0.022383 0.500000 0.687356
#
# Coordination Sequence:
#
# PCOD9402221 Si02
#       6
#     8   8   8   4   8   8
#     4  11  23  41  65  94 125 160 201 247 298 359
#     4  11  24  40  62  87 114 151 198 247 300 358
#     4   9  18  32  53  82 116 154 196 243 294 350
#     4  12  26  44  67  96 129 164 200 246 302 356
#     4  10  19  34  59  90 124 162 202 249 297 354
#     4  10  21  38  58  82 116 156 199 249 302 355
#
# _framework density 18.834845000000001
#
# number of rings (size 3 to 8) (size 9 to 14) (size 15 to 20)
#    0.000    1.636    1.818    3.000    0.000    6.182 
#    0.000    0.455    0.000    0.000    0.000    0.000 
#    0.000    0.000    0.000    0.000    0.000    0.000 
#
# Total GULP energy -245915.574808 kJ/mol
# GULP energy per Si atom -5588.990337 kJ/mol
# Density = 1.879198 g / cm^3
# Si number density = 18.834845 Si / 1000 Ang^3
#
#
#
# Elastic Constant Matrix: (Units=GPa)
#
#
# Indices 1 2 3 4 5 6 
#
# 1 57.7876 53.3199 59.3440 0.0000 0.0000 0.0000
# 2 53.3199 103.0010 69.6249 0.0000 0.0000 0.0000
# 3 59.3440 69.6249 164.6202 0.0000 0.0000 0.0000
# 4 0.0000 0.0000 0.0000 6.8144 0.0000 0.0000
# 5 0.0000 0.0000 0.0000 0.0000 39.2086 0.0000
# 6 0.0000 0.0000 0.0000 0.0000 0.0000 25.1773
#
#
#
# Elastic Compliance Matrix: (Units=1/GPa)
#
#
# Indices 1 2 3 4 5 6 
#
# 1 0.039113 -0.015007 -0.007753 0.000000 0.000000 0.000000
# 2 -0.015007 0.019353 -0.002776 0.000000 0.000000 0.000000
# 3 -0.007753 -0.002776 0.010043 0.000000 0.000000 0.000000
# 4 0.000000 0.000000 0.000000 0.146747 0.000000 0.000000
# 5 0.000000 0.000000 0.000000 0.000000 0.025505 0.000000
# 6 0.000000 0.000000 0.000000 0.000000 0.000000 0.039718
#
#
# Mechanical properties :
#
#
# Convention : Reuss Voigt Hill
#
# Bulk Modulus (GPa) = 57.34184 76.66517 67.00350
# Shear Modulus (GPa) = 14.82083 23.78140 19.30111
#
# Velocity S-wave (km/s) = 2.80819 3.55720 3.20465
# Velocity P-wave (km/s) = 6.40509 7.59367 7.02457
#
# Compressibility (1/GPa) = 0.01743927
#
# Stress axis : x y z
#
# Youngs Moduli (GPa) = 25.56699 51.67095 99.56879
#
# Poissons Ratio (x) = 0.77541 0.77194
# Poissons Ratio (y) = 0.38368 0.27636
# Poissons Ratio (z) = 0.19822 0.14341
#
# Static dielectric constant tensor:
#      x y z
#    x 1.629870 0.000000 0.000000 
#    y 0.000000 1.640590 0.000000 
#    z 0.000000 0.000000 1.628920 
# 
# From -- ./inp_files/20911.got.cif
#   From: 2010.05.17/outbox.cif.g08.bks.cpg/sg51_11_cif.got.tgz:20911.got - 2010.06.03 11:52:47.
