data_PCOD9402948
_publ_section_title
;
Structure prediction by ZEFSAII (Michael W. Deem and Ramdas Pophale) SiO2 
 PCOD9402948
Probable space group: P M M A
;
_chemical_formula_sum "Si O2"
_cell_formula_units_Z 40
_cell_length_a 14.559875
_cell_length_b 15.637527
_cell_length_c 9.563572
_cell_angle_alpha 90.000000
_cell_angle_beta 90.000000
_cell_angle_gamma 90.000000
_cell_volume 2177.438266
_symmetry_space_group_name_H-M "P M M A"
_symmetry_group_IT_number 51
_symmetry_cell_setting 'orthorhombic'
loop_
_space_group_symop_operation_xyz
x,y,z
1/2-x,-y,z
1/2+x,-y,-z
-x,y,-z
-x,-y,-z
1/2+x,y,-z
1/2-x,y,z
x,-y,z
loop_
_atom_site_type_symbol
_atom_site_label
_atom_site_fract_x
_atom_site_fract_y
_atom_site_fract_z
Si Si1 0.509877 0.283576 0.661732
Si Si2 0.639671 0.596165 0.832536
Si Si3 0.483331 0.907139 0.237019
Si Si4 0.855948 0.873597 0.025311
Si Si5 0.355559 0.321360 0.884370
O O1 0.500000 0.305607 0.500000
O O2 0.593217 0.333429 0.734930
O O3 0.520599 0.180742 0.677099
O O4 0.421936 0.313171 0.752775
O O5 0.750000 0.603639 0.825379
O O6 0.612813 0.500000 0.791812
O O7 0.614943 0.613189 0.995041
O O8 0.579315 0.905145 0.151022
O O9 0.474989 0.000000 0.308228
O O10 0.404477 0.900455 0.118183
O O11 0.750000 0.899961 0.034493
O O12 0.858934 0.770813 0.038665
O O13 0.250000 0.338049 0.843583
#
# Coordination Sequence:
#
# PCOD9402948 Si02
#       5
#     8   8   8   8   8
#     4  11  23  37  55  81 118 156 186 223 276 333
#     4  10  21  39  64  88 109 139 182 233 284 334
#     4  10  20  32  49  78 111 146 191 231 270 325
#     4   9  16  30  53  79 107 138 179 238 288 318
#     4   9  18  35  58  83 109 142 186 230 276 330
#
# _framework density 18.37021
#
# number of rings (size 3 to 8) (size 9 to 14) (size 15 to 20)
#    0.000    2.200    2.000    1.800    0.000    4.800 
#    0.000    0.000    0.000    2.400    0.000    5.600 
#    0.000    0.000    0.000    0.000    0.000    0.000 
#
# Total GULP energy -223119.197984 kJ/mol
# GULP energy per Si atom -5577.979950 kJ/mol
# Density = 1.832840 g / cm^3
# Si number density = 18.370210 Si / 1000 Ang^3
#
#
#
# Elastic Constant Matrix: (Units=GPa)
#
#
# Indices 1 2 3 4 5 6 
#
# 1 99.9207 36.9727 36.4094 0.0000 0.0000 0.0000
# 2 36.9727 90.5129 39.7866 0.0000 0.0000 0.0000
# 3 36.4094 39.7866 102.1339 0.0000 0.0000 0.0000
# 4 0.0000 0.0000 0.0000 -4.2850 0.0000 0.0000
# 5 0.0000 0.0000 0.0000 0.0000 -31.7392 0.0000
# 6 0.0000 0.0000 0.0000 0.0000 0.0000 11.9000
#
#
#
# Elastic Compliance Matrix: (Units=1/GPa)
#
#
# Indices 1 2 3 4 5 6 
#
# 1 0.012497 -0.003797 -0.002976 0.000000 0.000000 0.000000
# 2 -0.003797 0.014484 -0.004289 0.000000 0.000000 0.000000
# 3 -0.002976 -0.004289 0.012523 0.000000 0.000000 0.000000
# 4 0.000000 0.000000 0.000000 -0.233374 0.000000 0.000000
# 5 0.000000 0.000000 0.000000 0.000000 -0.031507 0.000000
# 6 0.000000 0.000000 0.000000 0.000000 0.000000 0.084034
#
#
# Mechanical properties :
#
#
# Convention : Reuss Voigt Hill
#
# Bulk Modulus (GPa) = 57.53445 57.65609 57.59527
# Shear Modulus (GPa) = -44.08170 7.13508 -18.47331
#
# Velocity S-wave (km/s) = -4.90392 1.97294 -3.17458
# Velocity P-wave (km/s) = 0.82286 6.05341 4.24068
#
# Compressibility (1/GPa) = 0.01738089
#
# Stress axis : x y z
#
# Youngs Moduli (GPa) = 80.01776 69.04032 79.85448
#
# Poissons Ratio (x) = 0.26212 0.23765
# Poissons Ratio (y) = 0.30380 0.34249
# Poissons Ratio (z) = 0.23814 0.29611
#
# Static dielectric constant tensor:
#      x y z
#    x 1.637090 0.000000 0.000000 
#    y 0.000000 1.677060 0.000000 
#    z 0.000000 0.000000 1.577740 
# 
# From -- ./inp_files/7924.got.cif
#   From: 2010.05.17/outbox.cif.g08.bks.cpg/sg51_4_cif.got.tgz:7924.got - 2010.06.03 11:52:47.
