data_PCOD9402399
_publ_section_title
;
Structure prediction by ZEFSAII (Michael W. Deem and Ramdas Pophale) SiO2 
 PCOD9402399
Probable space group: P M M A
;
_chemical_formula_sum "Si O2"
_cell_formula_units_Z 34
_cell_length_a 7.925698
_cell_length_b 7.784707
_cell_length_c 28.416238
_cell_angle_alpha 90.000000
_cell_angle_beta 90.000000
_cell_angle_gamma 90.000000
_cell_volume 1753.260194
_symmetry_space_group_name_H-M "P M M A"
_symmetry_group_IT_number 51
_symmetry_cell_setting 'orthorhombic'
loop_
_space_group_symop_operation_xyz
x,y,z
1/2-x,-y,z
1/2+x,-y,-z
-x,y,-z
-x,-y,-z
1/2+x,y,-z
1/2-x,y,z
x,-y,z
loop_
_atom_site_type_symbol
_atom_site_label
_atom_site_fract_x
_atom_site_fract_y
_atom_site_fract_z
Si Si1 0.063121 0.204363 0.949478
Si Si2 0.250000 0.691929 0.109676
Si Si3 0.543785 0.500000 0.277064
Si Si4 0.549552 0.803088 0.549830
Si Si5 0.750000 0.500000 0.798319
Si Si6 0.951154 0.803578 0.348016
O O1 0.250000 0.272573 0.937832
O O2 0.920470 0.228456 0.910308
O O3 0.078908 0.000000 0.955376
O O4 0.000000 0.273490 0.000000
O O5 0.250000 0.500000 0.089148
O O6 0.250000 0.661834 0.165611
O O7 0.750000 0.500000 0.268454
O O8 0.420230 0.500000 0.232384
O O9 0.499000 0.331582 0.308150
O O10 0.500000 0.721261 0.500000
O O11 0.750000 0.810454 0.550838
O O12 0.492046 0.732105 0.599899
O O13 0.479567 0.000000 0.549091
O O14 0.750000 0.816349 0.345067
O O15 0.020430 0.000000 0.343735
#
# Coordination Sequence:
#
# PCOD9402399 Si02
#       6
#     8   4   4   8   2   8
#     4  10  19  35  61  90 127 168 204 243 289 350
#     4  10  23  39  56  88 125 161 204 250 300 358
#     4  10  22  42  65  83 114 147 193 262 310 349
#     4   9  16  26  44  74 112 148 179 220 277 348
#     4  10  26  44  60  84 114 162 194 250 314 346
#     4   9  18  34  57  84 109 142 189 237 293 357
#
# _framework density 19.392446
#
# number of rings (size 3 to 8) (size 9 to 14) (size 15 to 20)
#    0.353    2.118    1.176    1.059    1.647    4.706 
#    0.000    2.941    0.000    2.824    0.000    0.000 
#    0.000    0.000    0.000    0.000    0.000    0.000 
#
# Total GULP energy -189325.102066 kJ/mol
# GULP energy per Si atom -5568.385355 kJ/mol
# Density = 1.934831 g / cm^3
# Si number density = 19.392446 Si / 1000 Ang^3
#
#
#
# Elastic Constant Matrix: (Units=GPa)
#
#
# Indices 1 2 3 4 5 6 
#
# 1 107.5814 26.6321 72.7668 0.0000 0.0000 0.0000
# 2 26.6321 54.8237 34.6886 0.0000 0.0000 0.0000
# 3 72.7668 34.6886 165.1317 0.0000 0.0000 0.0000
# 4 0.0000 0.0000 0.0000 -24.5401 0.0000 0.0000
# 5 0.0000 0.0000 0.0000 0.0000 63.6260 0.0000
# 6 0.0000 0.0000 0.0000 0.0000 0.0000 -7.3082
#
#
#
# Elastic Compliance Matrix: (Units=1/GPa)
#
#
# Indices 1 2 3 4 5 6 
#
# 1 0.013735 -0.003278 -0.005364 0.000000 0.000000 0.000000
# 2 -0.003278 0.021819 -0.003139 0.000000 0.000000 0.000000
# 3 -0.005364 -0.003139 0.009079 0.000000 0.000000 0.000000
# 4 0.000000 0.000000 0.000000 -0.040750 0.000000 0.000000
# 5 0.000000 0.000000 0.000000 0.000000 0.015717 0.000000
# 6 0.000000 0.000000 0.000000 0.000000 0.000000 -0.136832
#
#
# Mechanical properties :
#
#
# Convention : Reuss Voigt Hill
#
# Bulk Modulus (GPa) = 47.45921 66.19023 56.82472
# Shear Modulus (GPa) = -57.70527 19.25215 -19.22656
#
# Velocity S-wave (km/s) = -5.46088 3.15424 -3.15214
# Velocity P-wave (km/s) = 3.90325 6.88997 4.01474
#
# Compressibility (1/GPa) = 0.02107073
#
# Stress axis : x y z
#
# Youngs Moduli (GPa) = 72.80790 45.83206 110.14803
#
# Poissons Ratio (x) = 0.15025 0.59080
# Poissons Ratio (y) = 0.23868 0.34573
# Poissons Ratio (z) = 0.39052 0.14386
#
# Static dielectric constant tensor:
#      x y z
#    x 1.594410 0.000000 0.000000 
#    y 0.000000 1.736550 0.000000 
#    z 0.000000 0.000000 1.669570 
# 
# From -- ./inp_files/35972.got.cif
#   From: 2010.05.17/outbox.cif.g08.bks.cpg/sg51_18_cif.got.tgz:35972.got - 2010.06.03 11:52:47.
