data_PCOD9402309
_publ_section_title
;
Structure prediction by ZEFSAII (Michael W. Deem and Ramdas Pophale) SiO2 
 PCOD9402309
Probable space group: P M M A
;
_chemical_formula_sum "Si O2"
_cell_formula_units_Z 64
_cell_length_a 8.867731
_cell_length_b 19.890367
_cell_length_c 21.118616
_cell_angle_alpha 90.000000
_cell_angle_beta 90.000000
_cell_angle_gamma 90.000000
_cell_volume 3724.952683
_symmetry_space_group_name_H-M "P M M A"
_symmetry_group_IT_number 51
_symmetry_cell_setting 'orthorhombic'
loop_
_space_group_symop_operation_xyz
x,y,z
1/2-x,-y,z
1/2+x,-y,-z
-x,y,-z
-x,-y,-z
1/2+x,y,-z
1/2-x,y,z
x,-y,z
loop_
_atom_site_type_symbol
_atom_site_label
_atom_site_fract_x
_atom_site_fract_y
_atom_site_fract_z
Si Si1 0.929338 0.423943 0.244989
Si Si2 0.430864 0.796151 0.688384
Si Si3 0.930054 0.923204 0.116867
Si Si4 0.569671 0.709928 0.434641
Si Si5 0.929998 0.576229 0.616290
Si Si6 0.070957 0.790069 0.065478
Si Si7 0.071878 0.076855 0.255918
Si Si8 0.569585 0.286659 0.183493
O O1 0.750000 0.416572 0.259526
O O2 0.954025 0.500000 0.221451
O O3 0.968095 0.364524 0.196844
O O4 0.018483 0.416100 0.310609
O O5 0.250000 0.805564 0.687072
O O6 0.474784 0.754924 0.625939
O O7 0.511891 0.867300 0.696310
O O8 0.465857 0.752963 0.751448
O O9 0.750000 0.914247 0.113365
O O10 0.011593 0.865805 0.077337
O O11 0.983500 0.915000 0.189612
O O12 0.966894 0.000000 0.097877
O O13 0.500000 0.735491 0.500000
O O14 0.750000 0.709100 0.438303
O O15 0.510225 0.634667 0.422394
O O16 0.750000 0.583125 0.611541
O O17 0.971816 0.500000 0.596925
O O18 0.250000 0.789976 0.061836
O O19 0.014981 0.746347 0.124910
O O20 0.000000 0.764957 0.000000
O O21 0.250000 0.086141 0.243915
O O22 0.048275 0.000000 0.277468
O O23 0.750000 0.280689 0.173058
#
# Coordination Sequence:
#
# PCOD9402309 Si02
#       8
#     8   8   8   8   8   8   8   8
#     4   9  17  32  56  83 111 144 180 223 274 323
#     4  10  20  35  57  82 110 144 181 222 273 325
#     4  10  20  35  55  79 110 147 183 220 265 319
#     4  11  23  39  56  79 109 146 186 227 274 327
#     4  10  20  33  51  78 111 147 186 225 266 318
#     4  12  25  39  56  79 109 147 185 226 273 322
#     4  10  20  33  53  83 113 141 179 226 271 316
#     4  10  19  35  57  83 112 142 181 226 270 324
#
# _framework density 17.181426999999999
#
# number of rings (size 3 to 8) (size 9 to 14) (size 15 to 20)
#    0.000    1.750    2.500    2.625    0.000    4.250 
#    0.000    0.000    0.000    0.750    0.000    0.000 
#    0.000    0.000    0.000    0.000    0.000    0.000 
#
# Total GULP energy -357416.240072 kJ/mol
# GULP energy per Si atom -5584.628751 kJ/mol
# Density = 1.714232 g / cm^3
# Si number density = 17.181427 Si / 1000 Ang^3
#
#
#
# Elastic Constant Matrix: (Units=GPa)
#
#
# Indices 1 2 3 4 5 6 
#
# 1 60.6106 43.8938 47.5941 0.0000 0.0000 0.0000
# 2 43.8938 91.8650 52.2597 0.0000 0.0000 0.0000
# 3 47.5941 52.2597 107.5117 0.0000 0.0000 0.0000
# 4 0.0000 0.0000 0.0000 20.4882 0.0000 0.0000
# 5 0.0000 0.0000 0.0000 0.0000 27.5762 0.0000
# 6 0.0000 0.0000 0.0000 0.0000 0.0000 25.8984
#
#
#
# Elastic Compliance Matrix: (Units=1/GPa)
#
#
# Indices 1 2 3 4 5 6 
#
# 1 0.030250 -0.009448 -0.008799 0.000000 0.000000 0.000000
# 2 -0.009448 0.017997 -0.004565 0.000000 0.000000 0.000000
# 3 -0.008799 -0.004565 0.015416 0.000000 0.000000 0.000000
# 4 0.000000 0.000000 0.000000 0.048809 0.000000 0.000000
# 5 0.000000 0.000000 0.000000 0.000000 0.036263 0.000000
# 6 0.000000 0.000000 0.000000 0.000000 0.000000 0.038612
#
#
# Mechanical properties :
#
#
# Convention : Reuss Voigt Hill
#
# Bulk Modulus (GPa) = 55.43869 60.83139 58.13504
# Shear Modulus (GPa) = 20.92177 22.54186 21.73182
#
# Velocity S-wave (km/s) = 3.49334 3.62607 3.56032
# Velocity P-wave (km/s) = 6.97194 7.28103 7.12816
#
# Compressibility (1/GPa) = 0.01803794
#
# Stress axis : x y z
#
# Youngs Moduli (GPa) = 33.05736 55.56401 64.86936
#
# Poissons Ratio (x) = 0.52500 0.57077
# Poissons Ratio (y) = 0.31234 0.29616
# Poissons Ratio (z) = 0.29086 0.25367
#
# Static dielectric constant tensor:
#      x y z
#    x 1.569090 0.000000 0.000000 
#    y 0.000000 1.595500 0.000000 
#    z 0.000000 0.000000 1.566450 
# 
# From -- ./inp_files/28414.got.cif
#   From: 2010.05.17/outbox.cif.g08.bks.cpg/sg51_15_cif.got.tgz:28414.got - 2010.06.03 11:52:47.
