data_PCOD9402859
_publ_section_title
;
Structure prediction by ZEFSAII (Michael W. Deem and Ramdas Pophale) SiO2 
 PCOD9402859
Probable space group: P M M A
;
_chemical_formula_sum "Si O2"
_cell_formula_units_Z 48
_cell_length_a 14.437223
_cell_length_b 7.901928
_cell_length_c 18.542602
_cell_angle_alpha 90.000000
_cell_angle_beta 90.000000
_cell_angle_gamma 90.000000
_cell_volume 2115.375205
_symmetry_space_group_name_H-M "P M M A"
_symmetry_group_IT_number 51
_symmetry_cell_setting 'orthorhombic'
loop_
_space_group_symop_operation_xyz
x,y,z
1/2-x,-y,z
1/2+x,-y,-z
-x,y,-z
-x,-y,-z
1/2+x,y,-z
1/2-x,y,z
x,-y,z
loop_
_atom_site_type_symbol
_atom_site_label
_atom_site_fract_x
_atom_site_fract_y
_atom_site_fract_z
Si Si1 0.952169 0.698026 0.675335
Si Si2 0.145578 0.197161 0.630326
Si Si3 0.859342 0.301684 0.531934
Si Si4 0.390771 0.694823 0.017989
Si Si5 0.442447 0.298732 0.169554
Si Si6 0.849643 0.195818 0.136487
O O1 0.925641 0.500000 0.674514
O O2 0.912188 0.771017 0.601057
O O3 0.063060 0.711907 0.671386
O O4 0.918633 0.771105 0.751541
O O5 0.250000 0.263228 0.642050
O O6 0.125688 0.214412 0.544753
O O7 0.143934 0.000000 0.650033
O O8 0.750000 0.294754 0.547306
O O9 0.885413 0.500000 0.521798
O O10 0.357210 0.500000 0.017153
O O11 0.388987 0.768130 0.098948
O O12 0.500000 0.687976 0.000000
O O13 0.348821 0.791836 0.950686
O O14 0.424629 0.500000 0.169312
O O15 0.553513 0.278059 0.159492
O O16 0.750000 0.265855 0.162460
O O17 0.854356 0.000000 0.158246
#
# Coordination Sequence:
#
# PCOD9402859 Si02
#       6
#     8   8   8   8   8   8
#     4  10  20  34  53  77 104 134 168 207 253 304
#     4  10  21  35  51  74 104 136 171 211 252 297
#     4   9  18  34  55  76  99 130 169 212 256 302
#     4   8  15  30  50  69  90 119 156 194 232 279
#     4   9  19  34  50  71  99 128 160 199 244 295
#     4  10  20  32  48  72  99 127 162 202 242 288
#
# _framework density 22.691008
#
# number of rings (size 3 to 8) (size 9 to 14) (size 15 to 20)
#    0.000    2.667    0.000    2.500    0.000    9.333 
#    0.000    4.167    0.000    3.000    0.000    2.333 
#    0.000    0.000    0.000    0.000    0.000    0.000 
#
# Total GULP energy -267785.957855 kJ/mol
# GULP energy per Si atom -5578.874122 kJ/mol
# Density = 2.263936 g / cm^3
# Si number density = 22.691008 Si / 1000 Ang^3
#
#
#
# Elastic Constant Matrix: (Units=GPa)
#
#
# Indices 1 2 3 4 5 6 
#
# 1 33.5681 -6.2955 9.6112 0.0000 0.0000 0.0000
# 2 -6.2955 27.6590 -2.4609 0.0000 0.0000 0.0000
# 3 9.6112 -2.4609 102.2128 0.0000 0.0000 0.0000
# 4 0.0000 0.0000 0.0000 145.1751 0.0000 0.0000
# 5 0.0000 0.0000 0.0000 0.0000 0.6234 0.0000
# 6 0.0000 0.0000 0.0000 0.0000 0.0000 10.4860
#
#
#
# Elastic Compliance Matrix: (Units=1/GPa)
#
#
# Indices 1 2 3 4 5 6 
#
# 1 0.031916 0.007012 -0.002832 0.000000 0.000000 0.000000
# 2 0.007012 0.037773 0.000250 0.000000 0.000000 0.000000
# 3 -0.002832 0.000250 0.010056 0.000000 0.000000 0.000000
# 4 0.000000 0.000000 0.000000 0.006888 0.000000 0.000000
# 5 0.000000 0.000000 0.000000 0.000000 1.604175 0.000000
# 6 0.000000 0.000000 0.000000 0.000000 0.000000 0.095366
#
#
# Mechanical properties :
#
#
# Convention : Reuss Voigt Hill
#
# Bulk Modulus (GPa) = 11.28598 18.34996 14.81797
# Shear Modulus (GPa) = 2.76725 42.09588 22.43157
#
# Velocity S-wave (km/s) = 1.10552 4.31185 3.14756
# Velocity P-wave (km/s) = 2.57180 5.73532 4.44455
#
# Compressibility (1/GPa) = 0.08860547
#
# Stress axis : x y z
#
# Youngs Moduli (GPa) = 31.33194 26.47399 99.44450
#
# Poissons Ratio (x) = -0.18565 0.28166
# Poissons Ratio (y) = -0.21971 -0.02486
# Poissons Ratio (z) = 0.08874 -0.00662
#
# Static dielectric constant tensor:
#      x y z
#    x 1.846100 0.000000 0.000000 
#    y 0.000000 1.813540 0.000000 
#    z 0.000000 0.000000 1.911680 
# 
# From -- ./inp_files/29465.got.cif
#   From: 2010.05.17/outbox.cif.g08.bks.cpg/sg51_15_cif.got.tgz:29465.got - 2010.06.03 11:52:47.
