data_PCOD9402650
_publ_section_title
;
Structure prediction by ZEFSAII (Michael W. Deem and Ramdas Pophale) SiO2 
 PCOD9402650
Probable space group: P M M A
;
_chemical_formula_sum "Si O2"
_cell_formula_units_Z 48
_cell_length_a 9.093504
_cell_length_b 17.803359
_cell_length_c 18.364802
_cell_angle_alpha 90.000000
_cell_angle_beta 90.000000
_cell_angle_gamma 90.000000
_cell_volume 2973.168082
_symmetry_space_group_name_H-M "P M M A"
_symmetry_group_IT_number 51
_symmetry_cell_setting 'orthorhombic'
loop_
_space_group_symop_operation_xyz
x,y,z
1/2-x,-y,z
1/2+x,-y,-z
-x,y,-z
-x,-y,-z
1/2+x,y,-z
1/2-x,y,z
x,-y,z
loop_
_atom_site_type_symbol
_atom_site_label
_atom_site_fract_x
_atom_site_fract_y
_atom_site_fract_z
Si Si1 0.416431 0.819543 0.568989
Si Si2 0.573046 0.184246 0.201332
Si Si3 0.917602 0.309674 0.308792
Si Si4 0.917834 0.088481 0.676477
Si Si5 0.420565 0.409785 0.423379
Si Si6 0.073265 0.913809 0.079516
O O1 0.500000 0.787604 0.500000
O O2 0.250000 0.841294 0.551782
O O3 0.412833 0.757533 0.632057
O O4 0.511873 0.887782 0.600101
O O5 0.750000 0.182994 0.194503
O O6 0.532233 0.266642 0.234786
O O7 0.518625 0.125645 0.262286
O O8 0.496048 0.151367 0.129499
O O9 0.750000 0.336619 0.297788
O O10 0.011730 0.371696 0.351181
O O11 0.750000 0.117177 0.682572
O O12 0.915654 0.000000 0.685233
O O13 0.500000 0.390173 0.500000
O O14 0.250000 0.387986 0.429757
O O15 0.430942 0.500000 0.416370
O O16 0.250000 0.905778 0.075801
O O17 0.044206 0.000000 0.107271
O O18 0.000000 0.909730 0.000000
#
# Coordination Sequence:
#
# PCOD9402650 Si02
#       6
#     8   8   8   8   8   8
#     4  10  20  32  45  61  81 108 145 187 231 276
#     4  10  20  33  49  69  93 121 154 191 232 279
#     4   9  19  33  48  67  90 119 153 188 229 277
#     4  10  20  32  45  61  81 109 147 188 230 275
#     4  10  20  32  48  71  97 126 159 195 237 284
#     4  10  20  33  50  73 100 130 163 198 238 283
#
# _framework density 16.144394999999999
#
# number of rings (size 3 to 8) (size 9 to 14) (size 15 to 20)
#    0.000    2.167    0.000    4.500    0.000   11.000 
#    0.000    0.000    0.000    0.000    0.000    0.000 
#    0.000    0.667    0.000    2.167    0.000    3.167 
#
# Total GULP energy -267418.718702 kJ/mol
# GULP energy per Si atom -5571.223306 kJ/mol
# Density = 1.610765 g / cm^3
# Si number density = 16.144395 Si / 1000 Ang^3
#
#
#
# Elastic Constant Matrix: (Units=GPa)
#
#
# Indices 1 2 3 4 5 6 
#
# 1 86.2594 35.5033 38.0599 0.0000 0.0000 0.0000
# 2 35.5033 48.0739 28.7113 0.0000 0.0000 0.0000
# 3 38.0599 28.7113 68.9356 0.0000 0.0000 0.0000
# 4 0.0000 0.0000 0.0000 29.0823 0.0000 0.0000
# 5 0.0000 0.0000 0.0000 0.0000 26.7981 0.0000
# 6 0.0000 0.0000 0.0000 0.0000 0.0000 21.1197
#
#
#
# Elastic Compliance Matrix: (Units=1/GPa)
#
#
# Indices 1 2 3 4 5 6 
#
# 1 0.018331 -0.009974 -0.005966 0.000000 0.000000 0.000000
# 2 -0.009974 0.033116 -0.008286 0.000000 0.000000 0.000000
# 3 -0.005966 -0.008286 0.021251 0.000000 0.000000 0.000000
# 4 0.000000 0.000000 0.000000 0.034385 0.000000 0.000000
# 5 0.000000 0.000000 0.000000 0.000000 0.037316 0.000000
# 6 0.000000 0.000000 0.000000 0.000000 0.000000 0.047349
#
#
# Mechanical properties :
#
#
# Convention : Reuss Voigt Hill
#
# Bulk Modulus (GPa) = 41.24502 45.31310 43.27906
# Shear Modulus (GPa) = 20.13833 22.13299 21.13566
#
# Velocity S-wave (km/s) = 3.53567 3.70664 3.62216
# Velocity P-wave (km/s) = 6.50161 6.81522 6.66026
#
# Compressibility (1/GPa) = 0.02424535
#
# Stress axis : x y z
#
# Youngs Moduli (GPa) = 54.55328 30.19694 47.05589
#
# Poissons Ratio (x) = 0.30119 0.28075
# Poissons Ratio (y) = 0.54413 0.38989
# Poissons Ratio (z) = 0.32548 0.25021
#
# Static dielectric constant tensor:
#      x y z
#    x 1.558020 0.000000 0.000000 
#    y 0.000000 1.554120 0.000000 
#    z 0.000000 0.000000 1.602200 
# 
# From -- ./inp_files/27818.got.cif
#   From: 2010.05.17/outbox.cif.g08.bks.cpg/sg51_14_cif.got.tgz:27818.got - 2010.06.03 11:52:47.
