data_PCOD9402098
_publ_section_title
;
Structure prediction by ZEFSAII (Michael W. Deem and Ramdas Pophale) SiO2 
 PCOD9402098
Probable space group: P M M A
;
_chemical_formula_sum "Si O2"
_cell_formula_units_Z 48
_cell_length_a 15.569326
_cell_length_b 7.611539
_cell_length_c 19.717946
_cell_angle_alpha 90.000000
_cell_angle_beta 90.000000
_cell_angle_gamma 90.000000
_cell_volume 2336.705400
_symmetry_space_group_name_H-M "P M M A"
_symmetry_group_IT_number 51
_symmetry_cell_setting 'orthorhombic'
loop_
_space_group_symop_operation_xyz
x,y,z
1/2-x,-y,z
1/2+x,-y,-z
-x,y,-z
-x,-y,-z
1/2+x,y,-z
1/2-x,y,z
x,-y,z
loop_
_atom_site_type_symbol
_atom_site_label
_atom_site_fract_x
_atom_site_fract_y
_atom_site_fract_z
Si Si1 0.847876 0.787684 0.173449
Si Si2 0.250000 0.210312 0.584207
Si Si3 0.250000 0.711775 0.425824
Si Si4 0.496011 0.291155 0.076140
Si Si5 0.595414 0.211291 0.322902
Si Si6 0.101464 0.709875 0.327414
Si Si7 0.652189 0.284894 0.823341
O O1 0.750000 0.727971 0.162118
O O2 0.881079 0.725220 0.247144
O O3 0.915249 0.734466 0.116216
O O4 0.846636 0.000000 0.175296
O O5 0.250000 0.244279 0.504640
O O6 0.334657 0.276941 0.623185
O O7 0.250000 0.000000 0.592532
O O8 0.250000 0.500000 0.422391
O O9 0.166282 0.776501 0.384881
O O10 0.481052 0.500000 0.070431
O O11 0.418064 0.222113 0.122572
O O12 0.500000 0.218555 0.000000
O O13 0.498005 0.255060 0.340884
O O14 0.601559 0.000000 0.320801
O O15 0.112725 0.500000 0.324854
O O16 0.126656 0.775201 0.252344
O O17 0.750000 0.233437 0.838738
O O18 0.649921 0.500000 0.822753
#
# Coordination Sequence:
#
# PCOD9402098 Si02
#       7
#     8   4   4   8   8   8   8
#     4  10  20  36  58  81 108 146 187 227 272 324
#     4  10  22  40  58  78 111 148 180 219 276 335
#     4  10  22  38  56  82 113 142 180 227 274 325
#     4  10  21  35  54  84 116 144 181 229 276 325
#     4  10  20  36  58  82 107 141 186 228 269 324
#     4  10  19  34  57  81 105 140 185 226 269 326
#     4   9  16  30  53  77 104 142 181 218 268 324
#
# _framework density 20.541743
#
# number of rings (size 3 to 8) (size 9 to 14) (size 15 to 20)
#    0.000    2.167    3.333    0.000    0.000    3.333 
#    0.000    5.000    0.000    1.500    0.000    0.000 
#    0.000    0.000    0.000    0.000    0.000    0.000 
#
# Total GULP energy -268084.796706 kJ/mol
# GULP energy per Si atom -5585.099931 kJ/mol
# Density = 2.049499 g / cm^3
# Si number density = 20.541743 Si / 1000 Ang^3
#
#
#
# Elastic Constant Matrix: (Units=GPa)
#
#
# Indices 1 2 3 4 5 6 
#
# 1 200.8505 -11.8364 113.6791 0.0000 0.0000 0.0000
# 2 -11.8364 37.2656 -0.5873 0.0000 0.0000 0.0000
# 3 113.6791 -0.5873 199.6885 0.0000 0.0000 0.0000
# 4 0.0000 0.0000 0.0000 13.5690 0.0000 0.0000
# 5 0.0000 0.0000 0.0000 0.0000 31.0872 0.0000
# 6 0.0000 0.0000 0.0000 0.0000 0.0000 23.1858
#
#
#
# Elastic Compliance Matrix: (Units=1/GPa)
#
#
# Indices 1 2 3 4 5 6 
#
# 1 0.007542 0.002328 -0.004287 0.000000 0.000000 0.000000
# 2 0.002328 0.027554 -0.001244 0.000000 0.000000 0.000000
# 3 -0.004287 -0.001244 0.007445 0.000000 0.000000 0.000000
# 4 0.000000 0.000000 0.000000 0.073698 0.000000 0.000000
# 5 0.000000 0.000000 0.000000 0.000000 0.032168 0.000000
# 6 0.000000 0.000000 0.000000 0.000000 0.000000 0.043130
#
#
# Mechanical properties :
#
#
# Convention : Reuss Voigt Hill
#
# Bulk Modulus (GPa) = 27.67403 71.14618 49.41011
# Shear Modulus (GPa) = 23.81095 36.00500 29.90797
#
# Velocity S-wave (km/s) = 3.40832 4.19115 3.81984
# Velocity P-wave (km/s) = 5.38426 7.62438 6.60005
#
# Compressibility (1/GPa) = 0.03613496
#
# Stress axis : x y z
#
# Youngs Moduli (GPa) = 132.58471 36.29204 134.32583
#
# Poissons Ratio (x) = -0.08449 0.57584
# Poissons Ratio (y) = -0.30866 0.16714
# Poissons Ratio (z) = 0.56837 0.04516
#
# Static dielectric constant tensor:
#      x y z
#    x 1.706090 0.000000 0.000000 
#    y 0.000000 1.799500 0.000000 
#    z 0.000000 0.000000 1.704810 
# 
# From -- ./inp_files/29535.got.cif
#   From: 2010.05.17/outbox.cif.g08.bks.cpg/sg51_15_cif.got.tgz:29535.got - 2010.06.03 11:52:47.
