data_PCOD9402372
_publ_section_title
;
Structure prediction by ZEFSAII (Michael W. Deem and Ramdas Pophale) SiO2 
 PCOD9402372
Probable space group: P M M A
;
_chemical_formula_sum "Si O2"
_cell_formula_units_Z 64
_cell_length_a 31.935557
_cell_length_b 8.167305
_cell_length_c 12.311143
_cell_angle_alpha 90.000000
_cell_angle_beta 90.000000
_cell_angle_gamma 90.000000
_cell_volume 3211.083843
_symmetry_space_group_name_H-M "P M M A"
_symmetry_group_IT_number 51
_symmetry_cell_setting 'orthorhombic'
loop_
_space_group_symop_operation_xyz
x,y,z
1/2-x,-y,z
1/2+x,-y,-z
-x,y,-z
-x,-y,-z
1/2+x,y,-z
1/2-x,y,z
x,-y,z
loop_
_atom_site_type_symbol
_atom_site_label
_atom_site_fract_x
_atom_site_fract_y
_atom_site_fract_z
Si Si1 0.703970 0.697931 0.516198
Si Si2 0.323844 0.698573 0.245455
Si Si3 0.419633 0.805034 0.235804
Si Si4 0.046467 0.200110 0.468828
Si Si5 0.876828 0.802731 0.380984
Si Si6 0.952914 0.692172 0.992568
Si Si7 0.704119 0.697215 0.992317
Si Si8 0.875118 0.805749 0.134278
O O1 0.750000 0.751687 0.477851
O O2 0.702902 0.500000 0.513452
O O3 0.697987 0.747879 0.642194
O O4 0.665449 0.760043 0.445080
O O5 0.325097 0.500000 0.244194
O O6 0.370751 0.765976 0.246798
O O7 0.302868 0.751738 0.132507
O O8 0.441888 0.751121 0.346631
O O9 0.437131 0.717866 0.129703
O O10 0.425338 0.000000 0.222602
O O11 0.082742 0.256478 0.551226
O O12 0.000000 0.254350 0.500000
O O13 0.046805 0.000000 0.470912
O O14 0.875775 0.739614 0.257441
O O15 0.880028 0.000000 0.376924
O O16 0.954723 0.500000 0.018148
O O17 0.918226 0.766940 0.072141
O O18 0.000000 0.761212 0.000000
O O19 0.750000 0.754935 0.030764
O O20 0.704872 0.500000 0.990827
O O21 0.664711 0.745405 0.065479
O O22 0.871148 0.000000 0.140633
#
# Coordination Sequence:
#
# PCOD9402372 Si02
#       8
#     8   8   8   8   8   8   8   8
#     4  10  21  37  59  87 118 155 199 242 287 347
#     4  10  19  35  59  86 121 154 190 240 296 348
#     4  11  21  35  63  93 119 151 194 242 292 348
#     4   9  19  36  59  86 117 152 189 233 287 344
#     4  10  22  40  59  83 117 154 195 243 294 345
#     4  11  25  43  62  86 121 159 195 240 296 356
#     4  10  21  38  61  86 116 158 199 238 294 357
#     4  11  24  40  61  87 118 155 199 250 298 348
#
# _framework density 19.930966000000002
#
# number of rings (size 3 to 8) (size 9 to 14) (size 15 to 20)
#    0.000    1.750    2.500    1.500    1.750    4.500 
#    0.000    2.500    0.000    4.125    0.000    0.000 
#    0.000    0.000    0.000    0.000    0.000    0.000 
#
# Total GULP energy -357480.822646 kJ/mol
# GULP energy per Si atom -5585.637854 kJ/mol
# Density = 1.988560 g / cm^3
# Si number density = 19.930966 Si / 1000 Ang^3
#
#
#
# Elastic Constant Matrix: (Units=GPa)
#
#
# Indices 1 2 3 4 5 6 
#
# 1 158.4590 -0.7751 59.6521 0.0000 0.0000 0.0000
# 2 -0.7751 5.4848 2.1528 0.0000 0.0000 0.0000
# 3 59.6521 2.1528 133.8550 0.0000 0.0000 0.0000
# 4 0.0000 0.0000 0.0000 10.6611 0.0000 0.0000
# 5 0.0000 0.0000 0.0000 0.0000 58.2686 0.0000
# 6 0.0000 0.0000 0.0000 0.0000 0.0000 16.8809
#
#
#
# Elastic Compliance Matrix: (Units=1/GPa)
#
#
# Indices 1 2 3 4 5 6 
#
# 1 0.007615 0.002423 -0.003432 0.000000 0.000000 0.000000
# 2 0.002423 0.184250 -0.004043 0.000000 0.000000 0.000000
# 3 -0.003432 -0.004043 0.009065 0.000000 0.000000 0.000000
# 4 0.000000 0.000000 0.000000 0.093799 0.000000 0.000000
# 5 0.000000 0.000000 0.000000 0.000000 0.017162 0.000000
# 6 0.000000 0.000000 0.000000 0.000000 0.000000 0.059238
#
#
# Mechanical properties :
#
#
# Convention : Reuss Voigt Hill
#
# Bulk Modulus (GPa) = 5.24039 46.65097 25.94568
# Shear Modulus (GPa) = 11.23992 32.94672 22.09332
#
# Velocity S-wave (km/s) = 2.37732 4.07017 3.33301
# Velocity P-wave (km/s) = 3.18913 6.74874 5.27807
#
# Compressibility (1/GPa) = 0.19082567
#
# Stress axis : x y z
#
# Youngs Moduli (GPa) = 131.32316 5.42740 110.30856
#
# Poissons Ratio (x) = -0.01315 0.37863
# Poissons Ratio (y) = -0.31824 0.44601
# Poissons Ratio (z) = 0.45077 0.02194
#
# Static dielectric constant tensor:
#      x y z
#    x 1.690310 0.000000 0.000000 
#    y 0.000000 1.703820 0.000000 
#    z 0.000000 0.000000 1.693520 
# 
# From -- ./inp_files/19509.got.cif
#   From: 2010.05.17/outbox.cif.g08.bks.cpg/sg51_10_cif.got.tgz:19509.got - 2010.06.03 11:52:47.
