data_PCOD9402743
_publ_section_title
;
Structure prediction by ZEFSAII (Michael W. Deem and Ramdas Pophale) SiO2 
 PCOD9402743
Probable space group: P M M A
;
_chemical_formula_sum "Si O2"
_cell_formula_units_Z 40
_cell_length_a 7.277515
_cell_length_b 8.136799
_cell_length_c 30.080363
_cell_angle_alpha 90.000000
_cell_angle_beta 90.000000
_cell_angle_gamma 90.000000
_cell_volume 1781.229053
_symmetry_space_group_name_H-M "P M M A"
_symmetry_group_IT_number 51
_symmetry_cell_setting 'orthorhombic'
loop_
_space_group_symop_operation_xyz
x,y,z
1/2-x,-y,z
1/2+x,-y,-z
-x,y,-z
-x,-y,-z
1/2+x,y,-z
1/2-x,y,z
x,-y,z
loop_
_atom_site_type_symbol
_atom_site_label
_atom_site_fract_x
_atom_site_fract_y
_atom_site_fract_z
Si Si1 0.025255 0.310439 0.390883
Si Si2 0.531581 0.000000 0.552426
Si Si3 0.474219 0.321208 0.104119
Si Si4 0.964416 0.697075 0.708304
Si Si5 0.468685 0.000000 0.052381
Si Si6 0.972885 0.187810 0.802993
O O1 0.250000 0.313699 0.390453
O O2 0.969672 0.500000 0.400503
O O3 0.963609 0.263923 0.340798
O O4 0.964507 0.168617 0.424616
O O5 0.500000 0.000000 0.500000
O O6 0.750000 0.000000 0.559862
O O7 0.250000 0.318804 0.103765
O O8 0.531816 0.500000 0.087502
O O9 0.531156 0.297086 0.155467
O O10 0.537982 0.166259 0.075494
O O11 0.750000 0.747443 0.707142
O O12 0.972261 0.500000 0.712159
O O13 0.041923 0.768947 0.753834
O O14 0.250000 0.000000 0.059994
O O15 0.500000 0.000000 0.000000
O O16 0.750000 0.202369 0.801091
O O17 0.016952 0.000000 0.813724
#
# Coordination Sequence:
#
# PCOD9402743 Si02
#       6
#     8   4   8   8   4   8
#     4   8  15  27  41  59  85 115 145 177 216 262
#     4  10  20  32  47  65  85 113 148 186 225 262
#     4   9  16  27  42  60  86 118 148 179 218 263
#     4   8  13  20  31  51  80 113 143 168 203 256
#     4  10  20  34  49  67  89 115 150 190 227 264
#     4   9  14  19  31  54  84 116 145 171 206 257
#
# _framework density 22.456403000000002
#
# number of rings (size 3 to 8) (size 9 to 14) (size 15 to 20)
#    0.000    3.200    1.000    1.800    1.400    3.200 
#    0.000    0.000    0.000    0.000    0.000    0.000 
#    0.000    3.200    0.000    5.000    0.000    4.000 
#
# Total GULP energy -223234.860299 kJ/mol
# GULP energy per Si atom -5580.871507 kJ/mol
# Density = 2.240529 g / cm^3
# Si number density = 22.456403 Si / 1000 Ang^3
#
#
#
# Elastic Constant Matrix: (Units=GPa)
#
#
# Indices 1 2 3 4 5 6 
#
# 1 93.5300 11.7923 -3.5375 0.0000 0.0000 0.0000
# 2 11.7923 171.5780 122.7985 0.0000 0.0000 0.0000
# 3 -3.5375 122.7985 161.9463 0.0000 0.0000 0.0000
# 4 0.0000 0.0000 0.0000 9.9108 0.0000 0.0000
# 5 0.0000 0.0000 0.0000 0.0000 -3.1621 0.0000
# 6 0.0000 0.0000 0.0000 0.0000 0.0000 -20.0358
#
#
#
# Elastic Compliance Matrix: (Units=1/GPa)
#
#
# Indices 1 2 3 4 5 6 
#
# 1 0.011015 -0.002032 0.001781 0.000000 0.000000 0.000000
# 2 -0.002032 0.013120 -0.009993 0.000000 0.000000 0.000000
# 3 0.001781 -0.009993 0.013791 0.000000 0.000000 0.000000
# 4 0.000000 0.000000 0.000000 0.100900 0.000000 0.000000
# 5 0.000000 0.000000 0.000000 0.000000 -0.316244 0.000000
# 6 0.000000 0.000000 0.000000 0.000000 0.000000 -0.049911
#
#
# Mechanical properties :
#
#
# Convention : Reuss Voigt Hill
#
# Bulk Modulus (GPa) = 57.34126 76.57345 66.95735
# Shear Modulus (GPa) = -24.87192 17.07598 -3.89797
#
# Velocity S-wave (km/s) = -3.33162 2.76054 -1.31892
# Velocity P-wave (km/s) = 3.28486 6.65834 5.24994
#
# Compressibility (1/GPa) = 0.01743945
#
# Stress axis : x y z
#
# Youngs Moduli (GPa) = 90.78256 76.22206 72.51218
#
# Poissons Ratio (x) = 0.15489 -0.12918
# Poissons Ratio (y) = 0.18448 0.72458
# Poissons Ratio (z) = -0.16172 0.76165
#
# Static dielectric constant tensor:
#      x y z
#    x 1.996960 0.000000 0.000000 
#    y 0.000000 1.798530 0.000000 
#    z 0.000000 0.000000 1.796320 
# 
# From -- ./inp_files/36028.got.cif
#   From: 2010.05.17/outbox.cif.g08.bks.cpg/sg51_19_cif.got.tgz:36028.got - 2010.06.03 11:52:47.
