data_PCOD9402531
_publ_section_title
;
Structure prediction by ZEFSAII (Michael W. Deem and Ramdas Pophale) SiO2 
 PCOD9402531
Probable space group: P M M A
;
_chemical_formula_sum "Si O2"
_cell_formula_units_Z 40
_cell_length_a 26.095875
_cell_length_b 12.597809
_cell_length_c 5.713387
_cell_angle_alpha 90.000000
_cell_angle_beta 90.000000
_cell_angle_gamma 90.000000
_cell_volume 1878.280827
_symmetry_space_group_name_H-M "P M M A"
_symmetry_group_IT_number 51
_symmetry_cell_setting 'orthorhombic'
loop_
_space_group_symop_operation_xyz
x,y,z
1/2-x,-y,z
1/2+x,-y,-z
-x,y,-z
-x,-y,-z
1/2+x,y,-z
1/2-x,y,z
x,-y,z
loop_
_atom_site_type_symbol
_atom_site_label
_atom_site_fract_x
_atom_site_fract_y
_atom_site_fract_z
Si Si1 0.363159 0.278432 0.593154
Si Si2 0.693253 0.117465 0.686656
Si Si3 0.094549 0.878896 0.974086
Si Si4 0.050072 0.500000 0.249411
Si Si5 0.888915 0.500000 0.247152
Si Si6 0.537960 0.270756 0.700796
O O1 0.315340 0.215346 0.488302
O O2 0.357168 0.390554 0.722056
O O3 0.404367 0.295521 0.387624
O O4 0.391626 0.194181 0.757148
O O5 0.750000 0.124717 0.794172
O O6 0.646436 0.119648 0.868479
O O7 0.690023 0.000000 0.569476
O O8 0.049445 0.818782 0.110698
O O9 0.081831 0.000000 0.914870
O O10 0.074532 0.500000 0.516644
O O11 0.019292 0.611042 0.233491
O O12 0.085755 0.500000 0.013158
O O13 0.500000 0.231563 0.500000
#
# Coordination Sequence:
#
# PCOD9402531 Si02
#       6
#     8   8   8   4   4   8
#     4  10  20  36  56  82 112 150 187 240 292 351
#     4   9  19  36  59  85 110 140 185 240 294 349
#     4  10  20  35  55  79 112 150 193 239 296 354
#     4  10  19  38  58  88 112 154 199 251 296 346
#     4  10  20  36  62  84 119 154 196 239 298 350
#     4  10  21  36  54  80 114 152 197 246 294 351
#
# _framework density 21.296068999999999
#
# number of rings (size 3 to 8) (size 9 to 14) (size 15 to 20)
#    0.000    2.200    2.000    0.900    0.000    2.800 
#    0.000    5.500    0.000    0.000    0.000    0.000 
#    0.000    0.000    0.000    0.000    0.000    0.000 
#
# Total GULP energy -222850.488528 kJ/mol
# GULP energy per Si atom -5571.262213 kJ/mol
# Density = 2.124760 g / cm^3
# Si number density = 21.296069 Si / 1000 Ang^3
#
#
#
# Elastic Constant Matrix: (Units=GPa)
#
#
# Indices 1 2 3 4 5 6 
#
# 1 79.1764 16.8043 13.9768 0.0000 0.0000 0.0000
# 2 16.8043 160.7765 26.0215 0.0000 0.0000 0.0000
# 3 13.9768 26.0215 66.2086 0.0000 0.0000 0.0000
# 4 0.0000 0.0000 0.0000 24.2324 0.0000 0.0000
# 5 0.0000 0.0000 0.0000 0.0000 21.2173 0.0000
# 6 0.0000 0.0000 0.0000 0.0000 0.0000 28.0872
#
#
#
# Elastic Compliance Matrix: (Units=1/GPa)
#
#
# Indices 1 2 3 4 5 6 
#
# 1 0.013267 -0.000997 -0.002409 0.000000 0.000000 0.000000
# 2 -0.000997 0.006717 -0.002430 0.000000 0.000000 0.000000
# 3 -0.002409 -0.002430 0.016567 0.000000 0.000000 0.000000
# 4 0.000000 0.000000 0.000000 0.041267 0.000000 0.000000
# 5 0.000000 0.000000 0.000000 0.000000 0.047131 0.000000
# 6 0.000000 0.000000 0.000000 0.000000 0.000000 0.035603
#
#
# Mechanical properties :
#
#
# Convention : Reuss Voigt Hill
#
# Bulk Modulus (GPa) = 40.19182 46.64074 43.41628
# Shear Modulus (GPa) = 27.69820 31.33131 29.51475
#
# Velocity S-wave (km/s) = 3.61033 3.83982 3.72684
# Velocity P-wave (km/s) = 6.02438 6.45039 6.24102
#
# Compressibility (1/GPa) = 0.02488069
#
# Stress axis : x y z
#
# Youngs Moduli (GPa) = 75.37605 148.87099 60.36025
#
# Poissons Ratio (x) = 0.14839 0.14540
# Poissons Ratio (y) = 0.07513 0.14665
# Poissons Ratio (z) = 0.18157 0.36170
#
# Static dielectric constant tensor:
#      x y z
#    x 1.794820 0.000000 0.000000 
#    y 0.000000 1.836310 0.000000 
#    z 0.000000 0.000000 1.848280 
# 
# From -- ./inp_files/3903.got.cif
#   From: 2010.05.17/outbox.cif.g08.bks.cpg/sg51_2_cif.got.tgz:3903.got - 2010.06.03 11:52:47.
