data_PCOD9402452
_publ_section_title
;
Structure prediction by ZEFSAII (Michael W. Deem and Ramdas Pophale) SiO2 
 PCOD9402452
Probable space group: P M M A
;
_chemical_formula_sum "Si O2"
_cell_formula_units_Z 48
_cell_length_a 14.893472
_cell_length_b 8.660072
_cell_length_c 20.996130
_cell_angle_alpha 90.000000
_cell_angle_beta 90.000000
_cell_angle_gamma 90.000000
_cell_volume 2708.050190
_symmetry_space_group_name_H-M "P M M A"
_symmetry_group_IT_number 51
_symmetry_cell_setting 'orthorhombic'
loop_
_space_group_symop_operation_xyz
x,y,z
1/2-x,-y,z
1/2+x,-y,-z
-x,y,-z
-x,-y,-z
1/2+x,y,-z
1/2-x,y,z
x,-y,z
loop_
_atom_site_type_symbol
_atom_site_label
_atom_site_fract_x
_atom_site_fract_y
_atom_site_fract_z
Si Si1 0.250000 0.812203 0.521048
Si Si2 0.563302 0.686428 0.821882
Si Si3 0.560246 0.313551 0.061009
Si Si4 0.055139 0.186656 0.563800
Si Si5 0.750000 0.184743 0.021796
Si Si6 0.250000 0.185715 0.372305
Si Si7 0.062654 0.684993 0.322420
Si Si8 0.750000 0.185073 0.873127
O O1 0.342069 0.762277 0.554255
O O2 0.250000 0.766810 0.446773
O O3 0.250000 0.000000 0.521335
O O4 0.568689 0.500000 0.824511
O O5 0.491370 0.735834 0.875026
O O6 0.539122 0.731152 0.749857
O O7 0.660503 0.751838 0.840194
O O8 0.565758 0.500000 0.060624
O O9 0.659476 0.247011 0.053674
O O10 0.500000 0.266814 0.000000
O O11 0.000000 0.229416 0.500000
O O12 0.007076 0.254033 0.625466
O O13 0.052843 0.000000 0.567876
O O14 0.750000 0.000000 0.023500
O O15 0.750000 0.234048 0.947384
O O16 0.339549 0.248734 0.339710
O O17 0.250000 0.000000 0.369819
O O18 0.066282 0.500000 0.325478
O O19 0.750000 0.000000 0.870466
#
# Coordination Sequence:
#
# PCOD9402452 Si02
#       8
#     4   8   8   8   4   4   8   4
#     4   9  18  34  57  84 108 138 187 236 268 311
#     4  10  22  39  57  80 114 151 189 232 278 330
#     4  10  20  37  62  83 104 150 202 231 261 329
#     4  10  19  36  60  82 109 150 193 230 269 327
#     4  11  23  36  55  88 122 144 173 237 300 331
#     4  11  20  36  59  83 113 149 187 225 273 341
#     4  11  23  37  54  84 120 148 180 233 291 334
#     4  11  22  34  55  87 119 147 179 226 287 343
#
# _framework density 17.724930000000001
#
# number of rings (size 3 to 8) (size 9 to 14) (size 15 to 20)
#    0.000    1.667    3.333    1.750    0.000    5.333 
#    0.000    1.250    0.000    3.000    0.000    0.000 
#    0.000    0.000    0.000    0.000    0.000    0.000 
#
# Total GULP energy -268120.168568 kJ/mol
# GULP energy per Si atom -5585.836845 kJ/mol
# Density = 1.768459 g / cm^3
# Si number density = 17.724930 Si / 1000 Ang^3
#
#
#
# Elastic Constant Matrix: (Units=GPa)
#
#
# Indices 1 2 3 4 5 6 
#
# 1 170.8600 34.7346 103.9542 0.0000 0.0000 0.0000
# 2 34.7346 19.2384 41.4184 0.0000 0.0000 0.0000
# 3 103.9542 41.4184 185.6998 0.0000 0.0000 0.0000
# 4 0.0000 0.0000 0.0000 22.4613 0.0000 0.0000
# 5 0.0000 0.0000 0.0000 0.0000 15.0217 0.0000
# 6 0.0000 0.0000 0.0000 0.0000 0.0000 0.4946
#
#
#
# Elastic Compliance Matrix: (Units=1/GPa)
#
#
# Indices 1 2 3 4 5 6 
#
# 1 0.010067 -0.011626 -0.003043 0.000000 0.000000 0.000000
# 2 -0.011626 0.113422 -0.018789 0.000000 0.000000 0.000000
# 3 -0.003043 -0.018789 0.011279 0.000000 0.000000 0.000000
# 4 0.000000 0.000000 0.000000 0.044521 0.000000 0.000000
# 5 0.000000 0.000000 0.000000 0.000000 0.066570 0.000000
# 6 0.000000 0.000000 0.000000 0.000000 0.000000 2.021828
#
#
# Mechanical properties :
#
#
# Convention : Reuss Voigt Hill
#
# Bulk Modulus (GPa) = 14.73792 81.77916 48.25854
# Shear Modulus (GPa) = 2.12114 20.64160 11.38137
#
# Velocity S-wave (km/s) = 1.09512 3.41626 2.53674
# Velocity P-wave (km/s) = 3.15149 7.86124 5.98878
#
# Compressibility (1/GPa) = 0.06785220
#
# Stress axis : x y z
#
# Youngs Moduli (GPa) = 99.33010 8.81666 88.65995
#
# Poissons Ratio (x) = 0.10250 0.26976
# Poissons Ratio (y) = 1.15482 1.66586
# Poissons Ratio (z) = 0.30223 0.16566
#
# Static dielectric constant tensor:
#      x y z
#    x 1.569770 0.000000 0.000000 
#    y 0.000000 1.599930 0.000000 
#    z 0.000000 0.000000 1.601170 
# 
# From -- ./inp_files/29698.got.cif
#   From: 2010.05.17/outbox.cif.g08.bks.cpg/sg51_15_cif.got.tgz:29698.got - 2010.06.03 11:52:47.
