data_PCOD9402696
_publ_section_title
;
Structure prediction by ZEFSAII (Michael W. Deem and Ramdas Pophale) SiO2 
 PCOD9402696
Probable space group: P M M A
;
_chemical_formula_sum "Si O2"
_cell_formula_units_Z 56
_cell_length_a 19.623362
_cell_length_b 9.344524
_cell_length_c 18.997552
_cell_angle_alpha 90.000000
_cell_angle_beta 90.000000
_cell_angle_gamma 90.000000
_cell_volume 3483.599674
_symmetry_space_group_name_H-M "P M M A"
_symmetry_group_IT_number 51
_symmetry_cell_setting 'orthorhombic'
loop_
_space_group_symop_operation_xyz
x,y,z
1/2-x,-y,z
1/2+x,-y,-z
-x,y,-z
-x,-y,-z
1/2+x,y,-z
1/2-x,y,z
x,-y,z
loop_
_atom_site_type_symbol
_atom_site_label
_atom_site_fract_x
_atom_site_fract_y
_atom_site_fract_z
Si Si1 0.145705 0.161327 0.257986
Si Si2 0.419716 0.835205 0.522019
Si Si3 0.825040 0.171515 0.900375
Si Si4 0.614610 0.663794 0.612250
Si Si5 0.453865 0.334575 0.657439
Si Si6 0.011945 0.164085 0.790762
Si Si7 0.537190 0.668175 0.925333
O O1 0.176832 0.203553 0.183280
O O2 0.154992 0.266258 0.323026
O O3 0.065022 0.156468 0.240131
O O4 0.167182 0.000000 0.276112
O O5 0.500000 0.835636 0.500000
O O6 0.381391 0.757132 0.458264
O O7 0.416124 0.747940 0.594529
O O8 0.399001 0.000000 0.530249
O O9 0.750000 0.201997 0.930364
O O10 0.888178 0.259924 0.930067
O O11 0.837983 0.000000 0.906203
O O12 0.633859 0.500000 0.599806
O O13 0.534386 0.664912 0.635470
O O14 0.433159 0.500000 0.663102
O O15 0.447592 0.251250 0.731210
O O16 0.003739 0.248349 0.864022
O O17 0.035267 0.000000 0.800165
O O18 0.543092 0.500000 0.906658
O O19 0.500000 0.680452 0.000000
#
# Coordination Sequence:
#
# PCOD9402696 Si02
#       7
#     8   8   8   8   8   8   8
#     4   8  14  24  37  53  74 100 131 168 208 249
#     4   9  15  21  29  42  63  93 129 166 203 243
#     4   9  18  32  49  68  89 115 149 187 226 270
#     4   9  15  21  30  45  66  94 129 166 202 240
#     4   9  15  22  32  47  69  96 128 167 208 249
#     4   9  16  26  40  56  75 103 139 175 212 257
#     4  10  20  32  46  66  91 118 149 185 227 277
#
# _framework density 16.075326
#
# number of rings (size 3 to 8) (size 9 to 14) (size 15 to 20)
#    0.000    3.000    0.000    3.000    0.000   10.000 
#    0.000    0.000    0.000    0.000    0.000    0.000 
#    0.000    0.000    0.000    1.286    0.000   23.429 
#
# Total GULP energy -311821.703281 kJ/mol
# GULP energy per Si atom -5568.244701 kJ/mol
# Density = 1.603874 g / cm^3
# Si number density = 16.075326 Si / 1000 Ang^3
#
#
#
# Elastic Constant Matrix: (Units=GPa)
#
#
# Indices 1 2 3 4 5 6 
#
# 1 27.5617 28.5075 20.4235 0.0000 0.0000 0.0000
# 2 28.5075 142.1778 74.9519 0.0000 0.0000 0.0000
# 3 20.4235 74.9519 88.7919 0.0000 0.0000 0.0000
# 4 0.0000 0.0000 0.0000 29.1279 0.0000 0.0000
# 5 0.0000 0.0000 0.0000 0.0000 3.9283 0.0000
# 6 0.0000 0.0000 0.0000 0.0000 0.0000 1.0837
#
#
#
# Elastic Compliance Matrix: (Units=1/GPa)
#
#
# Indices 1 2 3 4 5 6 
#
# 1 0.047047 -0.006718 -0.005151 0.000000 0.000000 0.000000
# 2 -0.006718 0.013632 -0.009962 0.000000 0.000000 0.000000
# 3 -0.005151 -0.009962 0.020856 0.000000 0.000000 0.000000
# 4 0.000000 0.000000 0.000000 0.034331 0.000000 0.000000
# 5 0.000000 0.000000 0.000000 0.000000 0.254563 0.000000
# 6 0.000000 0.000000 0.000000 0.000000 0.000000 0.922779
#
#
# Mechanical properties :
#
#
# Convention : Reuss Voigt Hill
#
# Bulk Modulus (GPa) = 26.40315 56.25523 41.32919
# Shear Modulus (GPa) = 3.70509 15.80455 9.75482
#
# Velocity S-wave (km/s) = 1.51981 3.13893 2.46604
# Velocity P-wave (km/s) = 4.42042 6.94319 5.82014
#
# Compressibility (1/GPa) = 0.03787427
#
# Stress axis : x y z
#
# Youngs Moduli (GPa) = 21.25516 73.35610 47.94709
#
# Poissons Ratio (x) = 0.49280 0.24697
# Poissons Ratio (y) = 0.14279 0.47765
# Poissons Ratio (z) = 0.10948 0.73078
#
# Static dielectric constant tensor:
#      x y z
#    x 1.553390 0.000000 0.000000 
#    y 0.000000 1.547220 0.000000 
#    z 0.000000 0.000000 1.526290 
# 
# From -- ./inp_files/30479.got.cif
#   From: 2010.05.17/outbox.cif.g08.bks.cpg/sg51_16_cif.got.tgz:30479.got - 2010.06.03 11:52:47.
