data_PCOD9402860
_publ_section_title
;
Structure prediction by ZEFSAII (Michael W. Deem and Ramdas Pophale) SiO2 
 PCOD9402860
Probable space group: P M M A
;
_chemical_formula_sum "Si O2"
_cell_formula_units_Z 48
_cell_length_a 9.392952
_cell_length_b 7.477960
_cell_length_c 32.005031
_cell_angle_alpha 90.000000
_cell_angle_beta 90.000000
_cell_angle_gamma 90.000000
_cell_volume 2248.037197
_symmetry_space_group_name_H-M "P M M A"
_symmetry_group_IT_number 51
_symmetry_cell_setting 'orthorhombic'
loop_
_space_group_symop_operation_xyz
x,y,z
1/2-x,-y,z
1/2+x,-y,-z
-x,y,-z
-x,-y,-z
1/2+x,y,-z
1/2-x,y,z
x,-y,z
loop_
_atom_site_type_symbol
_atom_site_label
_atom_site_fract_x
_atom_site_fract_y
_atom_site_fract_z
Si Si1 0.912022 0.785566 0.623800
Si Si2 0.911710 0.786113 0.296631
Si Si3 0.912212 0.714356 0.460068
Si Si4 0.915212 0.717812 0.040319
Si Si5 0.411381 0.714807 0.213174
Si Si6 0.584557 0.718233 0.132935
O O1 0.750000 0.717136 0.621151
O O2 0.996687 0.716472 0.664284
O O3 0.001360 0.749759 0.582138
O O4 0.902789 0.000000 0.628060
O O5 0.750000 0.716290 0.295836
O O6 0.993613 0.753664 0.253546
O O7 0.902287 0.000000 0.301790
O O8 0.750000 0.782817 0.458284
O O9 0.903178 0.500000 0.464524
O O10 0.000000 0.783175 0.500000
O O11 0.750000 0.767222 0.036734
O O12 0.921760 0.500000 0.040017
O O13 0.964794 0.774033 0.086569
O O14 0.000000 0.782013 0.000000
O O15 0.250000 0.782045 0.217873
O O16 0.403976 0.500000 0.209671
O O17 0.488003 0.780907 0.171090
O O18 0.750000 0.771103 0.138440
O O19 0.583477 0.500000 0.133314
#
# Coordination Sequence:
#
# PCOD9402860 Si02
#       6
#     8   8   8   8   8   8
#     4  10  21  37  57  80 105 134 168 207 251 296
#     4  10  21  37  56  76  99 130 167 206 249 296
#     4  10  21  37  57  81 109 141 175 210 249 292
#     4   8  13  20  31  49  75 110 150 189 232 282
#     4  10  20  32  48  72  99 128 163 202 246 295
#     4   8  14  25  39  56  83 119 156 195 239 286
#
# _framework density 21.351960999999999
#
# number of rings (size 3 to 8) (size 9 to 14) (size 15 to 20)
#    0.000    2.667    0.000    3.000    0.000    5.667 
#    0.000    3.333    0.000    0.000    0.000    0.000 
#    0.000    0.667    0.000    2.167    0.000    4.333 
#
# Total GULP energy -268070.901055 kJ/mol
# GULP energy per Si atom -5584.810439 kJ/mol
# Density = 2.130336 g / cm^3
# Si number density = 21.351961 Si / 1000 Ang^3
#
#
#
# Elastic Constant Matrix: (Units=GPa)
#
#
# Indices 1 2 3 4 5 6 
#
# 1 210.3501 8.4541 148.6484 0.0000 0.0000 0.0000
# 2 8.4541 61.5825 -1.0458 0.0000 0.0000 0.0000
# 3 148.6484 -1.0458 246.5466 0.0000 0.0000 0.0000
# 4 0.0000 0.0000 0.0000 23.5825 0.0000 0.0000
# 5 0.0000 0.0000 0.0000 0.0000 46.8950 0.0000
# 6 0.0000 0.0000 0.0000 0.0000 0.0000 10.0423
#
#
#
# Elastic Compliance Matrix: (Units=1/GPa)
#
#
# Indices 1 2 3 4 5 6 
#
# 1 0.008376 -0.001236 -0.005055 0.000000 0.000000 0.000000
# 2 -0.001236 0.016422 0.000815 0.000000 0.000000 0.000000
# 3 -0.005055 0.000815 0.007108 0.000000 0.000000 0.000000
# 4 0.000000 0.000000 0.000000 0.042404 0.000000 0.000000
# 5 0.000000 0.000000 0.000000 0.000000 0.021324 0.000000
# 6 0.000000 0.000000 0.000000 0.000000 0.000000 0.099579
#
#
# Mechanical properties :
#
#
# Convention : Reuss Voigt Hill
#
# Bulk Modulus (GPa) = 47.72665 92.28804 70.00735
# Shear Modulus (GPa) = 23.45768 40.26546 31.86157
#
# Velocity S-wave (km/s) = 3.31814 4.34729 3.86710
# Velocity P-wave (km/s) = 6.08941 8.27736 7.26621
#
# Compressibility (1/GPa) = 0.02095266
#
# Stress axis : x y z
#
# Youngs Moduli (GPa) = 119.38634 60.89443 140.69623
#
# Poissons Ratio (x) = 0.07525 0.71128
# Poissons Ratio (y) = 0.14753 -0.11463
# Poissons Ratio (z) = 0.60355 -0.04961
#
# Static dielectric constant tensor:
#      x y z
#    x 1.744670 0.000000 0.000000 
#    y 0.000000 1.844170 0.000000 
#    z 0.000000 0.000000 1.731210 
# 
# From -- ./inp_files/34542.got.cif
#   From: 2010.05.17/outbox.cif.g08.bks.cpg/sg51_18_cif.got.tgz:34542.got - 2010.06.03 11:52:47.
