data_PCOD9402690
_publ_section_title
;
Structure prediction by ZEFSAII (Michael W. Deem and Ramdas Pophale) SiO2 
 PCOD9402690
Probable space group: P M M A
;
_chemical_formula_sum "Si O2"
_cell_formula_units_Z 64
_cell_length_a 8.919199
_cell_length_b 14.674206
_cell_length_c 31.656038
_cell_angle_alpha 90.000000
_cell_angle_beta 90.000000
_cell_angle_gamma 90.000000
_cell_volume 4143.210741
_symmetry_space_group_name_H-M "P M M A"
_symmetry_group_IT_number 51
_symmetry_cell_setting 'orthorhombic'
loop_
_space_group_symop_operation_xyz
x,y,z
1/2-x,-y,z
1/2+x,-y,-z
-x,y,-z
-x,-y,-z
1/2+x,y,-z
1/2-x,y,z
x,-y,z
loop_
_atom_site_type_symbol
_atom_site_label
_atom_site_fract_x
_atom_site_fract_y
_atom_site_fract_z
Si Si1 0.570234 0.892659 0.795026
Si Si2 0.070820 0.107197 0.631710
Si Si3 0.568010 0.600987 0.160070
Si Si4 0.071152 0.107484 0.045331
Si Si5 0.430345 0.792133 0.875190
Si Si6 0.922661 0.889188 0.543307
Si Si7 0.930355 0.604174 0.258793
Si Si8 0.429329 0.215274 0.290726
O O1 0.750000 0.882854 0.801363
O O2 0.485897 0.849323 0.834737
O O3 0.529587 0.840301 0.751945
O O4 0.537367 0.000000 0.791245
O O5 0.250000 0.114557 0.632241
O O6 0.008838 0.136631 0.585959
O O7 0.999872 0.165448 0.669121
O O8 0.031349 0.000000 0.637541
O O9 0.750000 0.599671 0.159259
O O10 0.516104 0.500000 0.146844
O O11 0.520251 0.687549 0.132913
O O12 0.526663 0.614876 0.209271
O O13 0.250000 0.119412 0.043971
O O14 0.000375 0.165713 0.082816
O O15 0.040495 0.000000 0.053311
O O16 0.000000 0.130438 0.000000
O O17 0.250000 0.795302 0.877404
O O18 0.750000 0.860300 0.545086
O O19 0.000000 0.857699 0.500000
O O20 0.924733 0.000000 0.542179
O O21 0.750000 0.614734 0.261363
O O22 0.966604 0.500000 0.271033
O O23 0.009872 0.682605 0.285053
O O24 0.250000 0.214852 0.294179
#
# Coordination Sequence:
#
# PCOD9402690 Si02
#       8
#     8   8   8   8   8   8   8   8
#     4  10  21  34  45  62  94 133 165 194 232 278
#     4  10  20  32  46  65  92 129 171 209 246 293
#     4   8  15  29  49  72  97 124 155 193 236 280
#     4  10  21  37  55  74  99 128 157 191 233 280
#     4  11  20  31  52  77  98 122 158 198 235 279
#     4   9  16  27  44  65  90 121 160 205 250 293
#     4   9  17  32  52  70  92 124 162 203 245 288
#     4  11  21  32  47  67  96 130 164 203 246 292
#
# _framework density 15.446956999999999
#
# number of rings (size 3 to 8) (size 9 to 14) (size 15 to 20)
#    0.000    2.250    1.250    3.375    0.000    6.000 
#    0.000    0.000    0.000    1.875    0.000    0.000 
#    0.000    0.500    0.000    1.875    0.000    2.875 
#
# Total GULP energy -357003.517226 kJ/mol
# GULP energy per Si atom -5578.179957 kJ/mol
# Density = 1.541180 g / cm^3
# Si number density = 15.446957 Si / 1000 Ang^3
#
#
#
# Elastic Constant Matrix: (Units=GPa)
#
#
# Indices 1 2 3 4 5 6 
#
# 1 53.7860 49.5186 58.7243 0.0000 0.0000 0.0000
# 2 49.5186 108.2661 80.6421 0.0000 0.0000 0.0000
# 3 58.7243 80.6421 141.0299 0.0000 0.0000 0.0000
# 4 0.0000 0.0000 0.0000 6.0462 0.0000 0.0000
# 5 0.0000 0.0000 0.0000 0.0000 29.1546 0.0000
# 6 0.0000 0.0000 0.0000 0.0000 0.0000 18.0745
#
#
#
# Elastic Compliance Matrix: (Units=1/GPa)
#
#
# Indices 1 2 3 4 5 6 
#
# 1 0.039611 -0.010158 -0.010685 0.000000 0.000000 0.000000
# 2 -0.010158 0.018694 -0.006460 0.000000 0.000000 0.000000
# 3 -0.010685 -0.006460 0.015234 0.000000 0.000000 0.000000
# 4 0.000000 0.000000 0.000000 0.165392 0.000000 0.000000
# 5 0.000000 0.000000 0.000000 0.000000 0.034300 0.000000
# 6 0.000000 0.000000 0.000000 0.000000 0.000000 0.055327
#
#
# Mechanical properties :
#
#
# Convention : Reuss Voigt Hill
#
# Bulk Modulus (GPa) = 52.81951 75.65020 64.23485
# Shear Modulus (GPa) = 12.83785 18.26820 15.55303
#
# Velocity S-wave (km/s) = 2.88599 3.44269 3.17656
# Velocity P-wave (km/s) = 6.73600 8.05502 7.42485
#
# Compressibility (1/GPa) = 0.01893240
#
# Stress axis : x y z
#
# Youngs Moduli (GPa) = 25.24576 53.49291 65.64438
#
# Poissons Ratio (x) = 0.54339 0.70142
# Poissons Ratio (y) = 0.25645 0.42404
# Poissons Ratio (z) = 0.26975 0.34554
#
# Static dielectric constant tensor:
#      x y z
#    x 1.515630 0.000000 0.000000 
#    y 0.000000 1.509640 0.000000 
#    z 0.000000 0.000000 1.487860 
# 
# From -- ./inp_files/37569.got.cif
#   From: 2010.05.17/outbox.cif.g08.bks.cpg/sg51_19_cif.got.tgz:37569.got - 2010.06.03 11:52:47.
