data_PCOD9402272
_publ_section_title
;
Structure prediction by ZEFSAII (Michael W. Deem and Ramdas Pophale) SiO2 
 PCOD9402272
Probable space group: P M M A
;
_chemical_formula_sum "Si O2"
_cell_formula_units_Z 48
_cell_length_a 31.971898
_cell_length_b 8.521181
_cell_length_c 9.533333
_cell_angle_alpha 90.000000
_cell_angle_beta 90.000000
_cell_angle_gamma 90.000000
_cell_volume 2597.245320
_symmetry_space_group_name_H-M "P M M A"
_symmetry_group_IT_number 51
_symmetry_cell_setting 'orthorhombic'
loop_
_space_group_symop_operation_xyz
x,y,z
1/2-x,-y,z
1/2+x,-y,-z
-x,y,-z
-x,-y,-z
1/2+x,y,-z
1/2-x,y,z
x,-y,z
loop_
_atom_site_type_symbol
_atom_site_label
_atom_site_fract_x
_atom_site_fract_y
_atom_site_fract_z
Si Si1 0.671687 0.324132 0.506969
Si Si2 0.250000 0.812034 0.007847
Si Si3 0.394588 0.677178 0.242195
Si Si4 0.156930 0.313009 0.974934
Si Si5 0.113698 0.182049 0.706085
Si Si6 0.750000 0.812531 0.665530
Si Si7 0.548196 0.690748 0.521123
O O1 0.678096 0.500000 0.448714
O O2 0.637269 0.335140 0.628459
O O3 0.654505 0.208121 0.390372
O O4 0.711220 0.257539 0.584325
O O5 0.295726 0.753379 0.953931
O O6 0.250000 0.000000 0.995448
O O7 0.250000 0.764315 0.172073
O O8 0.406605 0.500000 0.195785
O O9 0.434031 0.748727 0.326997
O O10 0.367652 0.748734 0.114573
O O11 0.161896 0.500000 0.990572
O O12 0.125950 0.272949 0.847049
O O13 0.076227 0.248723 0.609090
O O14 0.106507 0.000000 0.735978
O O15 0.750000 0.000000 0.661531
O O16 0.500000 0.733555 0.500000
O O17 0.551529 0.500000 0.522572
#
# Coordination Sequence:
#
# PCOD9402272 Si02
#       7
#     8   4   8   8   8   4   8
#     4  10  19  35  56  78 104 142 191 233 274 327
#     4  11  23  36  53  82 119 152 190 232 283 334
#     4   8  16  31  55  83 107 138 184 233 275 323
#     4  11  21  37  58  81 112 154 199 235 280 333
#     4  11  23  38  55  81 116 148 182 231 294 344
#     4  11  21  32  51  82 115 144 182 232 285 334
#     4   9  18  37  64  90 113 143 187 236 285 344
#
# _framework density 18.481119
#
# number of rings (size 3 to 8) (size 9 to 14) (size 15 to 20)
#    0.000    2.000    1.667    4.000    0.000    1.667 
#    0.000    5.000    0.000    5.000    0.000    0.000 
#    0.000    0.000    0.000    0.000    0.000    0.000 
#
# Total GULP energy -267255.787004 kJ/mol
# GULP energy per Si atom -5567.828896 kJ/mol
# Density = 1.843906 g / cm^3
# Si number density = 18.481119 Si / 1000 Ang^3
#
#
#
# Elastic Constant Matrix: (Units=GPa)
#
#
# Indices 1 2 3 4 5 6 
#
# 1 112.8999 21.7235 33.4067 0.0000 0.0000 0.0000
# 2 21.7235 37.9635 5.4559 0.0000 0.0000 0.0000
# 3 33.4067 5.4559 75.2958 0.0000 0.0000 0.0000
# 4 0.0000 0.0000 0.0000 18.4324 0.0000 0.0000
# 5 0.0000 0.0000 0.0000 0.0000 -102.9569 0.0000
# 6 0.0000 0.0000 0.0000 0.0000 0.0000 17.1325
#
#
#
# Elastic Compliance Matrix: (Units=1/GPa)
#
#
# Indices 1 2 3 4 5 6 
#
# 1 0.011343 -0.005828 -0.004610 0.000000 0.000000 0.000000
# 2 -0.005828 0.029613 0.000440 0.000000 0.000000 0.000000
# 3 -0.004610 0.000440 0.015295 0.000000 0.000000 0.000000
# 4 0.000000 0.000000 0.000000 0.054252 0.000000 0.000000
# 5 0.000000 0.000000 0.000000 0.000000 -0.009713 0.000000
# 6 0.000000 0.000000 0.000000 0.000000 0.000000 0.058369
#
#
# Mechanical properties :
#
#
# Convention : Reuss Voigt Hill
#
# Bulk Modulus (GPa) = 27.58344 38.59236 33.08790
# Shear Modulus (GPa) = 26.14522 -2.44019 11.85251
#
# Velocity S-wave (km/s) = 3.76533 -1.15032 2.53520
# Velocity P-wave (km/s) = 5.81904 4.37756 5.14899
#
# Compressibility (1/GPa) = 0.03625364
#
# Stress axis : x y z
#
# Youngs Moduli (GPa) = 88.16025 33.76917 65.38288
#
# Poissons Ratio (x) = 0.19681 0.30143
# Poissons Ratio (y) = 0.51381 -0.02877
# Poissons Ratio (z) = 0.40644 -0.01486
#
# Static dielectric constant tensor:
#      x y z
#    x 1.595940 0.000000 0.000000 
#    y 0.000000 1.646710 0.000000 
#    z 0.000000 0.000000 1.645630 
# 
# From -- ./inp_files/12913.got.cif
#   From: 2010.05.17/outbox.cif.g08.bks.cpg/sg51_7_cif.got.tgz:12913.got - 2010.06.03 11:52:47.
