data_PCOD9402878
_publ_section_title
;
Structure prediction by ZEFSAII (Michael W. Deem and Ramdas Pophale) SiO2 
 PCOD9402878
Probable space group: P M M A
;
_chemical_formula_sum "Si O2"
_cell_formula_units_Z 56
_cell_length_a 8.728934
_cell_length_b 19.628147
_cell_length_c 19.201217
_cell_angle_alpha 90.000000
_cell_angle_beta 90.000000
_cell_angle_gamma 90.000000
_cell_volume 3289.798266
_symmetry_space_group_name_H-M "P M M A"
_symmetry_group_IT_number 51
_symmetry_cell_setting 'orthorhombic'
loop_
_space_group_symop_operation_xyz
x,y,z
1/2-x,-y,z
1/2+x,-y,-z
-x,y,-z
-x,-y,-z
1/2+x,y,-z
1/2-x,y,z
x,-y,z
loop_
_atom_site_type_symbol
_atom_site_label
_atom_site_fract_x
_atom_site_fract_y
_atom_site_fract_z
Si Si1 0.566628 0.360391 0.787862
Si Si2 0.932208 0.925213 0.716966
Si Si3 0.421356 0.919011 0.568420
Si Si4 0.067323 0.420937 0.927117
Si Si5 0.434719 0.577257 0.359661
Si Si6 0.067579 0.713323 0.575587
Si Si7 0.935576 0.778768 0.713534
O O1 0.750000 0.363529 0.796949
O O2 0.488468 0.382113 0.858904
O O3 0.528165 0.408392 0.721711
O O4 0.524629 0.284391 0.763009
O O5 0.750000 0.928242 0.727260
O O6 0.986245 0.851820 0.744566
O O7 0.970936 0.916362 0.635386
O O8 0.995731 0.000000 0.738319
O O9 0.500000 0.889217 0.500000
O O10 0.250000 0.891437 0.581121
O O11 0.403087 0.000000 0.555850
O O12 0.250000 0.419473 0.930959
O O13 0.016561 0.500000 0.920298
O O14 0.000000 0.394438 0.000000
O O15 0.250000 0.584679 0.366593
O O16 0.476866 0.500000 0.378739
O O17 0.513407 0.636823 0.403590
O O18 0.250000 0.716332 0.573833
O O19 0.000000 0.729666 0.500000
O O20 0.004872 0.761439 0.637718
O O21 0.750000 0.779447 0.706022
#
# Coordination Sequence:
#
# PCOD9402878 Si02
#       7
#     8   8   8   8   8   8   8
#     4   9  17  31  50  70  96 129 159 188 225 271
#     4   9  17  30  48  67  86 110 143 185 230 277
#     4   9  16  25  37  54  77 104 134 171 219 275
#     4  10  20  32  48  73 104 135 165 195 224 257
#     4   9  18  33  52  72  94 122 156 194 238 285
#     4  11  22  35  50  66  87 117 155 200 247 292
#     4   9  19  35  51  68  92 122 156 193 237 289
#
# _framework density 17.022320000000001
#
# number of rings (size 3 to 8) (size 9 to 14) (size 15 to 20)
#    0.000    2.571    0.000    3.429    0.000    7.143 
#    0.000    0.000    0.000    0.000    0.000    0.000 
#    0.000    0.571    0.000    1.000    0.000    1.429 
#
# Total GULP energy -312152.707773 kJ/mol
# GULP energy per Si atom -5574.155496 kJ/mol
# Density = 1.698358 g / cm^3
# Si number density = 17.022320 Si / 1000 Ang^3
#
#
#
# Elastic Constant Matrix: (Units=GPa)
#
#
# Indices 1 2 3 4 5 6 
#
# 1 26.2951 23.2219 22.8810 0.0000 0.0000 0.0000
# 2 23.2219 128.8864 28.0632 0.0000 0.0000 0.0000
# 3 22.8810 28.0632 76.6516 0.0000 0.0000 0.0000
# 4 0.0000 0.0000 0.0000 -6.2674 0.0000 0.0000
# 5 0.0000 0.0000 0.0000 0.0000 25.0873 0.0000
# 6 0.0000 0.0000 0.0000 0.0000 0.0000 13.0199
#
#
#
# Elastic Compliance Matrix: (Units=1/GPa)
#
#
# Indices 1 2 3 4 5 6 
#
# 1 0.056796 -0.007108 -0.014351 0.000000 0.000000 0.000000
# 2 -0.007108 0.009320 -0.001290 0.000000 0.000000 0.000000
# 3 -0.014351 -0.001290 0.017803 0.000000 0.000000 0.000000
# 4 0.000000 0.000000 0.000000 -0.159556 0.000000 0.000000
# 5 0.000000 0.000000 0.000000 0.000000 0.039861 0.000000
# 6 0.000000 0.000000 0.000000 0.000000 0.000000 0.076806
#
#
# Mechanical properties :
#
#
# Convention : Reuss Voigt Hill
#
# Bulk Modulus (GPa) = 26.02932 42.24059 34.13496
# Shear Modulus (GPa) = 50.33443 16.87909 33.60676
#
# Velocity S-wave (km/s) = 5.44370 3.15236 4.44810
# Velocity P-wave (km/s) = 7.40515 6.17402 6.81744
#
# Compressibility (1/GPa) = 0.03841821
#
# Stress axis : x y z
#
# Youngs Moduli (GPa) = 17.60700 107.29071 56.17181
#
# Poissons Ratio (x) = 0.76265 0.80615
# Poissons Ratio (y) = 0.12515 0.07249
# Poissons Ratio (z) = 0.25269 0.13846
#
# Static dielectric constant tensor:
#      x y z
#    x 1.581720 0.000000 0.000000 
#    y 0.000000 1.649520 0.000000 
#    z 0.000000 0.000000 1.535870 
# 
# From -- ./inp_files/28258.got.cif
#   From: 2010.05.17/outbox.cif.g08.bks.cpg/sg51_15_cif.got.tgz:28258.got - 2010.06.03 11:52:47.
