data_PCOD9402781
_publ_section_title
;
Structure prediction by ZEFSAII (Michael W. Deem and Ramdas Pophale) SiO2 
 PCOD9402781
Probable space group: P M M A
;
_chemical_formula_sum "Si O2"
_cell_formula_units_Z 56
_cell_length_a 9.109291
_cell_length_b 20.371957
_cell_length_c 15.709431
_cell_angle_alpha 90.000000
_cell_angle_beta 90.000000
_cell_angle_gamma 90.000000
_cell_volume 2915.263277
_symmetry_space_group_name_H-M "P M M A"
_symmetry_group_IT_number 51
_symmetry_cell_setting 'orthorhombic'
loop_
_space_group_symop_operation_xyz
x,y,z
1/2-x,-y,z
1/2+x,-y,-z
-x,y,-z
-x,-y,-z
1/2+x,y,-z
1/2-x,y,z
x,-y,z
loop_
_atom_site_type_symbol
_atom_site_label
_atom_site_fract_x
_atom_site_fract_y
_atom_site_fract_z
Si Si1 0.073934 0.831692 0.911474
Si Si2 0.075038 0.924158 0.226754
Si Si3 0.076257 0.119357 0.415041
Si Si4 0.579044 0.600021 0.414634
Si Si5 0.082081 0.750680 0.630045
Si Si6 0.924555 0.426885 0.764651
Si Si7 0.923636 0.700817 0.178465
O O1 0.250000 0.836776 0.915354
O O2 0.035924 0.755800 0.890003
O O3 0.012734 0.876655 0.835584
O O4 0.000000 0.851208 0.000000
O O5 0.250000 0.909911 0.220422
O O6 0.032571 0.913480 0.325501
O O7 0.051741 0.000000 0.203614
O O8 0.250000 0.113494 0.424169
O O9 0.000000 0.093049 0.500000
O O10 0.028618 0.195405 0.404338
O O11 0.500000 0.576813 0.500000
O O12 0.750000 0.581326 0.412609
O O13 0.572614 0.679535 0.412852
O O14 0.499181 0.577827 0.328493
O O15 0.250000 0.775194 0.620515
O O16 0.054371 0.735681 0.729586
O O17 0.750000 0.418981 0.755116
O O18 0.954235 0.500000 0.799150
O O19 0.988570 0.366977 0.819466
O O20 0.750000 0.686265 0.172471
#
# Coordination Sequence:
#
# PCOD9402781 Si02
#       7
#     8   8   8   8   8   8   8
#     4  11  23  41  67  98 126 154 194 241 297 361
#     4  10  23  43  63  87 122 162 204 249 298 353
#     4  11  22  34  54  82 114 156 202 248 297 347
#     4  10  20  32  47  70 103 145 192 244 297 350
#     4   9  17  32  52  76 107 143 189 242 293 346
#     4  10  21  35  53  79 110 148 193 238 290 352
#     4   9  19  36  59  85 115 150 189 238 290 347
#
# _framework density 19.209244000000002
#
# number of rings (size 3 to 8) (size 9 to 14) (size 15 to 20)
#    0.000    2.000    1.429    3.000    0.000    8.000 
#    0.000    0.000    0.000    0.429    0.000    0.000 
#    0.000    0.000    0.000    0.000    0.000    0.000 
#
# Total GULP energy -312762.436057 kJ/mol
# GULP energy per Si atom -5585.043501 kJ/mol
# Density = 1.916552 g / cm^3
# Si number density = 19.209244 Si / 1000 Ang^3
#
#
#
# Elastic Constant Matrix: (Units=GPa)
#
#
# Indices 1 2 3 4 5 6 
#
# 1 72.5712 48.5025 48.5613 0.0000 0.0000 0.0000
# 2 48.5025 93.4302 38.7045 0.0000 0.0000 0.0000
# 3 48.5613 38.7045 91.5308 0.0000 0.0000 0.0000
# 4 0.0000 0.0000 0.0000 -5.8746 0.0000 0.0000
# 5 0.0000 0.0000 0.0000 0.0000 25.6967 0.0000
# 6 0.0000 0.0000 0.0000 0.0000 0.0000 18.9260
#
#
#
# Elastic Compliance Matrix: (Units=1/GPa)
#
#
# Indices 1 2 3 4 5 6 
#
# 1 0.027280 -0.009900 -0.010287 0.000000 0.000000 0.000000
# 2 -0.009900 0.016569 -0.001754 0.000000 0.000000 0.000000
# 3 -0.010287 -0.001754 0.017125 0.000000 0.000000 0.000000
# 4 0.000000 0.000000 0.000000 -0.170226 0.000000 0.000000
# 5 0.000000 0.000000 0.000000 0.000000 0.038915 0.000000
# 6 0.000000 0.000000 0.000000 0.000000 0.000000 0.052837
#
#
# Mechanical properties :
#
#
# Convention : Reuss Voigt Hill
#
# Bulk Modulus (GPa) = 58.50800 58.78541 58.64671
# Shear Modulus (GPa) = 155.86012 15.86723 85.86367
#
# Velocity S-wave (km/s) = 9.01744 2.87718 6.69299
# Velocity P-wave (km/s) = 11.78742 6.45807 9.50395
#
# Compressibility (1/GPa) = 0.01709168
#
# Stress axis : x y z
#
# Youngs Moduli (GPa) = 36.65708 60.35243 58.39583
#
# Poissons Ratio (x) = 0.59751 0.60070
# Poissons Ratio (y) = 0.36292 0.10242
# Poissons Ratio (z) = 0.37708 0.10585
#
# Static dielectric constant tensor:
#      x y z
#    x 1.642780 0.000000 0.000000 
#    y 0.000000 1.676640 0.000000 
#    z 0.000000 0.000000 1.665740 
# 
# From -- ./inp_files/21763.got.cif
#   From: 2010.05.17/outbox.cif.g08.bks.cpg/sg51_11_cif.got.tgz:21763.got - 2010.06.03 11:52:47.
