data_PCOD9402031
_publ_section_title
;
Structure prediction by ZEFSAII (Michael W. Deem and Ramdas Pophale) SiO2 
 PCOD9402031
Probable space group: P M M A
;
_chemical_formula_sum "Si O2"
_cell_formula_units_Z 64
_cell_length_a 18.767886
_cell_length_b 7.530641
_cell_length_c 20.534452
_cell_angle_alpha 90.000000
_cell_angle_beta 90.000000
_cell_angle_gamma 90.000000
_cell_volume 2902.220588
_symmetry_space_group_name_H-M "P M M A"
_symmetry_group_IT_number 51
_symmetry_cell_setting 'orthorhombic'
loop_
_space_group_symop_operation_xyz
x,y,z
1/2-x,-y,z
1/2+x,-y,-z
-x,y,-z
-x,-y,-z
1/2+x,y,-z
1/2-x,y,z
x,-y,z
loop_
_atom_site_type_symbol
_atom_site_label
_atom_site_fract_x
_atom_site_fract_y
_atom_site_fract_z
Si Si1 0.399149 0.792720 0.837770
Si Si2 0.169995 0.715215 0.481169
Si Si3 0.063690 0.791289 0.597876
Si Si4 0.830492 0.287362 0.891620
Si Si5 0.921141 0.786610 0.018911
Si Si6 0.829228 0.217485 0.291107
Si Si7 0.444186 0.283675 0.215616
Si Si8 0.911999 0.297006 0.639516
O O1 0.398020 0.716222 0.910395
O O2 0.348851 0.719266 0.781171
O O3 0.479477 0.779958 0.810230
O O4 0.379714 0.000000 0.843659
O O5 0.250000 0.774261 0.498216
O O6 0.169997 0.500000 0.479698
O O7 0.111264 0.768834 0.533937
O O8 0.145698 0.781165 0.409915
O O9 0.111348 0.723288 0.657945
O O10 0.986656 0.703615 0.600477
O O11 0.050237 0.000000 0.607077
O O12 0.750000 0.217778 0.887584
O O13 0.827084 0.500000 0.884505
O O14 0.883306 0.224316 0.834725
O O15 0.866530 0.250486 0.961111
O O16 0.927253 0.000000 0.025037
O O17 0.000000 0.719554 0.000000
O O18 0.750000 0.271801 0.310589
O O19 0.830983 0.000000 0.291567
O O20 0.447557 0.500000 0.215795
O O21 0.427457 0.220761 0.288966
O O22 0.889581 0.500000 0.651765
#
# Coordination Sequence:
#
# PCOD9402031 Si02
#       8
#     8   8   8   8   8   8   8   8
#     4  10  19  34  56  80 107 141 183 227 270 329
#     4  10  22  39  57  79 111 149 185 227 280 332
#     4  11  21  35  58  84 111 146 184 227 275 332
#     4  10  22  38  56  82 115 150 188 232 283 335
#     4  10  20  34  56  83 110 144 186 230 275 330
#     4   9  18  32  51  77 107 138 173 216 268 321
#     4  10  20  35  57  82 109 144 185 231 277 325
#     4  10  21  37  58  83 110 143 188 235 277 329
#
# _framework density 22.052078999999999
#
# number of rings (size 3 to 8) (size 9 to 14) (size 15 to 20)
#    0.000    2.000    2.500    1.125    0.000    4.750 
#    0.000    3.750    0.000    1.125    0.000    3.500 
#    0.000    0.000    0.000    0.000    0.000    0.000 
#
# Total GULP energy -357594.358443 kJ/mol
# GULP energy per Si atom -5587.411851 kJ/mol
# Density = 2.200189 g / cm^3
# Si number density = 22.052079 Si / 1000 Ang^3
#
#
#
# Elastic Constant Matrix: (Units=GPa)
#
#
# Indices 1 2 3 4 5 6 
#
# 1 52.0037 -14.9678 5.2966 0.0000 0.0000 0.0000
# 2 -14.9678 58.4349 -9.2265 0.0000 0.0000 0.0000
# 3 5.2966 -9.2265 121.2718 0.0000 0.0000 0.0000
# 4 0.0000 0.0000 0.0000 136.6733 0.0000 0.0000
# 5 0.0000 0.0000 0.0000 0.0000 27.1914 0.0000
# 6 0.0000 0.0000 0.0000 0.0000 0.0000 25.0629
#
#
#
# Elastic Compliance Matrix: (Units=1/GPa)
#
#
# Indices 1 2 3 4 5 6 
#
# 1 0.020791 0.005245 -0.000509 0.000000 0.000000 0.000000
# 2 0.005245 0.018644 0.001189 0.000000 0.000000 0.000000
# 3 -0.000509 0.001189 0.008359 0.000000 0.000000 0.000000
# 4 0.000000 0.000000 0.000000 0.007317 0.000000 0.000000
# 5 0.000000 0.000000 0.000000 0.000000 0.036776 0.000000
# 6 0.000000 0.000000 0.000000 0.000000 0.000000 0.039900
#
#
# Mechanical properties :
#
#
# Convention : Reuss Voigt Hill
#
# Bulk Modulus (GPa) = 16.76586 21.54610 19.15598
# Shear Modulus (GPa) = 35.76097 54.49272 45.12684
#
# Velocity S-wave (km/s) = 4.03135 4.97640 4.52860
# Velocity P-wave (km/s) = 5.41188 6.54303 6.00415
#
# Compressibility (1/GPa) = 0.05964500
#
# Stress axis : x y z
#
# Youngs Moduli (GPa) = 48.09794 53.63551 119.63640
#
# Poissons Ratio (x) = -0.28132 0.06089
# Poissons Ratio (y) = -0.25228 -0.14230
# Poissons Ratio (z) = 0.02448 -0.06379
#
# Static dielectric constant tensor:
#      x y z
#    x 1.762680 0.000000 0.000000 
#    y 0.000000 1.878210 0.000000 
#    z 0.000000 0.000000 1.807780 
# 
# From -- ./inp_files/33980.got.cif
#   From: 2010.05.17/outbox.cif.g08.bks.cpg/sg51_17_cif.got.tgz:33980.got - 2010.06.03 11:52:47.
