data_PCOD9402018
_publ_section_title
;
Structure prediction by ZEFSAII (Michael W. Deem and Ramdas Pophale) SiO2 
 PCOD9402018
Probable space group: P M M A
;
_chemical_formula_sum "Si O2"
_cell_formula_units_Z 52
_cell_length_a 8.467356
_cell_length_b 24.244168
_cell_length_c 14.835713
_cell_angle_alpha 90.000000
_cell_angle_beta 90.000000
_cell_angle_gamma 90.000000
_cell_volume 3045.534528
_symmetry_space_group_name_H-M "P M M A"
_symmetry_group_IT_number 51
_symmetry_cell_setting 'orthorhombic'
loop_
_space_group_symop_operation_xyz
x,y,z
1/2-x,-y,z
1/2+x,-y,-z
-x,y,-z
-x,-y,-z
1/2+x,y,-z
1/2-x,y,z
x,-y,z
loop_
_atom_site_type_symbol
_atom_site_label
_atom_site_fract_x
_atom_site_fract_y
_atom_site_fract_z
Si Si1 0.061279 0.561016 0.785747
Si Si2 0.060142 0.730405 0.403363
Si Si3 0.438779 0.335528 0.101588
Si Si4 0.058650 0.120688 0.102895
Si Si5 0.059622 0.000000 0.102737
Si Si6 0.560624 0.398854 0.597354
Si Si7 0.943102 0.227503 0.787621
O O1 0.250000 0.563682 0.791257
O O2 0.009086 0.500000 0.815900
O O3 0.991390 0.610172 0.844982
O O4 0.009909 0.569772 0.682373
O O5 0.250000 0.731372 0.404628
O O6 0.013458 0.665906 0.393498
O O7 0.005385 0.763576 0.315510
O O8 0.000000 0.750385 0.500000
O O9 0.250000 0.334104 0.100495
O O10 0.493821 0.280750 0.154591
O O11 0.500000 0.335705 0.000000
O O12 0.250000 0.121821 0.100568
O O13 0.008574 0.059958 0.138769
O O14 0.004222 0.171307 0.164599
O O15 0.000000 0.127125 0.000000
O O16 0.250000 0.000000 0.103869
O O17 0.000000 0.000000 0.000000
O O18 0.500000 0.418211 0.500000
O O19 0.750000 0.402115 0.600166
O O20 0.750000 0.227257 0.787330
#
# Coordination Sequence:
#
# PCOD9402018 Si02
#       7
#     8   8   8   8   4   8   8
#     4  11  24  40  56  75  98 127 165 204 245 296
#     4   9  17  31  49  72  97 124 155 191 239 289
#     4  11  22  38  56  75  98 127 162 202 250 297
#     4   9  16  27  44  67  99 133 165 200 235 279
#     4   8  14  24  40  64  93 130 168 198 233 274
#     4  10  19  34  56  79 103 129 159 197 246 299
#     4   9  17  31  50  72 100 129 158 197 244 288
#
# _framework density 17.074178
#
# number of rings (size 3 to 8) (size 9 to 14) (size 15 to 20)
#    0.000    2.308    1.538    1.846    0.000    2.462 
#    0.000    1.538    0.000    0.000    0.000    0.538 
#    0.000    0.000    0.000    0.000    0.000    0.000 
#
# Total GULP energy -290015.757330 kJ/mol
# GULP energy per Si atom -5577.226103 kJ/mol
# Density = 1.703532 g / cm^3
# Si number density = 17.074178 Si / 1000 Ang^3
#
#
#
# Elastic Constant Matrix: (Units=GPa)
#
#
# Indices 1 2 3 4 5 6 
#
# 1 15.2566 21.8478 15.2785 0.0000 0.0000 0.0000
# 2 21.8478 153.3410 77.2790 0.0000 0.0000 0.0000
# 3 15.2785 77.2790 120.2070 0.0000 0.0000 0.0000
# 4 0.0000 0.0000 0.0000 24.4294 0.0000 0.0000
# 5 0.0000 0.0000 0.0000 0.0000 28.0837 0.0000
# 6 0.0000 0.0000 0.0000 0.0000 0.0000 9.3998
#
#
#
# Elastic Compliance Matrix: (Units=1/GPa)
#
#
# Indices 1 2 3 4 5 6 
#
# 1 0.083895 -0.009733 -0.004406 0.000000 0.000000 0.000000
# 2 -0.009733 0.010776 -0.005691 0.000000 0.000000 0.000000
# 3 -0.004406 -0.005691 0.012537 0.000000 0.000000 0.000000
# 4 0.000000 0.000000 0.000000 0.040934 0.000000 0.000000
# 5 0.000000 0.000000 0.000000 0.000000 0.035608 0.000000
# 6 0.000000 0.000000 0.000000 0.000000 0.000000 0.106385
#
#
# Mechanical properties :
#
#
# Convention : Reuss Voigt Hill
#
# Bulk Modulus (GPa) = 14.80392 57.51278 36.15835
# Shear Modulus (GPa) = 14.19196 24.00921 19.10059
#
# Velocity S-wave (km/s) = 2.88617 3.75396 3.34830
# Velocity P-wave (km/s) = 4.44925 7.24892 6.01426
#
# Compressibility (1/GPa) = 0.06754966
#
# Stress axis : x y z
#
# Youngs Moduli (GPa) = 11.91960 92.79860 79.76089
#
# Poissons Ratio (x) = 0.90318 0.35145
# Poissons Ratio (y) = 0.11601 0.45389
# Poissons Ratio (z) = 0.05252 0.52809
#
# Static dielectric constant tensor:
#      x y z
#    x 1.572450 0.000000 0.000000 
#    y 0.000000 1.605230 0.000000 
#    z 0.000000 0.000000 1.554520 
# 
# From -- ./inp_files/22020.got.cif
#   From: 2010.05.17/outbox.cif.g08.bks.cpg/sg51_12_cif.got.tgz:22020.got - 2010.06.03 11:52:47.
