data_PCOD9402034
_publ_section_title
;
Structure prediction by ZEFSAII (Michael W. Deem and Ramdas Pophale) SiO2 
 PCOD9402034
Probable space group: P M M A
;
_chemical_formula_sum "Si O2"
_cell_formula_units_Z 48
_cell_length_a 25.866240
_cell_length_b 8.556124
_cell_length_c 12.173879
_cell_angle_alpha 90.000000
_cell_angle_beta 90.000000
_cell_angle_gamma 90.000000
_cell_volume 2694.259071
_symmetry_space_group_name_H-M "P M M A"
_symmetry_group_IT_number 51
_symmetry_cell_setting 'orthorhombic'
loop_
_space_group_symop_operation_xyz
x,y,z
1/2-x,-y,z
1/2+x,-y,-z
-x,y,-z
-x,-y,-z
1/2+x,y,-z
1/2-x,y,z
x,-y,z
loop_
_atom_site_type_symbol
_atom_site_label
_atom_site_fract_x
_atom_site_fract_y
_atom_site_fract_z
Si Si1 0.560201 0.687141 0.501602
Si Si2 0.809372 0.811195 0.117216
Si Si3 0.000943 0.190395 0.125644
Si Si4 0.190231 0.312955 0.123156
Si Si5 0.097678 0.189168 0.729195
Si Si6 0.400477 0.812625 0.268633
O O1 0.500000 0.740823 0.500000
O O2 0.560273 0.500000 0.505247
O O3 0.587939 0.744012 0.391131
O O4 0.587872 0.751748 0.609840
O O5 0.750000 0.761876 0.137496
O O6 0.849406 0.761813 0.211044
O O7 0.810470 0.000000 0.112281
O O8 0.825372 0.748888 0.997504
O O9 0.052122 0.240406 0.190444
O O10 0.950227 0.237485 0.193196
O O11 0.001197 0.000000 0.123392
O O12 0.000000 0.244868 0.000000
O O13 0.250000 0.264344 0.140500
O O14 0.188126 0.500000 0.122863
O O15 0.152216 0.247570 0.215090
O O16 0.097405 0.000000 0.722408
O O17 0.400135 0.000000 0.269973
#
# Coordination Sequence:
#
# PCOD9402034 Si02
#       6
#     8   8   8   8   8   8
#     4  11  23  38  55  77 111 149 187 231 282 338
#     4   9  18  34  58  86 113 144 184 228 272 322
#     4   9  17  29  49  79 109 136 171 220 277 328
#     4  10  21  37  57  82 115 151 183 221 275 334
#     4  10  19  34  56  80 110 145 187 232 276 327
#     4  11  21  35  58  82 108 143 188 234 275 327
#
# _framework density 17.815659
#
# number of rings (size 3 to 8) (size 9 to 14) (size 15 to 20)
#    0.000    2.000    1.667    2.500    0.000    5.000 
#    0.000    0.833    0.000    5.500    0.000    0.000 
#    0.000    0.000    0.000    0.000    0.000    0.000 
#
# Total GULP energy -268024.812789 kJ/mol
# GULP energy per Si atom -5583.850266 kJ/mol
# Density = 1.777511 g / cm^3
# Si number density = 17.815659 Si / 1000 Ang^3
#
#
#
# Elastic Constant Matrix: (Units=GPa)
#
#
# Indices 1 2 3 4 5 6 
#
# 1 112.8954 28.7232 97.5521 0.0000 0.0000 0.0000
# 2 28.7232 22.9463 33.3987 0.0000 0.0000 0.0000
# 3 97.5521 33.3987 194.5751 0.0000 0.0000 0.0000
# 4 0.0000 0.0000 0.0000 176.3489 0.0000 0.0000
# 5 0.0000 0.0000 0.0000 0.0000 26.3621 0.0000
# 6 0.0000 0.0000 0.0000 0.0000 0.0000 19.2292
#
#
#
# Elastic Compliance Matrix: (Units=1/GPa)
#
#
# Indices 1 2 3 4 5 6 
#
# 1 0.017969 -0.012504 -0.006863 0.000000 0.000000 0.000000
# 2 -0.012504 0.066795 -0.005196 0.000000 0.000000 0.000000
# 3 -0.006863 -0.005196 0.009472 0.000000 0.000000 0.000000
# 4 0.000000 0.000000 0.000000 0.005671 0.000000 0.000000
# 5 0.000000 0.000000 0.000000 0.000000 0.037933 0.000000
# 6 0.000000 0.000000 0.000000 0.000000 0.000000 0.052004
#
#
# Mechanical properties :
#
#
# Convention : Reuss Voigt Hill
#
# Bulk Modulus (GPa) = 22.16791 72.19609 47.18200
# Shear Modulus (GPa) = 19.68444 55.77088 37.72766
#
# Velocity S-wave (km/s) = 3.32760 5.60110 4.60681
# Velocity P-wave (km/s) = 5.21861 9.07974 7.40526
#
# Compressibility (1/GPa) = 0.04511025
#
# Stress axis : x y z
#
# Youngs Moduli (GPa) = 55.65126 14.97107 105.57454
#
# Poissons Ratio (x) = 0.18720 0.72452
# Poissons Ratio (y) = 0.69588 0.54860
# Poissons Ratio (z) = 0.38191 0.07779
#
# Static dielectric constant tensor:
#      x y z
#    x 1.609530 0.000000 0.000000 
#    y 0.000000 1.603080 0.000000 
#    z 0.000000 0.000000 1.569610 
# 
# From -- ./inp_files/18579.got.cif
#   From: 2010.05.17/outbox.cif.g08.bks.cpg/sg51_10_cif.got.tgz:18579.got - 2010.06.03 11:52:47.
