data_PCOD9402096
_publ_section_title
;
Structure prediction by ZEFSAII (Michael W. Deem and Ramdas Pophale) SiO2 
 PCOD9402096
Probable space group: P M M A
;
_chemical_formula_sum "Si O2"
_cell_formula_units_Z 32
_cell_length_a 16.501728
_cell_length_b 19.690119
_cell_length_c 5.070920
_cell_angle_alpha 90.000000
_cell_angle_beta 90.000000
_cell_angle_gamma 90.000000
_cell_volume 1647.648337
_symmetry_space_group_name_H-M "P M M A"
_symmetry_group_IT_number 51
_symmetry_cell_setting 'orthorhombic'
loop_
_space_group_symop_operation_xyz
x,y,z
1/2-x,-y,z
1/2+x,-y,-z
-x,y,-z
-x,-y,-z
1/2+x,y,-z
1/2-x,y,z
x,-y,z
loop_
_atom_site_type_symbol
_atom_site_label
_atom_site_fract_x
_atom_site_fract_y
_atom_site_fract_z
Si Si1 0.059349 0.851828 0.749810
Si Si2 0.559126 0.000000 0.250746
Si Si3 0.440790 0.500000 0.251199
Si Si4 0.591807 0.353441 0.612080
Si Si5 0.656235 0.719297 0.118534
O O1 0.121275 0.790352 0.776018
O O2 0.000000 0.843921 0.500000
O O3 0.101289 0.926490 0.743289
O O4 0.000000 0.850206 0.000000
O O5 0.500000 0.000000 0.500000
O O6 0.500000 0.000000 0.000000
O O7 0.500000 0.500000 0.500000
O O8 0.393304 0.429422 0.277572
O O9 0.500000 0.500000 0.000000
O O10 0.500000 0.348581 0.500000
O O11 0.645159 0.333151 0.360535
O O12 0.606722 0.304521 0.860620
O O13 0.750000 0.724532 0.044875
#
# Coordination Sequence:
#
# PCOD9402096 Si02
#       5
#     8   4   4   8   8
#     4  10  19  34  57  80 106 144 187 228 273 328
#     4   8  16  30  51  80 105 132 181 234 271 316
#     4  10  20  36  61  88 107 134 187 242 275 320
#     4  11  22  40  62  83 109 147 192 235 281 338
#     4  12  24  37  54  85 120 150 185 233 284 338
#
# _framework density 19.421619
#
# number of rings (size 3 to 8) (size 9 to 14) (size 15 to 20)
#    0.000    1.500    0.000    8.250    0.000    0.000 
#    0.000    4.375    0.000    0.000    0.000   14.000 
#    0.000    0.000    0.000    0.000    0.000    0.000 
#
# Total GULP energy -178586.676418 kJ/mol
# GULP energy per Si atom -5580.833638 kJ/mol
# Density = 1.937742 g / cm^3
# Si number density = 19.421619 Si / 1000 Ang^3
#
#
#
# Elastic Constant Matrix: (Units=GPa)
#
#
# Indices 1 2 3 4 5 6 
#
# 1 58.8456 52.4207 18.2628 0.0000 0.0000 0.0000
# 2 52.4207 159.0651 37.8921 0.0000 0.0000 0.0000
# 3 18.2628 37.8921 148.2357 0.0000 0.0000 0.0000
# 4 0.0000 0.0000 0.0000 27.9451 0.0000 0.0000
# 5 0.0000 0.0000 0.0000 0.0000 18.2891 0.0000
# 6 0.0000 0.0000 0.0000 0.0000 0.0000 -2.9858
#
#
#
# Elastic Compliance Matrix: (Units=1/GPa)
#
#
# Indices 1 2 3 4 5 6 
#
# 1 0.024195 -0.007735 -0.001004 0.000000 0.000000 0.000000
# 2 -0.007735 0.009167 -0.001390 0.000000 0.000000 0.000000
# 3 -0.001004 -0.001390 0.007225 0.000000 0.000000 0.000000
# 4 0.000000 0.000000 0.000000 0.035784 0.000000 0.000000
# 5 0.000000 0.000000 0.000000 0.000000 0.054677 0.000000
# 6 0.000000 0.000000 0.000000 0.000000 0.000000 -0.334917
#
#
# Mechanical properties :
#
#
# Convention : Reuss Voigt Hill
#
# Bulk Modulus (GPa) = 49.18870 64.81084 56.99977
# Shear Modulus (GPa) = -28.27506 25.82107 -1.22699
#
# Velocity S-wave (km/s) = -3.81971 3.65019 -0.79570
# Velocity P-wave (km/s) = 2.43479 7.15598 5.34492
#
# Compressibility (1/GPa) = 0.02032987
#
# Stress axis : x y z
#
# Youngs Moduli (GPa) = 41.33055 109.08826 138.40676
#
# Poissons Ratio (x) = 0.84375 0.13893
# Poissons Ratio (y) = 0.31967 0.19243
# Poissons Ratio (z) = 0.04149 0.15167
#
# Static dielectric constant tensor:
#      x y z
#    x 1.636180 0.000000 0.000000 
#    y 0.000000 1.789640 0.000000 
#    z 0.000000 0.000000 1.640330 
# 
# From -- ./inp_files/1332.got.cif
#   From: 2010.05.17/outbox.cif.g08.bks.cpg/sg51_1_cif.got.tgz:1332.got - 2010.06.03 11:52:47.
