data_PCOD9402165
_publ_section_title
;
Structure prediction by ZEFSAII (Michael W. Deem and Ramdas Pophale) SiO2 
 PCOD9402165
Probable space group: P M M A
;
_chemical_formula_sum "Si O2"
_cell_formula_units_Z 48
_cell_length_a 19.602598
_cell_length_b 7.735735
_cell_length_c 15.656515
_cell_angle_alpha 90.000000
_cell_angle_beta 90.000000
_cell_angle_gamma 90.000000
_cell_volume 2374.161817
_symmetry_space_group_name_H-M "P M M A"
_symmetry_group_IT_number 51
_symmetry_cell_setting 'orthorhombic'
loop_
_space_group_symop_operation_xyz
x,y,z
1/2-x,-y,z
1/2+x,-y,-z
-x,y,-z
-x,-y,-z
1/2+x,y,-z
1/2-x,y,z
x,-y,z
loop_
_atom_site_type_symbol
_atom_site_label
_atom_site_fract_x
_atom_site_fract_y
_atom_site_fract_z
Si Si1 0.574494 0.708395 0.969101
Si Si2 0.572967 0.293322 0.776657
Si Si3 0.420079 0.794720 0.720838
Si Si4 0.327068 0.792547 0.376669
Si Si5 0.672504 0.207786 0.124336
Si Si6 0.923965 0.211898 0.471226
O O1 0.571546 0.500000 0.966779
O O2 0.587593 0.770323 0.872711
O O3 0.500000 0.770904 0.000000
O O4 0.631452 0.755795 0.037761
O O5 0.569347 0.500000 0.779244
O O6 0.498781 0.229783 0.746799
O O7 0.629954 0.243731 0.708336
O O8 0.371255 0.723815 0.795169
O O9 0.409525 0.727082 0.624934
O O10 0.407501 0.000000 0.716589
O O11 0.250000 0.724908 0.372803
O O12 0.369610 0.728911 0.458559
O O13 0.323472 0.000000 0.385096
O O14 0.750000 0.273568 0.122720
O O15 0.675569 0.000000 0.132555
O O16 0.000000 0.263354 0.500000
O O17 0.923531 0.000000 0.470565
#
# Coordination Sequence:
#
# PCOD9402165 Si02
#       6
#     8   8   8   8   8   8
#     4  10  21  38  58  80 107 144 190 230 271 330
#     4  11  22  36  57  82 110 143 186 233 275 324
#     4  10  19  34  58  83 112 147 184 225 271 326
#     4  10  21  37  57  82 112 146 184 226 275 330
#     4  10  22  37  55  85 118 144 177 227 283 330
#     4   9  16  30  55  83 108 138 181 224 265 321
#
# _framework density 20.217661
#
# number of rings (size 3 to 8) (size 9 to 14) (size 15 to 20)
#    0.000    2.000    3.333    0.500    0.000    3.667 
#    0.000    8.333    0.000    0.000    0.000    2.333 
#    0.000    0.000    0.000    0.000    0.000    0.000 
#
# Total GULP energy -268087.559472 kJ/mol
# GULP energy per Si atom -5585.157489 kJ/mol
# Density = 2.017164 g / cm^3
# Si number density = 20.217661 Si / 1000 Ang^3
#
#
#
# Elastic Constant Matrix: (Units=GPa)
#
#
# Indices 1 2 3 4 5 6 
#
# 1 161.9448 -7.6478 125.5283 0.0000 0.0000 0.0000
# 2 -7.6478 27.8946 3.4513 0.0000 0.0000 0.0000
# 3 125.5283 3.4513 243.8106 0.0000 0.0000 0.0000
# 4 0.0000 0.0000 0.0000 232.6752 0.0000 0.0000
# 5 0.0000 0.0000 0.0000 0.0000 36.3639 0.0000
# 6 0.0000 0.0000 0.0000 0.0000 0.0000 37.5084
#
#
#
# Elastic Compliance Matrix: (Units=1/GPa)
#
#
# Indices 1 2 3 4 5 6 
#
# 1 0.010624 0.003596 -0.005521 0.000000 0.000000 0.000000
# 2 0.003596 0.037129 -0.002377 0.000000 0.000000 0.000000
# 3 -0.005521 -0.002377 0.006978 0.000000 0.000000 0.000000
# 4 0.000000 0.000000 0.000000 0.004298 0.000000 0.000000
# 5 0.000000 0.000000 0.000000 0.000000 0.027500 0.000000
# 6 0.000000 0.000000 0.000000 0.000000 0.000000 0.026661
#
#
# Mechanical properties :
#
#
# Convention : Reuss Voigt Hill
#
# Bulk Modulus (GPa) = 21.67922 75.14596 48.41259
# Shear Modulus (GPa) = 36.45141 82.13071 59.29106
#
# Velocity S-wave (km/s) = 4.25072 6.38055 5.42126
# Velocity P-wave (km/s) = 5.90235 9.56719 7.94886
#
# Compressibility (1/GPa) = 0.04612713
#
# Stress axis : x y z
#
# Youngs Moduli (GPa) = 94.12536 26.93298 143.31472
#
# Poissons Ratio (x) = -0.09685 0.79122
# Poissons Ratio (y) = -0.33846 0.34065
# Poissons Ratio (z) = 0.51965 0.06402
#
# Static dielectric constant tensor:
#      x y z
#    x 1.681380 0.000000 0.000000 
#    y 0.000000 1.751880 0.000000 
#    z 0.000000 0.000000 1.683390 
# 
# From -- ./inp_files/24698.got.cif
#   From: 2010.05.17/outbox.cif.g08.bks.cpg/sg51_13_cif.got.tgz:24698.got - 2010.06.03 11:52:47.
