data_PCOD9402201
_publ_section_title
;
Structure prediction by ZEFSAII (Michael W. Deem and Ramdas Pophale) SiO2 
 PCOD9402201
Probable space group: P M M A
;
_chemical_formula_sum "Si O2"
_cell_formula_units_Z 64
_cell_length_a 14.850822
_cell_length_b 23.980532
_cell_length_c 9.336761
_cell_angle_alpha 90.000000
_cell_angle_beta 90.000000
_cell_angle_gamma 90.000000
_cell_volume 3325.106411
_symmetry_space_group_name_H-M "P M M A"
_symmetry_group_IT_number 51
_symmetry_cell_setting 'orthorhombic'
loop_
_space_group_symop_operation_xyz
x,y,z
1/2-x,-y,z
1/2+x,-y,-z
-x,y,-z
-x,-y,-z
1/2+x,y,-z
1/2-x,y,z
x,-y,z
loop_
_atom_site_type_symbol
_atom_site_label
_atom_site_fract_x
_atom_site_fract_y
_atom_site_fract_z
Si Si1 0.029294 0.888116 0.347465
Si Si2 0.353111 0.778398 0.409084
Si Si3 0.648538 0.566367 0.070292
Si Si4 0.037324 0.434122 0.220517
Si Si5 0.414544 0.839844 0.902059
Si Si6 0.527681 0.680938 0.663589
Si Si7 0.353782 0.061279 0.105920
Si Si8 0.849715 0.736674 0.260260
O O1 0.088036 0.833067 0.382735
O O2 0.086230 0.927976 0.245177
O O3 0.000000 0.912122 0.500000
O O4 0.948704 0.866810 0.246492
O O5 0.250000 0.788107 0.368356
O O6 0.395905 0.727754 0.317584
O O7 0.354980 0.762345 0.578212
O O8 0.750000 0.590278 0.084940
O O9 0.659268 0.500000 0.074981
O O10 0.599900 0.576768 0.918214
O O11 0.568275 0.575995 0.183515
O O12 0.048018 0.500000 0.260866
O O13 0.060457 0.382498 0.321534
O O14 0.358676 0.786088 0.855216
O O15 0.500000 0.822360 0.000000
O O16 0.369474 0.888714 0.994479
O O17 0.500000 0.687604 0.500000
O O18 0.438042 0.697717 0.752761
O O19 0.250000 0.062053 0.148231
O O20 0.375085 0.000000 0.043764
O O21 0.750000 0.710485 0.248681
#
# Coordination Sequence:
#
# PCOD9402201 Si02
#       8
#     8   8   8   8   8   8   8   8
#     4  11  19  36  62  88 114 145 197 253 293 345
#     4  10  19  34  59  84 108 144 188 239 297 343
#     4   8  15  31  52  71  94 129 175 223 266 312
#     4   9  18  32  52  77 105 141 182 223 274 339
#     4  10  20  35  61  84 116 153 194 240 293 346
#     4  10  20  35  52  78 114 144 180 230 283 338
#     4  10  23  41  57  82 124 166 198 234 287 349
#     4  10  19  35  58  81 109 147 191 236 289 345
#
# _framework density 19.247505
#
# number of rings (size 3 to 8) (size 9 to 14) (size 15 to 20)
#    0.000    2.250    2.500    1.875    0.000    3.750 
#    2.250    0.000    0.000    1.500    0.000    7.000 
#    0.000    0.000    0.000    0.000    0.000    0.000 
#
# Total GULP energy -356392.021697 kJ/mol
# GULP energy per Si atom -5568.625339 kJ/mol
# Density = 1.920370 g / cm^3
# Si number density = 19.247505 Si / 1000 Ang^3
#
#
#
# Elastic Constant Matrix: (Units=GPa)
#
#
# Indices 1 2 3 4 5 6 
#
# 1 50.4713 28.0016 10.2383 0.0000 0.0000 0.0000
# 2 28.0016 87.0622 13.4005 0.0000 0.0000 0.0000
# 3 10.2383 13.4005 45.8936 0.0000 0.0000 0.0000
# 4 0.0000 0.0000 0.0000 19.4556 0.0000 0.0000
# 5 0.0000 0.0000 0.0000 0.0000 13.8206 0.0000
# 6 0.0000 0.0000 0.0000 0.0000 0.0000 -7.1699
#
#
#
# Elastic Compliance Matrix: (Units=1/GPa)
#
#
# Indices 1 2 3 4 5 6 
#
# 1 0.024592 -0.007398 -0.003326 0.000000 0.000000 0.000000
# 2 -0.007398 0.014252 -0.002511 0.000000 0.000000 0.000000
# 3 -0.003326 -0.002511 0.023265 0.000000 0.000000 0.000000
# 4 0.000000 0.000000 0.000000 0.051399 0.000000 0.000000
# 5 0.000000 0.000000 0.000000 0.000000 0.072356 0.000000
# 6 0.000000 0.000000 0.000000 0.000000 0.000000 -0.139471
#
#
# Mechanical properties :
#
#
# Convention : Reuss Voigt Hill
#
# Bulk Modulus (GPa) = 28.05910 31.85644 29.95777
# Shear Modulus (GPa) = 59.00290 14.00703 36.50496
#
# Velocity S-wave (km/s) = 5.54269 2.70058 4.35973
# Velocity P-wave (km/s) = 7.45463 5.12943 6.39854
#
# Compressibility (1/GPa) = 0.03563907
#
# Stress axis : x y z
#
# Youngs Moduli (GPa) = 40.66335 70.16654 42.98348
#
# Poissons Ratio (x) = 0.51906 0.14297
# Poissons Ratio (y) = 0.30081 0.10794
# Poissons Ratio (z) = 0.13525 0.17620
#
# Static dielectric constant tensor:
#      x y z
#    x 1.714430 0.000000 0.000000 
#    y 0.000000 1.673600 0.000000 
#    z 0.000000 0.000000 1.687910 
# 
# From -- ./inp_files/8714.got.cif
#   From: 2010.05.17/outbox.cif.g08.bks.cpg/sg51_5_cif.got.tgz:8714.got - 2010.06.03 11:52:47.
