data_PCOD9402158
_publ_section_title
;
Structure prediction by ZEFSAII (Michael W. Deem and Ramdas Pophale) SiO2 
 PCOD9402158
Probable space group: P M M A
;
_chemical_formula_sum "Si O2"
_cell_formula_units_Z 64
_cell_length_a 15.776639
_cell_length_b 7.710681
_cell_length_c 25.009434
_cell_angle_alpha 90.000000
_cell_angle_beta 90.000000
_cell_angle_gamma 90.000000
_cell_volume 3042.363398
_symmetry_space_group_name_H-M "P M M A"
_symmetry_group_IT_number 51
_symmetry_cell_setting 'orthorhombic'
loop_
_space_group_symop_operation_xyz
x,y,z
1/2-x,-y,z
1/2+x,-y,-z
-x,y,-z
-x,-y,-z
1/2+x,y,-z
1/2-x,y,z
x,-y,z
loop_
_atom_site_type_symbol
_atom_site_label
_atom_site_fract_x
_atom_site_fract_y
_atom_site_fract_z
Si Si1 0.995377 0.286381 0.809179
Si Si2 0.652720 0.706457 0.887443
Si Si3 0.653007 0.294467 0.121846
Si Si4 0.152410 0.792973 0.995423
Si Si5 0.657836 0.707781 0.612889
Si Si6 0.156762 0.790445 0.620066
Si Si7 0.492600 0.706832 0.312592
Si Si8 0.096870 0.209137 0.504062
O O1 0.995900 0.500000 0.810069
O O2 0.083058 0.227498 0.836828
O O3 0.989530 0.227814 0.747953
O O4 0.914256 0.228691 0.843900
O O5 0.750000 0.776310 0.883939
O O6 0.658863 0.500000 0.880268
O O7 0.617225 0.737552 0.947328
O O8 0.750000 0.223022 0.125311
O O9 0.659745 0.500000 0.130631
O O10 0.618406 0.268585 0.061468
O O11 0.250000 0.728041 0.996123
O O12 0.152296 0.000000 0.994318
O O13 0.750000 0.775579 0.629165
O O14 0.658549 0.500000 0.619370
O O15 0.580754 0.777944 0.648443
O O16 0.643304 0.741727 0.550302
O O17 0.250000 0.730494 0.636619
O O18 0.082443 0.737242 0.659511
O O19 0.137090 0.729399 0.559585
O O20 0.157236 0.000000 0.618587
O O21 0.480394 0.500000 0.309255
O O22 0.000000 0.271193 0.500000
O O23 0.095735 0.000000 0.506213
#
# Coordination Sequence:
#
# PCOD9402158 Si02
#       8
#     8   8   8   8   8   8   8   8
#     4   9  19  34  52  75  99 129 172 215 250 291
#     4   9  17  31  52  75  99 130 167 205 247 297
#     4   9  17  31  51  72  96 128 165 205 248 296
#     4   9  17  30  49  74 104 132 159 199 252 305
#     4  10  21  35  53  80 112 143 174 213 264 317
#     4  10  21  37  56  79 107 138 173 215 264 315
#     4  10  21  37  55  76 105 139 178 221 262 307
#     4  10  19  34  58  82 106 138 175 216 261 312
#
# _framework density 21.036276999999998
#
# number of rings (size 3 to 8) (size 9 to 14) (size 15 to 20)
#    0.000    2.500    1.250    0.750    0.000    4.750 
#    0.000    8.125    0.000    1.500    0.000    1.750 
#    0.000    0.000    0.000    0.000    0.000    0.000 
#
# Total GULP energy -357167.512442 kJ/mol
# GULP energy per Si atom -5580.742382 kJ/mol
# Density = 2.098840 g / cm^3
# Si number density = 21.036277 Si / 1000 Ang^3
#
#
#
# Elastic Constant Matrix: (Units=GPa)
#
#
# Indices 1 2 3 4 5 6 
#
# 1 98.4403 0.2361 35.6239 0.0000 0.0000 0.0000
# 2 0.2361 30.4571 -4.8462 0.0000 0.0000 0.0000
# 3 35.6239 -4.8462 118.7725 0.0000 0.0000 0.0000
# 4 0.0000 0.0000 0.0000 45.7141 0.0000 0.0000
# 5 0.0000 0.0000 0.0000 0.0000 -45.9046 0.0000
# 6 0.0000 0.0000 0.0000 0.0000 0.0000 2.6704
#
#
#
# Elastic Compliance Matrix: (Units=1/GPa)
#
#
# Indices 1 2 3 4 5 6 
#
# 1 0.011408 -0.000637 -0.003448 0.000000 0.000000 0.000000
# 2 -0.000637 0.033083 0.001541 0.000000 0.000000 0.000000
# 3 -0.003448 0.001541 0.009516 0.000000 0.000000 0.000000
# 4 0.000000 0.000000 0.000000 0.021875 0.000000 0.000000
# 5 0.000000 0.000000 0.000000 0.000000 -0.021784 0.000000
# 6 0.000000 0.000000 0.000000 0.000000 0.000000 0.374472
#
#
# Mechanical properties :
#
#
# Convention : Reuss Voigt Hill
#
# Bulk Modulus (GPa) = 20.44154 34.41083 27.42618
# Shear Modulus (GPa) = 11.11201 14.93974 13.02587
#
# Velocity S-wave (km/s) = 2.30082 2.66783 2.49109
# Velocity P-wave (km/s) = 4.09838 5.08754 4.61952
#
# Compressibility (1/GPa) = 0.04892000
#
# Stress axis : x y z
#
# Youngs Moduli (GPa) = 87.66116 30.22683 105.08229
#
# Poissons Ratio (x) = 0.01925 0.36227
# Poissons Ratio (y) = 0.05584 -0.16193
# Poissons Ratio (z) = 0.30221 -0.04658
#
# Static dielectric constant tensor:
#      x y z
#    x 1.774930 0.000000 0.000000 
#    y 0.000000 1.789300 0.000000 
#    z 0.000000 0.000000 1.731760 
# 
# From -- ./inp_files/35678.got.cif
#   From: 2010.05.17/outbox.cif.g08.bks.cpg/sg51_18_cif.got.tgz:35678.got - 2010.06.03 11:52:47.
