data_PCOD9402780
_publ_section_title
;
Structure prediction by ZEFSAII (Michael W. Deem and Ramdas Pophale) SiO2 
 PCOD9402780
Probable space group: P M M A
;
_chemical_formula_sum "Si O2"
_cell_formula_units_Z 56
_cell_length_a 20.758998
_cell_length_b 9.518323
_cell_length_c 15.935568
_cell_angle_alpha 90.000000
_cell_angle_beta 90.000000
_cell_angle_gamma 90.000000
_cell_volume 3148.722396
_symmetry_space_group_name_H-M "P M M A"
_symmetry_group_IT_number 51
_symmetry_cell_setting 'orthorhombic'
loop_
_space_group_symop_operation_xyz
x,y,z
1/2-x,-y,z
1/2+x,-y,-z
-x,y,-z
-x,-y,-z
1/2+x,y,-z
1/2-x,y,z
x,-y,z
loop_
_atom_site_type_symbol
_atom_site_label
_atom_site_fract_x
_atom_site_fract_y
_atom_site_fract_z
Si Si1 0.962442 0.330401 0.915492
Si Si2 0.991747 0.661488 0.728320
Si Si3 0.051378 0.166131 0.428106
Si Si4 0.824914 0.332270 0.979072
Si Si5 0.357484 0.660372 0.695234
Si Si6 0.322465 0.837817 0.534341
Si Si7 0.326522 0.156871 0.856730
O O1 0.970315 0.500000 0.916933
O O2 0.988906 0.284129 0.824541
O O3 0.885462 0.301264 0.918678
O O4 0.000000 0.279390 0.000000
O O5 0.967652 0.500000 0.728640
O O6 0.955812 0.753347 0.659087
O O7 0.065281 0.658531 0.697329
O O8 0.122081 0.185607 0.466697
O O9 0.000000 0.212759 0.500000
O O10 0.039652 0.000000 0.414713
O O11 0.750000 0.296655 0.955531
O O12 0.825551 0.500000 0.994578
O O13 0.844198 0.250272 0.063338
O O14 0.334404 0.500000 0.704482
O O15 0.332531 0.732288 0.611009
O O16 0.338720 0.757064 0.772972
O O17 0.250000 0.823505 0.501035
O O18 0.329904 0.000000 0.564878
O O19 0.250000 0.141847 0.863462
O O20 0.355343 0.000000 0.856142
#
# Coordination Sequence:
#
# PCOD9402780 Si02
#       7
#     8   8   8   8   8   8   8
#     4   9  17  32  53  77 108 141 175 217 268 321
#     4  10  21  35  55  82 108 141 182 225 273 325
#     4  10  20  37  59  80 105 142 184 223 265 320
#     4   9  17  31  52  74  97 132 179 226 268 315
#     4  11  21  32  50  77 107 138 176 221 270 326
#     4  10  21  37  56  78 107 142 178 220 273 325
#     4  10  20  32  47  70 103 141 177 216 269 330
#
# _framework density 17.784991000000002
#
# number of rings (size 3 to 8) (size 9 to 14) (size 15 to 20)
#    0.000    2.143    1.429    2.143    0.000    6.571 
#    0.000    1.429    0.000    2.571    0.000    0.000 
#    0.000    0.000    0.000    0.000    0.000    0.000 
#
# Total GULP energy -312052.721788 kJ/mol
# GULP energy per Si atom -5572.370032 kJ/mol
# Density = 1.774451 g / cm^3
# Si number density = 17.784991 Si / 1000 Ang^3
#
#
#
# Elastic Constant Matrix: (Units=GPa)
#
#
# Indices 1 2 3 4 5 6 
#
# 1 77.0831 23.0122 45.0361 0.0000 0.0000 0.0000
# 2 23.0122 37.4440 30.8431 0.0000 0.0000 0.0000
# 3 45.0361 30.8431 89.1949 0.0000 0.0000 0.0000
# 4 0.0000 0.0000 0.0000 190.3600 0.0000 0.0000
# 5 0.0000 0.0000 0.0000 0.0000 28.3244 0.0000
# 6 0.0000 0.0000 0.0000 0.0000 0.0000 16.8367
#
#
#
# Elastic Compliance Matrix: (Units=1/GPa)
#
#
# Indices 1 2 3 4 5 6 
#
# 1 0.019129 -0.005314 -0.007821 0.000000 0.000000 0.000000
# 2 -0.005314 0.038819 -0.010740 0.000000 0.000000 0.000000
# 3 -0.007821 -0.010740 0.018874 0.000000 0.000000 0.000000
# 4 0.000000 0.000000 0.000000 0.005253 0.000000 0.000000
# 5 0.000000 0.000000 0.000000 0.000000 0.035305 0.000000
# 6 0.000000 0.000000 0.000000 0.000000 0.000000 0.059394
#
#
# Mechanical properties :
#
#
# Convention : Reuss Voigt Hill
#
# Bulk Modulus (GPa) = 34.39746 44.61164 39.50455
# Shear Modulus (GPa) = 21.34779 54.09292 37.72035
#
# Velocity S-wave (km/s) = 3.46833 5.52096 4.61033
# Velocity P-wave (km/s) = 5.95162 8.11046 7.11342
#
# Compressibility (1/GPa) = 0.02907192
#
# Stress axis : x y z
#
# Youngs Moduli (GPa) = 52.27706 25.76034 52.98197
#
# Poissons Ratio (x) = 0.13689 0.41437
# Poissons Ratio (y) = 0.27780 0.56905
# Poissons Ratio (z) = 0.40886 0.27668
#
# Static dielectric constant tensor:
#      x y z
#    x 1.625280 0.000000 0.000000 
#    y 0.000000 1.628100 0.000000 
#    z 0.000000 0.000000 1.587880 
# 
# From -- ./inp_files/25658.got.cif
#   From: 2010.05.17/outbox.cif.g08.bks.cpg/sg51_13_cif.got.tgz:25658.got - 2010.06.03 11:52:47.
