data_PCOD9402714
_publ_section_title
;
Structure prediction by ZEFSAII (Michael W. Deem and Ramdas Pophale) SiO2 
 PCOD9402714
Probable space group: P M M A
;
_chemical_formula_sum "Si O2"
_cell_formula_units_Z 40
_cell_length_a 22.850178
_cell_length_b 7.420383
_cell_length_c 11.720432
_cell_angle_alpha 90.000000
_cell_angle_beta 90.000000
_cell_angle_gamma 90.000000
_cell_volume 1987.282137
_symmetry_space_group_name_H-M "P M M A"
_symmetry_group_IT_number 51
_symmetry_cell_setting 'orthorhombic'
loop_
_space_group_symop_operation_xyz
x,y,z
1/2-x,-y,z
1/2+x,-y,-z
-x,y,-z
-x,-y,-z
1/2+x,y,-z
1/2-x,y,z
x,-y,z
loop_
_atom_site_type_symbol
_atom_site_label
_atom_site_fract_x
_atom_site_fract_y
_atom_site_fract_z
Si Si1 0.084506 0.219442 0.557711
Si Si2 0.184824 0.782076 0.723725
Si Si3 0.683894 0.291512 0.011358
Si Si4 0.037487 0.782158 0.324352
Si Si5 0.441774 0.708192 0.062741
O O1 0.138448 0.282349 0.632170
O O2 0.081197 0.275584 0.425779
O O3 0.025761 0.270114 0.625541
O O4 0.084983 0.000000 0.555594
O O5 0.250000 0.733158 0.687884
O O6 0.176066 0.714631 0.851995
O O7 0.180914 0.000000 0.730324
O O8 0.750000 0.215802 0.988094
O O9 0.686280 0.500000 0.973495
O O10 0.622971 0.212329 0.962725
O O11 0.048310 0.712815 0.198174
O O12 0.038825 0.000000 0.316793
O O13 0.438402 0.500000 0.022715
O O14 0.500000 0.785520 0.000000
#
# Coordination Sequence:
#
# PCOD9402714 Si02
#       5
#     8   8   8   8   8
#     4   8  15  29  46  65  90 116 142 177 223 266
#     4   9  16  27  46  69  89 111 144 185 222 257
#     4   9  18  32  47  63  89 123 150 176 219 269
#     4   9  17  30  48  66  87 118 150 178 214 265
#     4  10  20  32  46  67  93 117 146 187 227 258
#
# _framework density 20.127991999999999
#
# number of rings (size 3 to 8) (size 9 to 14) (size 15 to 20)
#    0.000    3.000    0.000    2.400    0.000    1.200 
#    0.000    4.000    0.000    1.200    0.000    0.000 
#    0.000    0.000    0.000    0.000    0.000    0.000 
#
# Total GULP energy -222895.700574 kJ/mol
# GULP energy per Si atom -5572.392514 kJ/mol
# Density = 2.008218 g / cm^3
# Si number density = 20.127992 Si / 1000 Ang^3
#
#
#
# Elastic Constant Matrix: (Units=GPa)
#
#
# Indices 1 2 3 4 5 6 
#
# 1 154.3110 8.5481 87.6626 0.0000 0.0000 0.0000
# 2 8.5481 62.6986 -6.9606 0.0000 0.0000 0.0000
# 3 87.6626 -6.9606 113.8373 0.0000 0.0000 0.0000
# 4 0.0000 0.0000 0.0000 22.9113 0.0000 0.0000
# 5 0.0000 0.0000 0.0000 0.0000 37.4709 0.0000
# 6 0.0000 0.0000 0.0000 0.0000 0.0000 8.4805
#
#
#
# Elastic Compliance Matrix: (Units=1/GPa)
#
#
# Indices 1 2 3 4 5 6 
#
# 1 0.011948 -0.002668 -0.009364 0.000000 0.000000 0.000000
# 2 -0.002668 0.016654 0.003073 0.000000 0.000000 0.000000
# 3 -0.009364 0.003073 0.016183 0.000000 0.000000 0.000000
# 4 0.000000 0.000000 0.000000 0.043647 0.000000 0.000000
# 5 0.000000 0.000000 0.000000 0.000000 0.026687 0.000000
# 6 0.000000 0.000000 0.000000 0.000000 0.000000 0.117917
#
#
# Mechanical properties :
#
#
# Convention : Reuss Voigt Hill
#
# Bulk Modulus (GPa) = 37.22012 56.59415 46.90713
# Shear Modulus (GPa) = 19.23747 29.87900 24.55824
#
# Velocity S-wave (km/s) = 3.09489 3.85704 3.49679
# Velocity P-wave (km/s) = 5.59490 6.92920 6.29749
#
# Compressibility (1/GPa) = 0.02686719
#
# Stress axis : x y z
#
# Youngs Moduli (GPa) = 83.69840 60.04456 61.79299
#
# Poissons Ratio (x) = 0.16022 0.57861
# Poissons Ratio (y) = 0.22334 -0.18990
# Poissons Ratio (z) = 0.78373 -0.18453
#
# Static dielectric constant tensor:
#      x y z
#    x 1.747080 0.000000 0.000000 
#    y 0.000000 1.781780 0.000000 
#    z 0.000000 0.000000 1.653850 
# 
# From -- ./inp_files/10626.got.cif
#   From: 2010.05.17/outbox.cif.g08.bks.cpg/sg51_6_cif.got.tgz:10626.got - 2010.06.03 11:52:47.
