data_PCOD9402709
_publ_section_title
;
Structure prediction by ZEFSAII (Michael W. Deem and Ramdas Pophale) SiO2 
 PCOD9402709
Probable space group: P M M A
;
_chemical_formula_sum "Si O2"
_cell_formula_units_Z 52
_cell_length_a 8.914861
_cell_length_b 20.275619
_cell_length_c 15.719880
_cell_angle_alpha 90.000000
_cell_angle_beta 90.000000
_cell_angle_gamma 90.000000
_cell_volume 2841.436300
_symmetry_space_group_name_H-M "P M M A"
_symmetry_group_IT_number 51
_symmetry_cell_setting 'orthorhombic'
loop_
_space_group_symop_operation_xyz
x,y,z
1/2-x,-y,z
1/2+x,-y,-z
-x,y,-z
-x,-y,-z
1/2+x,y,-z
1/2-x,y,z
x,-y,z
loop_
_atom_site_type_symbol
_atom_site_label
_atom_site_fract_x
_atom_site_fract_y
_atom_site_fract_z
Si Si1 0.427132 0.930505 0.092098
Si Si2 0.073334 0.420680 0.090714
Si Si3 0.068873 0.331222 0.767302
Si Si4 0.584048 0.189892 0.173367
Si Si5 0.919622 0.852479 0.368283
Si Si6 0.070631 0.717138 0.410812
Si Si7 0.431264 0.000000 0.593074
O O1 0.250000 0.931227 0.085031
O O2 0.476759 0.862999 0.133119
O O3 0.474445 0.000000 0.136542
O O4 0.500000 0.931875 0.000000
O O5 0.250000 0.403809 0.090425
O O6 0.059318 0.500000 0.095092
O O7 0.995029 0.389388 0.173932
O O8 0.000000 0.399842 0.000000
O O9 0.250000 0.335081 0.758104
O O10 0.034245 0.265170 0.822018
O O11 0.997439 0.319023 0.673458
O O12 0.750000 0.185747 0.133564
O O13 0.596000 0.167854 0.270829
O O14 0.750000 0.849420 0.406763
O O15 0.023576 0.794751 0.405233
O O16 0.975808 0.927995 0.370879
O O17 0.250000 0.710836 0.411011
O O18 0.000000 0.692348 0.500000
O O19 0.500000 0.000000 0.500000
O O20 0.250000 0.000000 0.594560
#
# Coordination Sequence:
#
# PCOD9402709 Si02
#       7
#     8   8   8   8   8   8   4
#     4  10  21  35  50  69  93 126 171 221 272 331
#     4  10  21  38  62  93 127 162 196 229 273 330
#     4  10  21  38  59  86 117 150 193 237 282 337
#     4   9  19  34  53  74  99 132 172 220 272 325
#     4   9  19  34  50  71  98 132 176 222 277 339
#     4  11  21  35  56  80 110 148 190 238 290 343
#     4  10  20  32  46  66  93 126 165 212 267 326
#
# _framework density 18.300605000000001
#
# number of rings (size 3 to 8) (size 9 to 14) (size 15 to 20)
#    0.000    2.154    0.000    4.154    1.077    7.385 
#    0.000    0.000    0.000    0.462    0.000    0.000 
#    0.000    0.000    0.000    0.000    0.000    0.000 
#
# Total GULP energy -289657.938130 kJ/mol
# GULP energy per Si atom -5570.344964 kJ/mol
# Density = 1.825895 g / cm^3
# Si number density = 18.300605 Si / 1000 Ang^3
#
#
#
# Elastic Constant Matrix: (Units=GPa)
#
#
# Indices 1 2 3 4 5 6 
#
# 1 99.1049 39.1093 54.6207 0.0000 0.0000 0.0000
# 2 39.1093 57.3758 38.2937 0.0000 0.0000 0.0000
# 3 54.6207 38.2937 80.2661 0.0000 0.0000 0.0000
# 4 0.0000 0.0000 0.0000 77.1680 0.0000 0.0000
# 5 0.0000 0.0000 0.0000 0.0000 31.9928 0.0000
# 6 0.0000 0.0000 0.0000 0.0000 0.0000 24.9818
#
#
#
# Elastic Compliance Matrix: (Units=1/GPa)
#
#
# Indices 1 2 3 4 5 6 
#
# 1 0.017367 -0.005796 -0.009053 0.000000 0.000000 0.000000
# 2 -0.005796 0.027505 -0.009178 0.000000 0.000000 0.000000
# 3 -0.009053 -0.009178 0.022998 0.000000 0.000000 0.000000
# 4 0.000000 0.000000 0.000000 0.012959 0.000000 0.000000
# 5 0.000000 0.000000 0.000000 0.000000 0.031257 0.000000
# 6 0.000000 0.000000 0.000000 0.000000 0.000000 0.040029
#
#
# Mechanical properties :
#
#
# Convention : Reuss Voigt Hill
#
# Bulk Modulus (GPa) = 50.46453 55.64381 53.05417
# Shear Modulus (GPa) = 24.18084 33.81004 28.99544
#
# Velocity S-wave (km/s) = 3.63893 4.30290 3.98477
# Velocity P-wave (km/s) = 6.72986 7.42684 7.08692
#
# Compressibility (1/GPa) = 0.01981590
#
# Stress axis : x y z
#
# Youngs Moduli (GPa) = 57.58055 36.35652 43.48192
#
# Poissons Ratio (x) = 0.21071 0.39365
# Poissons Ratio (y) = 0.33372 0.39910
# Poissons Ratio (z) = 0.52128 0.33370
#
# Static dielectric constant tensor:
#      x y z
#    x 1.643920 0.000000 0.000000 
#    y 0.000000 1.695220 0.000000 
#    z 0.000000 0.000000 1.627320 
# 
# From -- ./inp_files/21648.got.cif
#   From: 2010.05.17/outbox.cif.g08.bks.cpg/sg51_11_cif.got.tgz:21648.got - 2010.06.03 11:52:47.
