data_PCOD9402711
_publ_section_title
;
Structure prediction by ZEFSAII (Michael W. Deem and Ramdas Pophale) SiO2 
 PCOD9402711
Probable space group: P M M A
;
_chemical_formula_sum "Si O2"
_cell_formula_units_Z 64
_cell_length_a 19.306467
_cell_length_b 9.244074
_cell_length_c 19.616335
_cell_angle_alpha 90.000000
_cell_angle_beta 90.000000
_cell_angle_gamma 90.000000
_cell_volume 3500.935343
_symmetry_space_group_name_H-M "P M M A"
_symmetry_group_IT_number 51
_symmetry_cell_setting 'orthorhombic'
loop_
_space_group_symop_operation_xyz
x,y,z
1/2-x,-y,z
1/2+x,-y,-z
-x,y,-z
-x,-y,-z
1/2+x,y,-z
1/2-x,y,z
x,-y,z
loop_
_atom_site_type_symbol
_atom_site_label
_atom_site_fract_x
_atom_site_fract_y
_atom_site_fract_z
Si Si1 0.523901 0.164768 0.795573
Si Si2 0.166757 0.832259 0.997858
Si Si3 0.564821 0.176593 0.650421
Si Si4 0.830617 0.658556 0.132184
Si Si5 0.670066 0.823322 0.535819
Si Si6 0.952268 0.672666 0.934763
Si Si7 0.585291 0.175182 0.403594
Si Si8 0.633581 0.163087 0.258105
O O1 0.566119 0.221956 0.729667
O O2 0.524270 0.259607 0.863226
O O3 0.446293 0.156457 0.765758
O O4 0.546122 0.000000 0.812126
O O5 0.250000 0.820626 0.005441
O O6 0.124037 0.734587 0.049698
O O7 0.148108 0.000000 0.004989
O O8 0.144521 0.774318 0.923043
O O9 0.630164 0.219015 0.604825
O O10 0.493158 0.224449 0.613172
O O11 0.562008 0.000000 0.652352
O O12 0.750000 0.642391 0.115790
O O13 0.864411 0.500000 0.125451
O O14 0.834290 0.721895 0.207500
O O15 0.750000 0.776187 0.531936
O O16 0.622929 0.774256 0.471936
O O17 0.670637 0.000000 0.533860
O O18 0.951937 0.500000 0.930980
O O19 0.000000 0.714513 0.000000
O O20 0.631926 0.205400 0.337076
O O21 0.580737 0.000000 0.408098
O O22 0.662520 0.000000 0.250448
#
# Coordination Sequence:
#
# PCOD9402711 Si02
#       8
#     8   8   8   8   8   8   8   8
#     4   9  18  32  49  70  96 127 165 206 247 294
#     4  10  21  37  56  76  98 129 169 209 251 300
#     4   8  14  26  42  59  86 125 162 196 240 293
#     4  10  20  32  46  66  95 130 163 196 240 296
#     4   9  15  22  36  62  94 124 155 197 247 292
#     4  11  23  36  53  79 107 134 165 205 256 308
#     4   8  14  24  39  61  89 122 158 195 241 294
#     4   9  17  29  46  68  94 126 164 205 245 287
#
# _framework density 18.280829000000001
#
# number of rings (size 3 to 8) (size 9 to 14) (size 15 to 20)
#    0.000    2.750    0.000    3.750    0.000    7.000 
#    0.000    1.875    0.000    2.250    0.000    0.875 
#    0.000    5.000    0.000    0.000    0.000    0.000 
#
# Total GULP energy -356514.984446 kJ/mol
# GULP energy per Si atom -5570.546632 kJ/mol
# Density = 1.823922 g / cm^3
# Si number density = 18.280829 Si / 1000 Ang^3
#
#
#
# Elastic Constant Matrix: (Units=GPa)
#
#
# Indices 1 2 3 4 5 6 
#
# 1 54.3938 18.4206 40.9427 0.0000 0.0000 0.0000
# 2 18.4206 40.4452 37.2122 0.0000 0.0000 0.0000
# 3 40.9427 37.2122 133.2664 0.0000 0.0000 0.0000
# 4 0.0000 0.0000 0.0000 -7.2698 0.0000 0.0000
# 5 0.0000 0.0000 0.0000 0.0000 22.7519 0.0000
# 6 0.0000 0.0000 0.0000 0.0000 0.0000 7.2976
#
#
#
# Elastic Compliance Matrix: (Units=1/GPa)
#
#
# Indices 1 2 3 4 5 6 
#
# 1 0.024882 -0.005785 -0.006029 0.000000 0.000000 0.000000
# 2 -0.005785 0.034618 -0.007889 0.000000 0.000000 0.000000
# 3 -0.006029 -0.007889 0.011559 0.000000 0.000000 0.000000
# 4 0.000000 0.000000 0.000000 -0.137555 0.000000 0.000000
# 5 0.000000 0.000000 0.000000 0.000000 0.043952 0.000000
# 6 0.000000 0.000000 0.000000 0.000000 0.000000 0.137032
#
#
# Mechanical properties :
#
#
# Convention : Reuss Voigt Hill
#
# Bulk Modulus (GPa) = 31.59340 46.80626 39.19983
# Shear Modulus (GPa) = 30.40525 13.32459 21.86492
#
# Velocity S-wave (km/s) = 4.08270 2.70271 3.46216
# Velocity P-wave (km/s) = 6.28843 5.94972 6.12142
#
# Compressibility (1/GPa) = 0.03165218
#
# Stress axis : x y z
#
# Youngs Moduli (GPa) = 40.19032 28.88651 86.51383
#
# Poissons Ratio (x) = 0.16712 0.52157
# Poissons Ratio (y) = 0.23252 0.68252
# Poissons Ratio (z) = 0.24230 0.22789
#
# Static dielectric constant tensor:
#      x y z
#    x 1.670040 0.000000 0.000000 
#    y 0.000000 1.621650 0.000000 
#    z 0.000000 0.000000 1.647840 
# 
# From -- ./inp_files/30657.got.cif
#   From: 2010.05.17/outbox.cif.g08.bks.cpg/sg51_16_cif.got.tgz:30657.got - 2010.06.03 11:52:47.
