data_PCOD9402205
_publ_section_title
;
Structure prediction by ZEFSAII (Michael W. Deem and Ramdas Pophale) SiO2 
 PCOD9402205
Probable space group: P M M A
;
_chemical_formula_sum "Si O2"
_cell_formula_units_Z 56
_cell_length_a 19.231733
_cell_length_b 16.372706
_cell_length_c 8.857917
_cell_angle_alpha 90.000000
_cell_angle_beta 90.000000
_cell_angle_gamma 90.000000
_cell_volume 2789.141135
_symmetry_space_group_name_H-M "P M M A"
_symmetry_group_IT_number 51
_symmetry_cell_setting 'orthorhombic'
loop_
_space_group_symop_operation_xyz
x,y,z
1/2-x,-y,z
1/2+x,-y,-z
-x,y,-z
-x,-y,-z
1/2+x,y,-z
1/2-x,y,z
x,-y,z
loop_
_atom_site_type_symbol
_atom_site_label
_atom_site_fract_x
_atom_site_fract_y
_atom_site_fract_z
Si Si1 0.463616 0.589436 0.337080
Si Si2 0.027772 0.256611 0.832417
Si Si3 0.471928 0.093020 0.329262
Si Si4 0.667158 0.089686 0.124794
Si Si5 0.169446 0.241099 0.700221
Si Si6 0.170338 0.318249 0.371942
Si Si7 0.167577 0.847004 0.204742
O O1 0.500000 0.589777 0.500000
O O2 0.475865 0.500000 0.267686
O O3 0.491792 0.667850 0.250668
O O4 0.382312 0.607995 0.356414
O O5 0.109833 0.274168 0.809985
O O6 0.007034 0.169030 0.759198
O O7 0.000000 0.254749 0.000000
O O8 0.500000 0.098751 0.500000
O O9 0.388729 0.107602 0.309481
O O10 0.486007 0.000000 0.275591
O O11 0.750000 0.082266 0.107646
O O12 0.646121 0.132718 0.967762
O O13 0.636229 0.000000 0.135874
O O14 0.659189 0.144373 0.273219
O O15 0.250000 0.259698 0.740064
O O16 0.156765 0.272034 0.531527
O O17 0.250000 0.344734 0.372189
O O18 0.161483 0.248649 0.244545
O O19 0.250000 0.868550 0.227776
#
# Coordination Sequence:
#
# PCOD9402205 Si02
#       7
#     8   8   8   8   8   8   8
#     4  11  23  43  69  92 120 159 199 249 314 381
#     4  12  24  40  65  93 126 168 208 255 314 368
#     4  11  23  38  58  86 125 170 211 259 311 359
#     4   9  18  33  53  81 118 159 206 254 295 348
#     4  10  21  37  59  87 122 163 207 253 308 368
#     4  10  20  37  63  93 121 157 206 257 312 369
#     4  10  19  34  59  86 115 159 208 253 305 363
#
# _framework density 20.077864000000002
#
# number of rings (size 3 to 8) (size 9 to 14) (size 15 to 20)
#    0.000    1.571    2.857    2.571    0.000    2.286 
#    0.000    1.429    0.000    8.143    0.000    0.000 
#    0.000    0.000    0.000    0.000    0.000    0.000 
#
# Total GULP energy -312384.824670 kJ/mol
# GULP energy per Si atom -5578.300441 kJ/mol
# Density = 2.003217 g / cm^3
# Si number density = 20.077864 Si / 1000 Ang^3
#
#
#
# Elastic Constant Matrix: (Units=GPa)
#
#
# Indices 1 2 3 4 5 6 
#
# 1 95.6331 38.3461 16.0411 0.0000 0.0000 0.0000
# 2 38.3461 114.6017 34.2114 0.0000 0.0000 0.0000
# 3 16.0411 34.2114 42.1300 0.0000 0.0000 0.0000
# 4 0.0000 0.0000 0.0000 -10.6067 0.0000 0.0000
# 5 0.0000 0.0000 0.0000 0.0000 20.8069 0.0000
# 6 0.0000 0.0000 0.0000 0.0000 0.0000 -24.4836
#
#
#
# Elastic Compliance Matrix: (Units=1/GPa)
#
#
# Indices 1 2 3 4 5 6 
#
# 1 0.012174 -0.003550 -0.001752 0.000000 0.000000 0.000000
# 2 -0.003550 0.012553 -0.008842 0.000000 0.000000 0.000000
# 3 -0.001752 -0.008842 0.031583 0.000000 0.000000 0.000000
# 4 0.000000 0.000000 0.000000 -0.094280 0.000000 0.000000
# 5 0.000000 0.000000 0.000000 0.000000 0.048061 0.000000
# 6 0.000000 0.000000 0.000000 0.000000 0.000000 -0.040844
#
#
# Mechanical properties :
#
#
# Convention : Reuss Voigt Hill
#
# Bulk Modulus (GPa) = 35.68693 47.72911 41.70802
# Shear Modulus (GPa) = 726.91178 8.06108 367.48643
#
# Velocity S-wave (km/s) = 19.04816 2.00590 13.54356
# Velocity P-wave (km/s) = 22.39619 5.40263 16.29076
#
# Compressibility (1/GPa) = 0.02802146
#
# Stress axis : x y z
#
# Youngs Moduli (GPa) = 82.14125 79.65940 31.66218
#
# Poissons Ratio (x) = 0.28282 0.05548
# Poissons Ratio (y) = 0.29164 0.27996
# Poissons Ratio (z) = 0.14393 0.70436
#
# Static dielectric constant tensor:
#      x y z
#    x 1.775380 0.000000 0.000000 
#    y 0.000000 1.709930 0.000000 
#    z 0.000000 0.000000 1.688890 
# 
# From -- ./inp_files/11027.got.cif
#   From: 2010.05.17/outbox.cif.g08.bks.cpg/sg51_6_cif.got.tgz:11027.got - 2010.06.03 11:52:47.
