data_PCOD9402923
_publ_section_title
;
Structure prediction by ZEFSAII (Michael W. Deem and Ramdas Pophale) SiO2 
 PCOD9402923
Probable space group: P M M A
;
_chemical_formula_sum "Si O2"
_cell_formula_units_Z 64
_cell_length_a 24.644093
_cell_length_b 8.897338
_cell_length_c 16.580545
_cell_angle_alpha 90.000000
_cell_angle_beta 90.000000
_cell_angle_gamma 90.000000
_cell_volume 3635.563461
_symmetry_space_group_name_H-M "P M M A"
_symmetry_group_IT_number 51
_symmetry_cell_setting 'orthorhombic'
loop_
_space_group_symop_operation_xyz
x,y,z
1/2-x,-y,z
1/2+x,-y,-z
-x,y,-z
-x,-y,-z
1/2+x,y,-z
1/2-x,y,z
x,-y,z
loop_
_atom_site_type_symbol
_atom_site_label
_atom_site_fract_x
_atom_site_fract_y
_atom_site_fract_z
Si Si1 0.440080 0.680690 0.526735
Si Si2 0.311826 0.318313 0.972798
Si Si3 0.896055 0.176749 0.627999
Si Si4 0.312827 0.673342 0.265277
Si Si5 0.687939 0.179840 0.204892
Si Si6 0.608473 0.676368 0.887044
Si Si7 0.914876 0.680877 0.289834
Si Si8 0.522974 0.819718 0.773476
O O1 0.500000 0.732638 0.500000
O O2 0.439655 0.500000 0.525500
O O3 0.401713 0.741529 0.456811
O O4 0.425760 0.727840 0.617321
O O5 0.250000 0.284061 0.002417
O O6 0.314746 0.500000 0.965548
O O7 0.317940 0.242931 0.885848
O O8 0.360127 0.270940 0.032856
O O9 0.839806 0.217847 0.670303
O O10 0.941900 0.226284 0.693639
O O11 0.902249 0.000000 0.616686
O O12 0.250000 0.702822 0.251857
O O13 0.319373 0.500000 0.292710
O O14 0.346032 0.687243 0.182695
O O15 0.750000 0.213983 0.230719
O O16 0.642209 0.256091 0.259205
O O17 0.681232 0.000000 0.204871
O O18 0.594263 0.500000 0.896470
O O19 0.556813 0.763570 0.851208
O O20 0.915593 0.500000 0.285487
O O21 0.964134 0.746501 0.236518
O O22 0.519331 0.000000 0.774453
#
# Coordination Sequence:
#
# PCOD9402923 Si02
#       8
#     8   8   8   8   8   8   8   8
#     4  10  20  35  56  81 106 133 174 221 264 313
#     4   9  17  32  56  83 109 140 183 230 270 314
#     4  10  20  32  49  75 107 141 175 215 262 312
#     4   9  17  30  49  72 103 144 183 218 260 310
#     4  10  22  40  60  82 110 142 175 217 270 323
#     4   9  17  30  51  79 110 142 181 225 266 310
#     4  11  22  37  60  84 106 137 177 223 270 318
#     4  10  20  33  50  77 113 147 177 213 263 321
#
# _framework density 17.603874999999999
#
# number of rings (size 3 to 8) (size 9 to 14) (size 15 to 20)
#    0.000    2.250    1.250    1.875    0.000    5.250 
#    0.000    1.250    0.000    6.750    0.000    0.000 
#    0.000    0.000    0.000    0.000    0.000    0.000 
#
# Total GULP energy -356966.386870 kJ/mol
# GULP energy per Si atom -5577.599795 kJ/mol
# Density = 1.756381 g / cm^3
# Si number density = 17.603875 Si / 1000 Ang^3
#
#
#
# Elastic Constant Matrix: (Units=GPa)
#
#
# Indices 1 2 3 4 5 6 
#
# 1 109.1884 44.2190 56.2301 0.0000 0.0000 0.0000
# 2 44.2190 34.4429 33.5045 0.0000 0.0000 0.0000
# 3 56.2301 33.5045 82.9445 0.0000 0.0000 0.0000
# 4 0.0000 0.0000 0.0000 9.0622 0.0000 0.0000
# 5 0.0000 0.0000 0.0000 0.0000 27.3711 0.0000
# 6 0.0000 0.0000 0.0000 0.0000 0.0000 23.7719
#
#
#
# Elastic Compliance Matrix: (Units=1/GPa)
#
#
# Indices 1 2 3 4 5 6 
#
# 1 0.020429 -0.021012 -0.005362 0.000000 0.000000 0.000000
# 2 -0.021012 0.069437 -0.013804 0.000000 0.000000 0.000000
# 3 -0.005362 -0.013804 0.021267 0.000000 0.000000 0.000000
# 4 0.000000 0.000000 0.000000 0.110348 0.000000 0.000000
# 5 0.000000 0.000000 0.000000 0.000000 0.036535 0.000000
# 6 0.000000 0.000000 0.000000 0.000000 0.000000 0.042066
#
#
# Mechanical properties :
#
#
# Convention : Reuss Voigt Hill
#
# Bulk Modulus (GPa) = 32.49068 54.94254 43.71661
# Shear Modulus (GPa) = 12.79766 18.21587 15.50676
#
# Velocity S-wave (km/s) = 2.69918 3.22027 2.97117
# Velocity P-wave (km/s) = 5.31138 6.71603 6.05458
#
# Compressibility (1/GPa) = 0.03077806
#
# Stress axis : x y z
#
# Youngs Moduli (GPa) = 48.94980 14.40159 47.02093
#
# Poissons Ratio (x) = 0.30260 0.25212
# Poissons Ratio (y) = 1.02852 0.64907
# Poissons Ratio (z) = 0.26247 0.19880
#
# Static dielectric constant tensor:
#      x y z
#    x 1.601170 0.000000 0.000000 
#    y 0.000000 1.591180 0.000000 
#    z 0.000000 0.000000 1.591110 
# 
# From -- ./inp_files/26253.got.cif
#   From: 2010.05.17/outbox.cif.g08.bks.cpg/sg51_14_cif.got.tgz:26253.got - 2010.06.03 11:52:47.
