data_PCOD9402995
_publ_section_title
;
Structure prediction by ZEFSAII (Michael W. Deem and Ramdas Pophale) SiO2 
 PCOD9402995
Probable space group: P M M A
;
_chemical_formula_sum "Si O2"
_cell_formula_units_Z 64
_cell_length_a 22.190140
_cell_length_b 14.220211
_cell_length_c 9.878762
_cell_angle_alpha 90.000000
_cell_angle_beta 90.000000
_cell_angle_gamma 90.000000
_cell_volume 3117.228263
_symmetry_space_group_name_H-M "P M M A"
_symmetry_group_IT_number 51
_symmetry_cell_setting 'orthorhombic'
loop_
_space_group_symop_operation_xyz
x,y,z
1/2-x,-y,z
1/2+x,-y,-z
-x,y,-z
-x,-y,-z
1/2+x,y,-z
1/2-x,y,z
x,-y,z
loop_
_atom_site_type_symbol
_atom_site_label
_atom_site_fract_x
_atom_site_fract_y
_atom_site_fract_z
Si Si1 0.885791 0.605654 0.355596
Si Si2 0.926677 0.303721 0.612965
Si Si3 0.492161 0.390033 0.844141
Si Si4 0.101457 0.894144 0.486105
Si Si5 0.823071 0.746047 0.995289
Si Si6 0.179034 0.210868 0.700655
Si Si7 0.319778 0.895551 0.218694
Si Si8 0.822051 0.390600 0.774327
O O1 0.862463 0.500000 0.368131
O O2 0.929803 0.629462 0.481383
O O3 0.924956 0.613413 0.218227
O O4 0.835181 0.685608 0.358648
O O5 0.936428 0.197593 0.559882
O O6 0.859500 0.326483 0.670856
O O7 0.968417 0.330935 0.738395
O O8 0.511122 0.500000 0.837600
O O9 0.500000 0.359444 0.000000
O O10 0.138206 0.862585 0.619054
O O11 0.147982 0.898157 0.361483
O O12 0.075502 0.000000 0.500590
O O13 0.750000 0.749401 0.999934
O O14 0.845689 0.821701 0.886684
O O15 0.837533 0.645960 0.926326
O O16 0.841158 0.777456 0.143882
O O17 0.250000 0.188689 0.691748
O O18 0.250000 0.871765 0.241277
O O19 0.322879 0.000000 0.158237
O O20 0.750000 0.380042 0.755688
O O21 0.837614 0.500000 0.756959
#
# Coordination Sequence:
#
# PCOD9402995 Si02
#       8
#     8   8   8   8   8   8   8   8
#     4  10  22  38  57  84 118 153 195 243 290 350
#     4  11  21  37  61  84 115 154 196 245 300 357
#     4  10  22  39  62  90 117 153 201 250 302 361
#     4  10  21  36  56  83 113 150 196 243 294 350
#     4   9  18  32  47  71 108 149 192 234 280 339
#     4  10  22  36  54  82 119 158 193 235 295 357
#     4   9  16  28  48  71  98 137 185 232 276 327
#     4  10  20  32  51  82 118 156 196 237 288 355
#
# _framework density 20.531058999999999
#
# number of rings (size 3 to 8) (size 9 to 14) (size 15 to 20)
#    0.000    2.125    1.250    1.875    1.750    5.000 
#    0.000    2.500    0.000    6.375    0.000    0.000 
#    0.000    0.000    0.000    0.000    0.000    0.000 
#
# Total GULP energy -356895.885549 kJ/mol
# GULP energy per Si atom -5576.498212 kJ/mol
# Density = 2.048433 g / cm^3
# Si number density = 20.531059 Si / 1000 Ang^3
#
#
#
# Elastic Constant Matrix: (Units=GPa)
#
#
# Indices 1 2 3 4 5 6 
#
# 1 39.0430 15.9209 20.1123 0.0000 0.0000 0.0000
# 2 15.9209 113.7849 37.8251 0.0000 0.0000 0.0000
# 3 20.1123 37.8251 136.7144 0.0000 0.0000 0.0000
# 4 0.0000 0.0000 0.0000 23.6713 0.0000 0.0000
# 5 0.0000 0.0000 0.0000 0.0000 25.0830 0.0000
# 6 0.0000 0.0000 0.0000 0.0000 0.0000 4.1129
#
#
#
# Elastic Compliance Matrix: (Units=1/GPa)
#
#
# Indices 1 2 3 4 5 6 
#
# 1 0.028534 -0.002860 -0.003406 0.000000 0.000000 0.000000
# 2 -0.002860 0.009965 -0.002336 0.000000 0.000000 0.000000
# 3 -0.003406 -0.002336 0.008462 0.000000 0.000000 0.000000
# 4 0.000000 0.000000 0.000000 0.042245 0.000000 0.000000
# 5 0.000000 0.000000 0.000000 0.000000 0.039868 0.000000
# 6 0.000000 0.000000 0.000000 0.000000 0.000000 0.243140
#
#
# Mechanical properties :
#
#
# Convention : Reuss Voigt Hill
#
# Bulk Modulus (GPa) = 33.60721 48.58433 41.09577
# Shear Modulus (GPa) = 12.52071 24.95236 18.73653
#
# Velocity S-wave (km/s) = 2.47218 3.48996 3.02420
# Velocity P-wave (km/s) = 4.95514 6.32100 5.67928
#
# Compressibility (1/GPa) = 0.02975552
#
# Stress axis : x y z
#
# Youngs Moduli (GPa) = 35.04617 100.34739 118.17469
#
# Poissons Ratio (x) = 0.28700 0.40254
# Poissons Ratio (y) = 0.10024 0.27610
# Poissons Ratio (z) = 0.11938 0.23445
#
# Static dielectric constant tensor:
#      x y z
#    x 1.790080 0.000000 0.000000 
#    y 0.000000 1.763310 0.000000 
#    z 0.000000 0.000000 1.746610 
# 
# From -- ./inp_files/11909.got.cif
#   From: 2010.05.17/outbox.cif.g08.bks.cpg/sg51_6_cif.got.tgz:11909.got - 2010.06.03 11:52:47.
