data_PCOD9402253
_publ_section_title
;
Structure prediction by ZEFSAII (Michael W. Deem and Ramdas Pophale) SiO2 
 PCOD9402253
Probable space group: P M M A
;
_chemical_formula_sum "Si O2"
_cell_formula_units_Z 48
_cell_length_a 16.093767
_cell_length_b 17.963426
_cell_length_c 9.376899
_cell_angle_alpha 90.000000
_cell_angle_beta 90.000000
_cell_angle_gamma 90.000000
_cell_volume 2710.853930
_symmetry_space_group_name_H-M "P M M A"
_symmetry_group_IT_number 51
_symmetry_cell_setting 'orthorhombic'
loop_
_space_group_symop_operation_xyz
x,y,z
1/2-x,-y,z
1/2+x,-y,-z
-x,y,-z
-x,-y,-z
1/2+x,y,-z
1/2-x,y,z
x,-y,z
loop_
_atom_site_type_symbol
_atom_site_label
_atom_site_fract_x
_atom_site_fract_y
_atom_site_fract_z
Si Si1 0.250000 0.410817 0.661569
Si Si2 0.997424 0.088458 0.334259
Si Si3 0.415565 0.411118 0.165637
Si Si4 0.157756 0.913919 0.144792
Si Si5 0.084241 0.817415 0.905298
Si Si6 0.403737 0.353868 0.844899
Si Si7 0.250000 0.590597 0.333396
O O1 0.250000 0.500000 0.662474
O O2 0.332563 0.383969 0.742238
O O3 0.250000 0.385514 0.497367
O O4 0.934947 0.135418 0.236419
O O5 0.000000 0.109525 0.500000
O O6 0.087363 0.100613 0.261760
O O7 0.978568 0.000000 0.324979
O O8 0.426654 0.500000 0.182904
O O9 0.502027 0.371117 0.206632
O O10 0.334759 0.386141 0.254178
O O11 0.398768 0.393295 0.999611
O O12 0.250000 0.905901 0.204655
O O13 0.146349 0.000000 0.098014
O O14 0.146068 0.860928 0.009398
O O15 0.108433 0.733816 0.867907
O O16 0.000000 0.813161 0.000000
O O17 0.250000 0.500000 0.328810
#
# Coordination Sequence:
#
# PCOD9402253 Si02
#       7
#     4   8   8   8   8   8   4
#     4  11  23  39  55  81 114 153 190 231 283 346
#     4   9  18  35  58  80 109 150 187 222 269 335
#     4  10  19  37  60  85 107 144 195 237 278 335
#     4   9  18  33  57  84 110 143 185 232 274 325
#     4  10  19  35  54  81 111 143 185 227 279 329
#     4  11  21  35  58  84 112 147 184 239 283 331
#     4   9  21  39  59  81 109 141 186 235 284 340
#
# _framework density 17.706599000000001
#
# number of rings (size 3 to 8) (size 9 to 14) (size 15 to 20)
#    0.000    2.167    1.667    3.000    1.167    3.333 
#    3.000    3.333    0.000    3.000    0.000    0.000 
#    0.000    0.000    0.000    0.000    0.000    0.000 
#
# Total GULP energy -267754.803537 kJ/mol
# GULP energy per Si atom -5578.225074 kJ/mol
# Density = 1.766630 g / cm^3
# Si number density = 17.706599 Si / 1000 Ang^3
#
#
#
# Elastic Constant Matrix: (Units=GPa)
#
#
# Indices 1 2 3 4 5 6 
#
# 1 120.3480 29.5028 62.0091 0.0000 0.0000 0.0000
# 2 29.5028 70.3113 40.3014 0.0000 0.0000 0.0000
# 3 62.0091 40.3014 111.1114 0.0000 0.0000 0.0000
# 4 0.0000 0.0000 0.0000 -12.7309 0.0000 0.0000
# 5 0.0000 0.0000 0.0000 0.0000 11.3369 0.0000
# 6 0.0000 0.0000 0.0000 0.0000 0.0000 7.2157
#
#
#
# Elastic Compliance Matrix: (Units=1/GPa)
#
#
# Indices 1 2 3 4 5 6 
#
# 1 0.011784 -0.001484 -0.006038 0.000000 0.000000 0.000000
# 2 -0.001484 0.018142 -0.005752 0.000000 0.000000 0.000000
# 3 -0.006038 -0.005752 0.014456 0.000000 0.000000 0.000000
# 4 0.000000 0.000000 0.000000 -0.078549 0.000000 0.000000
# 5 0.000000 0.000000 0.000000 0.000000 0.088207 0.000000
# 6 0.000000 0.000000 0.000000 0.000000 0.000000 0.138587
#
#
# Mechanical properties :
#
#
# Convention : Reuss Voigt Hill
#
# Bulk Modulus (GPa) = 56.07290 62.82193 59.44742
# Shear Modulus (GPa) = 22.21022 12.49483 17.35252
#
# Velocity S-wave (km/s) = 3.54552 2.65931 3.13390
# Velocity P-wave (km/s) = 6.96401 6.70713 6.83678
#
# Compressibility (1/GPa) = 0.01783393
#
# Stress axis : x y z
#
# Youngs Moduli (GPa) = 84.85926 55.12023 69.17362
#
# Poissons Ratio (x) = 0.08177 0.41770
# Poissons Ratio (y) = 0.12589 0.39792
# Poissons Ratio (z) = 0.51242 0.31708
#
# Static dielectric constant tensor:
#      x y z
#    x 1.609510 0.000000 0.000000 
#    y 0.000000 1.605980 0.000000 
#    z 0.000000 0.000000 1.574690 
# 
# From -- ./inp_files/8365.got.cif
#   From: 2010.05.17/outbox.cif.g08.bks.cpg/sg51_5_cif.got.tgz:8365.got - 2010.06.03 11:52:47.
