data_PCOD9402400
_publ_section_title
;
Structure prediction by ZEFSAII (Michael W. Deem and Ramdas Pophale) SiO2 
 PCOD9402400
Probable space group: P M M A
;
_chemical_formula_sum "Si O2"
_cell_formula_units_Z 58
_cell_length_a 25.458558
_cell_length_b 9.606545
_cell_length_c 12.699601
_cell_angle_alpha 90.000000
_cell_angle_beta 90.000000
_cell_angle_gamma 90.000000
_cell_volume 3105.925962
_symmetry_space_group_name_H-M "P M M A"
_symmetry_group_IT_number 51
_symmetry_cell_setting 'orthorhombic'
loop_
_space_group_symop_operation_xyz
x,y,z
1/2-x,-y,z
1/2+x,-y,-z
-x,y,-z
-x,-y,-z
1/2+x,y,-z
1/2-x,y,z
x,-y,z
loop_
_atom_site_type_symbol
_atom_site_label
_atom_site_fract_x
_atom_site_fract_y
_atom_site_fract_z
Si Si1 0.992042 0.751017 0.670530
Si Si2 0.690062 0.830598 0.181916
Si Si3 0.881893 0.840462 0.595668
Si Si4 0.388785 0.164869 0.639860
Si Si5 0.309959 0.663425 0.250091
Si Si6 0.966336 0.836269 0.895963
Si Si7 0.157305 0.836934 0.054370
Si Si8 0.000000 0.500000 0.500000
O O1 0.943250 0.839942 0.626181
O O2 0.979549 0.741098 0.795385
O O3 0.993506 0.619817 0.592906
O O4 0.050253 0.813566 0.664418
O O5 0.750000 0.785255 0.199926
O O6 0.649520 0.778238 0.270010
O O7 0.689645 0.000000 0.186122
O O8 0.671247 0.795703 0.064546
O O9 0.876911 0.782350 0.477362
O O10 0.850056 0.743170 0.674259
O O11 0.862721 0.000000 0.602627
O O12 0.379800 0.000000 0.634297
O O13 0.250000 0.677019 0.288668
O O14 0.322648 0.500000 0.242569
O O15 0.314614 0.738427 0.137669
O O16 0.905001 0.827232 0.924603
O O17 0.977382 0.000000 0.868071
O O18 0.000000 0.803700 0.000000
O O19 0.172331 0.000000 0.069286
#
# Coordination Sequence:
#
# PCOD9402400 Si02
#       8
#     8   8   8   8   8   8   8   2
#     4  12  22  39  59  87 125 164 210 255 314 373
#     4   9  18  33  57  90 124 156 193 245 310 373
#     4  11  22  37  62  91 119 155 205 262 311 367
#     4  10  20  35  59  89 120 154 195 250 310 367
#     4  11  25  41  59  83 118 162 203 250 309 371
#     4  10  20  35  61  95 127 157 197 257 326 385
#     4  10  19  35  61  91 119 154 200 251 304 365
#     4  12  28  40  60  88 122 184 214 258 304 394
#
# _framework density 18.67398
#
# number of rings (size 3 to 8) (size 9 to 14) (size 15 to 20)
#    0.000    1.517    2.759    2.897    0.966    5.517 
#    0.000    1.724    4.552    0.000    0.000    0.000 
#    0.000    0.000    0.000    0.000    0.000    0.000 
#
# Total GULP energy -323087.616783 kJ/mol
# GULP energy per Si atom -5570.476151 kJ/mol
# Density = 1.863148 g / cm^3
# Si number density = 18.673980 Si / 1000 Ang^3
#
#
#
# Elastic Constant Matrix: (Units=GPa)
#
#
# Indices 1 2 3 4 5 6 
#
# 1 93.2220 37.9417 79.5508 0.0000 0.0000 0.0000
# 2 37.9417 55.3830 47.2795 0.0000 0.0000 0.0000
# 3 79.5508 47.2795 166.4315 0.0000 0.0000 0.0000
# 4 0.0000 0.0000 0.0000 22.1867 0.0000 0.0000
# 5 0.0000 0.0000 0.0000 0.0000 7.3890 0.0000
# 6 0.0000 0.0000 0.0000 0.0000 0.0000 -28.8684
#
#
#
# Elastic Compliance Matrix: (Units=1/GPa)
#
#
# Indices 1 2 3 4 5 6 
#
# 1 0.020167 -0.007376 -0.007544 0.000000 0.000000 0.000000
# 2 -0.007376 0.026534 -0.004012 0.000000 0.000000 0.000000
# 3 -0.007544 -0.004012 0.010754 0.000000 0.000000 0.000000
# 4 0.000000 0.000000 0.000000 0.045072 0.000000 0.000000
# 5 0.000000 0.000000 0.000000 0.000000 0.135337 0.000000
# 6 0.000000 0.000000 0.000000 0.000000 0.000000 -0.034640
#
#
# Mechanical properties :
#
#
# Convention : Reuss Voigt Hill
#
# Bulk Modulus (GPa) = 51.04353 71.62005 61.33179
# Shear Modulus (GPa) = 20.19238 10.15910 15.17574
#
# Velocity S-wave (km/s) = 3.29190 2.33496 2.85383
# Velocity P-wave (km/s) = 6.46855 6.76059 6.61618
#
# Compressibility (1/GPa) = 0.01959112
#
# Stress axis : x y z
#
# Youngs Moduli (GPa) = 49.58696 37.68718 92.98694
#
# Poissons Ratio (x) = 0.27796 0.70149
# Poissons Ratio (y) = 0.36573 0.37310
# Poissons Ratio (z) = 0.37408 0.15122
#
# Static dielectric constant tensor:
#      x y z
#    x 1.648280 0.000000 0.000000 
#    y 0.000000 1.623600 0.000000 
#    z 0.000000 0.000000 1.659740 
# 
# From -- ./inp_files/19132.got.cif
#   From: 2010.05.17/outbox.cif.g08.bks.cpg/sg51_10_cif.got.tgz:19132.got - 2010.06.03 11:52:47.
