data_PCOD9402685
_publ_section_title
;
Structure prediction by ZEFSAII (Michael W. Deem and Ramdas Pophale) SiO2 
 PCOD9402685
Probable space group: P M M A
;
_chemical_formula_sum "Si O2"
_cell_formula_units_Z 60
_cell_length_a 8.838161
_cell_length_b 21.496976
_cell_length_c 18.149377
_cell_angle_alpha 90.000000
_cell_angle_beta 90.000000
_cell_angle_gamma 90.000000
_cell_volume 3448.267922
_symmetry_space_group_name_H-M "P M M A"
_symmetry_group_IT_number 51
_symmetry_cell_setting 'orthorhombic'
loop_
_space_group_symop_operation_xyz
x,y,z
1/2-x,-y,z
1/2+x,-y,-z
-x,y,-z
-x,-y,-z
1/2+x,y,-z
1/2-x,y,z
x,-y,z
loop_
_atom_site_type_symbol
_atom_site_label
_atom_site_fract_x
_atom_site_fract_y
_atom_site_fract_z
Si Si1 0.930700 0.000000 0.080999
Si Si2 0.068068 0.070383 0.581084
Si Si3 0.430076 0.569899 0.230144
Si Si4 0.430465 0.302807 0.760685
Si Si5 0.932940 0.831499 0.293688
Si Si6 0.931856 0.751668 0.077888
Si Si7 0.430217 0.874907 0.141637
Si Si8 0.081482 0.573736 0.927529
O O1 0.993087 0.060824 0.120550
O O2 0.750000 0.000000 0.078780
O O3 0.000000 0.000000 0.000000
O O4 0.250000 0.070863 0.575838
O O5 0.026353 0.126754 0.635674
O O6 0.000000 0.078876 0.500000
O O7 0.024200 0.000000 0.607028
O O8 0.250000 0.570653 0.235378
O O9 0.482707 0.500000 0.253567
O O10 0.496604 0.632534 0.265427
O O11 0.482051 0.577461 0.145348
O O12 0.250000 0.310456 0.760178
O O13 0.467146 0.242471 0.710520
O O14 0.472388 0.285736 0.846336
O O15 0.750000 0.836963 0.282192
O O16 0.021465 0.859320 0.224622
O O17 0.750000 0.754262 0.073708
O O18 0.999846 0.819970 0.092302
O O19 0.000000 0.729937 0.000000
O O20 0.250000 0.877054 0.132851
O O21 0.250000 0.600761 0.917037
O O22 0.100183 0.500000 0.939597
O O23 0.000000 0.598138 0.000000
#
# Coordination Sequence:
#
# PCOD9402685 Si02
#       8
#     4   8   8   8   8   8   8   8
#     4  12  24  38  52  68  95 128 167 218 270 316
#     4   9  18  33  55  84 116 149 178 204 239 282
#     4  10  20  32  46  65  90 119 154 200 254 309
#     4   9  19  34  50  69  95 128 170 212 253 304
#     4   9  19  36  55  77 106 141 175 208 248 296
#     4  10  20  35  52  69  90 122 163 210 263 316
#     4  11  22  35  51  74  98 126 167 213 261 310
#     4   9  16  26  40  57  79 109 146 190 243 301
#
# _framework density 17.400041000000002
#
# number of rings (size 3 to 8) (size 9 to 14) (size 15 to 20)
#    0.000    2.267    0.000    4.200    0.933    6.133 
#    0.000    1.333    0.000    0.000    0.000    0.000 
#    0.000    0.533    0.000    1.200    0.000    2.133 
#
# Total GULP energy -334561.726600 kJ/mol
# GULP energy per Si atom -5576.028777 kJ/mol
# Density = 1.736044 g / cm^3
# Si number density = 17.400041 Si / 1000 Ang^3
#
#
#
# Elastic Constant Matrix: (Units=GPa)
#
#
# Indices 1 2 3 4 5 6 
#
# 1 59.2488 55.7996 20.1138 0.0000 0.0000 0.0000
# 2 55.7996 186.7966 50.3020 0.0000 0.0000 0.0000
# 3 20.1138 50.3020 56.6232 0.0000 0.0000 0.0000
# 4 0.0000 0.0000 0.0000 14.1542 0.0000 0.0000
# 5 0.0000 0.0000 0.0000 0.0000 21.4834 0.0000
# 6 0.0000 0.0000 0.0000 0.0000 0.0000 20.2507
#
#
#
# Elastic Compliance Matrix: (Units=1/GPa)
#
#
# Indices 1 2 3 4 5 6 
#
# 1 0.023821 -0.006358 -0.002813 0.000000 0.000000 0.000000
# 2 -0.006358 0.008734 -0.005500 0.000000 0.000000 0.000000
# 3 -0.002813 -0.005500 0.023546 0.000000 0.000000 0.000000
# 4 0.000000 0.000000 0.000000 0.070651 0.000000 0.000000
# 5 0.000000 0.000000 0.000000 0.000000 0.046547 0.000000
# 6 0.000000 0.000000 0.000000 0.000000 0.000000 0.049381
#
#
# Mechanical properties :
#
#
# Convention : Reuss Voigt Hill
#
# Bulk Modulus (GPa) = 37.37273 61.67770 49.52522
# Shear Modulus (GPa) = 19.16126 22.94121 21.05123
#
# Velocity S-wave (km/s) = 3.32206 3.63500 3.48205
# Velocity P-wave (km/s) = 6.01996 7.28982 6.68511
#
# Compressibility (1/GPa) = 0.02675747
#
# Stress axis : x y z
#
# Youngs Moduli (GPa) = 41.97957 114.49655 42.46962
#
# Poissons Ratio (x) = 0.72799 0.11948
# Poissons Ratio (y) = 0.26691 0.23360
# Poissons Ratio (z) = 0.11811 0.62977
#
# Static dielectric constant tensor:
#      x y z
#    x 1.581260 0.000000 0.000000 
#    y 0.000000 1.667040 0.000000 
#    z 0.000000 0.000000 1.559320 
# 
# From -- ./inp_files/28368.got.cif
#   From: 2010.05.17/outbox.cif.g08.bks.cpg/sg51_15_cif.got.tgz:28368.got - 2010.06.03 11:52:47.
