data_PCOD9402516
_publ_section_title
;
Structure prediction by ZEFSAII (Michael W. Deem and Ramdas Pophale) SiO2 
 PCOD9402516
Probable space group: P M M A
;
_chemical_formula_sum "Si O2"
_cell_formula_units_Z 34
_cell_length_a 9.046625
_cell_length_b 20.550446
_cell_length_c 9.435972
_cell_angle_alpha 90.000000
_cell_angle_beta 90.000000
_cell_angle_gamma 90.000000
_cell_volume 1754.262111
_symmetry_space_group_name_H-M "P M M A"
_symmetry_group_IT_number 51
_symmetry_cell_setting 'orthorhombic'
loop_
_space_group_symop_operation_xyz
x,y,z
1/2-x,-y,z
1/2+x,-y,-z
-x,y,-z
-x,-y,-z
1/2+x,y,-z
1/2-x,y,z
x,-y,z
loop_
_atom_site_type_symbol
_atom_site_label
_atom_site_fract_x
_atom_site_fract_y
_atom_site_fract_z
Si Si1 0.071854 0.756652 0.654737
Si Si2 0.957790 0.000000 0.725035
Si Si3 0.074266 0.500000 0.153507
Si Si4 0.579063 0.140577 0.850867
Si Si5 0.929098 0.356519 0.842536
Si Si6 0.250000 0.000000 0.551593
O O1 0.250000 0.755579 0.648785
O O2 0.000000 0.753383 0.500000
O O3 0.012445 0.821636 0.730737
O O4 0.006787 0.697422 0.747125
O O5 0.923173 0.935423 0.813855
O O6 0.870642 0.000000 0.578059
O O7 0.124194 0.000000 0.674368
O O8 0.250000 0.500000 0.133153
O O9 0.038360 0.429453 0.217724
O O10 0.000000 0.500000 0.000000
O O11 0.750000 0.163229 0.853085
O O12 0.500000 0.153407 0.000000
O O13 0.750000 0.347886 0.848975
O O14 0.000000 0.352779 0.000000
#
# Coordination Sequence:
#
# PCOD9402516 Si02
#       6
#     8   4   4   8   8   2
#     4  12  27  44  64  89 122 163 208 255 311 373
#     4  11  25  42  69  94 131 163 212 249 314 364
#     4   8  16  30  57  90 123 160 202 248 300 358
#     4  12  26  45  67  95 126 163 207 259 311 365
#     4  10  19  37  62  93 127 163 205 253 304 362
#     4  10  24  42  66 100 128 166 200 256 308 370
#
# _framework density 19.381368999999999
#
# number of rings (size 3 to 8) (size 9 to 14) (size 15 to 20)
#    0.000    1.176    1.176    4.588    6.588    0.941 
#    0.000    0.588    0.000    0.000    0.000    0.000 
#    0.000    0.000    0.000    0.000    0.000    0.000 
#
# Total GULP energy -189316.112975 kJ/mol
# GULP energy per Si atom -5568.120970 kJ/mol
# Density = 1.933726 g / cm^3
# Si number density = 19.381369 Si / 1000 Ang^3
#
#
#
# Elastic Constant Matrix: (Units=GPa)
#
#
# Indices 1 2 3 4 5 6 
#
# 1 191.2023 40.0478 51.4927 0.0000 0.0000 0.0000
# 2 40.0478 138.2906 42.7202 0.0000 0.0000 0.0000
# 3 51.4927 42.7202 107.3937 0.0000 0.0000 0.0000
# 4 0.0000 0.0000 0.0000 -71.5397 0.0000 0.0000
# 5 0.0000 0.0000 0.0000 0.0000 35.3210 0.0000
# 6 0.0000 0.0000 0.0000 0.0000 0.0000 25.0723
#
#
#
# Elastic Compliance Matrix: (Units=1/GPa)
#
#
# Indices 1 2 3 4 5 6 
#
# 1 0.006122 -0.000987 -0.002542 0.000000 0.000000 0.000000
# 2 -0.000987 0.008403 -0.002869 0.000000 0.000000 0.000000
# 3 -0.002542 -0.002869 0.011672 0.000000 0.000000 0.000000
# 4 0.000000 0.000000 0.000000 -0.013978 0.000000 0.000000
# 5 0.000000 0.000000 0.000000 0.000000 0.028312 0.000000
# 6 0.000000 0.000000 0.000000 0.000000 0.000000 0.039885
#
#
# Mechanical properties :
#
#
# Convention : Reuss Voigt Hill
#
# Bulk Modulus (GPa) = 74.63407 78.37866 76.50637
# Shear Modulus (GPa) = 51.18765 17.94577 34.56671
#
# Velocity S-wave (km/s) = 5.14471 3.04621 4.22773
# Velocity P-wave (km/s) = 8.59549 7.27327 7.96188
#
# Compressibility (1/GPa) = 0.01339871
#
# Stress axis : x y z
#
# Youngs Moduli (GPa) = 163.35716 118.99822 85.67541
#
# Poissons Ratio (x) = 0.11750 0.21782
# Poissons Ratio (y) = 0.16129 0.24584
# Poissons Ratio (z) = 0.41531 0.34145
#
# Static dielectric constant tensor:
#      x y z
#    x 1.671360 0.000000 0.000000 
#    y 0.000000 1.740210 0.000000 
#    z 0.000000 0.000000 1.628940 
# 
# From -- ./inp_files/5060.got.cif
#   From: 2010.05.17/outbox.cif.g08.bks.cpg/sg51_3_cif.got.tgz:5060.got - 2010.06.03 11:52:47.
