data_PCOD9402939
_publ_section_title
;
Structure prediction by ZEFSAII (Michael W. Deem and Ramdas Pophale) SiO2 
 PCOD9402939
Probable space group: P M M A
;
_chemical_formula_sum "Si O2"
_cell_formula_units_Z 56
_cell_length_a 14.320098
_cell_length_b 7.777111
_cell_length_c 21.467169
_cell_angle_alpha 90.000000
_cell_angle_beta 90.000000
_cell_angle_gamma 90.000000
_cell_volume 2390.776966
_symmetry_space_group_name_H-M "P M M A"
_symmetry_group_IT_number 51
_symmetry_cell_setting 'orthorhombic'
loop_
_space_group_symop_operation_xyz
x,y,z
1/2-x,-y,z
1/2+x,-y,-z
-x,y,-z
-x,-y,-z
1/2+x,y,-z
1/2-x,y,z
x,-y,z
loop_
_atom_site_type_symbol
_atom_site_label
_atom_site_fract_x
_atom_site_fract_y
_atom_site_fract_z
Si Si1 0.063236 0.702403 0.144301
Si Si2 0.363820 0.802231 0.536881
Si Si3 0.040754 0.707522 0.276183
Si Si4 0.853157 0.701317 0.325171
Si Si5 0.850857 0.801569 0.121779
Si Si6 0.643533 0.207376 0.596765
Si Si7 0.110633 0.697973 0.013231
O O1 0.085631 0.500000 0.142017
O O2 0.949762 0.716445 0.139340
O O3 0.087091 0.772460 0.212539
O O4 0.113742 0.775157 0.082825
O O5 0.250000 0.802838 0.531660
O O6 0.383355 0.712917 0.602248
O O7 0.396754 0.731769 0.470014
O O8 0.395248 0.000000 0.543807
O O9 0.036449 0.500000 0.270830
O O10 0.091539 0.746794 0.340427
O O11 0.935340 0.776695 0.283770
O O12 0.750000 0.779458 0.319038
O O13 0.846224 0.500000 0.310067
O O14 0.750000 0.729490 0.144248
O O15 0.856076 0.000000 0.140818
O O16 0.848907 0.792422 0.046330
O O17 0.750000 0.269516 0.602148
O O18 0.645099 0.000000 0.591462
O O19 0.144211 0.500000 0.012382
O O20 0.000000 0.690944 0.000000
#
# Coordination Sequence:
#
# PCOD9402939 Si02
#       7
#     8   8   8   8   8   8   8
#     4   9  19  35  52  71  98 133 170 203 240 293
#     4   8  15  30  51  72  95 127 168 213 260 308
#     4  10  21  35  52  76 104 136 174 212 253 302
#     4   9  18  32  49  72 103 135 168 209 257 308
#     4  10  20  32  49  77 106 128 158 201 246 293
#     4   9  19  36  55  74  98 130 170 215 262 312
#     4   8  15  30  51  71  91 120 159 197 233 278
#
# _framework density 23.423347
#
# number of rings (size 3 to 8) (size 9 to 14) (size 15 to 20)
#    0.000    3.000    0.000    2.143    0.000    6.857 
#    0.000    6.429    0.000    6.000    0.000    0.000 
#    0.000    0.000    0.000    0.000    0.000    0.000 
#
# Total GULP energy -312305.954521 kJ/mol
# GULP energy per Si atom -5576.892045 kJ/mol
# Density = 2.337003 g / cm^3
# Si number density = 23.423347 Si / 1000 Ang^3
#
#
#
# Elastic Constant Matrix: (Units=GPa)
#
#
# Indices 1 2 3 4 5 6 
#
# 1 40.2144 -6.9751 3.2709 0.0000 0.0000 0.0000
# 2 -6.9751 34.8624 -3.4198 0.0000 0.0000 0.0000
# 3 3.2709 -3.4198 110.4748 0.0000 0.0000 0.0000
# 4 0.0000 0.0000 0.0000 33.7581 0.0000 0.0000
# 5 0.0000 0.0000 0.0000 0.0000 5.6588 0.0000
# 6 0.0000 0.0000 0.0000 0.0000 0.0000 10.2997
#
#
#
# Elastic Compliance Matrix: (Units=1/GPa)
#
#
# Indices 1 2 3 4 5 6 
#
# 1 0.025801 0.005103 -0.000606 0.000000 0.000000 0.000000
# 2 0.005103 0.029781 0.000771 0.000000 0.000000 0.000000
# 3 -0.000606 0.000771 0.009094 0.000000 0.000000 0.000000
# 4 0.000000 0.000000 0.000000 0.029623 0.000000 0.000000
# 5 0.000000 0.000000 0.000000 0.000000 0.176715 0.000000
# 6 0.000000 0.000000 0.000000 0.000000 0.000000 0.097090
#
#
# Mechanical properties :
#
#
# Convention : Reuss Voigt Hill
#
# Bulk Modulus (GPa) = 13.29601 19.03373 16.16487
# Shear Modulus (GPa) = 13.06717 22.78837 17.92777
#
# Velocity S-wave (km/s) = 2.36449 3.12250 2.76955
# Velocity P-wave (km/s) = 3.62534 4.59822 4.14046
#
# Compressibility (1/GPa) = 0.07521051
#
# Stress axis : x y z
#
# Youngs Moduli (GPa) = 38.75815 33.57874 109.96695
#
# Poissons Ratio (x) = -0.17134 0.06664
# Poissons Ratio (y) = -0.19777 -0.08476
# Poissons Ratio (z) = 0.02349 -0.02588
#
# Static dielectric constant tensor:
#      x y z
#    x 1.929840 0.000000 0.000000 
#    y 0.000000 1.858370 0.000000 
#    z 0.000000 0.000000 1.932610 
# 
# From -- ./inp_files/33397.got.cif
#   From: 2010.05.17/outbox.cif.g08.bks.cpg/sg51_17_cif.got.tgz:33397.got - 2010.06.03 11:52:47.
