data_PCOD9402945
_publ_section_title
;
Structure prediction by ZEFSAII (Michael W. Deem and Ramdas Pophale) SiO2 
 PCOD9402945
Probable space group: P M M A
;
_chemical_formula_sum "Si O2"
_cell_formula_units_Z 56
_cell_length_a 14.426033
_cell_length_b 9.270126
_cell_length_c 22.989414
_cell_angle_alpha 90.000000
_cell_angle_beta 90.000000
_cell_angle_gamma 90.000000
_cell_volume 3074.400625
_symmetry_space_group_name_H-M "P M M A"
_symmetry_group_IT_number 51
_symmetry_cell_setting 'orthorhombic'
loop_
_space_group_symop_operation_xyz
x,y,z
1/2-x,-y,z
1/2+x,-y,-z
-x,y,-z
-x,-y,-z
1/2+x,y,-z
1/2-x,y,z
x,-y,z
loop_
_atom_site_type_symbol
_atom_site_label
_atom_site_fract_x
_atom_site_fract_y
_atom_site_fract_z
Si Si1 0.638639 0.167503 0.466055
Si Si2 0.359457 0.665771 0.965456
Si Si3 0.457073 0.327771 0.640950
Si Si4 0.856859 0.329904 0.895672
Si Si5 0.140290 0.327833 0.761908
Si Si6 0.143995 0.327994 0.414011
Si Si7 0.036962 0.828720 0.866382
O O1 0.750000 0.175416 0.459428
O O2 0.592403 0.246736 0.411897
O O3 0.616851 0.245810 0.526904
O O4 0.611518 0.000000 0.468267
O O5 0.250000 0.678540 0.951514
O O6 0.387893 0.500000 0.952613
O O7 0.418216 0.773320 0.926720
O O8 0.368779 0.688148 0.034513
O O9 0.443258 0.500000 0.633632
O O10 0.412492 0.287978 0.702462
O O11 0.566747 0.298173 0.634524
O O12 0.750000 0.294203 0.881825
O O13 0.870903 0.500000 0.883347
O O14 0.933327 0.234978 0.864207
O O15 0.250000 0.301235 0.755950
O O16 0.127803 0.500000 0.771722
O O17 0.097786 0.241034 0.815327
O O18 0.250000 0.288767 0.398696
O O19 0.142212 0.500000 0.425598
O O20 0.037212 0.000000 0.863307
#
# Coordination Sequence:
#
# PCOD9402945 Si02
#       7
#     8   8   8   8   8   8   8
#     4  10  20  32  49  77 111 143 173 209 259 319
#     4   9  18  34  57  83 110 142 181 223 265 313
#     4  10  20  35  56  79 102 134 179 227 269 306
#     4   9  19  37  60  83 107 140 182 223 263 313
#     4  10  22  40  59  77 101 137 181 226 268 315
#     4   9  18  33  53  78 108 138 169 210 260 314
#     4  12  24  35  52  80 113 146 178 218 270 323
#
# _framework density 18.214932000000001
#
# number of rings (size 3 to 8) (size 9 to 14) (size 15 to 20)
#    0.000    2.143    0.000    4.286    0.000    9.143 
#    0.000    2.143    0.000    2.571    0.000    0.000 
#    0.000    0.000    0.000    0.000    0.000    0.000 
#
# Total GULP energy -312757.644785 kJ/mol
# GULP energy per Si atom -5584.957943 kJ/mol
# Density = 1.817347 g / cm^3
# Si number density = 18.214932 Si / 1000 Ang^3
#
#
#
# Elastic Constant Matrix: (Units=GPa)
#
#
# Indices 1 2 3 4 5 6 
#
# 1 89.9065 54.0632 41.3115 0.0000 0.0000 0.0000
# 2 54.0632 57.3760 35.0081 0.0000 0.0000 0.0000
# 3 41.3115 35.0081 34.7754 0.0000 0.0000 0.0000
# 4 0.0000 0.0000 0.0000 -20.5069 0.0000 0.0000
# 5 0.0000 0.0000 0.0000 0.0000 32.7424 0.0000
# 6 0.0000 0.0000 0.0000 0.0000 0.0000 13.5579
#
#
#
# Elastic Compliance Matrix: (Units=1/GPa)
#
#
# Indices 1 2 3 4 5 6 
#
# 1 0.029587 -0.016676 -0.018360 0.000000 0.000000 0.000000
# 2 -0.016676 0.054579 -0.035134 0.000000 0.000000 0.000000
# 3 -0.018360 -0.035134 0.085936 0.000000 0.000000 0.000000
# 4 0.000000 0.000000 0.000000 -0.048764 0.000000 0.000000
# 5 0.000000 0.000000 0.000000 0.000000 0.030541 0.000000
# 6 0.000000 0.000000 0.000000 0.000000 0.000000 0.073757
#
#
# Mechanical properties :
#
#
# Convention : Reuss Voigt Hill
#
# Bulk Modulus (GPa) = 33.60034 49.20260 41.40147
# Shear Modulus (GPa) = 13.30153 8.60371 10.95262
#
# Velocity S-wave (km/s) = 2.70525 2.17570 2.45480
# Velocity P-wave (km/s) = 5.31456 5.77776 5.55099
#
# Compressibility (1/GPa) = 0.02976160
#
# Stress axis : x y z
#
# Youngs Moduli (GPa) = 33.79904 18.32202 11.63661
#
# Poissons Ratio (x) = 0.30554 0.21365
# Poissons Ratio (y) = 0.56363 0.40884
# Poissons Ratio (z) = 0.62055 0.64373
#
# Static dielectric constant tensor:
#      x y z
#    x 1.654270 0.000000 0.000000 
#    y 0.000000 1.598950 0.000000 
#    z 0.000000 0.000000 1.594210 
# 
# From -- ./inp_files/33290.got.cif
#   From: 2010.05.17/outbox.cif.g08.bks.cpg/sg51_17_cif.got.tgz:33290.got - 2010.06.03 11:52:47.
