data_PCOD9402108
_publ_section_title
;
Structure prediction by ZEFSAII (Michael W. Deem and Ramdas Pophale) SiO2 
 PCOD9402108
Probable space group: P M M A
;
_chemical_formula_sum "Si O2"
_cell_formula_units_Z 48
_cell_length_a 15.715082
_cell_length_b 14.616391
_cell_length_c 10.413791
_cell_angle_alpha 90.000000
_cell_angle_beta 90.000000
_cell_angle_gamma 90.000000
_cell_volume 2392.024706
_symmetry_space_group_name_H-M "P M M A"
_symmetry_group_IT_number 51
_symmetry_cell_setting 'orthorhombic'
loop_
_space_group_symop_operation_xyz
x,y,z
1/2-x,-y,z
1/2+x,-y,-z
-x,y,-z
-x,-y,-z
1/2+x,y,-z
1/2-x,y,z
x,-y,z
loop_
_atom_site_type_symbol
_atom_site_label
_atom_site_fract_x
_atom_site_fract_y
_atom_site_fract_z
Si Si1 0.848132 0.725625 0.800031
Si Si2 0.900439 0.394448 0.035862
Si Si3 0.848234 0.898636 0.223249
Si Si4 0.094260 0.897392 0.058185
Si Si5 0.646255 0.296403 0.299062
Si Si6 0.854169 0.394806 0.562373
O O1 0.750000 0.748098 0.772343
O O2 0.883488 0.667687 0.680905
O O3 0.853148 0.661702 0.925403
O O4 0.893991 0.819331 0.837603
O O5 0.873129 0.500000 0.037990
O O6 0.885273 0.348633 0.173051
O O7 0.000000 0.390402 0.000000
O O8 0.750000 0.904497 0.263429
O O9 0.849820 0.880927 0.069677
O O10 0.884800 0.808875 0.291220
O O11 0.887642 0.000000 0.243159
O O12 0.111688 0.000000 0.105856
O O13 0.000000 0.893917 0.000000
O O14 0.750000 0.295334 0.294340
O O15 0.620891 0.349148 0.427874
O O16 0.750000 0.396375 0.566678
O O17 0.882763 0.500000 0.573301
#
# Coordination Sequence:
#
# PCOD9402108 Si02
#       6
#     8   8   8   8   8   8
#     4  11  21  35  56  82 110 143 182 229 284 331
#     4  11  23  36  53  79 110 142 184 237 282 329
#     4   9  17  30  51  80 108 134 173 225 275 322
#     4  10  20  34  55  82 113 147 181 222 278 336
#     4  10  19  34  57  82 107 147 192 229 278 339
#     4   9  19  35  54  78 111 148 187 232 282 336
#
# _framework density 20.066682
#
# number of rings (size 3 to 8) (size 9 to 14) (size 15 to 20)
#    0.000    2.000    1.667    2.500    0.000    3.667 
#    0.000    1.667    0.000    6.000    0.000    3.500 
#    0.000    0.000    0.000    0.000    0.000    0.000 
#
# Total GULP energy -268031.052438 kJ/mol
# GULP energy per Si atom -5583.980259 kJ/mol
# Density = 2.002101 g / cm^3
# Si number density = 20.066682 Si / 1000 Ang^3
#
#
#
# Elastic Constant Matrix: (Units=GPa)
#
#
# Indices 1 2 3 4 5 6 
#
# 1 22.3816 14.9870 2.5202 0.0000 0.0000 0.0000
# 2 14.9870 214.4871 100.8269 0.0000 0.0000 0.0000
# 3 2.5202 100.8269 143.7659 0.0000 0.0000 0.0000
# 4 0.0000 0.0000 0.0000 31.9945 0.0000 0.0000
# 5 0.0000 0.0000 0.0000 0.0000 5.0202 0.0000
# 6 0.0000 0.0000 0.0000 0.0000 0.0000 -35.5016
#
#
#
# Elastic Compliance Matrix: (Units=1/GPa)
#
#
# Indices 1 2 3 4 5 6 
#
# 1 0.047344 -0.004353 0.002223 0.000000 0.000000 0.000000
# 2 -0.004353 0.007356 -0.005082 0.000000 0.000000 0.000000
# 3 0.002223 -0.005082 0.010481 0.000000 0.000000 0.000000
# 4 0.000000 0.000000 0.000000 0.031255 0.000000 0.000000
# 5 0.000000 0.000000 0.000000 0.000000 0.199196 0.000000
# 6 0.000000 0.000000 0.000000 0.000000 0.000000 -0.028168
#
#
# Mechanical properties :
#
#
# Convention : Reuss Voigt Hill
#
# Bulk Modulus (GPa) = 19.70208 68.58920 44.14564
# Shear Modulus (GPa) = 16.73312 17.78930 17.26121
#
# Velocity S-wave (km/s) = 2.89082 2.98066 2.93609
# Velocity P-wave (km/s) = 4.58062 6.78974 5.79149
#
# Compressibility (1/GPa) = 0.05075605
#
# Stress axis : x y z
#
# Youngs Moduli (GPa) = 21.12190 135.95100 95.40905
#
# Poissons Ratio (x) = 0.59181 -0.21210
# Poissons Ratio (y) = 0.09195 0.48490
# Poissons Ratio (z) = -0.04695 0.69095
#
# Static dielectric constant tensor:
#      x y z
#    x 1.748230 0.000000 0.000000 
#    y 0.000000 1.728630 0.000000 
#    z 0.000000 0.000000 1.665080 
# 
# From -- ./inp_files/9603.got.cif
#   From: 2010.05.17/outbox.cif.g08.bks.cpg/sg51_5_cif.got.tgz:9603.got - 2010.06.03 11:52:47.
