data_PCOD9402123
_publ_section_title
;
Structure prediction by ZEFSAII (Michael W. Deem and Ramdas Pophale) SiO2 
 PCOD9402123
Probable space group: P M M A
;
_chemical_formula_sum "Si O2"
_cell_formula_units_Z 48
_cell_length_a 18.429914
_cell_length_b 13.531956
_cell_length_c 10.200664
_cell_angle_alpha 90.000000
_cell_angle_beta 90.000000
_cell_angle_gamma 90.000000
_cell_volume 2543.972007
_symmetry_space_group_name_H-M "P M M A"
_symmetry_group_IT_number 51
_symmetry_cell_setting 'orthorhombic'
loop_
_space_group_symop_operation_xyz
x,y,z
1/2-x,-y,z
1/2+x,-y,-z
-x,y,-z
-x,-y,-z
1/2+x,y,-z
1/2-x,y,z
x,-y,z
loop_
_atom_site_type_symbol
_atom_site_label
_atom_site_fract_x
_atom_site_fract_y
_atom_site_fract_z
Si Si1 0.669400 0.613516 0.485558
Si Si2 0.448054 0.268707 0.376180
Si Si3 0.023541 0.387383 0.853604
Si Si4 0.166757 0.302030 0.795996
Si Si5 0.837452 0.109595 0.052007
Si Si6 0.664554 0.117929 0.745212
O O1 0.750000 0.623406 0.544606
O O2 0.661988 0.500000 0.440468
O O3 0.605270 0.642790 0.580332
O O4 0.665515 0.685246 0.360309
O O5 0.500000 0.245499 0.500000
O O6 0.493476 0.310885 0.253793
O O7 0.393680 0.180225 0.336483
O O8 0.000225 0.500000 0.824633
O O9 0.110406 0.380605 0.849953
O O10 0.000000 0.361096 0.000000
O O11 0.250000 0.317380 0.838418
O O12 0.140937 0.195826 0.849328
O O13 0.750000 0.103347 0.061700
O O14 0.867086 0.000000 0.080933
O O15 0.851774 0.134698 0.899988
O O16 0.750000 0.144479 0.721648
O O17 0.658544 0.000000 0.722192
#
# Coordination Sequence:
#
# PCOD9402123 Si02
#       6
#     8   8   8   8   8   8
#     4  10  21  37  58  84 114 152 200 245 287 344
#     4  12  23  37  59  86 118 156 192 240 293 359
#     4  11  24  40  58  85 120 157 200 250 302 354
#     4  10  19  34  57  83 113 153 198 240 288 352
#     4   8  15  31  57  85 110 141 186 240 293 343
#     4   9  19  38  62  85 112 150 196 244 295 350
#
# _framework density 18.868131999999999
#
# number of rings (size 3 to 8) (size 9 to 14) (size 15 to 20)
#    0.000    2.000    1.667    3.500    0.000    2.000 
#    0.000    2.500    0.000    8.000    0.000    0.000 
#    0.000    0.000    0.000    0.000    0.000    0.000 
#
# Total GULP energy -267585.620859 kJ/mol
# GULP energy per Si atom -5574.700435 kJ/mol
# Density = 1.882519 g / cm^3
# Si number density = 18.868132 Si / 1000 Ang^3
#
#
#
# Elastic Constant Matrix: (Units=GPa)
#
#
# Indices 1 2 3 4 5 6 
#
# 1 99.3324 44.0938 51.8768 0.0000 0.0000 0.0000
# 2 44.0938 93.6958 59.9510 0.0000 0.0000 0.0000
# 3 51.8768 59.9510 83.4878 0.0000 0.0000 0.0000
# 4 0.0000 0.0000 0.0000 68.3727 0.0000 0.0000
# 5 0.0000 0.0000 0.0000 0.0000 26.3999 0.0000
# 6 0.0000 0.0000 0.0000 0.0000 0.0000 24.3236
#
#
#
# Elastic Compliance Matrix: (Units=1/GPa)
#
#
# Indices 1 2 3 4 5 6 
#
# 1 0.015112 -0.002042 -0.007924 0.000000 0.000000 0.000000
# 2 -0.002042 0.020021 -0.013108 0.000000 0.000000 0.000000
# 3 -0.007924 -0.013108 0.026314 0.000000 0.000000 0.000000
# 4 0.000000 0.000000 0.000000 0.014626 0.000000 0.000000
# 5 0.000000 0.000000 0.000000 0.000000 0.037879 0.000000
# 6 0.000000 0.000000 0.000000 0.000000 0.000000 0.041112
#
#
# Mechanical properties :
#
#
# Convention : Reuss Voigt Hill
#
# Bulk Modulus (GPa) = 65.36116 65.37325 65.36721
# Shear Modulus (GPa) = 24.23532 31.85886 28.04709
#
# Velocity S-wave (km/s) = 3.58782 4.11360 3.85967
# Velocity P-wave (km/s) = 7.20274 7.56868 7.38798
#
# Compressibility (1/GPa) = 0.01529961
#
# Stress axis : x y z
#
# Youngs Moduli (GPa) = 66.17332 49.94841 38.00241
#
# Poissons Ratio (x) = 0.10197 0.30113
# Poissons Ratio (y) = 0.13510 0.49813
# Poissons Ratio (z) = 0.52436 0.65472
#
# Static dielectric constant tensor:
#      x y z
#    x 1.670610 0.000000 0.000000 
#    y 0.000000 1.672690 0.000000 
#    z 0.000000 0.000000 1.661730 
# 
# From -- ./inp_files/9661.got.cif
#   From: 2010.05.17/outbox.cif.g08.bks.cpg/sg51_5_cif.got.tgz:9661.got - 2010.06.03 11:52:47.
