data_PCOD9402841
_publ_section_title
;
Structure prediction by ZEFSAII (Michael W. Deem and Ramdas Pophale) SiO2 
 PCOD9402841
Probable space group: P M M A
;
_chemical_formula_sum "Si O2"
_cell_formula_units_Z 48
_cell_length_a 8.813127
_cell_length_b 24.034734
_cell_length_c 14.078413
_cell_angle_alpha 90.000000
_cell_angle_beta 90.000000
_cell_angle_gamma 90.000000
_cell_volume 2982.105817
_symmetry_space_group_name_H-M "P M M A"
_symmetry_group_IT_number 51
_symmetry_cell_setting 'orthorhombic'
loop_
_space_group_symop_operation_xyz
x,y,z
1/2-x,-y,z
1/2+x,-y,-z
-x,y,-z
-x,-y,-z
1/2+x,y,-z
1/2-x,y,z
x,-y,z
loop_
_atom_site_type_symbol
_atom_site_label
_atom_site_fract_x
_atom_site_fract_y
_atom_site_fract_z
Si Si1 0.068951 0.563847 0.397052
Si Si2 0.932388 0.732615 0.102943
Si Si3 0.067728 0.223185 0.604135
Si Si4 0.930998 0.663433 0.286318
Si Si5 0.069436 0.934511 0.896264
Si Si6 0.931463 0.164144 0.783220
O O1 0.250000 0.565999 0.403861
O O2 0.023574 0.500000 0.375367
O O3 0.000000 0.578264 0.500000
O O4 0.012069 0.608012 0.320611
O O5 0.750000 0.738507 0.099062
O O6 0.968593 0.685161 0.180812
O O7 0.003199 0.789384 0.144386
O O8 0.000000 0.720844 0.000000
O O9 0.250000 0.217874 0.603666
O O10 0.030589 0.285068 0.643690
O O11 0.000000 0.215660 0.500000
O O12 0.997248 0.180929 0.680603
O O13 0.750000 0.655256 0.291351
O O14 0.250000 0.924474 0.898110
O O15 0.990956 0.894932 0.819926
O O16 0.043689 0.000000 0.877464
O O17 0.000000 0.922052 0.000000
O O18 0.750000 0.166204 0.782645
#
# Coordination Sequence:
#
# PCOD9402841 Si02
#       6
#     8   8   8   8   8   8
#     4  10  20  32  48  71  98 128 161 198 240 287
#     4  10  20  34  51  73 100 129 163 201 244 292
#     4  10  20  34  51  74 102 130 164 202 244 292
#     4   9  19  33  50  72  98 128 160 198 241 287
#     4  10  20  34  52  74 101 132 165 203 246 291
#     4  11  21  33  51  74 101 133 166 201 243 289
#
# _framework density 16.096008000000001
#
# number of rings (size 3 to 8) (size 9 to 14) (size 15 to 20)
#    0.000    2.000    0.000    5.500    0.000    7.333 
#    0.000    0.000    0.000    1.000    0.000    0.000 
#    0.000    0.000    0.000    0.000    0.000    0.000 
#
# Total GULP energy -267992.533666 kJ/mol
# GULP energy per Si atom -5583.177785 kJ/mol
# Density = 1.605937 g / cm^3
# Si number density = 16.096008 Si / 1000 Ang^3
#
#
#
# Elastic Constant Matrix: (Units=GPa)
#
#
# Indices 1 2 3 4 5 6 
#
# 1 87.0524 53.8326 64.8185 0.0000 0.0000 0.0000
# 2 53.8326 79.0595 70.6549 0.0000 0.0000 0.0000
# 3 64.8185 70.6549 143.3509 0.0000 0.0000 0.0000
# 4 0.0000 0.0000 0.0000 20.6131 0.0000 0.0000
# 5 0.0000 0.0000 0.0000 0.0000 31.9378 0.0000
# 6 0.0000 0.0000 0.0000 0.0000 0.0000 28.2534
#
#
#
# Elastic Compliance Matrix: (Units=1/GPa)
#
#
# Indices 1 2 3 4 5 6 
#
# 1 0.021315 -0.010545 -0.004440 0.000000 0.000000 0.000000
# 2 -0.010545 0.027824 -0.008946 0.000000 0.000000 0.000000
# 3 -0.004440 -0.008946 0.013393 0.000000 0.000000 0.000000
# 4 0.000000 0.000000 0.000000 0.048513 0.000000 0.000000
# 5 0.000000 0.000000 0.000000 0.000000 0.031311 0.000000
# 6 0.000000 0.000000 0.000000 0.000000 0.000000 0.035394
#
#
# Mechanical properties :
#
#
# Convention : Reuss Voigt Hill
#
# Bulk Modulus (GPa) = 68.17101 76.45276 72.31189
# Shear Modulus (GPa) = 21.69198 24.17130 22.93164
#
# Velocity S-wave (km/s) = 3.67503 3.87938 3.77859
# Velocity P-wave (km/s) = 7.77512 8.22600 8.00374
#
# Compressibility (1/GPa) = 0.01466899
#
# Stress axis : x y z
#
# Youngs Moduli (GPa) = 46.91639 35.94079 74.66752
#
# Poissons Ratio (x) = 0.37900 0.33154
# Poissons Ratio (y) = 0.49474 0.66794
# Poissons Ratio (z) = 0.20832 0.32151
#
# Static dielectric constant tensor:
#      x y z
#    x 1.535370 0.000000 0.000000 
#    y 0.000000 1.530450 0.000000 
#    z 0.000000 0.000000 1.518070 
# 
# From -- ./inp_files/14451.got.cif
#   From: 2010.05.17/outbox.cif.g08.bks.cpg/sg51_8_cif.got.tgz:14451.got - 2010.06.03 11:52:47.
