data_PCOD9402442
_publ_section_title
;
Structure prediction by ZEFSAII (Michael W. Deem and Ramdas Pophale) SiO2 
 PCOD9402442
Probable space group: P M M A
;
_chemical_formula_sum "Si O2"
_cell_formula_units_Z 48
_cell_length_a 19.084855
_cell_length_b 7.593548
_cell_length_c 17.255401
_cell_angle_alpha 90.000000
_cell_angle_beta 90.000000
_cell_angle_gamma 90.000000
_cell_volume 2500.683126
_symmetry_space_group_name_H-M "P M M A"
_symmetry_group_IT_number 51
_symmetry_cell_setting 'orthorhombic'
loop_
_space_group_symop_operation_xyz
x,y,z
1/2-x,-y,z
1/2+x,-y,-z
-x,y,-z
-x,-y,-z
1/2+x,y,-z
1/2-x,y,z
x,-y,z
loop_
_atom_site_type_symbol
_atom_site_label
_atom_site_fract_x
_atom_site_fract_y
_atom_site_fract_z
Si Si1 0.926276 0.286259 0.039614
Si Si2 0.580589 0.789228 0.750838
Si Si3 0.671430 0.711015 0.902477
Si Si4 0.834676 0.500000 0.477022
Si Si5 0.833522 0.209248 0.599828
Si Si6 0.834170 0.500000 0.298888
Si Si7 0.422998 0.796220 0.780963
O O1 0.924749 0.500000 0.045135
O O2 0.920022 0.214511 0.125882
O O3 0.865702 0.226129 0.980963
O O4 0.000000 0.237635 0.000000
O O5 0.622901 0.746496 0.828632
O O6 0.623242 0.730631 0.675205
O O7 0.500479 0.728311 0.756807
O O8 0.577282 0.000000 0.746342
O O9 0.750000 0.780441 0.891708
O O10 0.675546 0.500000 0.909239
O O11 0.750000 0.500000 0.473955
O O12 0.854536 0.327564 0.526492
O O13 0.858513 0.500000 0.388561
O O14 0.750000 0.234181 0.613903
O O15 0.844569 0.000000 0.587086
O O16 0.750000 0.500000 0.295863
O O17 0.865419 0.329327 0.256448
O O18 0.415019 0.000000 0.757167
#
# Coordination Sequence:
#
# PCOD9402442 Si02
#       7
#     8   8   8   4   8   4   8
#     4  10  19  36  59  83 118 169 211 252 299 354
#     4  10  21  36  56  87 126 161 196 243 298 365
#     4  10  21  33  53  86 121 161 207 254 299 348
#     4   9  20  39  63  89 113 154 203 244 302 366
#     4   9  18  34  58  89 125 161 197 241 294 357
#     4  11  26  47  68  89 118 151 200 264 312 360
#     4  11  24  41  65  92 120 160 206 250 307 371
#
# _framework density 19.194752999999999
#
# number of rings (size 3 to 8) (size 9 to 14) (size 15 to 20)
#    0.000    2.000    2.500    0.500    2.333    3.667 
#    0.000    3.333    0.000    3.000    0.000    0.000 
#    0.000    0.000    0.000    0.000    0.000    0.000 
#
# Total GULP energy -268046.828592 kJ/mol
# GULP energy per Si atom -5584.308929 kJ/mol
# Density = 1.915107 g / cm^3
# Si number density = 19.194753 Si / 1000 Ang^3
#
#
#
# Elastic Constant Matrix: (Units=GPa)
#
#
# Indices 1 2 3 4 5 6 
#
# 1 114.8993 40.4939 55.9792 0.0000 0.0000 0.0000
# 2 40.4939 77.8468 46.2025 0.0000 0.0000 0.0000
# 3 55.9792 46.2025 147.5764 0.0000 0.0000 0.0000
# 4 0.0000 0.0000 0.0000 36.5613 0.0000 0.0000
# 5 0.0000 0.0000 0.0000 0.0000 21.1005 0.0000
# 6 0.0000 0.0000 0.0000 0.0000 0.0000 1.8796
#
#
#
# Elastic Compliance Matrix: (Units=1/GPa)
#
#
# Indices 1 2 3 4 5 6 
#
# 1 0.011718 -0.004246 -0.003115 0.000000 0.000000 0.000000
# 2 -0.004246 0.017316 -0.003811 0.000000 0.000000 0.000000
# 3 -0.003115 -0.003811 0.009151 0.000000 0.000000 0.000000
# 4 0.000000 0.000000 0.000000 0.027351 0.000000 0.000000
# 5 0.000000 0.000000 0.000000 0.000000 0.047392 0.000000
# 6 0.000000 0.000000 0.000000 0.000000 0.000000 0.532020
#
#
# Mechanical properties :
#
#
# Convention : Reuss Voigt Hill
#
# Bulk Modulus (GPa) = 63.13011 69.51928 66.32469
# Shear Modulus (GPa) = 7.43415 25.08475 16.25945
#
# Velocity S-wave (km/s) = 1.97013 3.61897 2.91362
# Velocity P-wave (km/s) = 6.17542 7.33206 6.77846
#
# Compressibility (1/GPa) = 0.01584030
#
# Stress axis : x y z
#
# Youngs Moduli (GPa) = 85.34189 57.74974 109.27914
#
# Poissons Ratio (x) = 0.24522 0.34045
# Poissons Ratio (y) = 0.36238 0.41641
# Poissons Ratio (z) = 0.26587 0.22006
#
# Static dielectric constant tensor:
#      x y z
#    x 1.673180 0.000000 0.000000 
#    y 0.000000 1.692950 0.000000 
#    z 0.000000 0.000000 1.636290 
# 
# From -- ./inp_files/24902.got.cif
#   From: 2010.05.17/outbox.cif.g08.bks.cpg/sg51_13_cif.got.tgz:24902.got - 2010.06.03 11:52:47.
