data_PCOD9402238
_publ_section_title
;
Structure prediction by ZEFSAII (Michael W. Deem and Ramdas Pophale) SiO2 
 PCOD9402238
Probable space group: P M M A
;
_chemical_formula_sum "Si O2"
_cell_formula_units_Z 64
_cell_length_a 16.645006
_cell_length_b 15.466310
_cell_length_c 12.416427
_cell_angle_alpha 90.000000
_cell_angle_beta 90.000000
_cell_angle_gamma 90.000000
_cell_volume 3196.445517
_symmetry_space_group_name_H-M "P M M A"
_symmetry_group_IT_number 51
_symmetry_cell_setting 'orthorhombic'
loop_
_space_group_symop_operation_xyz
x,y,z
1/2-x,-y,z
1/2+x,-y,-z
-x,y,-z
-x,-y,-z
1/2+x,y,-z
1/2-x,y,z
x,-y,z
loop_
_atom_site_type_symbol
_atom_site_label
_atom_site_fract_x
_atom_site_fract_y
_atom_site_fract_z
Si Si1 0.592303 0.402204 0.961624
Si Si2 0.343038 0.596653 0.506299
Si Si3 0.847501 0.903800 0.998575
Si Si4 0.434202 0.281004 0.666331
Si Si5 0.343399 0.736224 0.881634
Si Si6 0.841949 0.854264 0.751612
Si Si7 0.498219 0.905325 0.628911
Si Si8 0.611578 0.341491 0.720891
O O1 0.613924 0.500000 0.991947
O O2 0.603038 0.390050 0.834023
O O3 0.500000 0.387657 0.000000
O O4 0.645058 0.331866 0.022798
O O5 0.250000 0.602260 0.539237
O O6 0.373482 0.500000 0.533996
O O7 0.391372 0.672058 0.566793
O O8 0.347799 0.609126 0.377755
O O9 0.750000 0.904028 0.007623
O O10 0.863274 0.881063 0.873847
O O11 0.877190 0.000000 0.023861
O O12 0.878021 0.827593 0.075412
O O13 0.387045 0.297977 0.776237
O O14 0.444488 0.177534 0.657854
O O15 0.522600 0.319256 0.679235
O O16 0.250000 0.747832 0.857208
O O17 0.750000 0.882813 0.728867
O O18 0.846011 0.750489 0.742182
O O19 0.911787 0.890599 0.674937
O O20 0.500000 0.906089 0.500000
O O21 0.469449 0.000000 0.666595
#
# Coordination Sequence:
#
# PCOD9402238 Si02
#       8
#     8   8   8   8   8   8   8   8
#     4  11  23  40  61  89 126 167 209 256 313 383
#     4  11  25  43  65  95 125 159 211 268 319 374
#     4   9  18  33  56  88 122 155 197 251 308 367
#     4  11  23  41  64  88 126 170 208 253 313 382
#     4  11  23  40  62  89 124 166 210 260 316 376
#     4  10  19  34  61  92 125 163 205 254 318 380
#     4  10  22  40  61  90 126 163 209 259 309 373
#     4  11  21  38  65  92 126 164 206 256 312 377
#
# _framework density 20.022241000000001
#
# number of rings (size 3 to 8) (size 9 to 14) (size 15 to 20)
#    0.000    1.500    2.500    3.375    0.000    4.000 
#    0.000    0.625    0.000    5.250    0.000    0.000 
#    0.000    0.000    0.000    0.000    0.000    0.000 
#
# Total GULP energy -357484.304157 kJ/mol
# GULP energy per Si atom -5585.692252 kJ/mol
# Density = 1.997667 g / cm^3
# Si number density = 20.022241 Si / 1000 Ang^3
#
#
#
# Elastic Constant Matrix: (Units=GPa)
#
#
# Indices 1 2 3 4 5 6 
#
# 1 50.4041 19.9082 20.2504 0.0000 0.0000 0.0000
# 2 19.9082 105.3177 15.5947 0.0000 0.0000 0.0000
# 3 20.2504 15.5947 91.8719 0.0000 0.0000 0.0000
# 4 0.0000 0.0000 0.0000 -330.0195 0.0000 0.0000
# 5 0.0000 0.0000 0.0000 0.0000 50.4192 0.0000
# 6 0.0000 0.0000 0.0000 0.0000 0.0000 20.2911
#
#
#
# Elastic Compliance Matrix: (Units=1/GPa)
#
#
# Indices 1 2 3 4 5 6 
#
# 1 0.023096 -0.003705 -0.004462 0.000000 0.000000 0.000000
# 2 -0.003705 0.010334 -0.000938 0.000000 0.000000 0.000000
# 3 -0.004462 -0.000938 0.012027 0.000000 0.000000 0.000000
# 4 0.000000 0.000000 0.000000 -0.003030 0.000000 0.000000
# 5 0.000000 0.000000 0.000000 0.000000 0.019834 0.000000
# 6 0.000000 0.000000 0.000000 0.000000 0.000000 0.049283
#
#
# Mechanical properties :
#
#
# Convention : Reuss Voigt Hill
#
# Bulk Modulus (GPa) = 36.69939 39.90002 38.29971
# Shear Modulus (GPa) = 36.01392 -39.07247 -1.52928
#
# Velocity S-wave (km/s) = 4.24570 -4.42232 -0.87490
# Velocity P-wave (km/s) = 6.51182 2.47078 4.26022
#
# Compressibility (1/GPa) = 0.02724841
#
# Stress axis : x y z
#
# Youngs Moduli (GPa) = 43.29826 96.76543 83.14397
#
# Poissons Ratio (x) = 0.35852 0.37097
# Poissons Ratio (y) = 0.16042 0.07795
# Poissons Ratio (z) = 0.19319 0.09072
#
# Static dielectric constant tensor:
#      x y z
#    x 1.702010 0.000000 0.000000 
#    y 0.000000 1.727880 0.000000 
#    z 0.000000 0.000000 1.675020 
# 
# From -- ./inp_files/17590.got.cif
#   From: 2010.05.17/outbox.cif.g08.bks.cpg/sg51_9_cif.got.tgz:17590.got - 2010.06.03 11:52:47.
