data_PCOD9402415
_publ_section_title
;
Structure prediction by ZEFSAII (Michael W. Deem and Ramdas Pophale) SiO2 
 PCOD9402415
Probable space group: P M M A
;
_chemical_formula_sum "Si O2"
_cell_formula_units_Z 52
_cell_length_a 9.352906
_cell_length_b 19.838158
_cell_length_c 15.328903
_cell_angle_alpha 90.000000
_cell_angle_beta 90.000000
_cell_angle_gamma 90.000000
_cell_volume 2844.192523
_symmetry_space_group_name_H-M "P M M A"
_symmetry_group_IT_number 51
_symmetry_cell_setting 'orthorhombic'
loop_
_space_group_symop_operation_xyz
x,y,z
1/2-x,-y,z
1/2+x,-y,-z
-x,y,-z
-x,-y,-z
1/2+x,y,-z
1/2-x,y,z
x,-y,z
loop_
_atom_site_type_symbol
_atom_site_label
_atom_site_fract_x
_atom_site_fract_y
_atom_site_fract_z
Si Si1 0.085781 0.000000 0.587887
Si Si2 0.582918 0.736839 0.590952
Si Si3 0.422221 0.697033 0.220846
Si Si4 0.920405 0.207284 0.086524
Si Si5 0.580184 0.577787 0.911130
Si Si6 0.910735 0.919664 0.871212
Si Si7 0.907288 0.112577 0.666915
O O1 0.000000 0.000000 0.500000
O O2 0.035192 0.065774 0.637989
O O3 0.250000 0.000000 0.571921
O O4 0.500000 0.729009 0.500000
O O5 0.750000 0.723627 0.573827
O O6 0.538945 0.694090 0.676730
O O7 0.571810 0.813193 0.628489
O O8 0.250000 0.712448 0.216446
O O9 0.510873 0.753928 0.169063
O O10 0.449576 0.628337 0.168078
O O11 0.750000 0.215457 0.082704
O O12 0.967611 0.128895 0.091794
O O13 0.000000 0.234509 0.000000
O O14 0.750000 0.580780 0.927580
O O15 0.542281 0.500000 0.890994
O O16 0.500000 0.597201 0.000000
O O17 0.750000 0.906896 0.908383
O O18 0.901883 0.896488 0.770482
O O19 0.938276 0.000000 0.877021
O O20 0.750000 0.088946 0.634481
#
# Coordination Sequence:
#
# PCOD9402415 Si02
#       7
#     4   8   8   8   8   8   8
#     4  12  24  34  48  72 101 132 175 226 284 344
#     4  10  21  36  56  79 107 143 183 230 278 329
#     4  10  20  38  60  83 116 153 189 231 282 331
#     4  12  25  39  58  83 112 145 188 234 281 337
#     4   9  18  33  57  89 122 154 188 226 273 331
#     4  10  20  38  61  79 103 140 181 229 288 345
#     4  10  19  36  56  74  99 134 175 223 286 342
#
# _framework density 18.282869000000002
#
# number of rings (size 3 to 8) (size 9 to 14) (size 15 to 20)
#    0.000    1.692    2.308    3.000    0.000    5.538 
#    0.000    0.000    0.000    0.462    0.000    0.000 
#    0.000    0.000    0.000    0.000    0.000    0.000 
#
# Total GULP energy -290099.244584 kJ/mol
# GULP energy per Si atom -5578.831627 kJ/mol
# Density = 1.824126 g / cm^3
# Si number density = 18.282869 Si / 1000 Ang^3
#
#
#
# Elastic Constant Matrix: (Units=GPa)
#
#
# Indices 1 2 3 4 5 6 
#
# 1 100.3412 39.8381 56.9024 0.0000 0.0000 0.0000
# 2 39.8381 87.8053 46.4161 0.0000 0.0000 0.0000
# 3 56.9024 46.4161 132.1411 0.0000 0.0000 0.0000
# 4 0.0000 0.0000 0.0000 28.1191 0.0000 0.0000
# 5 0.0000 0.0000 0.0000 0.0000 30.9425 0.0000
# 6 0.0000 0.0000 0.0000 0.0000 0.0000 15.4303
#
#
#
# Elastic Compliance Matrix: (Units=1/GPa)
#
#
# Indices 1 2 3 4 5 6 
#
# 1 0.014219 -0.003948 -0.004736 0.000000 0.000000 0.000000
# 2 -0.003948 0.015082 -0.003598 0.000000 0.000000 0.000000
# 3 -0.004736 -0.003598 0.010871 0.000000 0.000000 0.000000
# 4 0.000000 0.000000 0.000000 0.035563 0.000000 0.000000
# 5 0.000000 0.000000 0.000000 0.000000 0.032318 0.000000
# 6 0.000000 0.000000 0.000000 0.000000 0.000000 0.064807
#
#
# Mechanical properties :
#
#
# Convention : Reuss Voigt Hill
#
# Bulk Modulus (GPa) = 64.06772 67.40008 65.73390
# Shear Modulus (GPa) = 24.67589 26.70712 25.69151
#
# Velocity S-wave (km/s) = 3.67777 3.82615 3.75270
# Velocity P-wave (km/s) = 7.29063 7.51428 7.40330
#
# Compressibility (1/GPa) = 0.01560849
#
# Stress axis : x y z
#
# Youngs Moduli (GPa) = 70.32705 66.30526 91.98779
#
# Poissons Ratio (x) = 0.26175 0.43569
# Poissons Ratio (y) = 0.27762 0.33095
# Poissons Ratio (z) = 0.33310 0.23855
#
# Static dielectric constant tensor:
#      x y z
#    x 1.594690 0.000000 0.000000 
#    y 0.000000 1.643680 0.000000 
#    z 0.000000 0.000000 1.682890 
# 
# From -- ./inp_files/21616.got.cif
#   From: 2010.05.17/outbox.cif.g08.bks.cpg/sg51_11_cif.got.tgz:21616.got - 2010.06.03 11:52:47.
