data_PCOD9402818
_publ_section_title
;
Structure prediction by ZEFSAII (Michael W. Deem and Ramdas Pophale) SiO2 
 PCOD9402818
Probable space group: P M M A
;
_chemical_formula_sum "Si O2"
_cell_formula_units_Z 46
_cell_length_a 16.004191
_cell_length_b 8.314483
_cell_length_c 14.204966
_cell_angle_alpha 90.000000
_cell_angle_beta 90.000000
_cell_angle_gamma 90.000000
_cell_volume 1890.206159
_symmetry_space_group_name_H-M "P M M A"
_symmetry_group_IT_number 51
_symmetry_cell_setting 'orthorhombic'
loop_
_space_group_symop_operation_xyz
x,y,z
1/2-x,-y,z
1/2+x,-y,-z
-x,y,-z
-x,-y,-z
1/2+x,y,-z
1/2-x,y,z
x,-y,z
loop_
_atom_site_type_symbol
_atom_site_label
_atom_site_fract_x
_atom_site_fract_y
_atom_site_fract_z
Si Si1 0.750000 0.335224 0.755848
Si Si2 0.932654 0.000000 0.727240
Si Si3 0.091482 0.000000 0.050162
Si Si4 0.654595 0.305940 0.238581
Si Si5 0.424006 0.318744 0.359209
Si Si6 0.094571 0.318319 0.961856
Si Si7 0.750000 0.000000 0.749117
Si Si8 0.343872 0.695215 0.549778
O O1 0.750000 0.500000 0.813034
O O2 0.666922 0.336402 0.691393
O O3 0.750000 0.164885 0.805803
O O4 0.923693 0.000000 0.838958
O O5 0.967260 0.169995 0.692640
O O6 0.835488 0.000000 0.690689
O O7 0.132644 0.167337 0.017293
O O8 0.000000 0.000000 0.000000
O O9 0.750000 0.256010 0.215489
O O10 0.654278 0.500000 0.245442
O O11 0.637539 0.248294 0.344686
O O12 0.597989 0.270470 0.148392
O O13 0.462355 0.500000 0.354423
O O14 0.407233 0.268319 0.466481
O O15 0.131058 0.500000 0.971346
O O16 0.000000 0.331644 0.000000
O O17 0.250000 0.750540 0.525444
O O18 0.341255 0.500000 0.550286
#
# Coordination Sequence:
#
# PCOD9402818 Si02
#       8
#     4   4   4   8   8   8   2   8
#     4   8  12  20  36  56  85 129 167 183 212 276
#     4  10  20  32  47  72 101 133 170 211 254 299
#     4  10  22  40  57  73  95 129 180 234 272 309
#     4   8  14  26  48  79 113 142 173 220 272 316
#     4   9  15  25  43  67 100 138 168 196 237 303
#     4   9  18  35  58  79  99 133 183 231 275 324
#     4   8  16  28  40  62  96 124 152 194 242 288
#     4   8  12  21  41  70 105 146 177 198 243 312
#
# _framework density 24.33597
#
# number of rings (size 3 to 8) (size 9 to 14) (size 15 to 20)
#    0.000    3.304    0.870    1.043    0.000    0.696 
#    1.565    0.870    0.000    2.087    0.000    9.739 
#    0.000   23.652    0.000    0.000    0.000    0.000 
#
# Total GULP energy -256459.076419 kJ/mol
# GULP energy per Si atom -5575.197313 kJ/mol
# Density = 2.428058 g / cm^3
# Si number density = 24.335970 Si / 1000 Ang^3
#
#
#
# Elastic Constant Matrix: (Units=GPa)
#
#
# Indices 1 2 3 4 5 6 
#
# 1 63.8119 14.2101 13.8863 0.0000 0.0000 0.0000
# 2 14.2101 184.8700 70.5322 0.0000 0.0000 0.0000
# 3 13.8863 70.5322 186.9618 0.0000 0.0000 0.0000
# 4 0.0000 0.0000 0.0000 19.2138 0.0000 0.0000
# 5 0.0000 0.0000 0.0000 0.0000 9.2898 0.0000
# 6 0.0000 0.0000 0.0000 0.0000 0.0000 -89.6693
#
#
#
# Elastic Compliance Matrix: (Units=1/GPa)
#
#
# Indices 1 2 3 4 5 6 
#
# 1 0.016059 -0.000910 -0.000849 0.000000 0.000000 0.000000
# 2 -0.000910 0.006370 -0.002336 0.000000 0.000000 0.000000
# 3 -0.000849 -0.002336 0.006293 0.000000 0.000000 0.000000
# 4 0.000000 0.000000 0.000000 0.052046 0.000000 0.000000
# 5 0.000000 0.000000 0.000000 0.000000 0.107645 0.000000
# 6 0.000000 0.000000 0.000000 0.000000 0.000000 -0.011152
#
#
# Mechanical properties :
#
#
# Convention : Reuss Voigt Hill
#
# Bulk Modulus (GPa) = 48.70611 70.32232 59.51421
# Shear Modulus (GPa) = 26.00173 10.23453 18.11813
#
# Velocity S-wave (km/s) = 3.27226 2.05296 2.73151
# Velocity P-wave (km/s) = 5.85956 5.88037 5.86997
#
# Compressibility (1/GPa) = 0.02053130
#
# Stress axis : x y z
#
# Youngs Moduli (GPa) = 62.27191 156.97938 158.90964
#
# Poissons Ratio (x) = 0.14290 0.13496
# Poissons Ratio (y) = 0.05669 0.37115
# Poissons Ratio (z) = 0.05289 0.36664
#
# Static dielectric constant tensor:
#      x y z
#    x 2.036240 0.000000 0.000000 
#    y 0.000000 2.012010 0.000000 
#    z 0.000000 0.000000 1.894660 
# 
# From -- ./inp_files/18663.got.cif
#   From: 2010.05.17/outbox.cif.g08.bks.cpg/sg51_10_cif.got.tgz:18663.got - 2010.06.03 11:52:47.
