data_PCOD9402485
_publ_section_title
;
Structure prediction by ZEFSAII (Michael W. Deem and Ramdas Pophale) SiO2 
 PCOD9402485
Probable space group: P M M A
;
_chemical_formula_sum "Si O2"
_cell_formula_units_Z 22
_cell_length_a 7.797402
_cell_length_b 15.473777
_cell_length_c 7.514394
_cell_angle_alpha 90.000000
_cell_angle_beta 90.000000
_cell_angle_gamma 90.000000
_cell_volume 906.651160
_symmetry_space_group_name_H-M "P M M A"
_symmetry_group_IT_number 51
_symmetry_cell_setting 'orthorhombic'
loop_
_space_group_symop_operation_xyz
x,y,z
1/2-x,-y,z
1/2+x,-y,-z
-x,y,-z
-x,-y,-z
1/2+x,y,-z
1/2-x,y,z
x,-y,z
loop_
_atom_site_type_symbol
_atom_site_label
_atom_site_fract_x
_atom_site_fract_y
_atom_site_fract_z
Si Si1 0.500000 0.000000 0.000000
Si Si2 0.956265 0.500000 0.789397
Si Si3 0.446684 0.875278 0.696986
Si Si4 0.955620 0.686495 0.790387
O O1 0.454834 0.075491 0.148174
O O2 0.750000 0.500000 0.773454
O O3 0.018621 0.592915 0.719829
O O4 0.000000 0.500000 0.000000
O O5 0.500000 0.901292 0.500000
O O6 0.250000 0.900496 0.731349
O O7 0.465135 0.772178 0.708701
O O8 0.750000 0.691285 0.769630
O O9 0.000000 0.688621 0.000000
#
# Coordination Sequence:
#
# PCOD9402485 Si02
#       4
#     2   4   8   8
#     4  12  28  48  74  98 132 168 222 272 348 404
#     4   8  16  30  55  92 131 175 221 269 320 386
#     4  12  27  46  71 102 137 177 224 278 337 400
#     4  10  19  36  63  96 136 178 224 272 329 392
#
# _framework density 24.265121000000001
#
# number of rings (size 3 to 8) (size 9 to 14) (size 15 to 20)
#    0.000    1.455    1.818    3.273    0.000    5.818 
#    0.000    0.909    0.000    0.000    0.000    0.000 
#    0.000    0.000    0.000    0.000    0.000    0.000 
#
# Total GULP energy -122525.831158 kJ/mol
# GULP energy per Si atom -5569.355962 kJ/mol
# Density = 2.420989 g / cm^3
# Si number density = 24.265121 Si / 1000 Ang^3
#
#
#
# Elastic Constant Matrix: (Units=GPa)
#
#
# Indices 1 2 3 4 5 6 
#
# 1 75.6866 7.2296 -17.9284 0.0000 0.0000 0.0000
# 2 7.2296 251.6163 44.6020 0.0000 0.0000 0.0000
# 3 -17.9284 44.6020 137.3402 0.0000 0.0000 0.0000
# 4 0.0000 0.0000 0.0000 -151.9106 0.0000 0.0000
# 5 0.0000 0.0000 0.0000 0.0000 12.4500 0.0000
# 6 0.0000 0.0000 0.0000 0.0000 0.0000 65.6703
#
#
#
# Elastic Compliance Matrix: (Units=1/GPa)
#
#
# Indices 1 2 3 4 5 6 
#
# 1 0.013769 -0.000758 0.002043 0.000000 0.000000 0.000000
# 2 -0.000758 0.004259 -0.001482 0.000000 0.000000 0.000000
# 3 0.002043 -0.001482 0.008029 0.000000 0.000000 0.000000
# 4 0.000000 0.000000 0.000000 -0.006583 0.000000 0.000000
# 5 0.000000 0.000000 0.000000 0.000000 0.080321 0.000000
# 6 0.000000 0.000000 0.000000 0.000000 0.000000 0.015228
#
#
# Mechanical properties :
#
#
# Convention : Reuss Voigt Hill
#
# Bulk Modulus (GPa) = 38.96486 59.16107 49.06296
# Shear Modulus (GPa) = 40.33232 13.95795 27.14513
#
# Velocity S-wave (km/s) = 4.08137 2.40099 3.34831
# Velocity P-wave (km/s) = 6.18894 5.66748 5.93394
#
# Compressibility (1/GPa) = 0.02566415
#
# Stress axis : x y z
#
# Youngs Moduli (GPa) = 72.62781 234.80895 124.54494
#
# Poissons Ratio (x) = 0.17795 -0.25451
# Poissons Ratio (y) = 0.05504 0.18457
# Poissons Ratio (z) = -0.14841 0.34799
#
# Static dielectric constant tensor:
#      x y z
#    x 1.944890 0.000000 0.000000 
#    y 0.000000 1.964730 0.000000 
#    z 0.000000 0.000000 1.916200 
# 
# From -- ./inp_files/4504.got.cif
#   From: 2010.05.17/outbox.cif.g08.bks.cpg/sg51_3_cif.got.tgz:4504.got - 2010.06.03 11:52:47.
