data_PCOD9402673
_publ_section_title
;
Structure prediction by ZEFSAII (Michael W. Deem and Ramdas Pophale) SiO2 
 PCOD9402673
Probable space group: P M M A
;
_chemical_formula_sum "Si O2"
_cell_formula_units_Z 64
_cell_length_a 9.581168
_cell_length_b 15.459169
_cell_length_c 26.119268
_cell_angle_alpha 90.000000
_cell_angle_beta 90.000000
_cell_angle_gamma 90.000000
_cell_volume 3868.704884
_symmetry_space_group_name_H-M "P M M A"
_symmetry_group_IT_number 51
_symmetry_cell_setting 'orthorhombic'
loop_
_space_group_symop_operation_xyz
x,y,z
1/2-x,-y,z
1/2+x,-y,-z
-x,y,-z
-x,-y,-z
1/2+x,y,-z
1/2-x,y,z
x,-y,z
loop_
_atom_site_type_symbol
_atom_site_label
_atom_site_fract_x
_atom_site_fract_y
_atom_site_fract_z
Si Si1 0.415500 0.599863 0.347195
Si Si2 0.587279 0.904985 0.749242
Si Si3 0.588777 0.605315 0.049385
Si Si4 0.599307 0.900496 0.626445
Si Si5 0.595527 0.832321 0.454222
Si Si6 0.089514 0.625551 0.548741
Si Si7 0.585569 0.396776 0.850751
Si Si8 0.419606 0.713102 0.249109
O O1 0.250000 0.614772 0.358397
O O2 0.427037 0.500000 0.328459
O O3 0.506561 0.607951 0.398631
O O4 0.460434 0.667401 0.302770
O O5 0.750000 0.905777 0.766081
O O6 0.589147 0.902037 0.687412
O O7 0.526712 0.810500 0.762122
O O8 0.527572 0.000000 0.764117
O O9 0.750000 0.633607 0.047676
O O10 0.589753 0.500000 0.048456
O O11 0.509329 0.630341 0.101386
O O12 0.500000 0.633653 0.000000
O O13 0.750000 0.860929 0.612384
O O14 0.474892 0.852919 0.599475
O O15 0.597889 0.000000 0.609305
O O16 0.500000 0.866471 0.500000
O O17 0.750000 0.868258 0.458056
O O18 0.599567 0.729014 0.457849
O O19 0.250000 0.594459 0.549940
O O20 0.000000 0.594246 0.500000
O O21 0.750000 0.380195 0.861661
O O22 0.570778 0.500000 0.843758
O O23 0.546916 0.348175 0.798639
O O24 0.250000 0.719011 0.252169
#
# Coordination Sequence:
#
# PCOD9402673 Si02
#       8
#     8   8   8   8   8   8   8   8
#     4  10  20  33  50  71  92 117 150 185 224 272
#     4   8  14  25  43  67  90 112 142 180 220 261
#     4   9  16  26  41  62  90 126 166 203 235 266
#     4   9  17  29  45  64  85 109 137 171 215 266
#     4  10  20  32  46  63  82 105 134 168 209 260
#     4  10  21  36  52  68  85 109 143 183 227 272
#     4   9  16  26  41  63  93 128 163 195 226 263
#     4   9  16  27  45  67  93 124 154 186 224 268
#
# _framework density 16.543004
#
# number of rings (size 3 to 8) (size 9 to 14) (size 15 to 20)
#    0.000    2.750    0.000    3.000    0.000    6.500 
#    0.000    0.625    0.000    2.250    0.000    0.000 
#    0.000    0.500    0.000    0.875    0.000    1.250 
#
# Total GULP energy -356407.883124 kJ/mol
# GULP energy per Si atom -5568.873174 kJ/mol
# Density = 1.650535 g / cm^3
# Si number density = 16.543004 Si / 1000 Ang^3
#
#
#
# Elastic Constant Matrix: (Units=GPa)
#
#
# Indices 1 2 3 4 5 6 
#
# 1 87.0989 28.6673 47.9203 0.0000 0.0000 0.0000
# 2 28.6673 57.9634 34.9978 0.0000 0.0000 0.0000
# 3 47.9203 34.9978 95.3422 0.0000 0.0000 0.0000
# 4 0.0000 0.0000 0.0000 6.3683 0.0000 0.0000
# 5 0.0000 0.0000 0.0000 0.0000 20.7852 0.0000
# 6 0.0000 0.0000 0.0000 0.0000 0.0000 6.9511
#
#
#
# Elastic Compliance Matrix: (Units=1/GPa)
#
#
# Indices 1 2 3 4 5 6 
#
# 1 0.016585 -0.004072 -0.006841 0.000000 0.000000 0.000000
# 2 -0.004072 0.023165 -0.006456 0.000000 0.000000 0.000000
# 3 -0.006841 -0.006456 0.016297 0.000000 0.000000 0.000000
# 4 0.000000 0.000000 0.000000 0.157027 0.000000 0.000000
# 5 0.000000 0.000000 0.000000 0.000000 0.048111 0.000000
# 6 0.000000 0.000000 0.000000 0.000000 0.000000 0.143862
#
#
# Mechanical properties :
#
#
# Convention : Reuss Voigt Hill
#
# Bulk Modulus (GPa) = 46.93202 51.50836 49.22019
# Shear Modulus (GPa) = 11.18843 15.40887 13.29865
#
# Velocity S-wave (km/s) = 2.60344 3.05527 2.83836
# Velocity P-wave (km/s) = 6.12115 6.60680 6.36861
#
# Compressibility (1/GPa) = 0.02130741
#
# Stress axis : x y z
#
# Youngs Moduli (GPa) = 60.29399 43.16942 61.36069
#
# Poissons Ratio (x) = 0.17579 0.41979
# Poissons Ratio (y) = 0.24552 0.39617
# Poissons Ratio (z) = 0.41249 0.27872
#
# Static dielectric constant tensor:
#      x y z
#    x 1.566390 0.000000 0.000000 
#    y 0.000000 1.615100 0.000000 
#    z 0.000000 0.000000 1.533220 
# 
# From -- ./inp_files/35129.got.cif
#   From: 2010.05.17/outbox.cif.g08.bks.cpg/sg51_18_cif.got.tgz:35129.got - 2010.06.03 11:52:47.
