data_PCOD9402722
_publ_section_title
;
Structure prediction by ZEFSAII (Michael W. Deem and Ramdas Pophale) SiO2 
 PCOD9402722
Probable space group: P M M A
;
_chemical_formula_sum "Si O2"
_cell_formula_units_Z 40
_cell_length_a 26.863153
_cell_length_b 9.519442
_cell_length_c 7.348385
_cell_angle_alpha 90.000000
_cell_angle_beta 90.000000
_cell_angle_gamma 90.000000
_cell_volume 1879.145376
_symmetry_space_group_name_H-M "P M M A"
_symmetry_group_IT_number 51
_symmetry_cell_setting 'orthorhombic'
loop_
_space_group_symop_operation_xyz
x,y,z
1/2-x,-y,z
1/2+x,-y,-z
-x,y,-z
-x,-y,-z
1/2+x,y,-z
1/2-x,y,z
x,-y,z
loop_
_atom_site_type_symbol
_atom_site_label
_atom_site_fract_x
_atom_site_fract_y
_atom_site_fract_z
Si Si1 0.652301 0.162911 0.021919
Si Si2 0.556593 0.665836 0.058180
Si Si3 0.446457 0.840048 0.590626
Si Si4 0.840651 0.844528 0.466657
Si Si5 0.250000 0.336245 0.980794
Si Si6 0.250000 0.658360 0.536185
O O1 0.601000 0.241965 0.972453
O O2 0.655122 0.161736 0.244915
O O3 0.653326 0.000000 0.963822
O O4 0.700544 0.251427 0.962739
O O5 0.565901 0.500000 0.034852
O O6 0.557122 0.714599 0.267105
O O7 0.500000 0.697713 0.000000
O O8 0.500000 0.833381 0.500000
O O9 0.397267 0.826752 0.467049
O O10 0.442666 0.000000 0.672362
O O11 0.800035 0.734268 0.525408
O O12 0.822831 0.000000 0.513449
O O13 0.250000 0.500000 0.035609
O O14 0.250000 0.336752 0.758050
O O15 0.250000 0.500000 0.476633
#
# Coordination Sequence:
#
# PCOD9402722 Si02
#       6
#     8   8   8   8   4   4
#     4   9  16  26  41  61  86 117 152 188 227 272
#     4  10  20  32  46  67  95 125 157 192 232 278
#     4   9  18  32  49  69  92 119 153 191 231 276
#     4   8  14  24  38  57  83 112 140 175 219 264
#     4   9  15  23  37  59  88 117 144 181 230 278
#     4   9  15  21  33  55  82 111 142 175 212 258
#
# _framework density 21.286273999999999
#
# number of rings (size 3 to 8) (size 9 to 14) (size 15 to 20)
#    0.000    3.000    0.000    3.000    0.000    9.200 
#    0.000    0.000    0.000    0.000    0.000    1.400 
#    0.000    4.800    0.000    0.000    0.000    0.000 
#
# Total GULP energy -223053.618735 kJ/mol
# GULP energy per Si atom -5576.340468 kJ/mol
# Density = 2.123783 g / cm^3
# Si number density = 21.286274 Si / 1000 Ang^3
#
#
#
# Elastic Constant Matrix: (Units=GPa)
#
#
# Indices 1 2 3 4 5 6 
#
# 1 215.7368 145.2549 2.7046 0.0000 0.0000 0.0000
# 2 145.2549 171.0839 11.0003 0.0000 0.0000 0.0000
# 3 2.7046 11.0003 44.3103 0.0000 0.0000 0.0000
# 4 0.0000 0.0000 0.0000 -9.1219 0.0000 0.0000
# 5 0.0000 0.0000 0.0000 0.0000 9.0850 0.0000
# 6 0.0000 0.0000 0.0000 0.0000 0.0000 82.1627
#
#
#
# Elastic Compliance Matrix: (Units=1/GPa)
#
#
# Indices 1 2 3 4 5 6 
#
# 1 0.010941 -0.009396 0.001665 0.000000 0.000000 0.000000
# 2 -0.009396 0.014009 -0.002904 0.000000 0.000000 0.000000
# 3 0.001665 -0.002904 0.023188 0.000000 0.000000 0.000000
# 4 0.000000 0.000000 0.000000 -0.109626 0.000000 0.000000
# 5 0.000000 0.000000 0.000000 0.000000 0.110072 0.000000
# 6 0.000000 0.000000 0.000000 0.000000 0.000000 0.012171
#
#
# Mechanical properties :
#
#
# Convention : Reuss Voigt Hill
#
# Bulk Modulus (GPa) = 37.22118 83.22783 60.22451
# Shear Modulus (GPa) = 54.95641 34.56989 44.76315
#
# Velocity S-wave (km/s) = 5.08663 4.03432 4.59073
# Velocity P-wave (km/s) = 7.21265 7.80289 7.51357
#
# Compressibility (1/GPa) = 0.02686642
#
# Stress axis : x y z
#
# Youngs Moduli (GPa) = 91.40173 71.38114 43.12659
#
# Poissons Ratio (x) = 0.67070 -0.07180
# Poissons Ratio (y) = 0.85881 0.12526
# Poissons Ratio (z) = -0.15217 0.20732
#
# Static dielectric constant tensor:
#      x y z
#    x 1.787320 0.000000 0.000000 
#    y 0.000000 1.723240 0.000000 
#    z 0.000000 0.000000 1.855840 
# 
# From -- ./inp_files/12221.got.cif
#   From: 2010.05.17/outbox.cif.g08.bks.cpg/sg51_7_cif.got.tgz:12221.got - 2010.06.03 11:52:47.
