data_PCOD9402954
_publ_section_title
;
Structure prediction by ZEFSAII (Michael W. Deem and Ramdas Pophale) SiO2 
 PCOD9402954
Probable space group: P M M A
;
_chemical_formula_sum "Si O2"
_cell_formula_units_Z 64
_cell_length_a 14.238910
_cell_length_b 9.112631
_cell_length_c 26.700651
_cell_angle_alpha 90.000000
_cell_angle_beta 90.000000
_cell_angle_gamma 90.000000
_cell_volume 3464.514472
_symmetry_space_group_name_H-M "P M M A"
_symmetry_group_IT_number 51
_symmetry_cell_setting 'orthorhombic'
loop_
_space_group_symop_operation_xyz
x,y,z
1/2-x,-y,z
1/2+x,-y,-z
-x,y,-z
-x,-y,-z
1/2+x,y,-z
1/2-x,y,z
x,-y,z
loop_
_atom_site_type_symbol
_atom_site_label
_atom_site_fract_x
_atom_site_fract_y
_atom_site_fract_z
Si Si1 0.357307 0.324223 0.924282
Si Si2 0.860291 0.322861 0.364842
Si Si3 0.544996 0.675901 0.876359
Si Si4 0.467624 0.176264 0.320654
Si Si5 0.139436 0.824786 0.422321
Si Si6 0.863009 0.830315 0.971492
Si Si7 0.861036 0.323392 0.771469
Si Si8 0.135705 0.330574 0.523007
O O1 0.250000 0.280469 0.912500
O O2 0.358075 0.500000 0.932060
O O3 0.434325 0.290194 0.882175
O O4 0.387139 0.248073 0.976178
O O5 0.750000 0.290911 0.357206
O O6 0.870936 0.500000 0.362950
O O7 0.887775 0.273657 0.421514
O O8 0.928882 0.244235 0.326325
O O9 0.556417 0.500000 0.880638
O O10 0.594755 0.750174 0.923571
O O11 0.591298 0.720478 0.824066
O O12 0.413446 0.219484 0.371888
O O13 0.412111 0.242701 0.273971
O O14 0.470483 0.000000 0.317784
O O15 0.250000 0.787428 0.416956
O O16 0.103078 0.752981 0.473606
O O17 0.132380 0.000000 0.427314
O O18 0.750000 0.823969 0.967746
O O19 0.891891 0.000000 0.972638
O O20 0.750000 0.290506 0.772286
O O21 0.871463 0.500000 0.765920
O O22 0.250000 0.327165 0.522016
O O23 0.107167 0.500000 0.519872
#
# Coordination Sequence:
#
# PCOD9402954 Si02
#       8
#     8   8   8   8   8   8   8   8
#     4   9  18  33  53  78 110 146 180 215 259 313
#     4   9  19  37  58  79 106 139 176 219 265 316
#     4  10  20  35  56  80 106 140 184 229 269 312
#     4  11  23  37  55  79 107 140 179 223 270 322
#     4   9  18  32  49  72 105 142 176 212 260 319
#     4  10  20  32  49  78 114 148 181 219 266 319
#     4  10  22  40  60  81 106 137 176 224 274 322
#     4   8  15  29  50  76 104 135 172 214 259 308
#
# _framework density 18.473006999999999
#
# number of rings (size 3 to 8) (size 9 to 14) (size 15 to 20)
#    0.000    2.500    0.000    2.625    0.000    6.750 
#    0.000    5.625    0.000    2.250    0.000    0.000 
#    0.000    0.000    0.000    0.000    0.000    0.000 
#
# Total GULP energy -357206.811798 kJ/mol
# GULP energy per Si atom -5581.356434 kJ/mol
# Density = 1.843096 g / cm^3
# Si number density = 18.473007 Si / 1000 Ang^3
#
#
#
# Elastic Constant Matrix: (Units=GPa)
#
#
# Indices 1 2 3 4 5 6 
#
# 1 115.3764 46.2697 91.9839 0.0000 0.0000 0.0000
# 2 46.2697 26.2354 46.3361 0.0000 0.0000 0.0000
# 3 91.9839 46.3361 129.3246 0.0000 0.0000 0.0000
# 4 0.0000 0.0000 0.0000 102.6067 0.0000 0.0000
# 5 0.0000 0.0000 0.0000 0.0000 36.8418 0.0000
# 6 0.0000 0.0000 0.0000 0.0000 0.0000 17.9879
#
#
#
# Elastic Compliance Matrix: (Units=1/GPa)
#
#
# Indices 1 2 3 4 5 6 
#
# 1 0.031691 -0.043793 -0.006850 0.000000 0.000000 0.000000
# 2 -0.043793 0.164321 -0.027727 0.000000 0.000000 0.000000
# 3 -0.006850 -0.027727 0.022539 0.000000 0.000000 0.000000
# 4 0.000000 0.000000 0.000000 0.009746 0.000000 0.000000
# 5 0.000000 0.000000 0.000000 0.000000 0.027143 0.000000
# 6 0.000000 0.000000 0.000000 0.000000 0.000000 0.055593
#
#
# Mechanical properties :
#
#
# Convention : Reuss Voigt Hill
#
# Bulk Modulus (GPa) = 16.17818 71.12399 43.65108
# Shear Modulus (GPa) = 10.23803 37.24372 23.74088
#
# Velocity S-wave (km/s) = 2.35673 4.49499 3.58881
# Velocity P-wave (km/s) = 4.02273 8.09476 6.39169
#
# Compressibility (1/GPa) = 0.06181167
#
# Stress axis : x y z
#
# Youngs Moduli (GPa) = 31.55510 6.08564 44.36813
#
# Poissons Ratio (x) = 0.26651 0.30391
# Poissons Ratio (y) = 1.38189 1.23018
# Poissons Ratio (z) = 0.21614 0.16874
#
# Static dielectric constant tensor:
#      x y z
#    x 1.672400 0.000000 0.000000 
#    y 0.000000 1.613370 0.000000 
#    z 0.000000 0.000000 1.604490 
# 
# From -- ./inp_files/35683.got.cif
#   From: 2010.05.17/outbox.cif.g08.bks.cpg/sg51_18_cif.got.tgz:35683.got - 2010.06.03 11:52:47.
