data_PCOD9402634
_publ_section_title
;
Structure prediction by ZEFSAII (Michael W. Deem and Ramdas Pophale) SiO2 
 PCOD9402634
Probable space group: P M M A
;
_chemical_formula_sum "Si O2"
_cell_formula_units_Z 48
_cell_length_a 16.794856
_cell_length_b 7.429219
_cell_length_c 17.322810
_cell_angle_alpha 90.000000
_cell_angle_beta 90.000000
_cell_angle_gamma 90.000000
_cell_volume 2161.413139
_symmetry_space_group_name_H-M "P M M A"
_symmetry_group_IT_number 51
_symmetry_cell_setting 'orthorhombic'
loop_
_space_group_symop_operation_xyz
x,y,z
1/2-x,-y,z
1/2+x,-y,-z
-x,y,-z
-x,-y,-z
1/2+x,y,-z
1/2-x,y,z
x,-y,z
loop_
_atom_site_type_symbol
_atom_site_label
_atom_site_fract_x
_atom_site_fract_y
_atom_site_fract_z
Si Si1 0.839549 0.288526 0.673128
Si Si2 0.086260 0.205983 0.481093
Si Si3 0.397170 0.780162 0.841405
Si Si4 0.750000 0.780617 0.263482
Si Si5 0.342001 0.780396 0.011059
Si Si6 0.575789 0.783168 0.831908
Si Si7 0.750000 0.779767 0.442163
O O1 0.750000 0.215758 0.663712
O O2 0.837750 0.500000 0.656608
O O3 0.898486 0.205469 0.610463
O O4 0.868954 0.264692 0.760147
O O5 0.167838 0.282699 0.517741
O O6 0.000000 0.288143 0.500000
O O7 0.082425 0.000000 0.510373
O O8 0.328241 0.721729 0.783136
O O9 0.485523 0.720990 0.819311
O O10 0.396163 0.000000 0.840997
O O11 0.377554 0.724181 0.928956
O O12 0.750000 0.727611 0.352550
O O13 0.750000 0.000000 0.262516
O O14 0.250000 0.726162 0.016402
O O15 0.390084 0.719385 0.086116
O O16 0.343620 0.000000 0.011180
O O17 0.573936 0.000000 0.835883
O O18 0.750000 0.000000 0.447807
#
# Coordination Sequence:
#
# PCOD9402634 Si02
#       7
#     8   8   8   4   8   8   4
#     4  11  24  41  58  78 110 149 188 225 272 331
#     4  10  21  37  61  89 114 142 181 229 283 337
#     4   9  16  27  45  74 112 146 175 217 272 326
#     4   9  16  26  44  72 109 144 172 211 269 329
#     4   9  15  26  44  72 110 147 178 216 271 327
#     4  10  20  31  52  82 110 139 182 233 275 316
#     4   9  18  32  51  80 115 142 172 221 275 331
#
# _framework density 22.207694
#
# number of rings (size 3 to 8) (size 9 to 14) (size 15 to 20)
#    0.000    2.333    1.667    1.500    2.333    4.000 
#    0.000    0.000    0.000    2.000    0.000    0.583 
#    0.000    0.000    0.000    0.000    0.000    0.000 
#
# Total GULP energy -268228.791004 kJ/mol
# GULP energy per Si atom -5588.099813 kJ/mol
# Density = 2.215715 g / cm^3
# Si number density = 22.207694 Si / 1000 Ang^3
#
#
#
# Elastic Constant Matrix: (Units=GPa)
#
#
# Indices 1 2 3 4 5 6 
#
# 1 148.9468 9.9210 40.4165 0.0000 0.0000 0.0000
# 2 9.9210 72.5145 -2.3813 0.0000 0.0000 0.0000
# 3 40.4165 -2.3813 119.6983 0.0000 0.0000 0.0000
# 4 0.0000 0.0000 0.0000 -117.4945 0.0000 0.0000
# 5 0.0000 0.0000 0.0000 0.0000 29.9871 0.0000
# 6 0.0000 0.0000 0.0000 0.0000 0.0000 10.3883
#
#
#
# Elastic Compliance Matrix: (Units=1/GPa)
#
#
# Indices 1 2 3 4 5 6 
#
# 1 0.007479 -0.001107 -0.002547 0.000000 0.000000 0.000000
# 2 -0.001107 0.013963 0.000652 0.000000 0.000000 0.000000
# 3 -0.002547 0.000652 0.009227 0.000000 0.000000 0.000000
# 4 0.000000 0.000000 0.000000 -0.008511 0.000000 0.000000
# 5 0.000000 0.000000 0.000000 0.000000 0.033348 0.000000
# 6 0.000000 0.000000 0.000000 0.000000 0.000000 0.096263
#
#
# Mechanical properties :
#
#
# Convention : Reuss Voigt Hill
#
# Bulk Modulus (GPa) = 40.54469 48.56355 44.55412
# Shear Modulus (GPa) = 30.12139 4.12306 17.12223
#
# Velocity S-wave (km/s) = 3.68686 1.36405 2.77971
# Velocity P-wave (km/s) = 6.03495 4.93925 5.51438
#
# Compressibility (1/GPa) = 0.02466414
#
# Stress axis : x y z
#
# Youngs Moduli (GPa) = 133.71273 71.61701 108.37314
#
# Poissons Ratio (x) = 0.07927 0.27605
# Poissons Ratio (y) = 0.14800 -0.07061
# Poissons Ratio (z) = 0.34060 -0.04666
#
# Static dielectric constant tensor:
#      x y z
#    x 1.791850 0.000000 0.000000 
#    y 0.000000 1.878090 0.000000 
#    z 0.000000 0.000000 1.751180 
# 
# From -- ./inp_files/29511.got.cif
#   From: 2010.05.17/outbox.cif.g08.bks.cpg/sg51_15_cif.got.tgz:29511.got - 2010.06.03 11:52:47.
