data_PCOD9402395
_publ_section_title
;
Structure prediction by ZEFSAII (Michael W. Deem and Ramdas Pophale) SiO2 
 PCOD9402395
Probable space group: P M M A
;
_chemical_formula_sum "Si O2"
_cell_formula_units_Z 64
_cell_length_a 23.638848
_cell_length_b 14.009064
_cell_length_c 10.549367
_cell_angle_alpha 90.000000
_cell_angle_beta 90.000000
_cell_angle_gamma 90.000000
_cell_volume 3493.508696
_symmetry_space_group_name_H-M "P M M A"
_symmetry_group_IT_number 51
_symmetry_cell_setting 'orthorhombic'
loop_
_space_group_symop_operation_xyz
x,y,z
1/2-x,-y,z
1/2+x,-y,-z
-x,y,-z
-x,-y,-z
1/2+x,y,-z
1/2-x,y,z
x,-y,z
loop_
_atom_site_type_symbol
_atom_site_label
_atom_site_fract_x
_atom_site_fract_y
_atom_site_fract_z
Si Si1 0.479498 0.610019 0.861061
Si Si2 0.606537 0.886821 0.340822
Si Si3 0.817730 0.891924 0.845083
Si Si4 0.345537 0.606713 0.811889
Si Si5 0.631084 0.202780 0.601915
Si Si6 0.814931 0.811015 0.114317
Si Si7 0.817838 0.390033 0.486185
Si Si8 0.504720 0.755177 0.642170
O O1 0.497813 0.500000 0.844886
O O2 0.411564 0.612168 0.848040
O O3 0.502540 0.676422 0.750418
O O4 0.500000 0.641641 0.000000
O O5 0.636986 0.857575 0.472521
O O6 0.645132 0.852401 0.224094
O O7 0.547510 0.828026 0.339695
O O8 0.597164 0.000000 0.335777
O O9 0.750000 0.895298 0.851228
O O10 0.834005 0.835625 0.719560
O O11 0.839794 0.000000 0.838090
O O12 0.836222 0.843822 0.976686
O O13 0.324686 0.500000 0.844256
O O14 0.316151 0.696417 0.876230
O O15 0.337587 0.618267 0.660300
O O16 0.649462 0.310560 0.566476
O O17 0.565623 0.195817 0.642049
O O18 0.750000 0.843914 0.132557
O O19 0.750000 0.373300 0.490701
O O20 0.828336 0.500000 0.525682
O O21 0.500000 0.712590 0.500000
#
# Coordination Sequence:
#
# PCOD9402395 Si02
#       8
#     8   8   8   8   8   8   8   8
#     4  10  21  37  59  86 119 155 194 239 285 346
#     4  11  23  40  61  87 117 150 204 262 304 353
#     4  10  23  41  58  82 119 158 196 246 306 359
#     4  10  19  35  61  89 118 151 191 240 299 352
#     4  11  22  37  62  88 117 161 201 240 299 367
#     4  11  22  39  62  88 117 151 198 251 303 361
#     4  10  20  36  60  92 127 159 198 252 306 360
#     4  10  22  38  58  86 118 155 195 245 301 353
#
# _framework density 18.319690999999999
#
# number of rings (size 3 to 8) (size 9 to 14) (size 15 to 20)
#    0.000    1.625    2.500    2.250    1.750    5.500 
#    0.000    0.625    0.000    2.625    0.000    0.000 
#    0.000    0.000    0.000    0.000    0.000    0.000 
#
# Total GULP energy -357246.324720 kJ/mol
# GULP energy per Si atom -5581.973824 kJ/mol
# Density = 1.827800 g / cm^3
# Si number density = 18.319691 Si / 1000 Ang^3
#
#
#
# Elastic Constant Matrix: (Units=GPa)
#
#
# Indices 1 2 3 4 5 6 
#
# 1 57.0497 21.1346 43.1894 0.0000 0.0000 0.0000
# 2 21.1346 116.8387 80.1703 0.0000 0.0000 0.0000
# 3 43.1894 80.1703 136.6094 0.0000 0.0000 0.0000
# 4 0.0000 0.0000 0.0000 27.8119 0.0000 0.0000
# 5 0.0000 0.0000 0.0000 0.0000 48.0924 0.0000
# 6 0.0000 0.0000 0.0000 0.0000 0.0000 136.6956
#
#
#
# Elastic Compliance Matrix: (Units=1/GPa)
#
#
# Indices 1 2 3 4 5 6 
#
# 1 0.023180 0.001399 -0.008149 0.000000 0.000000 0.000000
# 2 0.001399 0.014413 -0.008901 0.000000 0.000000 0.000000
# 3 -0.008149 -0.008901 0.015120 0.000000 0.000000 0.000000
# 4 0.000000 0.000000 0.000000 0.035956 0.000000 0.000000
# 5 0.000000 0.000000 0.000000 0.000000 0.020793 0.000000
# 6 0.000000 0.000000 0.000000 0.000000 0.000000 0.007316
#
#
# Mechanical properties :
#
#
# Convention : Reuss Voigt Hill
#
# Bulk Modulus (GPa) = 46.70585 66.60959 56.65772
# Shear Modulus (GPa) = 32.21305 53.58687 42.89996
#
# Velocity S-wave (km/s) = 4.19786 5.41428 4.84440
# Velocity P-wave (km/s) = 7.00330 8.69048 7.89211
#
# Compressibility (1/GPa) = 0.02141059
#
# Stress axis : x y z
#
# Youngs Moduli (GPa) = 43.14108 69.38134 66.13769
#
# Poissons Ratio (x) = -0.09705 0.53897
# Poissons Ratio (y) = -0.06034 0.58867
# Poissons Ratio (z) = 0.35157 0.61754
#
# Static dielectric constant tensor:
#      x y z
#    x 1.641460 0.000000 0.000000 
#    y 0.000000 1.634940 0.000000 
#    z 0.000000 0.000000 1.605120 
# 
# From -- ./inp_files/11852.got.cif
#   From: 2010.05.17/outbox.cif.g08.bks.cpg/sg51_6_cif.got.tgz:11852.got - 2010.06.03 11:52:47.
