data_PCOD9402842
_publ_section_title
;
Structure prediction by ZEFSAII (Michael W. Deem and Ramdas Pophale) SiO2 
 PCOD9402842
Probable space group: P M M A
;
_chemical_formula_sum "Si O2"
_cell_formula_units_Z 40
_cell_length_a 8.895961
_cell_length_b 19.026711
_cell_length_c 14.064623
_cell_angle_alpha 90.000000
_cell_angle_beta 90.000000
_cell_angle_gamma 90.000000
_cell_volume 2380.590452
_symmetry_space_group_name_H-M "P M M A"
_symmetry_group_IT_number 51
_symmetry_cell_setting 'orthorhombic'
loop_
_space_group_symop_operation_xyz
x,y,z
1/2-x,-y,z
1/2+x,-y,-z
-x,y,-z
-x,-y,-z
1/2+x,y,-z
1/2-x,y,z
x,-y,z
loop_
_atom_site_type_symbol
_atom_site_label
_atom_site_fract_x
_atom_site_fract_y
_atom_site_fract_z
Si Si1 0.930428 0.783332 0.103259
Si Si2 0.570946 0.582317 0.396653
Si Si3 0.571086 0.845643 0.603350
Si Si4 0.070527 0.294976 0.278886
Si Si5 0.569253 0.079084 0.219482
O O1 0.750000 0.778479 0.099950
O O2 0.972518 0.860865 0.143625
O O3 0.995495 0.729060 0.180458
O O4 0.000000 0.772546 0.000000
O O5 0.500000 0.597307 0.500000
O O6 0.750000 0.593414 0.400772
O O7 0.542896 0.500000 0.375660
O O8 0.497379 0.633836 0.320476
O O9 0.500000 0.853907 0.500000
O O10 0.750000 0.854005 0.598089
O O11 0.538568 0.767993 0.645950
O O12 0.503597 0.899221 0.680411
O O13 0.250000 0.299962 0.268068
O O14 0.750000 0.081588 0.229775
O O15 0.525818 0.000000 0.191947
#
# Coordination Sequence:
#
# PCOD9402842 Si02
#       5
#     8   8   8   8   8
#     4  10  20  35  55  77 101 129 165 209 256 305
#     4  10  20  33  51  78 111 144 175 206 244 292
#     4  10  20  32  48  71  98 131 169 207 248 296
#     4  10  20  34  53  76 102 133 171 212 253 298
#     4   9  19  35  52  71  97 129 165 206 252 301
#
# _framework density 16.802555000000002
#
# number of rings (size 3 to 8) (size 9 to 14) (size 15 to 20)
#    0.000    2.200    0.000    3.000    0.000    7.200 
#    0.000    0.000    0.000    0.600    0.000    0.000 
#    0.000    0.000    0.000    0.000    0.000    0.000 
#
# Total GULP energy -223302.118579 kJ/mol
# GULP energy per Si atom -5582.552964 kJ/mol
# Density = 1.676431 g / cm^3
# Si number density = 16.802555 Si / 1000 Ang^3
#
#
#
# Elastic Constant Matrix: (Units=GPa)
#
#
# Indices 1 2 3 4 5 6 
#
# 1 53.5751 53.4859 50.4132 0.0000 0.0000 0.0000
# 2 53.4859 106.3589 72.8002 0.0000 0.0000 0.0000
# 3 50.4132 72.8002 130.6132 0.0000 0.0000 0.0000
# 4 0.0000 0.0000 0.0000 11.3415 0.0000 0.0000
# 5 0.0000 0.0000 0.0000 0.0000 29.4276 0.0000
# 6 0.0000 0.0000 0.0000 0.0000 0.0000 23.3114
#
#
#
# Elastic Compliance Matrix: (Units=1/GPa)
#
#
# Indices 1 2 3 4 5 6 
#
# 1 0.041119 -0.015869 -0.007026 0.000000 0.000000 0.000000
# 2 -0.015869 0.021326 -0.005761 0.000000 0.000000 0.000000
# 3 -0.007026 -0.005761 0.013579 0.000000 0.000000 0.000000
# 4 0.000000 0.000000 0.000000 0.088172 0.000000 0.000000
# 5 0.000000 0.000000 0.000000 0.000000 0.033982 0.000000
# 6 0.000000 0.000000 0.000000 0.000000 0.000000 0.042897
#
#
# Mechanical properties :
#
#
# Convention : Reuss Voigt Hill
#
# Bulk Modulus (GPa) = 53.44278 71.54953 62.49616
# Shear Modulus (GPa) = 16.41359 20.40596 18.40977
#
# Velocity S-wave (km/s) = 3.12885 3.48868 3.31366
# Velocity P-wave (km/s) = 6.70286 7.67482 7.20525
#
# Compressibility (1/GPa) = 0.01871160
#
# Stress axis : x y z
#
# Youngs Moduli (GPa) = 24.31947 46.89119 73.64124
#
# Poissons Ratio (x) = 0.74412 0.51741
# Poissons Ratio (y) = 0.38593 0.42428
# Poissons Ratio (z) = 0.17087 0.27016
#
# Static dielectric constant tensor:
#      x y z
#    x 1.554280 0.000000 0.000000 
#    y 0.000000 1.568740 0.000000 
#    z 0.000000 0.000000 1.526030 
# 
# From -- ./inp_files/13997.got.cif
#   From: 2010.05.17/outbox.cif.g08.bks.cpg/sg51_7_cif.got.tgz:13997.got - 2010.06.03 11:52:47.
