data_PCOD9402931
_publ_section_title
;
Structure prediction by ZEFSAII (Michael W. Deem and Ramdas Pophale) SiO2 
 PCOD9402931
Probable space group: P M M A
;
_chemical_formula_sum "Si O2"
_cell_formula_units_Z 64
_cell_length_a 16.029245
_cell_length_b 9.127909
_cell_length_c 23.238393
_cell_angle_alpha 90.000000
_cell_angle_beta 90.000000
_cell_angle_gamma 90.000000
_cell_volume 3400.090375
_symmetry_space_group_name_H-M "P M M A"
_symmetry_group_IT_number 51
_symmetry_cell_setting 'orthorhombic'
loop_
_space_group_symop_operation_xyz
x,y,z
1/2-x,-y,z
1/2+x,-y,-z
-x,y,-z
-x,-y,-z
1/2+x,y,-z
1/2-x,y,z
x,-y,z
loop_
_atom_site_type_symbol
_atom_site_label
_atom_site_fract_x
_atom_site_fract_y
_atom_site_fract_z
Si Si1 0.650039 0.835033 0.757259
Si Si2 0.107531 0.332914 0.126680
Si Si3 0.993980 0.175891 0.567856
Si Si4 0.653464 0.178626 0.356524
Si Si5 0.651912 0.331722 0.997538
Si Si6 0.409778 0.333848 0.883220
Si Si7 0.649825 0.834290 0.228756
Si Si8 0.151471 0.324502 0.360463
O O1 0.750000 0.844061 0.755301
O O2 0.628267 0.760145 0.817405
O O3 0.626138 0.738563 0.702148
O O4 0.615487 0.000000 0.752936
O O5 0.141342 0.500000 0.132906
O O6 0.138063 0.267748 0.065840
O O7 0.008533 0.341291 0.121660
O O8 0.080675 0.221015 0.599268
O O9 0.000000 0.204937 0.500000
O O10 0.913459 0.254381 0.594963
O O11 0.984897 0.000000 0.576043
O O12 0.750000 0.224864 0.368832
O O13 0.627841 0.227121 0.291893
O O14 0.655807 0.000000 0.355003
O O15 0.750000 0.337274 0.007851
O O16 0.618433 0.500000 0.992975
O O17 0.612113 0.264545 0.054770
O O18 0.375071 0.500000 0.883852
O O19 0.377028 0.253448 0.827040
O O20 0.750000 0.841182 0.229277
O O21 0.616664 0.000000 0.224452
O O22 0.250000 0.286384 0.370902
O O23 0.145602 0.500000 0.360763
#
# Coordination Sequence:
#
# PCOD9402931 Si02
#       8
#     8   8   8   8   8   8   8   8
#     4  10  21  37  57  81 108 140 182 232 282 331
#     4  10  20  33  51  77 107 139 175 217 272 336
#     4  10  21  36  59  92 123 154 195 240 285 336
#     4   8  16  33  55  79 111 151 190 229 279 338
#     4   9  17  31  51  71  97 138 180 219 265 320
#     4  10  20  32  49  76 106 134 172 222 271 321
#     4   9  18  33  52  73  99 136 180 222 270 327
#     4  10  22  40  61  85 118 159 199 241 290 343
#
# _framework density 18.823028999999998
#
# number of rings (size 3 to 8) (size 9 to 14) (size 15 to 20)
#    0.000    2.500    0.000    2.625    1.750    5.500 
#    0.000    1.875    0.000    4.875    0.000    0.000 
#    0.000    0.000    0.000    0.000    0.000    0.000 
#
# Total GULP energy -356761.603921 kJ/mol
# GULP energy per Si atom -5574.400061 kJ/mol
# Density = 1.878019 g / cm^3
# Si number density = 18.823029 Si / 1000 Ang^3
#
#
#
# Elastic Constant Matrix: (Units=GPa)
#
#
# Indices 1 2 3 4 5 6 
#
# 1 70.3916 32.6372 67.3763 0.0000 0.0000 0.0000
# 2 32.6372 47.7252 58.9275 0.0000 0.0000 0.0000
# 3 67.3763 58.9275 168.0920 0.0000 0.0000 0.0000
# 4 0.0000 0.0000 0.0000 26.4195 0.0000 0.0000
# 5 0.0000 0.0000 0.0000 0.0000 46.6060 0.0000
# 6 0.0000 0.0000 0.0000 0.0000 0.0000 22.4379
#
#
#
# Elastic Compliance Matrix: (Units=1/GPa)
#
#
# Indices 1 2 3 4 5 6 
#
# 1 0.024764 -0.008250 -0.007034 0.000000 0.000000 0.000000
# 2 -0.008250 0.039694 -0.010608 0.000000 0.000000 0.000000
# 3 -0.007034 -0.010608 0.012487 0.000000 0.000000 0.000000
# 4 0.000000 0.000000 0.000000 0.037851 0.000000 0.000000
# 5 0.000000 0.000000 0.000000 0.000000 0.021456 0.000000
# 6 0.000000 0.000000 0.000000 0.000000 0.000000 0.044567
#
#
# Mechanical properties :
#
#
# Convention : Reuss Voigt Hill
#
# Bulk Modulus (GPa) = 39.74512 67.12117 53.43315
# Shear Modulus (GPa) = 20.74765 27.57723 24.16244
#
# Velocity S-wave (km/s) = 3.32361 3.83179 3.58671
# Velocity P-wave (km/s) = 5.99079 7.43729 6.75288
#
# Compressibility (1/GPa) = 0.02516032
#
# Stress axis : x y z
#
# Youngs Moduli (GPa) = 40.38114 25.19304 80.08010
#
# Poissons Ratio (x) = 0.20784 0.56328
# Poissons Ratio (y) = 0.33314 0.84952
# Poissons Ratio (z) = 0.28404 0.26726
#
# Static dielectric constant tensor:
#      x y z
#    x 1.656050 0.000000 0.000000 
#    y 0.000000 1.676700 0.000000 
#    z 0.000000 0.000000 1.661380 
# 
# From -- ./inp_files/35782.got.cif
#   From: 2010.05.17/outbox.cif.g08.bks.cpg/sg51_18_cif.got.tgz:35782.got - 2010.06.03 11:52:47.
