data_PCOD9402928
_publ_section_title
;
Structure prediction by ZEFSAII (Michael W. Deem and Ramdas Pophale) SiO2 
 PCOD9402928
Probable space group: P M M A
;
_chemical_formula_sum "Si O2"
_cell_formula_units_Z 44
_cell_length_a 9.301341
_cell_length_b 8.291432
_cell_length_c 31.001022
_cell_angle_alpha 90.000000
_cell_angle_beta 90.000000
_cell_angle_gamma 90.000000
_cell_volume 2390.843347
_symmetry_space_group_name_H-M "P M M A"
_symmetry_group_IT_number 51
_symmetry_cell_setting 'orthorhombic'
loop_
_space_group_symop_operation_xyz
x,y,z
1/2-x,-y,z
1/2+x,-y,-z
-x,y,-z
-x,-y,-z
1/2+x,y,-z
1/2-x,y,z
x,-y,z
loop_
_atom_site_type_symbol
_atom_site_label
_atom_site_fract_x
_atom_site_fract_y
_atom_site_fract_z
Si Si1 0.583953 0.305235 0.542341
Si Si2 0.415699 0.307827 0.718386
Si Si3 0.575720 0.186484 0.189665
Si Si4 0.575015 0.321134 0.099419
Si Si5 0.075320 0.000000 0.953825
Si Si6 0.416104 0.192698 0.365163
O O1 0.500000 0.249103 0.500000
O O2 0.750000 0.251911 0.539551
O O3 0.581397 0.500000 0.542573
O O4 0.524571 0.247120 0.588324
O O5 0.250000 0.252288 0.713826
O O6 0.415364 0.500000 0.722970
O O7 0.476566 0.235805 0.762970
O O8 0.500295 0.259675 0.675762
O O9 0.750000 0.202143 0.191292
O O10 0.527880 0.291627 0.148932
O O11 0.542687 0.000000 0.180920
O O12 0.750000 0.321162 0.099368
O O13 0.528472 0.500000 0.084546
O O14 0.533451 0.164153 0.071655
O O15 0.250000 0.000000 0.957516
O O16 0.000000 0.000000 0.000000
O O17 0.250000 0.248980 0.363255
O O18 0.417961 0.000000 0.363406
#
# Coordination Sequence:
#
# PCOD9402928 Si02
#       6
#     8   8   8   8   4   8
#     4   9  18  33  52  72  94 123 160 202 247 295
#     4  10  20  32  49  76 105 132 165 207 254 300
#     4   9  15  26  46  73 104 133 164 207 255 299
#     4   9  16  28  48  74 103 135 173 214 257 309
#     4  10  20  34  52  76 104 136 174 216 263 308
#     4  10  21  36  52  71  99 135 171 204 245 301
#
# _framework density 18.403545999999999
#
# number of rings (size 3 to 8) (size 9 to 14) (size 15 to 20)
#    0.000    2.545    0.909    1.636    0.000    5.818 
#    0.000    1.818    0.000    1.091    0.000    0.000 
#    0.000    0.000    0.000    0.000    0.000    0.000 
#
# Total GULP energy -245267.794053 kJ/mol
# GULP energy per Si atom -5574.268047 kJ/mol
# Density = 1.836166 g / cm^3
# Si number density = 18.403546 Si / 1000 Ang^3
#
#
#
# Elastic Constant Matrix: (Units=GPa)
#
#
# Indices 1 2 3 4 5 6 
#
# 1 15.4578 13.7811 29.9033 0.0000 0.0000 0.0000
# 2 13.7811 82.2107 59.4851 0.0000 0.0000 0.0000
# 3 29.9033 59.4851 151.2707 0.0000 0.0000 0.0000
# 4 0.0000 0.0000 0.0000 25.3600 0.0000 0.0000
# 5 0.0000 0.0000 0.0000 0.0000 27.1578 0.0000
# 6 0.0000 0.0000 0.0000 0.0000 0.0000 9.3130
#
#
#
# Elastic Compliance Matrix: (Units=1/GPa)
#
#
# Indices 1 2 3 4 5 6 
#
# 1 0.105519 -0.003628 -0.019433 0.000000 0.000000 0.000000
# 2 -0.003628 0.017126 -0.006017 0.000000 0.000000 0.000000
# 3 -0.019433 -0.006017 0.012818 0.000000 0.000000 0.000000
# 4 0.000000 0.000000 0.000000 0.039432 0.000000 0.000000
# 5 0.000000 0.000000 0.000000 0.000000 0.036822 0.000000
# 6 0.000000 0.000000 0.000000 0.000000 0.000000 0.107377
#
#
# Mechanical properties :
#
#
# Convention : Reuss Voigt Hill
#
# Bulk Modulus (GPa) = 12.93525 50.58648 31.76086
# Shear Modulus (GPa) = 12.40636 22.08413 17.24525
#
# Velocity S-wave (km/s) = 2.59922 3.46785 3.06447
# Velocity P-wave (km/s) = 4.00647 6.60164 5.46047
#
# Compressibility (1/GPa) = 0.07730811
#
# Stress axis : x y z
#
# Youngs Moduli (GPa) = 9.47698 58.39074 78.01289
#
# Poissons Ratio (x) = 0.21181 1.51599
# Poissons Ratio (y) = 0.03438 0.46944
# Poissons Ratio (z) = 0.18416 0.35136
#
# Static dielectric constant tensor:
#      x y z
#    x 1.626330 0.000000 0.000000 
#    y 0.000000 1.644850 0.000000 
#    z 0.000000 0.000000 1.630470 
# 
# From -- ./inp_files/36785.got.cif
#   From: 2010.05.17/outbox.cif.g08.bks.cpg/sg51_19_cif.got.tgz:36785.got - 2010.06.03 11:52:47.
