data_PCOD9402843
_publ_section_title
;
Structure prediction by ZEFSAII (Michael W. Deem and Ramdas Pophale) SiO2 
 PCOD9402843
Probable space group: P M M A
;
_chemical_formula_sum "Si O2"
_cell_formula_units_Z 52
_cell_length_a 8.857717
_cell_length_b 18.510473
_cell_length_c 18.967698
_cell_angle_alpha 90.000000
_cell_angle_beta 90.000000
_cell_angle_gamma 90.000000
_cell_volume 3109.953843
_symmetry_space_group_name_H-M "P M M A"
_symmetry_group_IT_number 51
_symmetry_cell_setting 'orthorhombic'
loop_
_space_group_symop_operation_xyz
x,y,z
1/2-x,-y,z
1/2+x,-y,-z
-x,y,-z
-x,-y,-z
1/2+x,y,-z
1/2-x,y,z
x,-y,z
loop_
_atom_site_type_symbol
_atom_site_label
_atom_site_fract_x
_atom_site_fract_y
_atom_site_fract_z
Si Si1 0.069586 0.360690 0.348349
Si Si2 0.069813 0.500000 0.577817
Si Si3 0.070570 0.846580 0.279768
Si Si4 0.069993 0.920333 0.139044
Si Si5 0.069128 0.225290 0.924422
Si Si6 0.929510 0.791330 0.575933
Si Si7 0.571630 0.704087 0.216927
O O1 0.250000 0.368423 0.352203
O O2 0.027663 0.287295 0.391424
O O3 0.988769 0.428894 0.382415
O O4 0.018127 0.349947 0.267448
O O5 0.250000 0.500000 0.573899
O O6 0.000000 0.500000 0.500000
O O7 0.250000 0.825766 0.275314
O O8 0.049859 0.910337 0.223752
O O9 0.035290 0.849964 0.362712
O O10 0.968805 0.782129 0.249843
O O11 0.250000 0.915328 0.125673
O O12 0.991373 0.853127 0.100925
O O13 0.017138 0.000000 0.117242
O O14 0.250000 0.222187 0.927726
O O15 0.027536 0.284414 0.864598
O O16 0.000000 0.242058 0.000000
O O17 0.750000 0.790206 0.567048
O O18 0.000000 0.803611 0.500000
O O19 0.750000 0.689945 0.221563
#
# Coordination Sequence:
#
# PCOD9402843 Si02
#       7
#     8   4   8   8   8   8   8
#     4  10  20  34  50  69  95 129 164 196 234 282
#     4  12  24  36  50  72 105 140 171 204 238 276
#     4   8  15  28  43  61  85 113 149 192 235 281
#     4   9  17  30  48  66  86 118 157 193 233 284
#     4  10  20  32  48  71  99 126 153 190 235 282
#     4   9  17  27  42  63  86 113 147 189 233 275
#     4   9  17  30  48  70  92 118 155 196 235 275
#
# _framework density 16.720506
#
# number of rings (size 3 to 8) (size 9 to 14) (size 15 to 20)
#    0.000    2.615    0.000    3.462    0.000    6.769 
#    0.000    0.000    0.000    0.462    0.000    0.538 
#    0.000    0.000    0.000    0.000    0.000    0.923 
#
# Total GULP energy -289572.851955 kJ/mol
# GULP energy per Si atom -5568.708691 kJ/mol
# Density = 1.668245 g / cm^3
# Si number density = 16.720506 Si / 1000 Ang^3
#
#
#
# Elastic Constant Matrix: (Units=GPa)
#
#
# Indices 1 2 3 4 5 6 
#
# 1 44.7480 18.8228 36.9604 0.0000 0.0000 0.0000
# 2 18.8228 33.1398 20.0596 0.0000 0.0000 0.0000
# 3 36.9604 20.0596 136.9151 0.0000 0.0000 0.0000
# 4 0.0000 0.0000 0.0000 14.2075 0.0000 0.0000
# 5 0.0000 0.0000 0.0000 0.0000 29.9415 0.0000
# 6 0.0000 0.0000 0.0000 0.0000 0.0000 17.5808
#
#
#
# Elastic Compliance Matrix: (Units=1/GPa)
#
#
# Indices 1 2 3 4 5 6 
#
# 1 0.034700 -0.015405 -0.007110 0.000000 0.000000 0.000000
# 2 -0.015405 0.039951 -0.001695 0.000000 0.000000 0.000000
# 3 -0.007110 -0.001695 0.009472 0.000000 0.000000 0.000000
# 4 0.000000 0.000000 0.000000 0.070385 0.000000 0.000000
# 5 0.000000 0.000000 0.000000 0.000000 0.033398 0.000000
# 6 0.000000 0.000000 0.000000 0.000000 0.000000 0.056880
#
#
# Mechanical properties :
#
#
# Convention : Reuss Voigt Hill
#
# Bulk Modulus (GPa) = 28.00938 40.72093 34.36515
# Shear Modulus (GPa) = 16.38765 21.60998 18.99882
#
# Velocity S-wave (km/s) = 3.13404 3.59893 3.37450
# Velocity P-wave (km/s) = 5.46664 6.45573 5.98167
#
# Compressibility (1/GPa) = 0.03570233
#
# Stress axis : x y z
#
# Youngs Moduli (GPa) = 28.81812 25.03077 105.57967
#
# Poissons Ratio (x) = 0.38561 0.75071
# Poissons Ratio (y) = 0.44395 0.17891
# Poissons Ratio (z) = 0.20491 0.04242
#
# Static dielectric constant tensor:
#      x y z
#    x 1.559180 0.000000 0.000000 
#    y 0.000000 1.559360 0.000000 
#    z 0.000000 0.000000 1.602320 
# 
# From -- ./inp_files/27978.got.cif
#   From: 2010.05.17/outbox.cif.g08.bks.cpg/sg51_14_cif.got.tgz:27978.got - 2010.06.03 11:52:47.
