data_PCOD9402050
_publ_section_title
;
Structure prediction by ZEFSAII (Michael W. Deem and Ramdas Pophale) SiO2 
 PCOD9402050
Probable space group: P M M A
;
_chemical_formula_sum "Si O2"
_cell_formula_units_Z 48
_cell_length_a 8.621861
_cell_length_b 31.665453
_cell_length_c 9.498198
_cell_angle_alpha 90.000000
_cell_angle_beta 90.000000
_cell_angle_gamma 90.000000
_cell_volume 2593.151802
_symmetry_space_group_name_H-M "P M M A"
_symmetry_group_IT_number 51
_symmetry_cell_setting 'orthorhombic'
loop_
_space_group_symop_operation_xyz
x,y,z
1/2-x,-y,z
1/2+x,-y,-z
-x,y,-z
-x,-y,-z
1/2+x,y,-z
1/2-x,y,z
x,-y,z
loop_
_atom_site_type_symbol
_atom_site_label
_atom_site_fract_x
_atom_site_fract_y
_atom_site_fract_z
Si Si1 0.436213 0.830646 0.343085
Si Si2 0.436424 0.655718 0.155859
Si Si3 0.436463 0.000000 0.841247
Si Si4 0.563754 0.419038 0.342559
Si Si5 0.563199 0.907483 0.159600
Si Si6 0.563245 0.752570 0.845647
Si Si7 0.562932 0.500000 0.158144
O O1 0.500000 0.832603 0.500000
O O2 0.250000 0.831314 0.345333
O O3 0.496167 0.870145 0.253078
O O4 0.487892 0.787367 0.266409
O O5 0.250000 0.653311 0.153935
O O6 0.502743 0.623361 0.268955
O O7 0.483509 0.704295 0.186618
O O8 0.500000 0.645224 0.000000
O O9 0.483041 0.954205 0.782098
O O10 0.250000 0.000000 0.845694
O O11 0.500000 0.000000 0.000000
O O12 0.500000 0.423520 0.500000
O O13 0.750000 0.418358 0.347235
O O14 0.514242 0.458532 0.245171
O O15 0.750000 0.904909 0.156135
O O16 0.500000 0.903971 0.000000
O O17 0.750000 0.753261 0.851595
O O18 0.500000 0.763490 0.000000
O O19 0.750000 0.500000 0.151402
O O20 0.500000 0.500000 0.000000
#
# Coordination Sequence:
#
# PCOD9402050 Si02
#       7
#     8   8   4   8   8   8   4
#     4  11  23  38  54  77 108 144 182 224 272 324
#     4  10  20  37  59  85 114 146 183 226 271 323
#     4   8  16  30  51  78 107 136 172 216 264 314
#     4  11  23  39  58  84 115 150 187 228 276 328
#     4  10  19  34  56  82 109 140 177 220 266 319
#     4   9  20  37  58  82 109 141 181 224 271 322
#     4  10  23  40  60  84 112 146 187 230 277 326
#
# _framework density 18.510293999999998
#
# number of rings (size 3 to 8) (size 9 to 14) (size 15 to 20)
#    0.000    2.000    0.000    3.250    0.000    7.333 
#    0.000    2.083    0.000    0.000    0.000    0.000 
#    0.000    0.000    0.000    0.000    0.000    0.000 
#
# Total GULP energy -267998.694687 kJ/mol
# GULP energy per Si atom -5583.306139 kJ/mol
# Density = 1.846816 g / cm^3
# Si number density = 18.510294 Si / 1000 Ang^3
#
#
#
# Elastic Constant Matrix: (Units=GPa)
#
#
# Indices 1 2 3 4 5 6 
#
# 1 45.0947 40.9657 39.0343 0.0000 0.0000 0.0000
# 2 40.9657 144.3215 111.6127 0.0000 0.0000 0.0000
# 3 39.0343 111.6127 153.0050 0.0000 0.0000 0.0000
# 4 0.0000 0.0000 0.0000 -10.0161 0.0000 0.0000
# 5 0.0000 0.0000 0.0000 0.0000 34.7130 0.0000
# 6 0.0000 0.0000 0.0000 0.0000 0.0000 24.4205
#
#
#
# Elastic Compliance Matrix: (Units=1/GPa)
#
#
# Indices 1 2 3 4 5 6 
#
# 1 0.030622 -0.006081 -0.003376 0.000000 0.000000 0.000000
# 2 -0.006081 0.017105 -0.010926 0.000000 0.000000 0.000000
# 3 -0.003376 -0.010926 0.015367 0.000000 0.000000 0.000000
# 4 0.000000 0.000000 0.000000 -0.099839 0.000000 0.000000
# 5 0.000000 0.000000 0.000000 0.000000 0.028808 0.000000
# 6 0.000000 0.000000 0.000000 0.000000 0.000000 0.040949
#
#
# Mechanical properties :
#
#
# Convention : Reuss Voigt Hill
#
# Bulk Modulus (GPa) = 44.78761 80.62741 62.70751
# Shear Modulus (GPa) = 61.55940 19.87740 40.71840
#
# Velocity S-wave (km/s) = 5.77313 3.28053 4.69526
# Velocity P-wave (km/s) = 8.28778 7.61590 7.95893
#
# Compressibility (1/GPa) = 0.02232760
#
# Stress axis : x y z
#
# Youngs Moduli (GPa) = 32.65585 58.46255 65.07262
#
# Poissons Ratio (x) = 0.35551 0.21971
# Poissons Ratio (y) = 0.19858 0.71100
# Poissons Ratio (z) = 0.11026 0.63877
#
# Static dielectric constant tensor:
#      x y z
#    x 1.627710 0.000000 0.000000 
#    y 0.000000 1.662910 0.000000 
#    z 0.000000 0.000000 1.585390 
# 
# From -- ./inp_files/6110.got.cif
#   From: 2010.05.17/outbox.cif.g08.bks.cpg/sg51_4_cif.got.tgz:6110.got - 2010.06.03 11:52:47.
