data_PCOD9402955
_publ_section_title
;
Structure prediction by ZEFSAII (Michael W. Deem and Ramdas Pophale) SiO2 
 PCOD9402955
Probable space group: P M M A
;
_chemical_formula_sum "Si O2"
_cell_formula_units_Z 52
_cell_length_a 10.055131
_cell_length_b 17.252755
_cell_length_c 18.351963
_cell_angle_alpha 90.000000
_cell_angle_beta 90.000000
_cell_angle_gamma 90.000000
_cell_volume 3183.674897
_symmetry_space_group_name_H-M "P M M A"
_symmetry_group_IT_number 51
_symmetry_cell_setting 'orthorhombic'
loop_
_space_group_symop_operation_xyz
x,y,z
1/2-x,-y,z
1/2+x,-y,-z
-x,y,-z
-x,-y,-z
1/2+x,y,-z
1/2-x,y,z
x,-y,z
loop_
_atom_site_type_symbol
_atom_site_label
_atom_site_fract_x
_atom_site_fract_y
_atom_site_fract_z
Si Si1 0.906049 0.826241 0.929751
Si Si2 0.906244 0.778440 0.776141
Si Si3 0.250000 0.408568 0.613330
Si Si4 0.250000 0.593285 0.439143
Si Si5 0.903673 0.000000 0.931691
Si Si6 0.510992 0.319119 0.641546
Si Si7 0.403188 0.911949 0.718325
Si Si8 0.095463 0.837539 0.565106
O O1 0.750000 0.819481 0.950391
O O2 0.933089 0.768893 0.862333
O O3 0.924589 0.914652 0.898196
O O4 0.000000 0.816834 0.000000
O O5 0.750000 0.797884 0.769353
O O6 0.937231 0.709064 0.720264
O O7 0.998281 0.848916 0.750318
O O8 0.250000 0.500000 0.622856
O O9 0.250000 0.392995 0.526044
O O10 0.380505 0.371035 0.647301
O O11 0.250000 0.500000 0.427571
O O12 0.122290 0.633888 0.402828
O O13 0.750000 0.000000 0.955266
O O14 0.000000 0.000000 0.000000
O O15 0.465299 0.242411 0.597183
O O16 0.250000 0.897791 0.741831
O O17 0.405762 0.898262 0.631335
O O18 0.438700 0.000000 0.736672
O O19 0.250000 0.825438 0.543124
O O20 0.000000 0.862364 0.500000
#
# Coordination Sequence:
#
# PCOD9402955 Si02
#       8
#     8   8   4   4   4   8   8   8
#     4   9  18  32  50  75 102 132 172 214 257 311
#     4  10  21  35  53  75 105 141 173 212 260 311
#     4  11  22  36  56  82 108 140 175 212 254 306
#     4  11  22  36  56  80 108 140 171 210 258 308
#     4   8  14  26  44  66  98 130 159 203 254 296
#     4  11  21  36  52  76 109 138 172 212 254 310
#     4   9  20  36  49  67  95 129 175 224 267 306
#     4  10  20  32  50  69  92 129 170 216 267 308
#
# _framework density 16.333326
#
# number of rings (size 3 to 8) (size 9 to 14) (size 15 to 20)
#    0.000    2.154    1.538    1.846    3.231    3.077 
#    0.000    0.000    0.000    0.000    0.000    0.000 
#    0.000    3.692    0.000    0.000    0.000    0.000 
#
# Total GULP energy -289819.211530 kJ/mol
# GULP energy per Si atom -5573.446376 kJ/mol
# Density = 1.629615 g / cm^3
# Si number density = 16.333326 Si / 1000 Ang^3
#
#
#
# Elastic Constant Matrix: (Units=GPa)
#
#
# Indices 1 2 3 4 5 6 
#
# 1 90.3890 29.4722 46.1173 0.0000 0.0000 0.0000
# 2 29.4722 57.1846 23.6377 0.0000 0.0000 0.0000
# 3 46.1173 23.6377 84.4691 0.0000 0.0000 0.0000
# 4 0.0000 0.0000 0.0000 19.1476 0.0000 0.0000
# 5 0.0000 0.0000 0.0000 0.0000 23.5592 0.0000
# 6 0.0000 0.0000 0.0000 0.0000 0.0000 -18.1442
#
#
#
# Elastic Compliance Matrix: (Units=1/GPa)
#
#
# Indices 1 2 3 4 5 6 
#
# 1 0.016727 -0.005480 -0.007599 0.000000 0.000000 0.000000
# 2 -0.005480 0.021570 -0.003044 0.000000 0.000000 0.000000
# 3 -0.007599 -0.003044 0.016839 0.000000 0.000000 0.000000
# 4 0.000000 0.000000 0.000000 0.052226 0.000000 0.000000
# 5 0.000000 0.000000 0.000000 0.000000 0.042446 0.000000
# 6 0.000000 0.000000 0.000000 0.000000 0.000000 -0.055114
#
#
# Mechanical properties :
#
#
# Convention : Reuss Voigt Hill
#
# Bulk Modulus (GPa) = 43.68692 47.83299 45.75996
# Shear Modulus (GPa) = 37.15520 13.76688 25.46104
#
# Velocity S-wave (km/s) = 4.77467 2.90637 3.95250
# Velocity P-wave (km/s) = 7.56319 6.37274 6.99334
#
# Compressibility (1/GPa) = 0.02289015
#
# Stress axis : x y z
#
# Youngs Moduli (GPa) = 59.78311 46.36106 59.38472
#
# Poissons Ratio (x) = 0.25405 0.45126
# Poissons Ratio (y) = 0.32760 0.18078
# Poissons Ratio (z) = 0.45429 0.14113
#
# Static dielectric constant tensor:
#      x y z
#    x 1.548610 0.000000 0.000000 
#    y 0.000000 1.546520 0.000000 
#    z 0.000000 0.000000 1.564570 
# 
# From -- ./inp_files/28005.got.cif
#   From: 2010.05.17/outbox.cif.g08.bks.cpg/sg51_15_cif.got.tgz:28005.got - 2010.06.03 11:52:47.
