data_PCOD9402227
_publ_section_title
;
Structure prediction by ZEFSAII (Michael W. Deem and Ramdas Pophale) SiO2 
 PCOD9402227
Probable space group: P M M A
;
_chemical_formula_sum "Si O2"
_cell_formula_units_Z 56
_cell_length_a 15.693514
_cell_length_b 8.904853
_cell_length_c 21.656645
_cell_angle_alpha 90.000000
_cell_angle_beta 90.000000
_cell_angle_gamma 90.000000
_cell_volume 3026.482251
_symmetry_space_group_name_H-M "P M M A"
_symmetry_group_IT_number 51
_symmetry_cell_setting 'orthorhombic'
loop_
_space_group_symop_operation_xyz
x,y,z
1/2-x,-y,z
1/2+x,-y,-z
-x,y,-z
-x,-y,-z
1/2+x,y,-z
1/2-x,y,z
x,-y,z
loop_
_atom_site_type_symbol
_atom_site_label
_atom_site_fract_x
_atom_site_fract_y
_atom_site_fract_z
Si Si1 0.501373 0.819442 0.714349
Si Si2 0.152386 0.680529 0.639272
Si Si3 0.848660 0.179632 0.932110
Si Si4 0.004389 0.678632 0.150471
Si Si5 0.844017 0.819359 0.626309
Si Si6 0.898212 0.322269 0.498960
Si Si7 0.151591 0.179783 0.922108
O O1 0.415057 0.762239 0.682451
O O2 0.510264 0.751781 0.782136
O O3 0.579977 0.768685 0.670899
O O4 0.501562 0.000000 0.717569
O O5 0.250000 0.712312 0.656123
O O6 0.138945 0.500000 0.642797
O O7 0.136562 0.724976 0.567837
O O8 0.750000 0.215975 0.917256
O O9 0.916602 0.265447 0.890962
O O10 0.859565 0.000000 0.923603
O O11 0.861683 0.210568 0.004972
O O12 0.004496 0.500000 0.155162
O O13 0.917638 0.734749 0.118005
O O14 0.750000 0.771641 0.647819
O O15 0.858972 0.761385 0.557178
O O16 0.846315 0.000000 0.625406
O O17 0.881045 0.500000 0.505669
O O18 0.000000 0.299937 0.500000
O O19 0.250000 0.217595 0.907153
O O20 0.141418 0.000000 0.913629
#
# Coordination Sequence:
#
# PCOD9402227 Si02
#       7
#     8   8   8   8   8   8   8
#     4  11  24  41  59  79 109 152 199 242 285 337
#     4  10  21  38  59  84 115 149 186 232 288 345
#     4   9  19  38  64  91 119 153 193 237 283 335
#     4  12  25  38  57  86 121 157 194 237 291 346
#     4  10  22  39  59  84 112 144 187 238 288 336
#     4  10  19  34  60  88 116 147 182 226 281 346
#     4   9  19  38  64  91 118 152 195 238 282 338
#
# _framework density 18.503330999999999
#
# number of rings (size 3 to 8) (size 9 to 14) (size 15 to 20)
#    0.000    1.857    1.429    3.429    0.000    6.571 
#    0.000    2.857    0.000    0.000    0.000    0.000 
#    0.000    0.000    0.000    0.000    0.000    0.000 
#
# Total GULP energy -312881.365631 kJ/mol
# GULP energy per Si atom -5587.167243 kJ/mol
# Density = 1.846122 g / cm^3
# Si number density = 18.503331 Si / 1000 Ang^3
#
#
#
# Elastic Constant Matrix: (Units=GPa)
#
#
# Indices 1 2 3 4 5 6 
#
# 1 64.1151 28.4565 19.1557 0.0000 0.0000 0.0000
# 2 28.4565 32.8133 19.5142 0.0000 0.0000 0.0000
# 3 19.1557 19.5142 44.6603 0.0000 0.0000 0.0000
# 4 0.0000 0.0000 0.0000 72.2339 0.0000 0.0000
# 5 0.0000 0.0000 0.0000 0.0000 -10.9669 0.0000
# 6 0.0000 0.0000 0.0000 0.0000 0.0000 9.5200
#
#
#
# Elastic Compliance Matrix: (Units=1/GPa)
#
#
# Indices 1 2 3 4 5 6 
#
# 1 0.025454 -0.021052 -0.001719 0.000000 0.000000 0.000000
# 2 -0.021052 0.058586 -0.016569 0.000000 0.000000 0.000000
# 3 -0.001719 -0.016569 0.030369 0.000000 0.000000 0.000000
# 4 0.000000 0.000000 0.000000 0.013844 0.000000 0.000000
# 5 0.000000 0.000000 0.000000 0.000000 -0.091183 0.000000
# 6 0.000000 0.000000 0.000000 0.000000 0.000000 0.105042
#
#
# Mechanical properties :
#
#
# Convention : Reuss Voigt Hill
#
# Bulk Modulus (GPa) = 27.98952 30.64905 29.31928
# Shear Modulus (GPa) = 21.48669 19.12156 20.30412
#
# Velocity S-wave (km/s) = 3.41138 3.21816 3.31618
# Velocity P-wave (km/s) = 5.53862 5.51441 5.52653
#
# Compressibility (1/GPa) = 0.03572766
#
# Stress axis : x y z
#
# Youngs Moduli (GPa) = 39.28625 17.06884 32.92869
#
# Poissons Ratio (x) = 0.35933 0.05661
# Poissons Ratio (y) = 0.82706 0.54561
# Poissons Ratio (z) = 0.06754 0.28282
#
# Static dielectric constant tensor:
#      x y z
#    x 1.638360 0.000000 0.000000 
#    y 0.000000 1.619090 0.000000 
#    z 0.000000 0.000000 1.603500 
# 
# From -- ./inp_files/33370.got.cif
#   From: 2010.05.17/outbox.cif.g08.bks.cpg/sg51_17_cif.got.tgz:33370.got - 2010.06.03 11:52:47.
