data_PCOD9402710
_publ_section_title
;
Structure prediction by ZEFSAII (Michael W. Deem and Ramdas Pophale) SiO2 
 PCOD9402710
Probable space group: P M M A
;
_chemical_formula_sum "Si O2"
_cell_formula_units_Z 52
_cell_length_a 7.326812
_cell_length_b 13.765283
_cell_length_c 23.145197
_cell_angle_alpha 90.000000
_cell_angle_beta 90.000000
_cell_angle_gamma 90.000000
_cell_volume 2334.323672
_symmetry_space_group_name_H-M "P M M A"
_symmetry_group_IT_number 51
_symmetry_cell_setting 'orthorhombic'
loop_
_space_group_symop_operation_xyz
x,y,z
1/2-x,-y,z
1/2+x,-y,-z
-x,y,-z
-x,-y,-z
1/2+x,y,-z
1/2-x,y,z
x,-y,z
loop_
_atom_site_type_symbol
_atom_site_label
_atom_site_fract_x
_atom_site_fract_y
_atom_site_fract_z
Si Si1 0.467803 0.109508 0.431530
Si Si2 0.027580 0.104853 0.183149
Si Si3 0.972487 0.606393 0.882957
Si Si4 0.971632 0.694544 0.762305
Si Si5 0.526494 0.693613 0.631254
Si Si6 0.033065 0.806771 0.065107
Si Si7 0.533196 0.500000 0.567572
O O1 0.500000 0.125897 0.500000
O O2 0.250000 0.106268 0.422912
O O3 0.534192 0.202482 0.394962
O O4 0.536996 0.000000 0.417548
O O5 0.250000 0.104562 0.184029
O O6 0.971662 0.196562 0.220609
O O7 0.968543 0.125191 0.117161
O O8 0.965873 0.000000 0.203445
O O9 0.750000 0.606565 0.884030
O O10 0.033525 0.500000 0.901703
O O11 0.026957 0.627678 0.816385
O O12 0.034575 0.697398 0.921504
O O13 0.750000 0.691034 0.762268
O O14 0.030206 0.675074 0.697372
O O15 0.750000 0.696360 0.630290
O O16 0.464883 0.600848 0.594455
O O17 0.250000 0.802759 0.071887
O O18 0.000000 0.838239 0.000000
O O19 0.750000 0.500000 0.578519
O O20 0.500000 0.500000 0.500000
#
# Coordination Sequence:
#
# PCOD9402710 Si02
#       7
#     8   8   8   8   8   8   4
#     4   9  17  29  44  62  86 114 143 176 212 252
#     4   8  14  25  40  59  86 115 138 168 214 260
#     4   8  14  24  39  58  83 111 135 167 212 255
#     4   8  14  23  37  60  86 109 135 170 214 256
#     4   9  17  27  41  64  90 114 143 180 220 258
#     4   9  17  28  41  61  86 110 141 175 206 248
#     4  10  20  32  46  66  94 122 147 180 218 260
#
# _framework density 22.276260000000001
#
# number of rings (size 3 to 8) (size 9 to 14) (size 15 to 20)
#    0.000    3.385    0.000    2.308    1.077    1.231 
#    0.000    3.077    0.000    0.000    0.000    8.615 
#    0.000    0.000    0.000    0.000    0.000    0.000 
#
# Total GULP energy -290091.423816 kJ/mol
# GULP energy per Si atom -5578.681227 kJ/mol
# Density = 2.222556 g / cm^3
# Si number density = 22.276260 Si / 1000 Ang^3
#
#
#
# Elastic Constant Matrix: (Units=GPa)
#
#
# Indices 1 2 3 4 5 6 
#
# 1 85.6968 2.6028 -8.4533 0.0000 0.0000 0.0000
# 2 2.6028 69.0270 -5.8684 0.0000 0.0000 0.0000
# 3 -8.4533 -5.8684 77.6616 0.0000 0.0000 0.0000
# 4 0.0000 0.0000 0.0000 1.1727 0.0000 0.0000
# 5 0.0000 0.0000 0.0000 0.0000 10.2347 0.0000
# 6 0.0000 0.0000 0.0000 0.0000 0.0000 -13.2470
#
#
#
# Elastic Compliance Matrix: (Units=1/GPa)
#
#
# Indices 1 2 3 4 5 6 
#
# 1 0.011804 -0.000338 0.001259 0.000000 0.000000 0.000000
# 2 -0.000338 0.014590 0.001066 0.000000 0.000000 0.000000
# 3 0.001259 0.001066 0.013094 0.000000 0.000000 0.000000
# 4 0.000000 0.000000 0.000000 0.852733 0.000000 0.000000
# 5 0.000000 0.000000 0.000000 0.000000 0.097707 0.000000
# 6 0.000000 0.000000 0.000000 0.000000 0.000000 -0.075489
#
#
# Mechanical properties :
#
#
# Convention : Reuss Voigt Hill
#
# Bulk Modulus (GPa) = 23.00868 23.21638 23.11253
# Shear Modulus (GPa) = 5.40569 15.90571 10.65570
#
# Velocity S-wave (km/s) = 1.55946 2.67502 2.18948
# Velocity P-wave (km/s) = 3.68697 4.47053 4.09752
#
# Compressibility (1/GPa) = 0.04346185
#
# Stress axis : x y z
#
# Youngs Moduli (GPa) = 84.72041 68.53807 76.37098
#
# Poissons Ratio (x) = 0.02317 -0.09617
# Poissons Ratio (y) = 0.02864 -0.08139
# Poissons Ratio (z) = -0.10668 -0.07304
#
# Static dielectric constant tensor:
#      x y z
#    x 1.892630 0.000000 0.000000 
#    y 0.000000 1.798790 0.000000 
#    z 0.000000 0.000000 1.772520 
# 
# From -- ./inp_files/31718.got.cif
#   From: 2010.05.17/outbox.cif.g08.bks.cpg/sg51_16_cif.got.tgz:31718.got - 2010.06.03 11:52:47.
