data_PCOD9402950
_publ_section_title
;
Structure prediction by ZEFSAII (Michael W. Deem and Ramdas Pophale) SiO2 
 PCOD9402950
Probable space group: P M M A
;
_chemical_formula_sum "Si O2"
_cell_formula_units_Z 56
_cell_length_a 17.393299
_cell_length_b 14.034824
_cell_length_c 12.893902
_cell_angle_alpha 90.000000
_cell_angle_beta 90.000000
_cell_angle_gamma 90.000000
_cell_volume 3147.554790
_symmetry_space_group_name_H-M "P M M A"
_symmetry_group_IT_number 51
_symmetry_cell_setting 'orthorhombic'
loop_
_space_group_symop_operation_xyz
x,y,z
1/2-x,-y,z
1/2+x,-y,-z
-x,y,-z
-x,-y,-z
1/2+x,y,-z
1/2-x,y,z
x,-y,z
loop_
_atom_site_type_symbol
_atom_site_label
_atom_site_fract_x
_atom_site_fract_y
_atom_site_fract_z
Si Si1 0.928918 0.613341 0.819686
Si Si2 0.341434 0.284197 0.361790
Si Si3 0.660752 0.111823 0.314903
Si Si4 0.089719 0.287913 0.778110
Si Si5 0.341587 0.388663 0.578016
Si Si6 0.338736 0.609544 0.967630
Si Si7 0.413292 0.111212 0.461889
O O1 0.943940 0.500000 0.804959
O O2 0.870312 0.652725 0.733608
O O3 0.892882 0.625441 0.933686
O O4 0.005362 0.675731 0.806845
O O5 0.250000 0.269175 0.355917
O O6 0.359356 0.340040 0.468485
O O7 0.385358 0.183855 0.374396
O O8 0.750000 0.139185 0.298485
O O9 0.604780 0.177675 0.247651
O O10 0.640358 0.124257 0.436548
O O11 0.651701 0.000000 0.291946
O O12 0.114655 0.340448 0.672475
O O13 0.142765 0.321925 0.872729
O O14 0.250000 0.378407 0.595938
O O15 0.359890 0.500000 0.573211
O O16 0.250000 0.618398 0.999850
O O17 0.350965 0.500000 0.931796
O O18 0.500000 0.131706 0.500000
O O19 0.410039 0.000000 0.430890
#
# Coordination Sequence:
#
# PCOD9402950 Si02
#       7
#     8   8   8   8   8   8   8
#     4  11  24  39  56  80 114 155 195 231 276 342
#     4  11  22  36  55  79 112 156 194 228 274 335
#     4  10  20  35  57  84 114 147 184 229 284 343
#     4  12  21  35  58  85 114 141 183 238 292 334
#     4  10  20  32  49  78 113 146 181 225 278 332
#     4  10  21  38  60  83 109 146 192 237 280 332
#     4  10  20  35  55  82 113 146 188 238 288 337
#
# _framework density 17.791588999999998
#
# number of rings (size 3 to 8) (size 9 to 14) (size 15 to 20)
#    0.000    1.429    1.429    5.143    0.000    4.571 
#    0.000    1.429    0.000    2.571    0.000    0.000 
#    0.000    0.000    0.000    0.000    0.000    0.000 
#
# Total GULP energy -312905.194638 kJ/mol
# GULP energy per Si atom -5587.592761 kJ/mol
# Density = 1.775109 g / cm^3
# Si number density = 17.791589 Si / 1000 Ang^3
#
#
#
# Elastic Constant Matrix: (Units=GPa)
#
#
# Indices 1 2 3 4 5 6 
#
# 1 50.2362 21.6593 4.2806 0.0000 0.0000 0.0000
# 2 21.6593 76.5394 11.5441 0.0000 0.0000 0.0000
# 3 4.2806 11.5441 40.0004 0.0000 0.0000 0.0000
# 4 0.0000 0.0000 0.0000 16.8781 0.0000 0.0000
# 5 0.0000 0.0000 0.0000 0.0000 35.3756 0.0000
# 6 0.0000 0.0000 0.0000 0.0000 0.0000 29.9240
#
#
#
# Elastic Compliance Matrix: (Units=1/GPa)
#
#
# Indices 1 2 3 4 5 6 
#
# 1 0.022686 -0.006329 -0.000601 0.000000 0.000000 0.000000
# 2 -0.006329 0.015425 -0.003774 0.000000 0.000000 0.000000
# 3 -0.000601 -0.003774 0.026153 0.000000 0.000000 0.000000
# 4 0.000000 0.000000 0.000000 0.059248 0.000000 0.000000
# 5 0.000000 0.000000 0.000000 0.000000 0.028268 0.000000
# 6 0.000000 0.000000 0.000000 0.000000 0.000000 0.033418
#
#
# Mechanical properties :
#
#
# Convention : Reuss Voigt Hill
#
# Bulk Modulus (GPa) = 23.33426 26.86043 25.09734
# Shear Modulus (GPa) = 22.63533 25.05502 23.84517
#
# Velocity S-wave (km/s) = 3.57073 3.75674 3.66491
# Velocity P-wave (km/s) = 5.49035 5.82645 5.66089
#
# Compressibility (1/GPa) = 0.04285545
#
# Stress axis : x y z
#
# Youngs Moduli (GPa) = 44.08009 64.82783 38.23600
#
# Poissons Ratio (x) = 0.41030 0.02298
# Poissons Ratio (y) = 0.27899 0.14432
# Poissons Ratio (z) = 0.02650 0.24469
#
# Static dielectric constant tensor:
#      x y z
#    x 1.628130 0.000000 0.000000 
#    y 0.000000 1.618220 0.000000 
#    z 0.000000 0.000000 1.568410 
# 
# From -- ./inp_files/16602.got.cif
#   From: 2010.05.17/outbox.cif.g08.bks.cpg/sg51_9_cif.got.tgz:16602.got - 2010.06.03 11:52:47.
