data_PCOD9402005
_publ_section_title
;
Structure prediction by ZEFSAII (Michael W. Deem and Ramdas Pophale) SiO2 
 PCOD9402005
Probable space group: P M M A
;
_chemical_formula_sum "Si O2"
_cell_formula_units_Z 56
_cell_length_a 9.191699
_cell_length_b 22.323987
_cell_length_c 15.061781
_cell_angle_alpha 90.000000
_cell_angle_beta 90.000000
_cell_angle_gamma 90.000000
_cell_volume 3090.607710
_symmetry_space_group_name_H-M "P M M A"
_symmetry_group_IT_number 51
_symmetry_cell_setting 'orthorhombic'
loop_
_space_group_symop_operation_xyz
x,y,z
1/2-x,-y,z
1/2+x,-y,-z
-x,y,-z
-x,-y,-z
1/2+x,y,-z
1/2-x,y,z
x,-y,z
loop_
_atom_site_type_symbol
_atom_site_label
_atom_site_fract_x
_atom_site_fract_y
_atom_site_fract_z
Si Si1 0.927417 0.619096 0.402972
Si Si2 0.927126 0.293994 0.733319
Si Si3 0.966362 0.500000 0.894189
Si Si4 0.918749 0.500000 0.299747
Si Si5 0.073316 0.844984 0.250143
Si Si6 0.424421 0.931930 0.405769
Si Si7 0.924723 0.931958 0.905284
Si Si8 0.411507 0.636886 0.090793
O O1 0.750000 0.621500 0.408253
O O2 0.976098 0.560391 0.345877
O O3 0.000000 0.615901 0.500000
O O4 0.991587 0.675299 0.348828
O O5 0.750000 0.299470 0.723479
O O6 0.966341 0.224371 0.743982
O O7 0.971050 0.328886 0.823448
O O8 0.069251 0.500000 0.807153
O O9 0.900582 0.433679 0.885934
O O10 0.000000 0.500000 0.000000
O O11 0.750000 0.500000 0.322005
O O12 0.250000 0.846839 0.249174
O O13 0.025432 0.883021 0.335246
O O14 0.025201 0.881342 0.163273
O O15 0.500000 0.923672 0.500000
O O16 0.250000 0.927014 0.415919
O O17 0.454543 0.000000 0.374556
O O18 0.750000 0.927487 0.915191
O O19 0.954949 0.000000 0.872625
O O20 0.000000 0.924912 0.000000
O O21 0.250000 0.660680 0.074377
O O22 0.500000 0.643195 0.000000
#
# Coordination Sequence:
#
# PCOD9402005 Si02
#       8
#     8   8   4   4   8   8   8   8
#     4  11  23  41  62  85 110 143 182 228 279 328
#     4  10  21  38  56  79 109 145 185 226 270 323
#     4  10  19  34  55  85 111 140 176 217 269 318
#     4  10  21  38  62  87 114 143 180 228 275 327
#     4   9  18  33  54  76 104 142 181 218 262 320
#     4   9  17  31  52  77 102 131 169 214 263 313
#     4   9  17  31  52  78 107 142 183 227 273 321
#     4  10  21  35  54  79 108 142 179 220 267 320
#
# _framework density 18.119413999999999
#
# number of rings (size 3 to 8) (size 9 to 14) (size 15 to 20)
#    0.000    2.286    1.429    1.286    0.000    5.714 
#    0.000    4.643    0.000    3.429    0.000    0.000 
#    0.000    0.000    0.000    0.000    0.000    0.000 
#
# Total GULP energy -311860.184886 kJ/mol
# GULP energy per Si atom -5568.931873 kJ/mol
# Density = 1.807817 g / cm^3
# Si number density = 18.119414 Si / 1000 Ang^3
#
#
#
# Elastic Constant Matrix: (Units=GPa)
#
#
# Indices 1 2 3 4 5 6 
#
# 1 27.7343 27.6959 30.8263 0.0000 0.0000 0.0000
# 2 27.6959 154.9822 86.0636 0.0000 0.0000 0.0000
# 3 30.8263 86.0636 122.6863 0.0000 0.0000 0.0000
# 4 0.0000 0.0000 0.0000 -55.9296 0.0000 0.0000
# 5 0.0000 0.0000 0.0000 0.0000 24.0014 0.0000
# 6 0.0000 0.0000 0.0000 0.0000 0.0000 19.6482
#
#
#
# Elastic Compliance Matrix: (Units=1/GPa)
#
#
# Indices 1 2 3 4 5 6 
#
# 1 0.051022 -0.003274 -0.010523 0.000000 0.000000 0.000000
# 2 -0.003274 0.010780 -0.006739 0.000000 0.000000 0.000000
# 3 -0.010523 -0.006739 0.015522 0.000000 0.000000 0.000000
# 4 0.000000 0.000000 0.000000 -0.017880 0.000000 0.000000
# 5 0.000000 0.000000 0.000000 0.000000 0.041664 0.000000
# 6 0.000000 0.000000 0.000000 0.000000 0.000000 0.050895
#
#
# Mechanical properties :
#
#
# Convention : Reuss Voigt Hill
#
# Bulk Modulus (GPa) = 27.58513 66.06380 46.82447
# Shear Modulus (GPa) = 24.37102 8.26515 16.31808
#
# Velocity S-wave (km/s) = 3.67143 2.13808 3.00423
# Velocity P-wave (km/s) = 5.76452 6.52952 6.15891
#
# Compressibility (1/GPa) = 0.03625141
#
# Stress axis : x y z
#
# Youngs Moduli (GPa) = 19.59927 92.76512 64.42265
#
# Poissons Ratio (x) = 0.30374 0.67792
# Poissons Ratio (y) = 0.06417 0.43417
# Poissons Ratio (z) = 0.20624 0.62517
#
# Static dielectric constant tensor:
#      x y z
#    x 1.645650 0.000000 0.000000 
#    y 0.000000 1.629520 0.000000 
#    z 0.000000 0.000000 1.610590 
# 
# From -- ./inp_files/21901.got.cif
#   From: 2010.05.17/outbox.cif.g08.bks.cpg/sg51_11_cif.got.tgz:21901.got - 2010.06.03 11:52:47.
