data_PCOD9402883
_publ_section_title
;
Structure prediction by ZEFSAII (Michael W. Deem and Ramdas Pophale) SiO2 
 PCOD9402883
Probable space group: P M M A
;
_chemical_formula_sum "Si O2"
_cell_formula_units_Z 56
_cell_length_a 15.449599
_cell_length_b 7.503042
_cell_length_c 22.015837
_cell_angle_alpha 90.000000
_cell_angle_beta 90.000000
_cell_angle_gamma 90.000000
_cell_volume 2552.053593
_symmetry_space_group_name_H-M "P M M A"
_symmetry_group_IT_number 51
_symmetry_cell_setting 'orthorhombic'
loop_
_space_group_symop_operation_xyz
x,y,z
1/2-x,-y,z
1/2+x,-y,-z
-x,y,-z
-x,-y,-z
1/2+x,y,-z
1/2-x,y,z
x,-y,z
loop_
_atom_site_type_symbol
_atom_site_label
_atom_site_fract_x
_atom_site_fract_y
_atom_site_fract_z
Si Si1 0.051335 0.300824 0.834261
Si Si2 0.575523 0.208405 0.936473
Si Si3 0.999568 0.215083 0.407589
Si Si4 0.750000 0.786263 0.868593
Si Si5 0.654622 0.284272 0.061989
Si Si6 0.250000 0.298767 0.270079
Si Si7 0.559658 0.290730 0.723661
Si Si8 0.351002 0.782784 0.500290
O O1 0.076003 0.500000 0.813260
O O2 0.132023 0.217757 0.870052
O O3 0.989351 0.312021 0.893062
O O4 0.996187 0.215738 0.779920
O O5 0.667140 0.260365 0.907470
O O6 0.558950 0.000000 0.925031
O O7 0.589163 0.231924 0.008263
O O8 0.007713 0.274808 0.338584
O O9 0.086694 0.272136 0.444052
O O10 0.911381 0.271008 0.442171
O O11 0.999678 0.000000 0.409097
O O12 0.750000 0.698560 0.802966
O O13 0.750000 0.000000 0.858512
O O14 0.750000 0.221045 0.044479
O O15 0.655404 0.500000 0.064083
O O16 0.250000 0.500000 0.296109
O O17 0.343301 0.214596 0.285794
O O18 0.573739 0.500000 0.738698
O O19 0.250000 0.723298 0.499334
O O20 0.348038 0.000000 0.499893
#
# Coordination Sequence:
#
# PCOD9402883 Si02
#       8
#     8   8   8   4   8   4   8   8
#     4  10  21  37  54  72  97 134 174 209 251 305
#     4  11  21  34  52  76 103 129 161 208 265 314
#     4   9  18  32  54  82 107 137 176 211 249 296
#     4  10  20  32  48  74 104 130 161 204 253 310
#     4  10  21  36  54  73  94 126 171 216 257 307
#     4  10  20  34  52  72 100 142 175 198 249 314
#     4  10  21  35  51  74 107 139 168 208 254 300
#     4   8  15  31  54  80 110 141 173 210 248 292
#
# _framework density 21.943114000000001
#
# number of rings (size 3 to 8) (size 9 to 14) (size 15 to 20)
#    0.000    2.286    2.143    1.714    1.000    4.000 
#    0.000    2.143    0.000    2.143    0.000    0.000 
#    0.000    0.000    0.000    0.000    0.000    0.000 
#
# Total GULP energy -312199.760937 kJ/mol
# GULP energy per Si atom -5574.995731 kJ/mol
# Density = 2.189317 g / cm^3
# Si number density = 21.943114 Si / 1000 Ang^3
#
#
#
# Elastic Constant Matrix: (Units=GPa)
#
#
# Indices 1 2 3 4 5 6 
#
# 1 120.1031 0.6542 47.7138 0.0000 0.0000 0.0000
# 2 0.6542 56.6652 -1.8043 0.0000 0.0000 0.0000
# 3 47.7138 -1.8043 120.3890 0.0000 0.0000 0.0000
# 4 0.0000 0.0000 0.0000 16.1439 0.0000 0.0000
# 5 0.0000 0.0000 0.0000 0.0000 11.6281 0.0000
# 6 0.0000 0.0000 0.0000 0.0000 0.0000 15.0741
#
#
#
# Elastic Compliance Matrix: (Units=1/GPa)
#
#
# Indices 1 2 3 4 5 6 
#
# 1 0.009885 -0.000239 -0.003921 0.000000 0.000000 0.000000
# 2 -0.000239 0.017662 0.000359 0.000000 0.000000 0.000000
# 3 -0.003921 0.000359 0.009866 0.000000 0.000000 0.000000
# 4 0.000000 0.000000 0.000000 0.061943 0.000000 0.000000
# 5 0.000000 0.000000 0.000000 0.000000 0.085998 0.000000
# 6 0.000000 0.000000 0.000000 0.000000 0.000000 0.066339
#
#
# Mechanical properties :
#
#
# Convention : Reuss Voigt Hill
#
# Bulk Modulus (GPa) = 33.54464 43.36496 38.45480
# Shear Modulus (GPa) = 18.57130 25.27546 21.92338
#
# Velocity S-wave (km/s) = 2.91235 3.39759 3.16428
# Velocity P-wave (km/s) = 5.16036 5.93269 5.55995
#
# Compressibility (1/GPa) = 0.02981102
#
# Stress axis : x y z
#
# Youngs Moduli (GPa) = 101.15959 56.61967 101.35836
#
# Poissons Ratio (x) = 0.01353 0.39747
# Poissons Ratio (y) = 0.02418 -0.03643
# Poissons Ratio (z) = 0.39669 -0.02035
#
# Static dielectric constant tensor:
#      x y z
#    x 1.899390 0.000000 0.000000 
#    y 0.000000 1.880910 0.000000 
#    z 0.000000 0.000000 1.771460 
# 
# From -- ./inp_files/33565.got.cif
#   From: 2010.05.17/outbox.cif.g08.bks.cpg/sg51_17_cif.got.tgz:33565.got - 2010.06.03 11:52:47.
