data_PCOD9402687
_publ_section_title
;
Structure prediction by ZEFSAII (Michael W. Deem and Ramdas Pophale) SiO2 
 PCOD9402687
Probable space group: P M M A
;
_chemical_formula_sum "Si O2"
_cell_formula_units_Z 56
_cell_length_a 9.459139
_cell_length_b 20.580470
_cell_length_c 15.503293
_cell_angle_alpha 90.000000
_cell_angle_beta 90.000000
_cell_angle_gamma 90.000000
_cell_volume 3018.080719
_symmetry_space_group_name_H-M "P M M A"
_symmetry_group_IT_number 51
_symmetry_cell_setting 'orthorhombic'
loop_
_space_group_symop_operation_xyz
x,y,z
1/2-x,-y,z
1/2+x,-y,-z
-x,y,-z
-x,-y,-z
1/2+x,y,-z
1/2-x,y,z
x,-y,z
loop_
_atom_site_type_symbol
_atom_site_label
_atom_site_fract_x
_atom_site_fract_y
_atom_site_fract_z
Si Si1 0.078210 0.216884 0.915354
Si Si2 0.414698 0.312933 0.413418
Si Si3 0.419700 0.680645 0.766772
Si Si4 0.591764 0.156758 0.579925
Si Si5 0.089024 0.929896 0.891243
Si Si6 0.907071 0.072529 0.314101
Si Si7 0.582401 0.576052 0.087027
O O1 0.250000 0.219380 0.925190
O O2 0.046708 0.256298 0.827031
O O3 0.029684 0.141416 0.910293
O O4 0.000000 0.244930 0.000000
O O5 0.500000 0.334929 0.500000
O O6 0.250000 0.335291 0.413279
O O7 0.495809 0.325962 0.323039
O O8 0.410392 0.234424 0.418557
O O9 0.250000 0.682431 0.748949
O O10 0.451370 0.620633 0.830973
O O11 0.500000 0.133383 0.500000
O O12 0.750000 0.133680 0.571905
O O13 0.518108 0.126520 0.661980
O O14 0.250000 0.930343 0.926518
O O15 0.100415 0.930760 0.788319
O O16 0.020677 0.000000 0.912949
O O17 0.750000 0.089921 0.346277
O O18 0.943362 0.000000 0.346080
O O19 0.750000 0.583515 0.070992
O O20 0.553408 0.500000 0.104711
O O21 0.500000 0.594138 0.000000
#
# Coordination Sequence:
#
# PCOD9402687 Si02
#       7
#     8   8   8   8   8   8   8
#     4  10  20  32  48  72 101 133 170 213 260 309
#     4  10  21  36  55  79 105 135 173 217 264 315
#     4  10  20  34  54  79 108 142 177 217 265 312
#     4  10  20  32  46  65  90 120 154 197 252 311
#     4   8  15  29  47  64  85 119 162 204 248 300
#     4   9  17  30  48  66  84 113 156 204 254 310
#     4   9  18  33  54  82 116 152 187 221 260 310
#
# _framework density 18.554839000000001
#
# number of rings (size 3 to 8) (size 9 to 14) (size 15 to 20)
#    0.000    2.571    0.000    3.000    0.000    4.857 
#    0.000    0.714    0.000    1.286    0.000    0.000 
#    0.000    0.000    0.000    0.000    0.000    0.000 
#
# Total GULP energy -311805.196404 kJ/mol
# GULP energy per Si atom -5567.949936 kJ/mol
# Density = 1.851261 g / cm^3
# Si number density = 18.554839 Si / 1000 Ang^3
#
#
#
# Elastic Constant Matrix: (Units=GPa)
#
#
# Indices 1 2 3 4 5 6 
#
# 1 70.5378 33.1407 65.4202 0.0000 0.0000 0.0000
# 2 33.1407 71.0765 42.3245 0.0000 0.0000 0.0000
# 3 65.4202 42.3245 140.5137 0.0000 0.0000 0.0000
# 4 0.0000 0.0000 0.0000 19.4390 0.0000 0.0000
# 5 0.0000 0.0000 0.0000 0.0000 30.8306 0.0000
# 6 0.0000 0.0000 0.0000 0.0000 0.0000 -21.3762
#
#
#
# Elastic Compliance Matrix: (Units=1/GPa)
#
#
# Indices 1 2 3 4 5 6 
#
# 1 0.027038 -0.006228 -0.010712 0.000000 0.000000 0.000000
# 2 -0.006228 0.018579 -0.002697 0.000000 0.000000 0.000000
# 3 -0.010712 -0.002697 0.012916 0.000000 0.000000 0.000000
# 4 0.000000 0.000000 0.000000 0.051443 0.000000 0.000000
# 5 0.000000 0.000000 0.000000 0.000000 0.032435 0.000000
# 6 0.000000 0.000000 0.000000 0.000000 0.000000 -0.046781
#
#
# Mechanical properties :
#
#
# Convention : Reuss Voigt Hill
#
# Bulk Modulus (GPa) = 51.92224 62.65542 57.28883
# Shear Modulus (GPa) = 35.37950 15.19487 25.28719
#
# Velocity S-wave (km/s) = 4.37138 2.86478 3.69566
# Velocity P-wave (km/s) = 7.31590 6.69205 7.01092
#
# Compressibility (1/GPa) = 0.01925957
#
# Stress axis : x y z
#
# Youngs Moduli (GPa) = 36.98478 53.82411 77.42042
#
# Poissons Ratio (x) = 0.33522 0.82936
# Poissons Ratio (y) = 0.23034 0.20877
# Poissons Ratio (z) = 0.39620 0.14514
#
# Static dielectric constant tensor:
#      x y z
#    x 1.658740 0.000000 0.000000 
#    y 0.000000 1.671290 0.000000 
#    z 0.000000 0.000000 1.659210 
# 
# From -- ./inp_files/21695.got.cif
#   From: 2010.05.17/outbox.cif.g08.bks.cpg/sg51_11_cif.got.tgz:21695.got - 2010.06.03 11:52:47.
