data_PCOD9402245
_publ_section_title
;
Structure prediction by ZEFSAII (Michael W. Deem and Ramdas Pophale) SiO2 
 PCOD9402245
Probable space group: P M M A
;
_chemical_formula_sum "Si O2"
_cell_formula_units_Z 48
_cell_length_a 25.878519
_cell_length_b 9.110768
_cell_length_c 12.152118
_cell_angle_alpha 90.000000
_cell_angle_beta 90.000000
_cell_angle_gamma 90.000000
_cell_volume 2865.143539
_symmetry_space_group_name_H-M "P M M A"
_symmetry_group_IT_number 51
_symmetry_cell_setting 'orthorhombic'
loop_
_space_group_symop_operation_xyz
x,y,z
1/2-x,-y,z
1/2+x,-y,-z
-x,y,-z
-x,-y,-z
1/2+x,y,-z
1/2-x,y,z
x,-y,z
loop_
_atom_site_type_symbol
_atom_site_label
_atom_site_fract_x
_atom_site_fract_y
_atom_site_fract_z
Si Si1 0.380602 0.172681 0.522430
Si Si2 0.070790 0.673443 0.719913
Si Si3 0.118849 0.169967 0.168774
Si Si4 0.528896 0.833952 0.650612
Si Si5 0.942736 0.823062 0.045179
Si Si6 0.810966 0.325781 0.659748
O O1 0.387762 0.252894 0.638226
O O2 0.434766 0.186007 0.455031
O O3 0.338266 0.245103 0.442799
O O4 0.370423 0.000000 0.535673
O O5 0.077632 0.500000 0.725298
O O6 0.069691 0.745007 0.840577
O O7 0.015236 0.716049 0.667918
O O8 0.067999 0.173074 0.246366
O O9 0.161236 0.267007 0.230002
O O10 0.136233 0.000000 0.166305
O O11 0.099301 0.213911 0.048419
O O12 0.506406 0.000000 0.648108
O O13 0.942841 0.000000 0.060223
O O14 0.000000 0.783550 0.000000
O O15 0.750000 0.296276 0.662119
O O16 0.819285 0.500000 0.649886
#
# Coordination Sequence:
#
# PCOD9402245 Si02
#       6
#     8   8   8   8   8   8
#     4  10  21  36  54  74 100 138 181 220 258 310
#     4  12  23  31  46  75 110 144 177 216 264 314
#     4   9  18  33  55  79 103 139 183 222 256 302
#     4   9  17  32  50  71 101 140 180 216 255 304
#     4  10  19  35  54  72 104 148 187 219 255 306
#     4  10  21  37  58  83 110 135 162 213 280 327
#
# _framework density 16.753086
#
# number of rings (size 3 to 8) (size 9 to 14) (size 15 to 20)
#    0.000    2.000    1.667    4.000    0.000    7.667 
#    0.000    0.000    0.000    1.000    0.000    4.667 
#    0.000    0.000    0.000    0.000    0.000    0.000 
#
# Total GULP energy -267936.870647 kJ/mol
# GULP energy per Si atom -5582.018138 kJ/mol
# Density = 1.671496 g / cm^3
# Si number density = 16.753086 Si / 1000 Ang^3
#
#
#
# Elastic Constant Matrix: (Units=GPa)
#
#
# Indices 1 2 3 4 5 6 
#
# 1 79.3694 64.1510 55.1322 0.0000 0.0000 0.0000
# 2 64.1510 105.0440 81.4284 0.0000 0.0000 0.0000
# 3 55.1322 81.4284 137.3393 0.0000 0.0000 0.0000
# 4 0.0000 0.0000 0.0000 21.1407 0.0000 0.0000
# 5 0.0000 0.0000 0.0000 0.0000 8.1118 0.0000
# 6 0.0000 0.0000 0.0000 0.0000 0.0000 -23.7527
#
#
#
# Elastic Compliance Matrix: (Units=1/GPa)
#
#
# Indices 1 2 3 4 5 6 
#
# 1 0.025127 -0.013927 -0.001829 0.000000 0.000000 0.000000
# 2 -0.013927 0.025336 -0.009431 0.000000 0.000000 0.000000
# 3 -0.001829 -0.009431 0.013607 0.000000 0.000000 0.000000
# 4 0.000000 0.000000 0.000000 0.047302 0.000000 0.000000
# 5 0.000000 0.000000 0.000000 0.000000 0.123277 0.000000
# 6 0.000000 0.000000 0.000000 0.000000 0.000000 -0.042100
#
#
# Mechanical properties :
#
#
# Convention : Reuss Voigt Hill
#
# Bulk Modulus (GPa) = 73.01791 80.35287 76.68539
# Shear Modulus (GPa) = 20.20304 9.16935 14.68620
#
# Velocity S-wave (km/s) = 3.47642 2.34203 2.96400
# Velocity P-wave (km/s) = 7.73262 7.44182 7.58861
#
# Compressibility (1/GPa) = 0.01369527
#
# Stress axis : x y z
#
# Youngs Moduli (GPa) = 39.79856 39.47002 73.49087
#
# Poissons Ratio (x) = 0.54969 0.13444
# Poissons Ratio (y) = 0.55427 0.69308
# Poissons Ratio (z) = 0.07280 0.37224
#
# Static dielectric constant tensor:
#      x y z
#    x 1.548230 0.000000 0.000000 
#    y 0.000000 1.556410 0.000000 
#    z 0.000000 0.000000 1.582440 
# 
# From -- ./inp_files/19002.got.cif
#   From: 2010.05.17/outbox.cif.g08.bks.cpg/sg51_10_cif.got.tgz:19002.got - 2010.06.03 11:52:47.
