data_PCOD9402223
_publ_section_title
;
Structure prediction by ZEFSAII (Michael W. Deem and Ramdas Pophale) SiO2 
 PCOD9402223
Probable space group: P M M A
;
_chemical_formula_sum "Si O2"
_cell_formula_units_Z 58
_cell_length_a 7.537836
_cell_length_b 18.069006
_cell_length_c 19.742351
_cell_angle_alpha 90.000000
_cell_angle_beta 90.000000
_cell_angle_gamma 90.000000
_cell_volume 2688.931974
_symmetry_space_group_name_H-M "P M M A"
_symmetry_group_IT_number 51
_symmetry_cell_setting 'orthorhombic'
loop_
_space_group_symop_operation_xyz
x,y,z
1/2-x,-y,z
1/2+x,-y,-z
-x,y,-z
-x,-y,-z
1/2+x,y,-z
1/2-x,y,z
x,-y,z
loop_
_atom_site_type_symbol
_atom_site_label
_atom_site_fract_x
_atom_site_fract_y
_atom_site_fract_z
Si Si1 0.962322 0.084421 0.075729
Si Si2 0.542443 0.621564 0.639558
Si Si3 0.032500 0.829931 0.792658
Si Si4 0.962469 0.584428 0.074462
Si Si5 0.458852 0.223191 0.421488
Si Si6 0.034347 0.339867 0.787137
Si Si7 0.459175 0.082151 0.662429
Si Si8 0.250000 0.500000 0.602148
O O1 0.750000 0.080437 0.082704
O O2 0.026660 0.136424 0.135873
O O3 0.031213 0.000000 0.081567
O O4 0.000000 0.111541 0.000000
O O5 0.750000 0.611778 0.619073
O O6 0.479946 0.704825 0.620014
O O7 0.530271 0.616308 0.721184
O O8 0.407268 0.564225 0.606661
O O9 0.250000 0.829326 0.792186
O O10 0.977177 0.745469 0.782352
O O11 0.968949 0.881662 0.731448
O O12 0.750000 0.581140 0.080191
O O13 0.031608 0.500000 0.075026
O O14 0.025586 0.627334 0.140847
O O15 0.000000 0.616969 0.000000
O O16 0.500000 0.233861 0.500000
O O17 0.250000 0.221014 0.411836
O O18 0.524432 0.144334 0.394888
O O19 0.250000 0.342497 0.785307
O O20 0.250000 0.073979 0.674003
O O21 0.530786 0.000000 0.647495
#
# Coordination Sequence:
#
# PCOD9402223 Si02
#       8
#     8   8   8   8   8   8   8   2
#     4   9  17  30  47  70 105 151 207 267 322 383
#     4  11  25  44  69 106 135 172 228 267 327 401
#     4   9  17  31  54  82 114 160 210 262 326 390
#     4   9  19  33  50  75 110 153 205 259 328 396
#     4  11  25  44  71  98 133 177 215 260 324 391
#     4  10  19  34  60  86 118 166 212 266 331 399
#     4  10  20  36  63  97 129 168 222 272 323 391
#     4  12  26  44  78  98 142 180 208 284 330 374
#
# _framework density 21.569903
#
# number of rings (size 3 to 8) (size 9 to 14) (size 15 to 20)
#    0.000    2.069    2.069    1.034    2.897    3.310 
#    0.000    1.724    0.000    1.655    0.000    0.000 
#    0.000    0.000    0.000    0.000    0.000    0.000 
#
# Total GULP energy -323369.322836 kJ/mol
# GULP energy per Si atom -5575.333152 kJ/mol
# Density = 2.152081 g / cm^3
# Si number density = 21.569903 Si / 1000 Ang^3
#
#
#
# Elastic Constant Matrix: (Units=GPa)
#
#
# Indices 1 2 3 4 5 6 
#
# 1 76.4768 22.5586 -8.1188 0.0000 0.0000 0.0000
# 2 22.5586 105.8233 19.9644 0.0000 0.0000 0.0000
# 3 -8.1188 19.9644 82.4565 0.0000 0.0000 0.0000
# 4 0.0000 0.0000 0.0000 6.8196 0.0000 0.0000
# 5 0.0000 0.0000 0.0000 0.0000 18.7830 0.0000
# 6 0.0000 0.0000 0.0000 0.0000 0.0000 10.9113
#
#
#
# Elastic Compliance Matrix: (Units=1/GPa)
#
#
# Indices 1 2 3 4 5 6 
#
# 1 0.014343 -0.003483 0.002256 0.000000 0.000000 0.000000
# 2 -0.003483 0.010748 -0.002945 0.000000 0.000000 0.000000
# 3 0.002256 -0.002945 0.013063 0.000000 0.000000 0.000000
# 4 0.000000 0.000000 0.000000 0.146636 0.000000 0.000000
# 5 0.000000 0.000000 0.000000 0.000000 0.053239 0.000000
# 6 0.000000 0.000000 0.000000 0.000000 0.000000 0.091648
#
#
# Mechanical properties :
#
#
# Convention : Reuss Voigt Hill
#
# Bulk Modulus (GPa) = 33.54812 37.06278 35.30545
# Shear Modulus (GPa) = 14.36953 22.65962 18.51458
#
# Velocity S-wave (km/s) = 2.58385 3.24469 2.93294
# Velocity P-wave (km/s) = 4.94861 5.59082 5.27949
#
# Compressibility (1/GPa) = 0.02980793
#
# Stress axis : x y z
#
# Youngs Moduli (GPa) = 69.72189 93.04203 76.55336
#
# Poissons Ratio (x) = 0.32406 -0.17267
# Poissons Ratio (y) = 0.24284 0.22547
# Poissons Ratio (z) = -0.15726 0.27403
#
# Static dielectric constant tensor:
#      x y z
#    x 1.817020 0.000000 0.000000 
#    y 0.000000 1.785650 0.000000 
#    z 0.000000 0.000000 1.764190 
# 
# From -- ./inp_files/28065.got.cif
#   From: 2010.05.17/outbox.cif.g08.bks.cpg/sg51_15_cif.got.tgz:28065.got - 2010.06.03 11:52:47.
