data_PCOD9402149
_publ_section_title
;
Structure prediction by ZEFSAII (Michael W. Deem and Ramdas Pophale) SiO2 
 PCOD9402149
Probable space group: P M M A
;
_chemical_formula_sum "Si O2"
_cell_formula_units_Z 40
_cell_length_a 8.848498
_cell_length_b 15.779070
_cell_length_c 14.935047
_cell_angle_alpha 90.000000
_cell_angle_beta 90.000000
_cell_angle_gamma 90.000000
_cell_volume 2085.247233
_symmetry_space_group_name_H-M "P M M A"
_symmetry_group_IT_number 51
_symmetry_cell_setting 'orthorhombic'
loop_
_space_group_symop_operation_xyz
x,y,z
1/2-x,-y,z
1/2+x,-y,-z
-x,y,-z
-x,-y,-z
1/2+x,y,-z
1/2-x,y,z
x,-y,z
loop_
_atom_site_type_symbol
_atom_site_label
_atom_site_fract_x
_atom_site_fract_y
_atom_site_fract_z
Si Si1 0.072112 0.348980 0.406906
Si Si2 0.070196 0.096048 0.780918
Si Si3 0.565694 0.593878 0.786998
Si Si4 0.568280 0.756599 0.901350
Si Si5 0.071634 0.855291 0.405739
O O1 0.250000 0.366614 0.411933
O O2 0.013333 0.389117 0.314862
O O3 0.053269 0.247071 0.399521
O O4 0.000000 0.377531 0.500000
O O5 0.250000 0.110558 0.782671
O O6 0.987998 0.164793 0.842177
O O7 0.010460 0.105901 0.679744
O O8 0.040264 0.000000 0.811650
O O9 0.750000 0.596113 0.784755
O O10 0.519376 0.500000 0.816450
O O11 0.518613 0.670165 0.851274
O O12 0.750000 0.757571 0.905394
O O13 0.500000 0.760732 0.000000
O O14 0.250000 0.873971 0.403609
O O15 0.000000 0.882500 0.500000
#
# Coordination Sequence:
#
# PCOD9402149 Si02
#       5
#     8   8   8   8   8
#     4   9  17  31  52  82 116 155 196 233 279 335
#     4  11  24  41  62  89 119 154 197 245 297 353
#     4   9  18  35  59  86 119 157 195 236 287 348
#     4  11  23  42  65  89 116 152 194 242 302 356
#     4  10  19  34  57  87 121 161 202 242 291 346
#
# _framework density 19.182376999999999
#
# number of rings (size 3 to 8) (size 9 to 14) (size 15 to 20)
#    0.000    2.000    2.000    1.800    0.000    4.000 
#    0.000    0.000    0.000    4.200    0.000    0.000 
#    0.000    0.000    0.000    0.000    0.000    0.000 
#
# Total GULP energy -223423.674332 kJ/mol
# GULP energy per Si atom -5585.591858 kJ/mol
# Density = 1.913872 g / cm^3
# Si number density = 19.182377 Si / 1000 Ang^3
#
#
#
# Elastic Constant Matrix: (Units=GPa)
#
#
# Indices 1 2 3 4 5 6 
#
# 1 47.7944 57.6948 39.3756 0.0000 0.0000 0.0000
# 2 57.6948 115.5304 82.9626 0.0000 0.0000 0.0000
# 3 39.3756 82.9626 152.1443 0.0000 0.0000 0.0000
# 4 0.0000 0.0000 0.0000 -10.1843 0.0000 0.0000
# 5 0.0000 0.0000 0.0000 0.0000 35.8237 0.0000
# 6 0.0000 0.0000 0.0000 0.0000 0.0000 13.8245
#
#
#
# Elastic Compliance Matrix: (Units=1/GPa)
#
#
# Indices 1 2 3 4 5 6 
#
# 1 0.052808 -0.027214 0.001172 0.000000 0.000000 0.000000
# 2 -0.027214 0.028251 -0.008362 0.000000 0.000000 0.000000
# 3 0.001172 -0.008362 0.010829 0.000000 0.000000 0.000000
# 4 0.000000 0.000000 0.000000 -0.098190 0.000000 0.000000
# 5 0.000000 0.000000 0.000000 0.000000 0.027914 0.000000
# 6 0.000000 0.000000 0.000000 0.000000 0.000000 0.072335
#
#
# Mechanical properties :
#
#
# Convention : Reuss Voigt Hill
#
# Bulk Modulus (GPa) = 43.32499 75.05943 59.19221
# Shear Modulus (GPa) = 29.33468 16.92186 23.12827
#
# Velocity S-wave (km/s) = 3.91481 2.97333 3.47609
# Velocity P-wave (km/s) = 6.56271 7.14156 6.85825
#
# Compressibility (1/GPa) = 0.02308137
#
# Stress axis : x y z
#
# Youngs Moduli (GPa) = 18.93654 35.39757 92.34628
#
# Poissons Ratio (x) = 0.96330 -0.10827
# Poissons Ratio (y) = 0.51533 0.77217
# Poissons Ratio (z) = -0.02220 0.29598
#
# Static dielectric constant tensor:
#      x y z
#    x 1.645640 0.000000 0.000000 
#    y 0.000000 1.688870 0.000000 
#    z 0.000000 0.000000 1.636280 
# 
# From -- ./inp_files/20493.got.cif
#   From: 2010.05.17/outbox.cif.g08.bks.cpg/sg51_11_cif.got.tgz:20493.got - 2010.06.03 11:52:47.
