data_PCOD9402817
_publ_section_title
;
Structure prediction by ZEFSAII (Michael W. Deem and Ramdas Pophale) SiO2 
 PCOD9402817
Probable space group: P M M A
;
_chemical_formula_sum "Si O2"
_cell_formula_units_Z 64
_cell_length_a 9.503514
_cell_length_b 13.911682
_cell_length_c 25.483094
_cell_angle_alpha 90.000000
_cell_angle_beta 90.000000
_cell_angle_gamma 90.000000
_cell_volume 3369.116409
_symmetry_space_group_name_H-M "P M M A"
_symmetry_group_IT_number 51
_symmetry_cell_setting 'orthorhombic'
loop_
_space_group_symop_operation_xyz
x,y,z
1/2-x,-y,z
1/2+x,-y,-z
-x,y,-z
-x,-y,-z
1/2+x,y,-z
1/2-x,y,z
x,-y,z
loop_
_atom_site_type_symbol
_atom_site_label
_atom_site_fract_x
_atom_site_fract_y
_atom_site_fract_z
Si Si1 0.407978 0.385236 0.739575
Si Si2 0.404784 0.386646 0.167699
Si Si3 0.418699 0.273609 0.342731
Si Si4 0.584886 0.884634 0.161371
Si Si5 0.579989 0.887089 0.280582
Si Si6 0.402798 0.606659 0.928825
Si Si7 0.082252 0.389293 0.446178
Si Si8 0.910135 0.179183 0.048010
O O1 0.250000 0.347429 0.731048
O O2 0.397847 0.500000 0.741098
O O3 0.475414 0.348947 0.793747
O O4 0.517155 0.354503 0.695370
O O5 0.250000 0.342835 0.173304
O O6 0.392245 0.500000 0.180659
O O7 0.466194 0.384650 0.109701
O O8 0.250000 0.265137 0.337285
O O9 0.498346 0.178675 0.322193
O O10 0.450845 0.311869 0.401174
O O11 0.750000 0.857996 0.162837
O O12 0.531814 0.864091 0.220458
O O13 0.529852 0.839049 0.106903
O O14 0.575024 0.000000 0.155286
O O15 0.750000 0.874497 0.283591
O O16 0.552812 0.000000 0.289240
O O17 0.250000 0.607161 0.899593
O O18 0.407916 0.500000 0.953831
O O19 0.400351 0.705356 0.960123
O O20 0.250000 0.385612 0.455454
O O21 0.049489 0.500000 0.429178
O O22 0.000000 0.371475 0.500000
O O23 0.750000 0.141137 0.047149
O O24 0.000000 0.138690 0.000000
#
# Coordination Sequence:
#
# PCOD9402817 Si02
#       8
#     8   8   8   8   8   8   8   8
#     4  10  20  32  47  71 106 147 187 223 262 320
#     4   9  17  29  45  67  96 129 165 210 264 315
#     4  11  22  34  53  84 118 151 186 235 293 338
#     4   8  16  34  58  79 101 132 169 213 271 333
#     4   9  19  37  60  84 110 145 190 235 281 344
#     4   9  18  32  48  67  94 130 170 209 251 308
#     4   9  19  36  57  82 117 160 201 239 279 327
#     4  10  21  35  52  75 100 130 169 217 267 322
#
# _framework density 18.996078000000001
#
# number of rings (size 3 to 8) (size 9 to 14) (size 15 to 20)
#    0.000    2.625    0.000    2.250    1.750    5.000 
#    0.000    1.875    0.000    1.125    0.000    0.000 
#    0.000    0.000    0.000    0.000    0.000    0.000 
#
# Total GULP energy -356393.469953 kJ/mol
# GULP energy per Si atom -5568.647968 kJ/mol
# Density = 1.895284 g / cm^3
# Si number density = 18.996078 Si / 1000 Ang^3
#
#
#
# Elastic Constant Matrix: (Units=GPa)
#
#
# Indices 1 2 3 4 5 6 
#
# 1 67.4025 34.7113 60.5448 0.0000 0.0000 0.0000
# 2 34.7113 84.1737 39.7771 0.0000 0.0000 0.0000
# 3 60.5448 39.7771 106.1103 0.0000 0.0000 0.0000
# 4 0.0000 0.0000 0.0000 7.1104 0.0000 0.0000
# 5 0.0000 0.0000 0.0000 0.0000 27.9035 0.0000
# 6 0.0000 0.0000 0.0000 0.0000 0.0000 14.9949
#
#
#
# Elastic Compliance Matrix: (Units=1/GPa)
#
#
# Indices 1 2 3 4 5 6 
#
# 1 0.032497 -0.005637 -0.016429 0.000000 0.000000 0.000000
# 2 -0.005637 0.015416 -0.002562 0.000000 0.000000 0.000000
# 3 -0.016429 -0.002562 0.019759 0.000000 0.000000 0.000000
# 4 0.000000 0.000000 0.000000 0.140638 0.000000 0.000000
# 5 0.000000 0.000000 0.000000 0.000000 0.035838 0.000000
# 6 0.000000 0.000000 0.000000 0.000000 0.000000 0.066689
#
#
# Mechanical properties :
#
#
# Convention : Reuss Voigt Hill
#
# Bulk Modulus (GPa) = 54.30565 58.63920 56.47242
# Shear Modulus (GPa) = 13.65258 18.17867 15.91562
#
# Velocity S-wave (km/s) = 2.68378 3.09685 2.89768
# Velocity P-wave (km/s) = 6.18493 6.61237 6.40222
#
# Compressibility (1/GPa) = 0.01841429
#
# Stress axis : x y z
#
# Youngs Moduli (GPa) = 30.77229 64.86891 50.61053
#
# Poissons Ratio (x) = 0.36568 0.83148
# Poissons Ratio (y) = 0.17347 0.12968
# Poissons Ratio (z) = 0.50556 0.16621
#
# Static dielectric constant tensor:
#      x y z
#    x 1.676050 0.000000 0.000000 
#    y 0.000000 1.717890 0.000000 
#    z 0.000000 0.000000 1.660160 
# 
# From -- ./inp_files/34916.got.cif
#   From: 2010.05.17/outbox.cif.g08.bks.cpg/sg51_18_cif.got.tgz:34916.got - 2010.06.03 11:52:47.
