data_PCOD9402410
_publ_section_title
;
Structure prediction by ZEFSAII (Michael W. Deem and Ramdas Pophale) SiO2 
 PCOD9402410
Probable space group: P M M A
;
_chemical_formula_sum "Si O2"
_cell_formula_units_Z 64
_cell_length_a 32.180214
_cell_length_b 7.801381
_cell_length_c 12.594340
_cell_angle_alpha 90.000000
_cell_angle_beta 90.000000
_cell_angle_gamma 90.000000
_cell_volume 3161.810443
_symmetry_space_group_name_H-M "P M M A"
_symmetry_group_IT_number 51
_symmetry_cell_setting 'orthorhombic'
loop_
_space_group_symop_operation_xyz
x,y,z
1/2-x,-y,z
1/2+x,-y,-z
-x,y,-z
-x,-y,-z
1/2+x,y,-z
1/2-x,y,z
x,-y,z
loop_
_atom_site_type_symbol
_atom_site_label
_atom_site_fract_x
_atom_site_fract_y
_atom_site_fract_z
Si Si1 0.480981 0.793006 0.614039
Si Si2 0.702487 0.707052 0.743529
Si Si3 0.297310 0.291035 0.013510
Si Si4 0.374598 0.288349 0.869803
Si Si5 0.942617 0.791708 0.756638
Si Si6 0.546912 0.298240 0.995332
Si Si7 0.613849 0.696257 0.362880
Si Si8 0.372362 0.803837 0.401419
O O1 0.500000 0.742437 0.500000
O O2 0.512792 0.745169 0.707035
O O3 0.435783 0.717010 0.630075
O O4 0.477170 0.000000 0.612717
O O5 0.750000 0.754258 0.719948
O O6 0.699452 0.500000 0.739373
O O7 0.670199 0.782332 0.661294
O O8 0.693516 0.760462 0.864858
O O9 0.250000 0.236301 0.986902
O O10 0.296858 0.500000 0.012596
O O11 0.334150 0.234947 0.936501
O O12 0.375325 0.500000 0.871739
O O13 0.372470 0.223490 0.748820
O O14 0.417593 0.230044 0.925592
O O15 0.937443 0.722177 0.874703
O O16 0.908169 0.724189 0.673423
O O17 0.940614 0.000000 0.763339
O O18 0.543097 0.500000 0.020414
O O19 0.500000 0.223718 0.000000
O O20 0.625370 0.500000 0.352337
O O21 0.630789 0.748975 0.477237
O O22 0.385268 0.000000 0.408536
#
# Coordination Sequence:
#
# PCOD9402410 Si02
#       8
#     8   8   8   8   8   8   8   8
#     4  10  19  36  54  70 102 143 179 221 270 317
#     4   9  18  34  58  87 112 134 169 219 269 318
#     4   8  14  28  53  81 106 134 168 210 266 322
#     4   9  18  32  49  73 107 140 173 220 272 322
#     4  10  21  35  53  76 103 137 179 222 264 318
#     4  10  20  34  52  75 106 139 172 216 272 327
#     4  11  22  35  53  78 106 139 184 230 268 314
#     4  11  22  37  54  76 108 144 179 215 266 322
#
# _framework density 20.241568999999998
#
# number of rings (size 3 to 8) (size 9 to 14) (size 15 to 20)
#    0.000    2.250    1.250    3.000    0.000    4.250 
#    0.000    1.875    0.000    3.750    0.000    0.000 
#    0.000    0.000    0.000    0.000    0.000    0.000 
#
# Total GULP energy -357224.041737 kJ/mol
# GULP energy per Si atom -5581.625652 kJ/mol
# Density = 2.019550 g / cm^3
# Si number density = 20.241569 Si / 1000 Ang^3
#
#
#
# Elastic Constant Matrix: (Units=GPa)
#
#
# Indices 1 2 3 4 5 6 
#
# 1 98.5476 -2.4773 80.3795 0.0000 0.0000 0.0000
# 2 -2.4773 15.1207 -0.8248 0.0000 0.0000 0.0000
# 3 80.3795 -0.8248 156.4898 0.0000 0.0000 0.0000
# 4 0.0000 0.0000 0.0000 38.9153 0.0000 0.0000
# 5 0.0000 0.0000 0.0000 0.0000 33.4101 0.0000
# 6 0.0000 0.0000 0.0000 0.0000 0.0000 3.1139
#
#
#
# Elastic Compliance Matrix: (Units=1/GPa)
#
#
# Indices 1 2 3 4 5 6 
#
# 1 0.017549 0.002384 -0.009001 0.000000 0.000000 0.000000
# 2 0.002384 0.066477 -0.000874 0.000000 0.000000 0.000000
# 3 -0.009001 -0.000874 0.011009 0.000000 0.000000 0.000000
# 4 0.000000 0.000000 0.000000 0.025697 0.000000 0.000000
# 5 0.000000 0.000000 0.000000 0.000000 0.029931 0.000000
# 6 0.000000 0.000000 0.000000 0.000000 0.000000 0.321143
#
#
# Mechanical properties :
#
#
# Convention : Reuss Voigt Hill
#
# Bulk Modulus (GPa) = 12.49177 47.14588 29.81883
# Shear Modulus (GPa) = 9.73760 27.95990 18.84875
#
# Velocity S-wave (km/s) = 2.19571 3.72063 3.05485
# Velocity P-wave (km/s) = 3.55147 6.46526 5.21596
#
# Compressibility (1/GPa) = 0.08005268
#
# Stress axis : x y z
#
# Youngs Moduli (GPa) = 56.98240 15.04273 90.83396
#
# Poissons Ratio (x) = -0.03587 0.81764
# Poissons Ratio (y) = -0.13586 0.07941
# Poissons Ratio (z) = 0.51292 0.01315
#
# Static dielectric constant tensor:
#      x y z
#    x 1.703010 0.000000 0.000000 
#    y 0.000000 1.751170 0.000000 
#    z 0.000000 0.000000 1.732240 
# 
# From -- ./inp_files/19560.got.cif
#   From: 2010.05.17/outbox.cif.g08.bks.cpg/sg51_10_cif.got.tgz:19560.got - 2010.06.03 11:52:47.
