data_PCOD9402071
_publ_section_title
;
Structure prediction by ZEFSAII (Michael W. Deem and Ramdas Pophale) SiO2 
 PCOD9402071
Probable space group: P M M A
;
_chemical_formula_sum "Si O2"
_cell_formula_units_Z 64
_cell_length_a 24.779970
_cell_length_b 14.272949
_cell_length_c 9.553690
_cell_angle_alpha 90.000000
_cell_angle_beta 90.000000
_cell_angle_gamma 90.000000
_cell_volume 3378.980110
_symmetry_space_group_name_H-M "P M M A"
_symmetry_group_IT_number 51
_symmetry_cell_setting 'orthorhombic'
loop_
_space_group_symop_operation_xyz
x,y,z
1/2-x,-y,z
1/2+x,-y,-z
-x,y,-z
-x,-y,-z
1/2+x,y,-z
1/2-x,y,z
x,-y,z
loop_
_atom_site_type_symbol
_atom_site_label
_atom_site_fract_x
_atom_site_fract_y
_atom_site_fract_z
Si Si1 0.948945 0.792780 0.585490
Si Si2 0.396823 0.890293 0.649135
Si Si3 0.015432 0.210434 0.848650
Si Si4 0.907853 0.603860 0.484227
Si Si5 0.588000 0.391552 0.151668
Si Si6 0.814920 0.298970 0.982622
Si Si7 0.185810 0.895804 0.880263
Si Si8 0.188354 0.607663 0.307508
O O1 0.900249 0.842492 0.503426
O O2 0.944587 0.684467 0.545469
O O3 0.000000 0.833935 0.500000
O O4 0.963077 0.795599 0.747969
O O5 0.438766 0.843732 0.759563
O O6 0.340331 0.878211 0.728734
O O7 0.408573 0.000000 0.634745
O O8 0.040781 0.314604 0.872350
O O9 0.000000 0.171479 0.000000
O O10 0.928530 0.500000 0.516935
O O11 0.902160 0.612857 0.318477
O O12 0.851190 0.616229 0.562680
O O13 0.574567 0.500000 0.115659
O O14 0.642770 0.359793 0.073047
O O15 0.750000 0.316119 0.009439
O O16 0.827434 0.191000 0.019385
O O17 0.824784 0.324617 0.821058
O O18 0.250000 0.897840 0.869308
O O19 0.167156 0.000000 0.926383
O O20 0.250000 0.622856 0.349945
O O21 0.183789 0.500000 0.254653
#
# Coordination Sequence:
#
# PCOD9402071 Si02
#       8
#     8   8   8   8   8   8   8   8
#     4  10  20  37  55  78 109 144 185 230 280 332
#     4  10  20  39  63  85 114 148 186 235 285 337
#     4  11  24  39  56  83 113 147 190 243 281 335
#     4  10  20  34  55  78 104 144 188 229 275 332
#     4  11  22  37  55  83 116 148 192 236 284 339
#     4  10  19  34  56  82 115 153 187 228 282 340
#     4   9  17  31  58  93 121 148 185 228 279 338
#     4   9  19  34  52  79 113 148 186 229 280 336
#
# _framework density 18.940626000000002
#
# number of rings (size 3 to 8) (size 9 to 14) (size 15 to 20)
#    0.000    2.000    3.750    0.375    1.750    4.750 
#    0.000    1.875    0.000    0.750    0.000    0.000 
#    0.000    4.000    0.000    0.000    0.000    0.000 
#
# Total GULP energy -356562.971817 kJ/mol
# GULP energy per Si atom -5571.296435 kJ/mol
# Density = 1.889752 g / cm^3
# Si number density = 18.940626 Si / 1000 Ang^3
#
#
#
# Elastic Constant Matrix: (Units=GPa)
#
#
# Indices 1 2 3 4 5 6 
#
# 1 18.5849 14.2498 22.3717 0.0000 0.0000 0.0000
# 2 14.2498 73.4978 19.0093 0.0000 0.0000 0.0000
# 3 22.3717 19.0093 74.0471 0.0000 0.0000 0.0000
# 4 0.0000 0.0000 0.0000 11.5082 0.0000 0.0000
# 5 0.0000 0.0000 0.0000 0.0000 26.6380 0.0000
# 6 0.0000 0.0000 0.0000 0.0000 0.0000 20.1294
#
#
#
# Elastic Compliance Matrix: (Units=1/GPa)
#
#
# Indices 1 2 3 4 5 6 
#
# 1 0.092840 -0.011509 -0.025095 0.000000 0.000000 0.000000
# 2 -0.011509 0.016000 -0.000630 0.000000 0.000000 0.000000
# 3 -0.025095 -0.000630 0.021249 0.000000 0.000000 0.000000
# 4 0.000000 0.000000 0.000000 0.086895 0.000000 0.000000
# 5 0.000000 0.000000 0.000000 0.000000 0.037540 0.000000
# 6 0.000000 0.000000 0.000000 0.000000 0.000000 0.049679
#
#
# Mechanical properties :
#
#
# Convention : Reuss Voigt Hill
#
# Bulk Modulus (GPa) = 17.97926 30.82127 24.40027
# Shear Modulus (GPa) = 12.58777 19.02173 15.80475
#
# Velocity S-wave (km/s) = 2.58076 3.17248 2.89180
# Velocity P-wave (km/s) = 4.28876 5.45228 4.90514
#
# Compressibility (1/GPa) = 0.05561964
#
# Stress axis : x y z
#
# Youngs Moduli (GPa) = 10.77126 62.49885 47.06198
#
# Poissons Ratio (x) = 0.71932 1.18101
# Poissons Ratio (y) = 0.12397 0.02966
# Poissons Ratio (z) = 0.27030 0.03939
#
# Static dielectric constant tensor:
#      x y z
#    x 1.712530 0.000000 0.000000 
#    y 0.000000 1.696750 0.000000 
#    z 0.000000 0.000000 1.634080 
# 
# From -- ./inp_files/11886.got.cif
#   From: 2010.05.17/outbox.cif.g08.bks.cpg/sg51_6_cif.got.tgz:11886.got - 2010.06.03 11:52:47.
