data_PCOD9402638
_publ_section_title
;
Structure prediction by ZEFSAII (Michael W. Deem and Ramdas Pophale) SiO2 
 PCOD9402638
Probable space group: P M M A
;
_chemical_formula_sum "Si O2"
_cell_formula_units_Z 64
_cell_length_a 9.116262
_cell_length_b 15.849622
_cell_length_c 30.578600
_cell_angle_alpha 90.000000
_cell_angle_beta 90.000000
_cell_angle_gamma 90.000000
_cell_volume 4418.280715
_symmetry_space_group_name_H-M "P M M A"
_symmetry_group_IT_number 51
_symmetry_cell_setting 'orthorhombic'
loop_
_space_group_symop_operation_xyz
x,y,z
1/2-x,-y,z
1/2+x,-y,-z
-x,y,-z
-x,-y,-z
1/2+x,y,-z
1/2-x,y,z
x,-y,z
loop_
_atom_site_type_symbol
_atom_site_label
_atom_site_fract_x
_atom_site_fract_y
_atom_site_fract_z
Si Si1 0.419584 0.397140 0.955506
Si Si2 0.922805 0.724774 0.609970
Si Si3 0.081556 0.602435 0.132804
Si Si4 0.924578 0.265578 0.714599
Si Si5 0.924404 0.598345 0.454171
Si Si6 0.076201 0.091095 0.382922
Si Si7 0.425298 0.400245 0.776481
Si Si8 0.425221 0.093524 0.711271
O O1 0.250000 0.371086 0.954988
O O2 0.421144 0.500000 0.955303
O O3 0.503930 0.369101 0.911863
O O4 0.500000 0.370448 0.000000
O O5 0.750000 0.708010 0.603141
O O6 0.949687 0.724507 0.662276
O O7 0.955497 0.820519 0.593839
O O8 0.016387 0.657064 0.584201
O O9 0.250000 0.631121 0.135574
O O10 0.083921 0.500000 0.131131
O O11 0.990948 0.624051 0.176185
O O12 0.750000 0.265064 0.721598
O O13 0.999716 0.341803 0.740344
O O14 0.993916 0.176114 0.729497
O O15 0.750000 0.605896 0.458376
O O16 0.960220 0.500000 0.445454
O O17 0.000000 0.621772 0.500000
O O18 0.250000 0.095999 0.370464
O O19 0.980471 0.090256 0.338974
O O20 0.054681 0.000000 0.405331
O O21 0.250000 0.389846 0.776245
O O22 0.457043 0.500000 0.769357
O O23 0.250000 0.104578 0.712972
O O24 0.460626 0.000000 0.729953
#
# Coordination Sequence:
#
# PCOD9402638 Si02
#       8
#     8   8   8   8   8   8   8   8
#     4   9  15  22  33  50  71  94 125 169 218 261
#     4   9  18  31  48  70  92 113 137 168 205 242
#     4   9  16  26  39  53  71  99 136 175 215 260
#     4  10  20  32  46  65  89 117 147 177 210 250
#     4  10  21  36  53  70  87 109 137 170 209 251
#     4   8  14  26  44  66  92 119 142 163 194 239
#     4  10  20  32  44  58  80 112 148 185 221 256
#     4   9  16  26  42  64  88 112 139 174 213 250
#
# _framework density 14.485272999999999
#
# number of rings (size 3 to 8) (size 9 to 14) (size 15 to 20)
#    0.000    2.750    0.000    3.000    0.000    8.250 
#    0.000    2.500    0.000    0.375    0.000    0.000 
#    0.000    0.000    0.000    0.000    0.000    0.625 
#
# Total GULP energy -356294.844748 kJ/mol
# GULP energy per Si atom -5567.106949 kJ/mol
# Density = 1.445230 g / cm^3
# Si number density = 14.485273 Si / 1000 Ang^3
#
#
#
# Elastic Constant Matrix: (Units=GPa)
#
#
# Indices 1 2 3 4 5 6 
#
# 1 82.9656 53.0206 44.6185 0.0000 0.0000 0.0000
# 2 53.0206 78.0004 47.4778 0.0000 0.0000 0.0000
# 3 44.6185 47.4778 57.7418 0.0000 0.0000 0.0000
# 4 0.0000 0.0000 0.0000 -1.5214 0.0000 0.0000
# 5 0.0000 0.0000 0.0000 0.0000 25.8724 0.0000
# 6 0.0000 0.0000 0.0000 0.0000 0.0000 21.4359
#
#
#
# Elastic Compliance Matrix: (Units=1/GPa)
#
#
# Indices 1 2 3 4 5 6 
#
# 1 0.024015 -0.010067 -0.010279 0.000000 0.000000 0.000000
# 2 -0.010067 0.029886 -0.016795 0.000000 0.000000 0.000000
# 3 -0.010279 -0.016795 0.039071 0.000000 0.000000 0.000000
# 4 0.000000 0.000000 0.000000 -0.657299 0.000000 0.000000
# 5 0.000000 0.000000 0.000000 0.000000 0.038651 0.000000
# 6 0.000000 0.000000 0.000000 0.000000 0.000000 0.046651
#
#
# Mechanical properties :
#
#
# Convention : Reuss Voigt Hill
#
# Bulk Modulus (GPa) = 53.50497 56.54904 55.02701
# Shear Modulus (GPa) = -12.54665 14.06344 0.75840
#
# Velocity S-wave (km/s) = -2.94626 3.11927 0.72436
# Velocity P-wave (km/s) = 5.04418 7.21782 6.22658
#
# Compressibility (1/GPa) = 0.01868985
#
# Stress axis : x y z
#
# Youngs Moduli (GPa) = 41.64067 33.46014 25.59467
#
# Poissons Ratio (x) = 0.33685 0.26309
# Poissons Ratio (y) = 0.41921 0.42985
# Poissons Ratio (z) = 0.42803 0.56195
#
# Static dielectric constant tensor:
#      x y z
#    x 1.483070 0.000000 0.000000 
#    y 0.000000 1.493840 0.000000 
#    z 0.000000 0.000000 1.456910 
# 
# From -- ./inp_files/37536.got.cif
#   From: 2010.05.17/outbox.cif.g08.bks.cpg/sg51_19_cif.got.tgz:37536.got - 2010.06.03 11:52:47.
