data_PCOD9402003
_publ_section_title
;
Structure prediction by ZEFSAII (Michael W. Deem and Ramdas Pophale) SiO2 
 PCOD9402003
Probable space group: P M M A
;
_chemical_formula_sum "Si O2"
_cell_formula_units_Z 52
_cell_length_a 8.764484
_cell_length_b 23.262512
_cell_length_c 14.624544
_cell_angle_alpha 90.000000
_cell_angle_beta 90.000000
_cell_angle_gamma 90.000000
_cell_volume 2981.709274
_symmetry_space_group_name_H-M "P M M A"
_symmetry_group_IT_number 51
_symmetry_cell_setting 'orthorhombic'
loop_
_space_group_symop_operation_xyz
x,y,z
1/2-x,-y,z
1/2+x,-y,-z
-x,y,-z
-x,-y,-z
1/2+x,y,-z
1/2-x,y,z
x,-y,z
loop_
_atom_site_type_symbol
_atom_site_label
_atom_site_fract_x
_atom_site_fract_y
_atom_site_fract_z
Si Si1 0.567378 0.000000 0.897798
Si Si2 0.567567 0.433046 0.099395
Si Si3 0.566991 0.779452 0.898297
Si Si4 0.933056 0.850953 0.403288
Si Si5 0.933964 0.889870 0.205398
Si Si6 0.432902 0.716586 0.597507
Si Si7 0.931973 0.665986 0.779433
O O1 0.507434 0.055952 0.844597
O O2 0.750000 0.000000 0.902178
O O3 0.500000 0.000000 0.000000
O O4 0.750000 0.427636 0.096195
O O5 0.529050 0.500000 0.116848
O O6 0.500132 0.390695 0.174629
O O7 0.500000 0.417702 0.000000
O O8 0.750000 0.787141 0.901484
O O9 0.491515 0.832217 0.844197
O O10 0.533169 0.720331 0.845132
O O11 0.500000 0.777296 0.000000
O O12 0.750000 0.852337 0.409494
O O13 0.978154 0.885338 0.312455
O O14 0.978434 0.783894 0.389897
O O15 0.000000 0.870884 0.500000
O O16 0.750000 0.892932 0.199639
O O17 0.500000 0.698146 0.500000
O O18 0.250000 0.713933 0.596164
O O19 0.497646 0.680316 0.681166
O O20 0.750000 0.661172 0.772223
#
# Coordination Sequence:
#
# PCOD9402003 Si02
#       7
#     4   8   8   8   8   8   8
#     4  12  26  44  63  84 109 148 191 234 280 334
#     4  10  21  37  57  81 112 152 195 238 284 337
#     4  11  23  36  53  80 113 147 183 229 281 334
#     4   9  19  34  57  85 114 147 182 226 278 331
#     4  11  22  40  61  84 112 147 187 231 280 333
#     4  10  19  34  55  83 116 151 187 231 282 337
#     4  11  22  35  55  84 115 150 190 233 283 338
#
# _framework density 17.439661999999998
#
# number of rings (size 3 to 8) (size 9 to 14) (size 15 to 20)
#    0.000    1.538    1.538    3.923    0.000    5.846 
#    0.000    0.385    0.000    0.462    0.000    0.000 
#    0.000    0.000    0.000    0.000    0.000    0.000 
#
# Total GULP energy -290588.061109 kJ/mol
# GULP energy per Si atom -5588.231944 kJ/mol
# Density = 1.739997 g / cm^3
# Si number density = 17.439662 Si / 1000 Ang^3
#
#
#
# Elastic Constant Matrix: (Units=GPa)
#
#
# Indices 1 2 3 4 5 6 
#
# 1 72.5795 49.6613 66.6886 0.0000 0.0000 0.0000
# 2 49.6613 88.1128 79.7521 0.0000 0.0000 0.0000
# 3 66.6886 79.7521 194.4812 0.0000 0.0000 0.0000
# 4 0.0000 0.0000 0.0000 30.0199 0.0000 0.0000
# 5 0.0000 0.0000 0.0000 0.0000 35.1701 0.0000
# 6 0.0000 0.0000 0.0000 0.0000 0.0000 21.3489
#
#
#
# Elastic Compliance Matrix: (Units=1/GPa)
#
#
# Indices 1 2 3 4 5 6 
#
# 1 0.024555 -0.009889 -0.004365 0.000000 0.000000 0.000000
# 2 -0.009889 0.022030 -0.005643 0.000000 0.000000 0.000000
# 3 -0.004365 -0.005643 0.008953 0.000000 0.000000 0.000000
# 4 0.000000 0.000000 0.000000 0.033311 0.000000 0.000000
# 5 0.000000 0.000000 0.000000 0.000000 0.028433 0.000000
# 6 0.000000 0.000000 0.000000 0.000000 0.000000 0.046841
#
#
# Mechanical properties :
#
#
# Convention : Reuss Voigt Hill
#
# Bulk Modulus (GPa) = 63.51499 83.04193 73.27846
# Shear Modulus (GPa) = 23.90468 27.91256 25.90862
#
# Velocity S-wave (km/s) = 3.70632 4.00499 3.85855
# Velocity P-wave (km/s) = 7.40369 8.31304 7.87151
#
# Compressibility (1/GPa) = 0.01574432
#
# Stress axis : x y z
#
# Youngs Moduli (GPa) = 40.72545 45.39234 111.69749
#
# Poissons Ratio (x) = 0.44887 0.48754
# Poissons Ratio (y) = 0.40272 0.63033
# Poissons Ratio (z) = 0.17776 0.25616
#
# Static dielectric constant tensor:
#      x y z
#    x 1.582730 0.000000 0.000000 
#    y 0.000000 1.572750 0.000000 
#    z 0.000000 0.000000 1.574480 
# 
# From -- ./inp_files/14618.got.cif
#   From: 2010.05.17/outbox.cif.g08.bks.cpg/sg51_8_cif.got.tgz:14618.got - 2010.06.03 11:52:47.
