data_PCOD9402657
_publ_section_title
;
Structure prediction by ZEFSAII (Michael W. Deem and Ramdas Pophale) SiO2 
 PCOD9402657
Probable space group: P M M A
;
_chemical_formula_sum "Si O2"
_cell_formula_units_Z 64
_cell_length_a 9.052756
_cell_length_b 14.820866
_cell_length_c 22.179250
_cell_angle_alpha 90.000000
_cell_angle_beta 90.000000
_cell_angle_gamma 90.000000
_cell_volume 2975.782955
_symmetry_space_group_name_H-M "P M M A"
_symmetry_group_IT_number 51
_symmetry_cell_setting 'orthorhombic'
loop_
_space_group_symop_operation_xyz
x,y,z
1/2-x,-y,z
1/2+x,-y,-z
-x,y,-z
-x,-y,-z
1/2+x,y,-z
1/2-x,y,z
x,-y,z
loop_
_atom_site_type_symbol
_atom_site_label
_atom_site_fract_x
_atom_site_fract_y
_atom_site_fract_z
Si Si1 0.416013 0.359502 0.819484
Si Si2 0.916661 0.607990 0.941749
Si Si3 0.917700 0.152733 0.692185
Si Si4 0.575710 0.398721 0.413628
Si Si5 0.083258 0.856052 0.812519
Si Si6 0.428397 0.206081 0.438651
Si Si7 0.917933 0.891794 0.938984
Si Si8 0.415703 0.630209 0.294798
O O1 0.250000 0.395122 0.813560
O O2 0.482357 0.374064 0.884715
O O3 0.408307 0.252331 0.808873
O O4 0.529698 0.397086 0.770684
O O5 0.750000 0.642651 0.934624
O O6 0.905872 0.500000 0.948461
O O7 0.000000 0.644741 0.000000
O O8 0.750000 0.117381 0.693715
O O9 0.973369 0.151933 0.622542
O O10 0.910168 0.260959 0.702730
O O11 0.007704 0.114546 0.749248
O O12 0.750000 0.383986 0.424326
O O13 0.537146 0.500000 0.435937
O O14 0.484193 0.310745 0.434510
O O15 0.536253 0.399804 0.342949
O O16 0.250000 0.891520 0.816983
O O17 0.996725 0.874437 0.874758
O O18 0.500000 0.169161 0.500000
O O19 0.250000 0.206318 0.440829
O O20 0.750000 0.857421 0.937168
O O21 0.911731 0.000000 0.944399
O O22 0.000000 0.859280 0.000000
O O23 0.250000 0.599478 0.309684
#
# Coordination Sequence:
#
# PCOD9402657 Si02
#       8
#     8   8   8   8   8   8   8   8
#     4  10  20  33  50  72  95 121 157 200 248 302
#     4  10  21  36  51  65  83 111 148 193 248 305
#     4   8  16  31  49  70  96 126 161 203 250 297
#     4  10  20  32  45  62  86 118 157 202 252 308
#     4  10  20  33  53  80 107 138 174 213 256 300
#     4  10  20  33  50  70  94 127 165 209 263 318
#     4  10  21  37  57  81 112 150 186 218 253 296
#     4   9  17  30  47  65  86 113 146 189 242 294
#
# _framework density 21.506945000000002
#
# number of rings (size 3 to 8) (size 9 to 14) (size 15 to 20)
#    0.000    2.375    0.000    3.375    0.000    8.750 
#    0.000    0.000    0.000    0.000    0.000    0.000 
#    0.000    0.500    0.000    1.625    0.000    2.000 
#
# Total GULP energy -357015.585620 kJ/mol
# GULP energy per Si atom -5578.368525 kJ/mol
# Density = 2.145799 g / cm^3
# Si number density = 21.506945 Si / 1000 Ang^3
#
#
#
# Elastic Constant Matrix: (Units=GPa)
#
#
# Indices 1 2 3 4 5 6 
#
# 1 116.7863 5.3253 66.7558 0.0000 0.0000 0.0000
# 2 5.3253 47.1099 -2.6413 0.0000 0.0000 0.0000
# 3 66.7558 -2.6413 194.4435 0.0000 0.0000 0.0000
# 4 0.0000 0.0000 0.0000 -26.7203 0.0000 0.0000
# 5 0.0000 0.0000 0.0000 0.0000 39.4278 0.0000
# 6 0.0000 0.0000 0.0000 0.0000 0.0000 7.8931
#
#
#
# Elastic Compliance Matrix: (Units=1/GPa)
#
#
# Indices 1 2 3 4 5 6 
#
# 1 0.010748 -0.001423 -0.003709 0.000000 0.000000 0.000000
# 2 -0.001423 0.021432 0.000780 0.000000 0.000000 0.000000
# 3 -0.003709 0.000780 0.006427 0.000000 0.000000 0.000000
# 4 0.000000 0.000000 0.000000 -0.037425 0.000000 0.000000
# 5 0.000000 0.000000 0.000000 0.000000 0.025363 0.000000
# 6 0.000000 0.000000 0.000000 0.000000 0.000000 0.126692
#
#
# Mechanical properties :
#
#
# Convention : Reuss Voigt Hill
#
# Bulk Modulus (GPa) = 33.44344 55.24658 44.34501
# Shear Modulus (GPa) = 29.08524 23.38011 26.23268
#
# Velocity S-wave (km/s) = 3.68144 3.30069 3.49625
# Velocity P-wave (km/s) = 5.80125 6.34584 6.07964
#
# Compressibility (1/GPa) = 0.02990123
#
# Stress axis : x y z
#
# Youngs Moduli (GPa) = 93.04279 46.66022 155.59576
#
# Poissons Ratio (x) = 0.06639 0.57714
# Poissons Ratio (y) = 0.13239 -0.12131
# Poissons Ratio (z) = 0.34512 -0.03638
#
# Static dielectric constant tensor:
#      x y z
#    x 1.809930 0.000000 0.000000 
#    y 0.000000 1.817870 0.000000 
#    z 0.000000 0.000000 1.992050 
# 
# From -- ./inp_files/32301.got.cif
#   From: 2010.05.17/outbox.cif.g08.bks.cpg/sg51_17_cif.got.tgz:32301.got - 2010.06.03 11:52:47.
