data_PCOD9402532
_publ_section_title
;
Structure prediction by ZEFSAII (Michael W. Deem and Ramdas Pophale) SiO2 
 PCOD9402532
Probable space group: P M M A
;
_chemical_formula_sum "Si O2"
_cell_formula_units_Z 48
_cell_length_a 15.050370
_cell_length_b 15.829592
_cell_length_c 10.540573
_cell_angle_alpha 90.000000
_cell_angle_beta 90.000000
_cell_angle_gamma 90.000000
_cell_volume 2511.198935
_symmetry_space_group_name_H-M "P M M A"
_symmetry_group_IT_number 51
_symmetry_cell_setting 'orthorhombic'
loop_
_space_group_symop_operation_xyz
x,y,z
1/2-x,-y,z
1/2+x,-y,-z
-x,y,-z
-x,-y,-z
1/2+x,y,-z
1/2-x,y,z
x,-y,z
loop_
_atom_site_type_symbol
_atom_site_label
_atom_site_fract_x
_atom_site_fract_y
_atom_site_fract_z
Si Si1 0.931693 0.406853 0.382378
Si Si2 0.646207 0.830904 0.209058
Si Si3 0.348485 0.000000 0.208033
Si Si4 0.903940 0.000000 0.065901
Si Si5 0.148412 0.186885 0.245274
Si Si6 0.606510 0.233584 0.474656
Si Si7 0.997166 0.691380 0.142680
O O1 0.891650 0.500000 0.364923
O O2 0.871117 0.327521 0.422802
O O3 0.982234 0.376606 0.254589
O O4 0.000000 0.412624 0.500000
O O5 0.750000 0.818772 0.181880
O O6 0.631412 0.828597 0.360868
O O7 0.585574 0.755904 0.154137
O O8 0.613403 0.917479 0.148023
O O9 0.389470 0.090918 0.241271
O O10 0.250000 0.000000 0.267891
O O11 0.341975 0.000000 0.056849
O O12 0.000000 0.000000 0.000000
O O13 0.250000 0.185714 0.195290
O O14 0.149584 0.214178 0.391637
O O15 0.083966 0.251620 0.173150
O O16 0.500000 0.230361 0.500000
O O17 0.000000 0.656987 0.000000
#
# Coordination Sequence:
#
# PCOD9402532 Si02
#       7
#     8   8   4   4   8   8   8
#     4   9  17  35  64  87 114 153 195 242 300 367
#     4  11  22  37  59  83 117 158 204 253 301 355
#     4  10  22  35  51  73 108 152 198 237 284 340
#     4  12  24  37  55  80 115 158 204 247 294 348
#     4  11  21  38  59  84 118 160 201 249 299 356
#     4  10  19  38  60  87 117 146 199 248 303 366
#     4  11  22  37  58  90 122 155 200 246 301 361
#
# _framework density 19.114377000000001
#
# number of rings (size 3 to 8) (size 9 to 14) (size 15 to 20)
#    0.000    1.500    5.000    3.750    0.000    3.000 
#    0.000    2.500    0.000   14.000    0.000    4.667 
#    0.000    0.000    0.000    0.000    0.000    0.000 
#
# Total GULP energy -267732.840034 kJ/mol
# GULP energy per Si atom -5577.767501 kJ/mol
# Density = 1.907087 g / cm^3
# Si number density = 19.114377 Si / 1000 Ang^3
#
#
#
# Elastic Constant Matrix: (Units=GPa)
#
#
# Indices 1 2 3 4 5 6 
#
# 1 102.8377 16.1659 11.1849 0.0000 0.0000 0.0000
# 2 16.1659 113.3450 53.0847 0.0000 0.0000 0.0000
# 3 11.1849 53.0847 137.5456 0.0000 0.0000 0.0000
# 4 0.0000 0.0000 0.0000 -45.5512 0.0000 0.0000
# 5 0.0000 0.0000 0.0000 0.0000 15.8959 0.0000
# 6 0.0000 0.0000 0.0000 0.0000 0.0000 -197.7446
#
#
#
# Elastic Compliance Matrix: (Units=1/GPa)
#
#
# Indices 1 2 3 4 5 6 
#
# 1 0.009959 -0.001271 -0.000319 0.000000 0.000000 0.000000
# 2 -0.001271 0.010931 -0.004116 0.000000 0.000000 0.000000
# 3 -0.000319 -0.004116 0.008885 0.000000 0.000000 0.000000
# 4 0.000000 0.000000 0.000000 -0.021953 0.000000 0.000000
# 5 0.000000 0.000000 0.000000 0.000000 0.062909 0.000000
# 6 0.000000 0.000000 0.000000 0.000000 0.000000 -0.005057
#
#
# Mechanical properties :
#
#
# Convention : Reuss Voigt Hill
#
# Bulk Modulus (GPa) = 54.45669 57.17770 55.81720
# Shear Modulus (GPa) = 60.09193 -27.26045 16.41574
#
# Velocity S-wave (km/s) = 5.61305 -3.78057 2.93374
# Velocity P-wave (km/s) = 8.40001 3.30476 6.38285
#
# Compressibility (1/GPa) = 0.01836322
#
# Stress axis : x y z
#
# Youngs Moduli (GPa) = 100.41617 91.47984 112.55369
#
# Poissons Ratio (x) = 0.11625 0.03594
# Poissons Ratio (y) = 0.12761 0.46322
# Poissons Ratio (z) = 0.03207 0.37649
#
# Static dielectric constant tensor:
#      x y z
#    x 1.700500 0.000000 0.000000 
#    y 0.000000 1.679020 0.000000 
#    z 0.000000 0.000000 1.667370 
# 
# From -- ./inp_files/9711.got.cif
#   From: 2010.05.17/outbox.cif.g08.bks.cpg/sg51_5_cif.got.tgz:9711.got - 2010.06.03 11:52:47.
