data_PCOD9402337
_publ_section_title
;
Structure prediction by ZEFSAII (Michael W. Deem and Ramdas Pophale) SiO2 
 PCOD9402337
Probable space group: P M M A
;
_chemical_formula_sum "Si O2"
_cell_formula_units_Z 64
_cell_length_a 24.573543
_cell_length_b 8.085617
_cell_length_c 15.334850
_cell_angle_alpha 90.000000
_cell_angle_beta 90.000000
_cell_angle_gamma 90.000000
_cell_volume 3046.915958
_symmetry_space_group_name_H-M "P M M A"
_symmetry_group_IT_number 51
_symmetry_cell_setting 'orthorhombic'
loop_
_space_group_symop_operation_xyz
x,y,z
1/2-x,-y,z
1/2+x,-y,-z
-x,y,-z
-x,-y,-z
1/2+x,y,-z
1/2-x,y,z
x,-y,z
loop_
_atom_site_type_symbol
_atom_site_label
_atom_site_fract_x
_atom_site_fract_y
_atom_site_fract_z
Si Si1 0.410861 0.805603 0.853717
Si Si2 0.624082 0.691991 0.327401
Si Si3 0.811483 0.801668 0.493254
Si Si4 0.131487 0.809885 0.036025
Si Si5 0.476420 0.685401 0.098713
Si Si6 0.310438 0.202796 0.198524
Si Si7 0.491373 0.803918 0.603900
Si Si8 0.889897 0.797418 0.649055
O O1 0.376798 0.776499 0.767043
O O2 0.471604 0.732440 0.843876
O O3 0.419222 0.000000 0.868673
O O4 0.382456 0.735183 0.941517
O O5 0.666099 0.762937 0.397478
O O6 0.563510 0.716915 0.366402
O O7 0.391657 0.000000 0.353004
O O8 0.750000 0.738401 0.506970
O O9 0.855594 0.742298 0.564249
O O10 0.809474 0.000000 0.503283
O O11 0.075602 0.802488 0.092612
O O12 0.175873 0.736894 0.101155
O O13 0.146856 0.000000 0.019964
O O14 0.457997 0.500000 0.118624
O O15 0.500000 0.688477 0.000000
O O16 0.250000 0.250765 0.226459
O O17 0.355868 0.255828 0.267099
O O18 0.312029 0.000000 0.197111
O O19 0.500000 0.789136 0.500000
O O20 0.364958 0.500000 0.684870
O O21 0.547507 0.743273 0.646992
O O22 0.015780 0.000000 0.623453
#
# Coordination Sequence:
#
# PCOD9402337 Si02
#       8
#     8   8   8   8   8   8   8   8
#     4  10  20  35  54  76 108 148 194 238 282 337
#     4  12  25  38  55  83 120 154 192 238 294 351
#     4  10  20  38  63  86 110 147 195 238 279 336
#     4   9  18  32  52  79 108 144 188 234 281 331
#     4   9  17  30  49  75 106 139 175 221 279 338
#     4   9  17  30  51  83 117 144 181 234 285 334
#     4  10  19  35  58  84 118 154 190 232 280 337
#     4   9  17  31  55  87 117 146 182 227 280 336
#
# _framework density 21.004847000000002
#
# number of rings (size 3 to 8) (size 9 to 14) (size 15 to 20)
#    0.000    2.250    1.250    2.250    1.750    4.000 
#    0.000    0.625    0.000    3.375    0.000    0.000 
#    0.000    0.000    0.000    0.000    0.000    0.000 
#
# Total GULP energy -357209.471179 kJ/mol
# GULP energy per Si atom -5581.397987 kJ/mol
# Density = 2.095704 g / cm^3
# Si number density = 21.004847 Si / 1000 Ang^3
#
#
#
# Elastic Constant Matrix: (Units=GPa)
#
#
# Indices 1 2 3 4 5 6 
#
# 1 69.4559 -3.4758 10.0947 0.0000 0.0000 0.0000
# 2 -3.4758 16.1957 -6.9065 0.0000 0.0000 0.0000
# 3 10.0947 -6.9065 72.0941 0.0000 0.0000 0.0000
# 4 0.0000 0.0000 0.0000 1.1919 0.0000 0.0000
# 5 0.0000 0.0000 0.0000 0.0000 22.4444 0.0000
# 6 0.0000 0.0000 0.0000 0.0000 0.0000 -7.8767
#
#
#
# Elastic Compliance Matrix: (Units=1/GPa)
#
#
# Indices 1 2 3 4 5 6 
#
# 1 0.014785 0.002388 -0.001841 0.000000 0.000000 0.000000
# 2 0.002388 0.064760 0.005870 0.000000 0.000000 0.000000
# 3 -0.001841 0.005870 0.014691 0.000000 0.000000 0.000000
# 4 0.000000 0.000000 0.000000 0.838984 0.000000 0.000000
# 5 0.000000 0.000000 0.000000 0.000000 0.044555 0.000000
# 6 0.000000 0.000000 0.000000 0.000000 0.000000 -0.126956
#
#
# Mechanical properties :
#
#
# Convention : Reuss Voigt Hill
#
# Bulk Modulus (GPa) = 9.33987 17.46338 13.40163
# Shear Modulus (GPa) = 5.72295 13.68748 9.70521
#
# Velocity S-wave (km/s) = 1.65242 2.55548 2.15186
# Velocity P-wave (km/s) = 2.84550 4.12787 3.54515
#
# Compressibility (1/GPa) = 0.10706791
#
# Stress axis : x y z
#
# Youngs Moduli (GPa) = 67.63726 15.44153 68.06941
#
# Poissons Ratio (x) = -0.03687 0.12535
# Poissons Ratio (y) = -0.16150 -0.39954
# Poissons Ratio (z) = 0.12455 -0.09064
#
# Static dielectric constant tensor:
#      x y z
#    x 1.743780 0.000000 0.000000 
#    y 0.000000 1.761480 0.000000 
#    z 0.000000 0.000000 1.782720 
# 
# From -- ./inp_files/26313.got.cif
#   From: 2010.05.17/outbox.cif.g08.bks.cpg/sg51_14_cif.got.tgz:26313.got - 2010.06.03 11:52:47.
