data_PCOD9402926
_publ_section_title
;
Structure prediction by ZEFSAII (Michael W. Deem and Ramdas Pophale) SiO2 
 PCOD9402926
Probable space group: P M M A
;
_chemical_formula_sum "Si O2"
_cell_formula_units_Z 56
_cell_length_a 14.304674
_cell_length_b 9.069727
_cell_length_c 21.588516
_cell_angle_alpha 90.000000
_cell_angle_beta 90.000000
_cell_angle_gamma 90.000000
_cell_volume 2800.883013
_symmetry_space_group_name_H-M "P M M A"
_symmetry_group_IT_number 51
_symmetry_cell_setting 'orthorhombic'
loop_
_space_group_symop_operation_xyz
x,y,z
1/2-x,-y,z
1/2+x,-y,-z
-x,y,-z
-x,-y,-z
1/2+x,y,-z
1/2-x,y,z
x,-y,z
loop_
_atom_site_type_symbol
_atom_site_label
_atom_site_fract_x
_atom_site_fract_y
_atom_site_fract_z
Si Si1 0.045214 0.678264 0.146031
Si Si2 0.363763 0.669683 0.524614
Si Si3 0.046912 0.677283 0.282694
Si Si4 0.855644 0.679454 0.337525
Si Si5 0.851839 0.824398 0.107393
Si Si6 0.636933 0.169407 0.599739
Si Si7 0.109879 0.668260 0.016618
O O1 0.036830 0.500000 0.143387
O O2 0.080169 0.720160 0.214172
O O3 0.941896 0.744938 0.136117
O O4 0.110719 0.719646 0.087888
O O5 0.250000 0.669101 0.523571
O O6 0.394210 0.500000 0.520018
O O7 0.386069 0.728252 0.593238
O O8 0.396153 0.757018 0.464464
O O9 0.053210 0.500000 0.287745
O O10 0.937493 0.719422 0.290593
O O11 0.101298 0.746972 0.339759
O O12 0.750000 0.730632 0.324054
O O13 0.851936 0.500000 0.340140
O O14 0.750000 0.783117 0.134614
O O15 0.862970 0.000000 0.111585
O O16 0.850032 0.774055 0.035475
O O17 0.750000 0.174878 0.599243
O O18 0.607432 0.000000 0.601936
O O19 0.145431 0.500000 0.011474
O O20 0.000000 0.660941 0.000000
#
# Coordination Sequence:
#
# PCOD9402926 Si02
#       7
#     8   8   8   8   8   8   8
#     4   9  19  34  51  73 100 131 166 202 245 297
#     4   8  14  28  51  74  96 126 165 211 261 307
#     4  10  20  34  54  78 103 135 174 211 250 302
#     4   8  15  29  50  77 105 131 165 210 256 304
#     4  10  20  32  49  76 104 129 162 201 241 290
#     4  10  21  36  52  71  98 132 171 216 264 311
#     4   8  15  30  50  70  93 121 156 197 238 280
#
# _framework density 19.993694000000001
#
# number of rings (size 3 to 8) (size 9 to 14) (size 15 to 20)
#    0.000    3.000    0.000    2.571    0.000    6.286 
#    0.000    5.714    0.000    5.571    0.000    0.000 
#    0.000    0.000    0.000    0.000    0.000    0.000 
#
# Total GULP energy -312198.118379 kJ/mol
# GULP energy per Si atom -5574.966400 kJ/mol
# Density = 1.994819 g / cm^3
# Si number density = 19.993694 Si / 1000 Ang^3
#
#
#
# Elastic Constant Matrix: (Units=GPa)
#
#
# Indices 1 2 3 4 5 6 
#
# 1 24.3396 -2.3598 -14.1582 0.0000 0.0000 0.0000
# 2 -2.3598 18.2176 11.4769 0.0000 0.0000 0.0000
# 3 -14.1582 11.4769 98.6606 0.0000 0.0000 0.0000
# 4 0.0000 0.0000 0.0000 -5.4167 0.0000 0.0000
# 5 0.0000 0.0000 0.0000 0.0000 11.3315 0.0000
# 6 0.0000 0.0000 0.0000 0.0000 0.0000 20.4841
#
#
#
# Elastic Compliance Matrix: (Units=1/GPa)
#
#
# Indices 1 2 3 4 5 6 
#
# 1 0.044888 0.001895 0.006221 0.000000 0.000000 0.000000
# 2 0.001895 0.059313 -0.006628 0.000000 0.000000 0.000000
# 3 0.006221 -0.006628 0.011800 0.000000 0.000000 0.000000
# 4 0.000000 0.000000 0.000000 -0.184614 0.000000 0.000000
# 5 0.000000 0.000000 0.000000 0.000000 0.088250 0.000000
# 6 0.000000 0.000000 0.000000 0.000000 0.000000 0.048818
#
#
# Mechanical properties :
#
#
# Convention : Reuss Voigt Hill
#
# Bulk Modulus (GPa) = 8.40494 14.57062 11.48778
# Shear Modulus (GPa) = 47.55725 15.03037 31.29381
#
# Velocity S-wave (km/s) = 4.88239 2.74479 3.96053
# Velocity P-wave (km/s) = 5.99972 4.16516 5.16455
#
# Compressibility (1/GPa) = 0.11897759
#
# Stress axis : x y z
#
# Youngs Moduli (GPa) = 22.27770 16.85971 84.74923
#
# Poissons Ratio (x) = -0.03195 -0.52724
# Poissons Ratio (y) = -0.04222 0.56170
# Poissons Ratio (z) = -0.13859 0.11174
#
# Static dielectric constant tensor:
#      x y z
#    x 1.749060 0.000000 0.000000 
#    y 0.000000 1.664830 0.000000 
#    z 0.000000 0.000000 1.728050 
# 
# From -- ./inp_files/33398.got.cif
#   From: 2010.05.17/outbox.cif.g08.bks.cpg/sg51_17_cif.got.tgz:33398.got - 2010.06.03 11:52:47.
