data_PCOD9402280
_publ_section_title
;
Structure prediction by ZEFSAII (Michael W. Deem and Ramdas Pophale) SiO2 
 PCOD9402280
Probable space group: P M M A
;
_chemical_formula_sum "Si O2"
_cell_formula_units_Z 40
_cell_length_a 9.206044
_cell_length_b 14.800520
_cell_length_c 15.578199
_cell_angle_alpha 90.000000
_cell_angle_beta 90.000000
_cell_angle_gamma 90.000000
_cell_volume 2122.595639
_symmetry_space_group_name_H-M "P M M A"
_symmetry_group_IT_number 51
_symmetry_cell_setting 'orthorhombic'
loop_
_space_group_symop_operation_xyz
x,y,z
1/2-x,-y,z
1/2+x,-y,-z
-x,y,-z
-x,-y,-z
1/2+x,y,-z
1/2-x,y,z
x,-y,z
loop_
_atom_site_type_symbol
_atom_site_label
_atom_site_fract_x
_atom_site_fract_y
_atom_site_fract_z
Si Si1 0.084063 0.397472 0.113619
Si Si2 0.422563 0.209276 0.915678
Si Si3 0.413600 0.649279 0.312332
Si Si4 0.576198 0.167726 0.278915
Si Si5 0.576708 0.000000 0.405959
Si Si6 0.580300 0.500000 0.411250
O O1 0.250000 0.384772 0.080410
O O2 0.036011 0.500000 0.092393
O O3 0.093253 0.389910 0.216325
O O4 0.982207 0.312812 0.090751
O O5 0.250000 0.210115 0.927527
O O6 0.453088 0.159711 0.824250
O O7 0.500000 0.169291 0.000000
O O8 0.250000 0.646096 0.348399
O O9 0.477062 0.749229 0.307753
O O10 0.525016 0.587645 0.362156
O O11 0.750000 0.187380 0.285108
O O12 0.544906 0.085312 0.343389
O O13 0.500000 0.000000 0.500000
O O14 0.750000 0.000000 0.422107
O O15 0.750000 0.500000 0.421101
O O16 0.500000 0.500000 0.500000
#
# Coordination Sequence:
#
# PCOD9402280 Si02
#       6
#     8   8   8   8   4   4
#     4   9  17  31  51  74 105 146 191 236 281 330
#     4  10  20  34  53  79 112 151 196 239 287 341
#     4  10  19  35  56  80 111 148 189 236 288 342
#     4   9  20  39  61  86 116 155 193 235 292 354
#     4  10  22  42  67  92 120 146 185 240 295 356
#     4  12  24  36  52  76 109 148 193 240 286 348
#
# _framework density 18.844851999999999
#
# number of rings (size 3 to 8) (size 9 to 14) (size 15 to 20)
#    0.000    2.200    1.000    2.100    0.000    4.000 
#    0.000    2.500    0.000    0.000    0.000    0.000 
#    0.000    0.000    0.000    0.000    0.000    0.000 
#
# Total GULP energy -222976.714696 kJ/mol
# GULP energy per Si atom -5574.417867 kJ/mol
# Density = 1.880196 g / cm^3
# Si number density = 18.844852 Si / 1000 Ang^3
#
#
#
# Elastic Constant Matrix: (Units=GPa)
#
#
# Indices 1 2 3 4 5 6 
#
# 1 115.6494 44.9574 70.8113 0.0000 0.0000 0.0000
# 2 44.9574 88.7273 61.7922 0.0000 0.0000 0.0000
# 3 70.8113 61.7922 137.5945 0.0000 0.0000 0.0000
# 4 0.0000 0.0000 0.0000 17.2132 0.0000 0.0000
# 5 0.0000 0.0000 0.0000 0.0000 36.1701 0.0000
# 6 0.0000 0.0000 0.0000 0.0000 0.0000 19.9889
#
#
#
# Elastic Compliance Matrix: (Units=1/GPa)
#
#
# Indices 1 2 3 4 5 6 
#
# 1 0.013094 -0.002825 -0.005470 0.000000 0.000000 0.000000
# 2 -0.002825 0.017009 -0.006185 0.000000 0.000000 0.000000
# 3 -0.005470 -0.006185 0.012860 0.000000 0.000000 0.000000
# 4 0.000000 0.000000 0.000000 0.058095 0.000000 0.000000
# 5 0.000000 0.000000 0.000000 0.000000 0.027647 0.000000
# 6 0.000000 0.000000 0.000000 0.000000 0.000000 0.050028
#
#
# Mechanical properties :
#
#
# Convention : Reuss Voigt Hill
#
# Bulk Modulus (GPa) = 71.40883 77.45480 74.43182
# Shear Modulus (GPa) = 23.54473 25.63513 24.58993
#
# Velocity S-wave (km/s) = 3.53852 3.69226 3.61621
# Velocity P-wave (km/s) = 7.39392 7.70504 7.55108
#
# Compressibility (1/GPa) = 0.01400387
#
# Stress axis : x y z
#
# Youngs Moduli (GPa) = 76.36841 58.79159 77.75881
#
# Poissons Ratio (x) = 0.16611 0.42534
# Poissons Ratio (y) = 0.21577 0.48091
# Poissons Ratio (z) = 0.41774 0.36360
#
# Static dielectric constant tensor:
#      x y z
#    x 1.703440 0.000000 0.000000 
#    y 0.000000 1.647470 0.000000 
#    z 0.000000 0.000000 1.615530 
# 
# From -- ./inp_files/20528.got.cif
#   From: 2010.05.17/outbox.cif.g08.bks.cpg/sg51_11_cif.got.tgz:20528.got - 2010.06.03 11:52:47.
