data_PCOD9402293
_publ_section_title
;
Structure prediction by ZEFSAII (Michael W. Deem and Ramdas Pophale) SiO2 
 PCOD9402293
Probable space group: P M M A
;
_chemical_formula_sum "Si O2"
_cell_formula_units_Z 48
_cell_length_a 20.857548
_cell_length_b 7.529862
_cell_length_c 14.716990
_cell_angle_alpha 90.000000
_cell_angle_beta 90.000000
_cell_angle_gamma 90.000000
_cell_volume 2311.368889
_symmetry_space_group_name_H-M "P M M A"
_symmetry_group_IT_number 51
_symmetry_cell_setting 'orthorhombic'
loop_
_space_group_symop_operation_xyz
x,y,z
1/2-x,-y,z
1/2+x,-y,-z
-x,y,-z
-x,-y,-z
1/2+x,y,-z
1/2-x,y,z
x,-y,z
loop_
_atom_site_type_symbol
_atom_site_label
_atom_site_fract_x
_atom_site_fract_y
_atom_site_fract_z
Si Si1 0.119630 0.292472 0.227295
Si Si2 0.623843 0.215655 0.197579
Si Si3 0.991768 0.292913 0.899166
Si Si4 0.750000 0.214211 0.877052
Si Si5 0.823499 0.712450 0.590153
Si Si6 0.176473 0.212940 0.613039
Si Si7 0.250000 0.216191 0.913418
O O1 0.102968 0.500000 0.240546
O O2 0.186632 0.279180 0.173946
O O3 0.133385 0.216668 0.327616
O O4 0.063932 0.213423 0.164269
O O5 0.558853 0.282077 0.152933
O O6 0.635207 0.274842 0.301408
O O7 0.685956 0.271652 0.139350
O O8 0.621558 0.000000 0.195828
O O9 0.973836 0.500000 0.913206
O O10 0.000000 0.214130 0.000000
O O11 0.750000 0.000000 0.874832
O O12 0.750000 0.272556 0.981953
O O13 0.750000 0.781488 0.596615
O O14 0.819535 0.500000 0.601738
O O15 0.847163 0.745557 0.488089
O O16 0.250000 0.280105 0.620504
O O17 0.179745 0.000000 0.620428
O O18 0.250000 0.000000 0.912502
#
# Coordination Sequence:
#
# PCOD9402293 Si02
#       7
#     8   8   8   4   8   8   4
#     4  10  20  37  55  73 107 147 176 213 270 322
#     4  10  19  35  57  78 106 142 177 215 267 324
#     4  10  22  38  55  77 107 144 184 223 265 315
#     4  11  21  31  52  83 106 128 175 229 262 305
#     4   9  17  31  52  76 101 135 176 213 257 316
#     4   9  17  31  53  80 107 136 170 215 270 316
#     4   9  18  33  52  77 106 136 171 215 266 321
#
# _framework density 20.766915000000001
#
# number of rings (size 3 to 8) (size 9 to 14) (size 15 to 20)
#    0.000    2.333    1.667    1.250    0.000    2.333 
#    0.000    2.083    0.000    5.000    0.000    0.000 
#    0.000    0.000    0.000    0.000    0.000    0.000 
#
# Total GULP energy -267969.062281 kJ/mol
# GULP energy per Si atom -5582.688798 kJ/mol
# Density = 2.071965 g / cm^3
# Si number density = 20.766915 Si / 1000 Ang^3
#
#
#
# Elastic Constant Matrix: (Units=GPa)
#
#
# Indices 1 2 3 4 5 6 
#
# 1 110.3969 -19.7155 74.6479 0.0000 0.0000 0.0000
# 2 -19.7155 50.3084 -9.9775 0.0000 0.0000 0.0000
# 3 74.6479 -9.9775 217.5110 0.0000 0.0000 0.0000
# 4 0.0000 0.0000 0.0000 14.4642 0.0000 0.0000
# 5 0.0000 0.0000 0.0000 0.0000 25.4842 0.0000
# 6 0.0000 0.0000 0.0000 0.0000 0.0000 16.4049
#
#
#
# Elastic Compliance Matrix: (Units=1/GPa)
#
#
# Indices 1 2 3 4 5 6 
#
# 1 0.012586 0.004113 -0.004131 0.000000 0.000000 0.000000
# 2 0.004113 0.021404 -0.000430 0.000000 0.000000 0.000000
# 3 -0.004131 -0.000430 0.005995 0.000000 0.000000 0.000000
# 4 0.000000 0.000000 0.000000 0.069136 0.000000 0.000000
# 5 0.000000 0.000000 0.000000 0.000000 0.039240 0.000000
# 6 0.000000 0.000000 0.000000 0.000000 0.000000 0.060958
#
#
# Mechanical properties :
#
#
# Convention : Reuss Voigt Hill
#
# Bulk Modulus (GPa) = 25.58162 52.01402 38.79782
# Shear Modulus (GPa) = 22.39704 33.48808 27.94256
#
# Velocity S-wave (km/s) = 3.28761 4.02004 3.67213
# Velocity P-wave (km/s) = 5.17265 6.82997 6.05826
#
# Compressibility (1/GPa) = 0.03909057
#
# Stress axis : x y z
#
# Youngs Moduli (GPa) = 79.45432 46.72012 166.79534
#
# Poissons Ratio (x) = -0.19216 0.68898
# Poissons Ratio (y) = -0.32680 0.07168
# Poissons Ratio (z) = 0.32820 0.02008
#
# Static dielectric constant tensor:
#      x y z
#    x 1.696400 0.000000 0.000000 
#    y 0.000000 1.832790 0.000000 
#    z 0.000000 0.000000 1.761040 
# 
# From -- ./inp_files/24923.got.cif
#   From: 2010.05.17/outbox.cif.g08.bks.cpg/sg51_13_cif.got.tgz:24923.got - 2010.06.03 11:52:47.
