data_PCOD9402982
_publ_section_title
;
Structure prediction by ZEFSAII (Michael W. Deem and Ramdas Pophale) SiO2 
 PCOD9402982
Probable space group: P M M A
;
_chemical_formula_sum "Si O2"
_cell_formula_units_Z 56
_cell_length_a 15.924720
_cell_length_b 8.339411
_cell_length_c 21.669621
_cell_angle_alpha 90.000000
_cell_angle_beta 90.000000
_cell_angle_gamma 90.000000
_cell_volume 2877.786022
_symmetry_space_group_name_H-M "P M M A"
_symmetry_group_IT_number 51
_symmetry_cell_setting 'orthorhombic'
loop_
_space_group_symop_operation_xyz
x,y,z
1/2-x,-y,z
1/2+x,-y,-z
-x,y,-z
-x,-y,-z
1/2+x,y,-z
1/2-x,y,z
x,-y,z
loop_
_atom_site_type_symbol
_atom_site_label
_atom_site_fract_x
_atom_site_fract_y
_atom_site_fract_z
Si Si1 0.484293 0.807441 0.350212
Si Si2 0.594458 0.815647 0.528148
Si Si3 0.842098 0.306132 0.876125
Si Si4 0.096828 0.695251 0.991302
Si Si5 0.490797 0.191746 0.211770
Si Si6 0.655735 0.305934 0.143999
Si Si7 0.341929 0.689249 0.595309
O O1 0.420325 0.747553 0.403244
O O2 0.471710 0.747677 0.280928
O O3 0.579292 0.769369 0.371128
O O4 0.475112 0.000000 0.351107
O O5 0.500000 0.820282 0.500000
O O6 0.647302 0.720293 0.477936
O O7 0.624899 0.000000 0.530727
O O8 0.750000 0.254249 0.853881
O O9 0.844740 0.500000 0.875591
O O10 0.854418 0.254779 0.947268
O O11 0.918918 0.246462 0.835267
O O12 0.098382 0.500000 0.989842
O O13 0.133965 0.748608 0.925953
O O14 0.000000 0.744046 0.000000
O O15 0.581419 0.249508 0.188246
O O16 0.491957 0.000000 0.213562
O O17 0.750000 0.253657 0.160898
O O18 0.654858 0.500000 0.143827
O O19 0.250000 0.749105 0.614939
O O20 0.346381 0.500000 0.606920
#
# Coordination Sequence:
#
# PCOD9402982 Si02
#       7
#     8   8   8   8   8   8   8
#     4   9  20  37  54  72  98 139 183 215 248 302
#     4   8  15  31  53  73  94 125 168 207 241 290
#     4  10  20  36  59  83 106 137 182 231 277 329
#     4   9  15  29  56  83 106 134 176 229 277 325
#     4  11  23  38  55  77 111 149 185 227 273 322
#     4  10  20  35  56  81 109 142 182 228 277 329
#     4  10  20  32  50  81 113 134 160 206 262 313
#
# _framework density 19.459402999999998
#
# number of rings (size 3 to 8) (size 9 to 14) (size 15 to 20)
#    0.000    2.429    1.429    2.143    0.000    7.714 
#    0.000    5.000    0.000    6.000    0.000    0.000 
#    0.000    0.000    0.000    0.000    0.000    0.000 
#
# Total GULP energy -312322.006744 kJ/mol
# GULP energy per Si atom -5577.178692 kJ/mol
# Density = 1.941511 g / cm^3
# Si number density = 19.459403 Si / 1000 Ang^3
#
#
#
# Elastic Constant Matrix: (Units=GPa)
#
#
# Indices 1 2 3 4 5 6 
#
# 1 66.2020 2.8028 -0.9944 0.0000 0.0000 0.0000
# 2 2.8028 5.7803 3.0445 0.0000 0.0000 0.0000
# 3 -0.9944 3.0445 89.6912 0.0000 0.0000 0.0000
# 4 0.0000 0.0000 0.0000 21.9497 0.0000 0.0000
# 5 0.0000 0.0000 0.0000 0.0000 7.7302 0.0000
# 6 0.0000 0.0000 0.0000 0.0000 0.0000 24.3310
#
#
#
# Elastic Compliance Matrix: (Units=1/GPa)
#
#
# Indices 1 2 3 4 5 6 
#
# 1 0.015438 -0.007714 0.000433 0.000000 0.000000 0.000000
# 2 -0.007714 0.180004 -0.006196 0.000000 0.000000 0.000000
# 3 0.000433 -0.006196 0.011364 0.000000 0.000000 0.000000
# 4 0.000000 0.000000 0.000000 0.045559 0.000000 0.000000
# 5 0.000000 0.000000 0.000000 0.000000 0.129363 0.000000
# 6 0.000000 0.000000 0.000000 0.000000 0.000000 0.041100
#
#
# Mechanical properties :
#
#
# Convention : Reuss Voigt Hill
#
# Bulk Modulus (GPa) = 5.56007 19.04215 12.30111
# Shear Modulus (GPa) = 9.80907 21.25689 15.53298
#
# Velocity S-wave (km/s) = 2.24761 3.30869 2.82835
# Velocity P-wave (km/s) = 3.09824 4.93998 4.12326
#
# Compressibility (1/GPa) = 0.17985392
#
# Stress axis : x y z
#
# Youngs Moduli (GPa) = 64.77372 5.55543 87.99350
#
# Poissons Ratio (x) = 0.04285 -0.03810
# Poissons Ratio (y) = 0.49965 0.54518
# Poissons Ratio (z) = -0.02805 0.03442
#
# Static dielectric constant tensor:
#      x y z
#    x 1.672440 0.000000 0.000000 
#    y 0.000000 1.678560 0.000000 
#    z 0.000000 0.000000 1.705160 
# 
# From -- ./inp_files/33391.got.cif
#   From: 2010.05.17/outbox.cif.g08.bks.cpg/sg51_17_cif.got.tgz:33391.got - 2010.06.03 11:52:47.
