data_PCOD9402379
_publ_section_title
;
Structure prediction by ZEFSAII (Michael W. Deem and Ramdas Pophale) SiO2 
 PCOD9402379
Probable space group: P M M A
;
_chemical_formula_sum "Si O2"
_cell_formula_units_Z 48
_cell_length_a 17.781269
_cell_length_b 13.846057
_cell_length_c 9.961703
_cell_angle_alpha 90.000000
_cell_angle_beta 90.000000
_cell_angle_gamma 90.000000
_cell_volume 2452.575902
_symmetry_space_group_name_H-M "P M M A"
_symmetry_group_IT_number 51
_symmetry_cell_setting 'orthorhombic'
loop_
_space_group_symop_operation_xyz
x,y,z
1/2-x,-y,z
1/2+x,-y,-z
-x,y,-z
-x,-y,-z
1/2+x,y,-z
1/2-x,y,z
x,-y,z
loop_
_atom_site_type_symbol
_atom_site_label
_atom_site_fract_x
_atom_site_fract_y
_atom_site_fract_z
Si Si1 0.574654 0.286306 0.585263
Si Si2 0.336005 0.683188 0.899177
Si Si3 0.452343 0.109389 0.218407
Si Si4 0.340150 0.607964 0.622640
Si Si5 0.337564 0.614270 0.183623
Si Si6 0.115051 0.109223 0.924272
O O1 0.500000 0.309669 0.500000
O O2 0.563976 0.185891 0.664760
O O3 0.637418 0.303518 0.472056
O O4 0.604639 0.357191 0.700790
O O5 0.250000 0.648801 0.907702
O O6 0.370860 0.630525 0.771351
O O7 0.337943 0.798226 0.880979
O O8 0.367920 0.657478 0.044066
O O9 0.536357 0.118230 0.156830
O O10 0.443336 0.000000 0.269016
O O11 0.401127 0.119138 0.084365
O O12 0.250000 0.605313 0.627806
O O13 0.364946 0.500000 0.577874
O O14 0.250000 0.648344 0.209620
O O15 0.333607 0.500000 0.171297
O O16 0.143853 0.000000 0.901745
#
# Coordination Sequence:
#
# PCOD9402379 Si02
#       6
#     8   8   8   8   8   8
#     4  12  23  36  57  86 116 147 190 242 283 334
#     4  10  19  35  60  86 110 143 192 241 281 333
#     4   9  19  36  58  81 111 150 188 226 279 344
#     4  10  22  40  59  80 114 158 194 229 287 353
#     4  10  21  38  59  81 110 150 194 237 286 347
#     4   9  17  34  59  85 113 145 182 230 287 340
#
# _framework density 19.571259000000001
#
# number of rings (size 3 to 8) (size 9 to 14) (size 15 to 20)
#    0.000    2.000    1.667    3.500    0.000    5.333 
#    0.000    0.833    0.000    6.000    0.000    0.000 
#    0.000    0.000    0.000    0.000    0.000    0.000 
#
# Total GULP energy -267333.376904 kJ/mol
# GULP energy per Si atom -5569.445352 kJ/mol
# Density = 1.952671 g / cm^3
# Si number density = 19.571259 Si / 1000 Ang^3
#
#
#
# Elastic Constant Matrix: (Units=GPa)
#
#
# Indices 1 2 3 4 5 6 
#
# 1 22.1966 31.6906 22.8430 0.0000 0.0000 0.0000
# 2 31.6906 98.7430 55.1608 0.0000 0.0000 0.0000
# 3 22.8430 55.1608 108.9169 0.0000 0.0000 0.0000
# 4 0.0000 0.0000 0.0000 33.4233 0.0000 0.0000
# 5 0.0000 0.0000 0.0000 0.0000 18.3671 0.0000
# 6 0.0000 0.0000 0.0000 0.0000 0.0000 24.7104
#
#
#
# Elastic Compliance Matrix: (Units=1/GPa)
#
#
# Indices 1 2 3 4 5 6 
#
# 1 0.085561 -0.024315 -0.005631 0.000000 0.000000 0.000000
# 2 -0.024315 0.021033 -0.005552 0.000000 0.000000 0.000000
# 3 -0.005631 -0.005552 0.013174 0.000000 0.000000 0.000000
# 4 0.000000 0.000000 0.000000 0.029919 0.000000 0.000000
# 5 0.000000 0.000000 0.000000 0.000000 0.054445 0.000000
# 6 0.000000 0.000000 0.000000 0.000000 0.000000 0.040469
#
#
# Mechanical properties :
#
#
# Convention : Reuss Voigt Hill
#
# Bulk Modulus (GPa) = 20.50330 49.91615 35.20972
# Shear Modulus (GPa) = 15.06689 23.31095 19.18892
#
# Velocity S-wave (km/s) = 2.77762 3.45495 3.13463
# Velocity P-wave (km/s) = 4.55915 6.44017 5.57950
#
# Compressibility (1/GPa) = 0.04877265
#
# Stress axis : x y z
#
# Youngs Moduli (GPa) = 11.68759 47.54530 75.90576
#
# Poissons Ratio (x) = 1.15604 0.42739
# Poissons Ratio (y) = 0.28418 0.42146
# Poissons Ratio (z) = 0.06581 0.26399
#
# Static dielectric constant tensor:
#      x y z
#    x 1.698650 0.000000 0.000000 
#    y 0.000000 1.676750 0.000000 
#    z 0.000000 0.000000 1.724140 
# 
# From -- ./inp_files/9654.got.cif
#   From: 2010.05.17/outbox.cif.g08.bks.cpg/sg51_5_cif.got.tgz:9654.got - 2010.06.03 11:52:47.
