data_PCOD9402675
_publ_section_title
;
Structure prediction by ZEFSAII (Michael W. Deem and Ramdas Pophale) SiO2 
 PCOD9402675
Probable space group: P M M A
;
_chemical_formula_sum "Si O2"
_cell_formula_units_Z 48
_cell_length_a 7.622718
_cell_length_b 14.374632
_cell_length_c 24.690063
_cell_angle_alpha 90.000000
_cell_angle_beta 90.000000
_cell_angle_gamma 90.000000
_cell_volume 2705.383188
_symmetry_space_group_name_H-M "P M M A"
_symmetry_group_IT_number 51
_symmetry_cell_setting 'orthorhombic'
loop_
_space_group_symop_operation_xyz
x,y,z
1/2-x,-y,z
1/2+x,-y,-z
-x,y,-z
-x,-y,-z
1/2+x,y,-z
1/2-x,y,z
x,-y,z
loop_
_atom_site_type_symbol
_atom_site_label
_atom_site_fract_x
_atom_site_fract_y
_atom_site_fract_z
Si Si1 0.964205 0.604750 0.224958
Si Si2 0.460609 0.393628 0.560943
Si Si3 0.041537 0.787177 0.831905
Si Si4 0.457585 0.104861 0.061040
Si Si5 0.035378 0.895126 0.726022
Si Si6 0.536199 0.287855 0.333759
O O1 0.750000 0.601868 0.223693
O O2 0.026634 0.500000 0.215697
O O3 0.024164 0.683786 0.182603
O O4 0.012604 0.643469 0.284402
O O5 0.500000 0.361723 0.500000
O O6 0.250000 0.397691 0.566115
O O7 0.526968 0.500000 0.566648
O O8 0.526087 0.327959 0.609103
O O9 0.250000 0.782838 0.824127
O O10 0.977675 0.858133 0.785261
O O11 0.011754 0.826398 0.891365
O O12 0.250000 0.097455 0.064643
O O13 0.533003 0.000000 0.068522
O O14 0.500000 0.135552 0.000000
O O15 0.250000 0.896693 0.725828
O O16 0.980418 0.815827 0.683413
O O17 0.975568 0.000000 0.715813
O O18 0.750000 0.286438 0.334784
#
# Coordination Sequence:
#
# PCOD9402675 Si02
#       6
#     8   8   8   8   8   8
#     4   8  13  22  39  64  89 110 135 168 204 242
#     4   9  16  25  38  56  77 101 130 165 203 241
#     4   9  16  26  43  66  89 111 134 165 205 245
#     4  10  20  32  46  64  86 112 140 170 204 242
#     4   8  13  21  36  60  85 105 129 164 202 238
#     4   8  13  21  35  56  80 106 135 166 200 238
#
# _framework density 17.742402999999999
#
# number of rings (size 3 to 8) (size 9 to 14) (size 15 to 20)
#    0.000    3.333    0.000    3.500    0.000    3.667 
#    0.000    0.000    0.000    5.500    0.000    0.000 
#    0.000    0.000    0.000    0.000    0.000    0.000 
#
# Total GULP energy -267415.181217 kJ/mol
# GULP energy per Si atom -5571.149609 kJ/mol
# Density = 1.770202 g / cm^3
# Si number density = 17.742403 Si / 1000 Ang^3
#
#
#
# Elastic Constant Matrix: (Units=GPa)
#
#
# Indices 1 2 3 4 5 6 
#
# 1 31.3720 7.0214 -2.4150 0.0000 0.0000 0.0000
# 2 7.0214 166.8888 109.7858 0.0000 0.0000 0.0000
# 3 -2.4150 109.7858 159.4803 0.0000 0.0000 0.0000
# 4 0.0000 0.0000 0.0000 24.8830 0.0000 0.0000
# 5 0.0000 0.0000 0.0000 0.0000 15.0556 0.0000
# 6 0.0000 0.0000 0.0000 0.0000 0.0000 1.2947
#
#
#
# Elastic Compliance Matrix: (Units=1/GPa)
#
#
# Indices 1 2 3 4 5 6 
#
# 1 0.032777 -0.003117 0.002642 0.000000 0.000000 0.000000
# 2 -0.003117 0.011248 -0.007790 0.000000 0.000000 0.000000
# 3 0.002642 -0.007790 0.011673 0.000000 0.000000 0.000000
# 4 0.000000 0.000000 0.000000 0.040188 0.000000 0.000000
# 5 0.000000 0.000000 0.000000 0.000000 0.066420 0.000000
# 6 0.000000 0.000000 0.000000 0.000000 0.000000 0.772362
#
#
# Mechanical properties :
#
#
# Convention : Reuss Voigt Hill
#
# Bulk Modulus (GPa) = 25.53154 65.16951 45.35052
# Shear Modulus (GPa) = 5.18536 24.46994 14.82765
#
# Velocity S-wave (km/s) = 1.71141 3.71776 2.89402
# Velocity P-wave (km/s) = 4.28096 7.43234 6.06491
#
# Compressibility (1/GPa) = 0.03916725
#
# Stress axis : x y z
#
# Youngs Moduli (GPa) = 30.50960 88.90609 85.66702
#
# Poissons Ratio (x) = 0.27713 -0.22634
# Poissons Ratio (y) = 0.09510 0.66736
# Poissons Ratio (z) = -0.08061 0.69259
#
# Static dielectric constant tensor:
#      x y z
#    x 1.668080 0.000000 0.000000 
#    y 0.000000 1.623830 0.000000 
#    z 0.000000 0.000000 1.676940 
# 
# From -- ./inp_files/31589.got.cif
#   From: 2010.05.17/outbox.cif.g08.bks.cpg/sg51_16_cif.got.tgz:31589.got - 2010.06.03 11:52:47.
