data_PCOD9402269
_publ_section_title
;
Structure prediction by ZEFSAII (Michael W. Deem and Ramdas Pophale) SiO2 
 PCOD9402269
Probable space group: P M M A
;
_chemical_formula_sum "Si O2"
_cell_formula_units_Z 56
_cell_length_a 21.040750
_cell_length_b 7.571232
_cell_length_c 16.081691
_cell_angle_alpha 90.000000
_cell_angle_beta 90.000000
_cell_angle_gamma 90.000000
_cell_volume 2561.884131
_symmetry_space_group_name_H-M "P M M A"
_symmetry_group_IT_number 51
_symmetry_cell_setting 'orthorhombic'
loop_
_space_group_symop_operation_xyz
x,y,z
1/2-x,-y,z
1/2+x,-y,-z
-x,y,-z
-x,-y,-z
1/2+x,y,-z
1/2-x,y,z
x,-y,z
loop_
_atom_site_type_symbol
_atom_site_label
_atom_site_fract_x
_atom_site_fract_y
_atom_site_fract_z
Si Si1 0.250000 0.285744 0.210819
Si Si2 0.601573 0.694684 0.225350
Si Si3 0.250000 0.794264 0.404883
Si Si4 0.027543 0.206177 0.612036
Si Si5 0.995706 0.795967 0.093954
Si Si6 0.178027 0.715753 0.918978
Si Si7 0.132259 0.713842 0.097401
Si Si8 0.105918 0.215811 0.450257
O O1 0.250000 0.500000 0.214571
O O2 0.250000 0.219226 0.304775
O O3 0.310888 0.230701 0.157060
O O4 0.621784 0.500000 0.252881
O O5 0.564579 0.776834 0.301815
O O6 0.550784 0.687604 0.150807
O O7 0.657758 0.782312 0.172146
O O8 0.320715 0.723050 0.433814
O O9 0.250000 0.000000 0.430395
O O10 0.074768 0.272523 0.538903
O O11 0.953895 0.272468 0.609827
O O12 0.020866 0.000000 0.593795
O O13 0.065997 0.784116 0.130046
O O14 0.974942 0.000000 0.092438
O O15 0.000000 0.727772 0.000000
O O16 0.250000 0.762381 0.936144
O O17 0.173771 0.500000 0.915516
O O18 0.140752 0.773769 0.001516
O O19 0.131308 0.500000 0.096051
O O20 0.110306 0.000000 0.446847
#
# Coordination Sequence:
#
# PCOD9402269 Si02
#       8
#     4   8   4   8   8   8   8   8
#     4  10  22  36  54  83 112 142 183 230 277 317
#     4  11  22  35  56  84 110 142 187 230 273 328
#     4  10  20  36  58  85 112 144 189 226 271 339
#     4   9  18  37  60  81 108 143 182 226 279 331
#     4  11  23  36  52  77 111 147 186 232 278 317
#     4   9  17  33  55  75 102 145 188 225 267 321
#     4  10  19  35  56  76 105 147 190 225 268 324
#     4   8  17  36  61  81 105 145 183 221 275 339
#
# _framework density 21.858913999999999
#
# number of rings (size 3 to 8) (size 9 to 14) (size 15 to 20)
#    0.000    2.286    2.143    1.714    2.000    1.143 
#    1.286    2.143    0.000    3.000    0.000    0.000 
#    0.000    0.000    0.000    0.000    0.000    0.000 
#
# Total GULP energy -311998.035241 kJ/mol
# GULP energy per Si atom -5571.393486 kJ/mol
# Density = 2.180916 g / cm^3
# Si number density = 21.858914 Si / 1000 Ang^3
#
#
#
# Elastic Constant Matrix: (Units=GPa)
#
#
# Indices 1 2 3 4 5 6 
#
# 1 124.7960 0.4441 15.7285 0.0000 0.0000 0.0000
# 2 0.4441 48.8417 0.8300 0.0000 0.0000 0.0000
# 3 15.7285 0.8300 78.7760 0.0000 0.0000 0.0000
# 4 0.0000 0.0000 0.0000 10.9651 0.0000 0.0000
# 5 0.0000 0.0000 0.0000 0.0000 38.2254 0.0000
# 6 0.0000 0.0000 0.0000 0.0000 0.0000 13.7537
#
#
#
# Elastic Compliance Matrix: (Units=1/GPa)
#
#
# Indices 1 2 3 4 5 6 
#
# 1 0.008220 -0.000047 -0.001641 0.000000 0.000000 0.000000
# 2 -0.000047 0.020478 -0.000206 0.000000 0.000000 0.000000
# 3 -0.001641 -0.000206 0.013024 0.000000 0.000000 0.000000
# 4 0.000000 0.000000 0.000000 0.091198 0.000000 0.000000
# 5 0.000000 0.000000 0.000000 0.000000 0.026161 0.000000
# 6 0.000000 0.000000 0.000000 0.000000 0.000000 0.072707
#
#
# Mechanical properties :
#
#
# Convention : Reuss Voigt Hill
#
# Bulk Modulus (GPa) = 26.36139 31.82433 29.09286
# Shear Modulus (GPa) = 20.14332 28.28293 24.21312
#
# Velocity S-wave (km/s) = 3.03894 3.60096 3.33182
# Velocity P-wave (km/s) = 4.93959 5.64622 5.30468
#
# Compressibility (1/GPa) = 0.03793427
#
# Stress axis : x y z
#
# Youngs Moduli (GPa) = 121.65409 48.83227 76.78137
#
# Poissons Ratio (x) = 0.00229 0.12598
# Poissons Ratio (y) = 0.00570 0.01585
# Poissons Ratio (z) = 0.19960 0.01008
#
# Static dielectric constant tensor:
#      x y z
#    x 1.944870 0.000000 0.000000 
#    y 0.000000 1.864640 0.000000 
#    z 0.000000 0.000000 1.783810 
# 
# From -- ./inp_files/25831.got.cif
#   From: 2010.05.17/outbox.cif.g08.bks.cpg/sg51_13_cif.got.tgz:25831.got - 2010.06.03 11:52:47.
