data_PCOD9402747
_publ_section_title
;
Structure prediction by ZEFSAII (Michael W. Deem and Ramdas Pophale) SiO2 
 PCOD9402747
Probable space group: P M M A
;
_chemical_formula_sum "Si O2"
_cell_formula_units_Z 64
_cell_length_a 9.232352
_cell_length_b 14.878589
_cell_length_c 25.896512
_cell_angle_alpha 90.000000
_cell_angle_beta 90.000000
_cell_angle_gamma 90.000000
_cell_volume 3557.258080
_symmetry_space_group_name_H-M "P M M A"
_symmetry_group_IT_number 51
_symmetry_cell_setting 'orthorhombic'
loop_
_space_group_symop_operation_xyz
x,y,z
1/2-x,-y,z
1/2+x,-y,-z
-x,y,-z
-x,-y,-z
1/2+x,y,-z
1/2-x,y,z
x,-y,z
loop_
_atom_site_type_symbol
_atom_site_label
_atom_site_fract_x
_atom_site_fract_y
_atom_site_fract_z
Si Si1 0.080907 0.391625 0.842958
Si Si2 0.423406 0.395511 0.660233
Si Si3 0.593794 0.160022 0.546896
Si Si4 0.584356 0.626590 0.550723
Si Si5 0.075777 0.287509 0.247889
Si Si6 0.902902 0.896564 0.366520
Si Si7 0.417513 0.897306 0.757009
Si Si8 0.081993 0.390645 0.052037
O O1 0.250000 0.363941 0.839153
O O2 0.078044 0.500000 0.840417
O O3 0.985678 0.351627 0.796989
O O4 0.008775 0.364244 0.897382
O O5 0.250000 0.377947 0.658582
O O6 0.442589 0.500000 0.677918
O O7 0.494288 0.389130 0.603277
O O8 0.501138 0.325971 0.699503
O O9 0.500000 0.123392 0.500000
O O10 0.750000 0.118808 0.543054
O O11 0.598314 0.266912 0.541830
O O12 0.531665 0.146721 0.603494
O O13 0.500000 0.593178 0.500000
O O14 0.750000 0.594141 0.555505
O O15 0.250000 0.289839 0.252429
O O16 0.020186 0.187381 0.232192
O O17 0.750000 0.852548 0.381725
O O18 0.914026 0.897035 0.305379
O O19 0.900061 0.000000 0.383081
O O20 0.250000 0.882050 0.774096
O O21 0.459213 0.000000 0.772750
O O22 0.250000 0.361381 0.053869
O O23 0.083918 0.500000 0.051302
O O24 0.000000 0.361393 0.000000
#
# Coordination Sequence:
#
# PCOD9402747 Si02
#       8
#     8   8   8   8   8   8   8   8
#     4  10  20  34  52  75 107 149 194 235 273 316
#     4  11  24  40  57  77 102 135 174 214 258 312
#     4  10  20  32  47  67  89 115 146 181 226 281
#     4  10  21  37  56  76  96 121 157 202 252 305
#     4  12  24  36  54  80 110 142 175 217 269 322
#     4   9  18  32  49  68  89 114 145 183 231 288
#     4   9  19  37  59  79 100 130 167 207 254 310
#     4   9  16  27  45  71 105 146 191 235 276 317
#
# _framework density 17.991385999999999
#
# number of rings (size 3 to 8) (size 9 to 14) (size 15 to 20)
#    0.000    2.000    0.000    4.875    0.000    9.750 
#    0.000    1.250    0.000    0.000    0.000    0.000 
#    0.000    0.500    0.000    1.875    0.000    2.875 
#
# Total GULP energy -356863.554106 kJ/mol
# GULP energy per Si atom -5575.993033 kJ/mol
# Density = 1.795044 g / cm^3
# Si number density = 17.991386 Si / 1000 Ang^3
#
#
#
# Elastic Constant Matrix: (Units=GPa)
#
#
# Indices 1 2 3 4 5 6 
#
# 1 147.2214 34.3085 46.1524 0.0000 0.0000 0.0000
# 2 34.3085 55.5608 16.1188 0.0000 0.0000 0.0000
# 3 46.1524 16.1188 86.7666 0.0000 0.0000 0.0000
# 4 0.0000 0.0000 0.0000 0.7192 0.0000 0.0000
# 5 0.0000 0.0000 0.0000 0.0000 24.5241 0.0000
# 6 0.0000 0.0000 0.0000 0.0000 0.0000 4.6441
#
#
#
# Elastic Compliance Matrix: (Units=1/GPa)
#
#
# Indices 1 2 3 4 5 6 
#
# 1 0.009085 -0.004448 -0.004006 0.000000 0.000000 0.000000
# 2 -0.004448 0.021201 -0.001573 0.000000 0.000000 0.000000
# 3 -0.004006 -0.001573 0.013948 0.000000 0.000000 0.000000
# 4 0.000000 0.000000 0.000000 1.390405 0.000000 0.000000
# 5 0.000000 0.000000 0.000000 0.000000 0.040776 0.000000
# 6 0.000000 0.000000 0.000000 0.000000 0.000000 0.215328
#
#
# Mechanical properties :
#
#
# Convention : Reuss Voigt Hill
#
# Bulk Modulus (GPa) = 41.35473 53.63423 47.49448
# Shear Modulus (GPa) = 2.90891 18.84208 10.87550
#
# Velocity S-wave (km/s) = 1.27293 3.23969 2.46129
# Velocity P-wave (km/s) = 5.01958 6.62343 5.87648
#
# Compressibility (1/GPa) = 0.02418103
#
# Stress axis : x y z
#
# Youngs Moduli (GPa) = 110.07341 47.16765 71.69352
#
# Poissons Ratio (x) = 0.20978 0.28721
# Poissons Ratio (y) = 0.48957 0.11276
# Poissons Ratio (z) = 0.44097 0.07418
#
# Static dielectric constant tensor:
#      x y z
#    x 1.648960 0.000000 0.000000 
#    y 0.000000 1.664790 0.000000 
#    z 0.000000 0.000000 1.589070 
# 
# From -- ./inp_files/34984.got.cif
#   From: 2010.05.17/outbox.cif.g08.bks.cpg/sg51_18_cif.got.tgz:34984.got - 2010.06.03 11:52:47.
