data_PCOD9402905
_publ_section_title
;
Structure prediction by ZEFSAII (Michael W. Deem and Ramdas Pophale) SiO2 
 PCOD9402905
Probable space group: P M M A
;
_chemical_formula_sum "Si O2"
_cell_formula_units_Z 40
_cell_length_a 7.894072
_cell_length_b 9.107409
_cell_length_c 30.562588
_cell_angle_alpha 90.000000
_cell_angle_beta 90.000000
_cell_angle_gamma 90.000000
_cell_volume 2197.283278
_symmetry_space_group_name_H-M "P M M A"
_symmetry_group_IT_number 51
_symmetry_cell_setting 'orthorhombic'
loop_
_space_group_symop_operation_xyz
x,y,z
1/2-x,-y,z
1/2+x,-y,-z
-x,y,-z
-x,-y,-z
1/2+x,y,-z
1/2-x,y,z
x,-y,z
loop_
_atom_site_type_symbol
_atom_site_label
_atom_site_fract_x
_atom_site_fract_y
_atom_site_fract_z
Si Si1 0.750000 0.177776 0.706417
Si Si2 0.942554 0.678726 0.451337
Si Si3 0.046972 0.834734 0.866120
Si Si4 0.750000 0.321999 0.611615
Si Si5 0.451235 0.334311 0.046721
Si Si6 0.554448 0.179068 0.229770
O O1 0.750000 0.250648 0.659099
O O2 0.582087 0.220866 0.733846
O O3 0.750000 0.000000 0.702652
O O4 0.750000 0.727261 0.442314
O O5 0.941395 0.500000 0.451705
O O6 0.000000 0.724749 0.500000
O O7 0.083249 0.722397 0.416016
O O8 0.250000 0.843893 0.862914
O O9 0.995273 0.771736 0.818779
O O10 0.005738 0.746920 0.909565
O O11 0.977734 0.000000 0.870350
O O12 0.750000 0.500000 0.614932
O O13 0.250000 0.342661 0.047431
O O14 0.523825 0.500000 0.047139
O O15 0.500000 0.264769 0.000000
O O16 0.750000 0.225276 0.238005
O O17 0.556518 0.000000 0.227753
#
# Coordination Sequence:
#
# PCOD9402905 Si02
#       6
#     4   8   8   4   8   8
#     4  10  20  34  54  74 100 140 176 204 251 310
#     4   9  15  26  47  74 101 131 169 210 252 298
#     4   9  18  33  54  78  99 121 160 213 258 294
#     4  10  20  32  48  76 108 132 164 216 259 290
#     4  10  21  35  50  70  99 135 168 197 240 304
#     4   8  16  32  53  76  99 127 169 214 250 297
#
# _framework density 18.204298000000001
#
# number of rings (size 3 to 8) (size 9 to 14) (size 15 to 20)
#    0.000    2.800    1.000    1.800    1.400    2.800 
#    0.000    1.000    0.000    1.800    0.000    0.000 
#    0.000    0.000    0.000    0.000    0.000    0.000 
#
# Total GULP energy -222854.597785 kJ/mol
# GULP energy per Si atom -5571.364945 kJ/mol
# Density = 1.816286 g / cm^3
# Si number density = 18.204298 Si / 1000 Ang^3
#
#
#
# Elastic Constant Matrix: (Units=GPa)
#
#
# Indices 1 2 3 4 5 6 
#
# 1 119.8313 18.4305 92.5800 0.0000 0.0000 0.0000
# 2 18.4305 13.2681 38.7472 0.0000 0.0000 0.0000
# 3 92.5800 38.7472 211.2291 0.0000 0.0000 0.0000
# 4 0.0000 0.0000 0.0000 31.5723 0.0000 0.0000
# 5 0.0000 0.0000 0.0000 0.0000 37.0190 0.0000
# 6 0.0000 0.0000 0.0000 0.0000 0.0000 2.6638
#
#
#
# Elastic Compliance Matrix: (Units=1/GPa)
#
#
# Indices 1 2 3 4 5 6 
#
# 1 0.012672 -0.002978 -0.005008 0.000000 0.000000 0.000000
# 2 -0.002978 0.163026 -0.028600 0.000000 0.000000 0.000000
# 3 -0.005008 -0.028600 0.012175 0.000000 0.000000 0.000000
# 4 0.000000 0.000000 0.000000 0.031673 0.000000 0.000000
# 5 0.000000 0.000000 0.000000 0.000000 0.027013 0.000000
# 6 0.000000 0.000000 0.000000 0.000000 0.000000 0.375409
#
#
# Mechanical properties :
#
#
# Convention : Reuss Voigt Hill
#
# Bulk Modulus (GPa) = 8.71826 71.53824 40.12825
# Shear Modulus (GPa) = 6.81780 27.22240 17.02010
#
# Velocity S-wave (km/s) = 1.93734 3.87121 3.06101
# Velocity P-wave (km/s) = 3.13112 7.70484 5.88083
#
# Compressibility (1/GPa) = 0.11470177
#
# Stress axis : x y z
#
# Youngs Moduli (GPa) = 78.91395 6.13400 82.13375
#
# Poissons Ratio (x) = 0.01827 0.41130
# Poissons Ratio (y) = 0.23503 2.34899
# Poissons Ratio (z) = 0.39518 0.17543
#
# Static dielectric constant tensor:
#      x y z
#    x 1.630950 0.000000 0.000000 
#    y 0.000000 1.637240 0.000000 
#    z 0.000000 0.000000 1.627980 
# 
# From -- ./inp_files/36068.got.cif
#   From: 2010.05.17/outbox.cif.g08.bks.cpg/sg51_19_cif.got.tgz:36068.got - 2010.06.03 11:52:47.
