data_PCOD9402471
_publ_section_title
;
Structure prediction by ZEFSAII (Michael W. Deem and Ramdas Pophale) SiO2 
 PCOD9402471
Probable space group: P M M A
;
_chemical_formula_sum "Si O2"
_cell_formula_units_Z 48
_cell_length_a 15.789087
_cell_length_b 14.580044
_cell_length_c 10.289161
_cell_angle_alpha 90.000000
_cell_angle_beta 90.000000
_cell_angle_gamma 90.000000
_cell_volume 2368.622308
_symmetry_space_group_name_H-M "P M M A"
_symmetry_group_IT_number 51
_symmetry_cell_setting 'orthorhombic'
loop_
_space_group_symop_operation_xyz
x,y,z
1/2-x,-y,z
1/2+x,-y,-z
-x,y,-z
-x,-y,-z
1/2+x,y,-z
1/2-x,y,z
x,-y,z
loop_
_atom_site_type_symbol
_atom_site_label
_atom_site_fract_x
_atom_site_fract_y
_atom_site_fract_z
Si Si1 0.153890 0.805304 0.510750
Si Si2 0.613379 0.500000 0.132609
Si Si3 0.399397 0.804351 0.016591
Si Si4 0.620539 0.304634 0.232991
Si Si5 0.648983 0.000000 0.075187
Si Si6 0.853651 0.000000 0.377255
Si Si7 0.416896 0.698158 0.269049
Si Si8 0.408089 0.500000 0.169820
O O1 0.250000 0.818371 0.462916
O O2 0.156043 0.744877 0.641259
O O3 0.103988 0.747881 0.403282
O O4 0.119666 0.906039 0.551183
O O5 0.645209 0.408678 0.202625
O O6 0.510413 0.500000 0.147904
O O7 0.629312 0.500000 0.977002
O O8 0.377387 0.758406 0.152720
O O9 0.500000 0.790811 0.000000
O O10 0.357695 0.753035 0.895217
O O11 0.380322 0.910479 0.000812
O O12 0.518515 0.303251 0.251898
O O13 0.750000 0.000000 0.081836
O O14 0.617827 0.000000 0.225881
O O15 0.750000 0.000000 0.375123
O O16 0.387150 0.593193 0.247222
#
# Coordination Sequence:
#
# PCOD9402471 Si02
#       8
#     8   4   8   8   4   4   8   4
#     4  11  23  40  58  79 115 155 194 234 281 341
#     4   9  16  31  61  90 112 146 189 232 273 340
#     4  10  20  35  59  88 117 142 183 243 290 328
#     4  10  19  36  61  87 113 147 192 233 277 337
#     4  11  21  36  59  83 112 153 197 231 276 343
#     4   9  20  38  58  76 101 150 199 233 270 327
#     4  10  21  36  59  89 117 146 182 236 293 336
#     4   9  16  33  59  88 116 146 183 228 291 338
#
# _framework density 20.264945000000001
#
# number of rings (size 3 to 8) (size 9 to 14) (size 15 to 20)
#    0.000    2.000    3.333    0.750    0.000    2.000 
#    0.000    7.500    0.000    1.000    0.000    0.000 
#    0.000    0.000    0.000    0.000    0.000    0.000 
#
# Total GULP energy -268010.556970 kJ/mol
# GULP energy per Si atom -5583.553270 kJ/mol
# Density = 2.021882 g / cm^3
# Si number density = 20.264945 Si / 1000 Ang^3
#
#
#
# Elastic Constant Matrix: (Units=GPa)
#
#
# Indices 1 2 3 4 5 6 
#
# 1 28.0440 11.7007 18.1776 0.0000 0.0000 0.0000
# 2 11.7007 205.5196 83.5025 0.0000 0.0000 0.0000
# 3 18.1776 83.5025 125.8047 0.0000 0.0000 0.0000
# 4 0.0000 0.0000 0.0000 34.1214 0.0000 0.0000
# 5 0.0000 0.0000 0.0000 0.0000 -10.0996 0.0000
# 6 0.0000 0.0000 0.0000 0.0000 0.0000 -8.3519
#
#
#
# Elastic Compliance Matrix: (Units=1/GPa)
#
#
# Indices 1 2 3 4 5 6 
#
# 1 0.039344 0.000096 -0.005748 0.000000 0.000000 0.000000
# 2 0.000096 0.006663 -0.004436 0.000000 0.000000 0.000000
# 3 -0.005748 -0.004436 0.011724 0.000000 0.000000 0.000000
# 4 0.000000 0.000000 0.000000 0.029307 0.000000 0.000000
# 5 0.000000 0.000000 0.000000 0.000000 -0.099014 0.000000
# 6 0.000000 0.000000 0.000000 0.000000 0.000000 -0.119734
#
#
# Mechanical properties :
#
#
# Convention : Reuss Voigt Hill
#
# Bulk Modulus (GPa) = 26.62897 65.12554 45.87725
# Shear Modulus (GPa) = -50.49781 19.53316 -15.48232
#
# Velocity S-wave (km/s) = -4.99729 3.10802 -2.76705
# Velocity P-wave (km/s) = 4.48645 6.71465 3.53258
#
# Compressibility (1/GPa) = 0.03755309
#
# Stress axis : x y z
#
# Youngs Moduli (GPa) = 25.41664 150.08980 85.29589
#
# Poissons Ratio (x) = -0.01435 0.49031
# Poissons Ratio (y) = -0.00243 0.37839
# Poissons Ratio (z) = 0.14610 0.66582
#
# Static dielectric constant tensor:
#      x y z
#    x 1.732140 0.000000 0.000000 
#    y 0.000000 1.708220 0.000000 
#    z 0.000000 0.000000 1.682800 
# 
# From -- ./inp_files/9733.got.cif
#   From: 2010.05.17/outbox.cif.g08.bks.cpg/sg51_5_cif.got.tgz:9733.got - 2010.06.03 11:52:47.
