data_PCOD9402479
_publ_section_title
;
Structure prediction by ZEFSAII (Michael W. Deem and Ramdas Pophale) SiO2 
 PCOD9402479
Probable space group: P M M A
;
_chemical_formula_sum "Si O2"
_cell_formula_units_Z 48
_cell_length_a 17.100356
_cell_length_b 14.229191
_cell_length_c 10.089105
_cell_angle_alpha 90.000000
_cell_angle_beta 90.000000
_cell_angle_gamma 90.000000
_cell_volume 2454.923723
_symmetry_space_group_name_H-M "P M M A"
_symmetry_group_IT_number 51
_symmetry_cell_setting 'orthorhombic'
loop_
_space_group_symop_operation_xyz
x,y,z
1/2-x,-y,z
1/2+x,-y,-z
-x,y,-z
-x,-y,-z
1/2+x,y,-z
1/2-x,y,z
x,-y,z
loop_
_atom_site_type_symbol
_atom_site_label
_atom_site_fract_x
_atom_site_fract_y
_atom_site_fract_z
Si Si1 0.841678 0.608103 0.739192
Si Si2 0.080797 0.793883 0.196060
Si Si3 0.841562 0.111682 0.550475
Si Si4 0.339169 0.110220 0.954449
Si Si5 0.096446 0.790434 0.706285
Si Si6 0.589146 0.608506 0.450816
O O1 0.750000 0.621934 0.765477
O O2 0.862765 0.500000 0.770400
O O3 0.892449 0.685568 0.813991
O O4 0.858187 0.620463 0.581912
O O5 0.130634 0.838718 0.315723
O O6 0.990975 0.799603 0.237736
O O7 0.102236 0.849184 0.063530
O O8 0.750000 0.132140 0.526263
O O9 0.891138 0.150182 0.427480
O O10 0.850928 0.000000 0.563346
O O11 0.250000 0.118951 0.004868
O O12 0.348311 0.168312 0.819526
O O13 0.354284 0.000000 0.928894
O O14 0.110163 0.683186 0.661180
O O15 0.500000 0.627120 0.500000
O O16 0.593420 0.500000 0.407770
#
# Coordination Sequence:
#
# PCOD9402479 Si02
#       6
#     8   8   8   8   8   8
#     4  10  20  35  60  92 123 158 200 247 299 356
#     4  12  23  39  62  91 121 159 207 254 308 371
#     4  11  23  38  59  87 120 157 202 256 310 368
#     4  11  26  46  64  83 118 168 212 257 317 377
#     4  12  23  38  61  93 122 158 201 256 314 364
#     4  10  19  36  61  92 129 162 196 242 302 367
#
# _framework density 19.552543
#
# number of rings (size 3 to 8) (size 9 to 14) (size 15 to 20)
#    0.000    1.000    3.333    4.000    0.000    7.333 
#    0.000    0.833    0.000    3.000    0.000    0.000 
#    0.000    0.000    0.000    0.000    0.000    0.000 
#
# Total GULP energy -268430.666781 kJ/mol
# GULP energy per Si atom -5592.305558 kJ/mol
# Density = 1.950804 g / cm^3
# Si number density = 19.552543 Si / 1000 Ang^3
#
#
#
# Elastic Constant Matrix: (Units=GPa)
#
#
# Indices 1 2 3 4 5 6 
#
# 1 51.1822 33.1615 -9.8251 0.0000 0.0000 0.0000
# 2 33.1615 99.9180 23.5262 0.0000 0.0000 0.0000
# 3 -9.8251 23.5262 55.9268 0.0000 0.0000 0.0000
# 4 0.0000 0.0000 0.0000 25.6889 0.0000 0.0000
# 5 0.0000 0.0000 0.0000 0.0000 58.3573 0.0000
# 6 0.0000 0.0000 0.0000 0.0000 0.0000 20.7400
#
#
#
# Elastic Compliance Matrix: (Units=1/GPa)
#
#
# Indices 1 2 3 4 5 6 
#
# 1 0.029407 -0.012183 0.010291 0.000000 0.000000 0.000000
# 2 -0.012183 0.016156 -0.008936 0.000000 0.000000 0.000000
# 3 0.010291 -0.008936 0.023448 0.000000 0.000000 0.000000
# 4 0.000000 0.000000 0.000000 0.038927 0.000000 0.000000
# 5 0.000000 0.000000 0.000000 0.000000 0.017136 0.000000
# 6 0.000000 0.000000 0.000000 0.000000 0.000000 0.048216
#
#
# Mechanical properties :
#
#
# Convention : Reuss Voigt Hill
#
# Bulk Modulus (GPa) = 21.11763 33.41692 27.26727
# Shear Modulus (GPa) = 23.72701 31.63484 27.68093
#
# Velocity S-wave (km/s) = 3.48731 4.02673 3.76669
# Velocity P-wave (km/s) = 5.19991 6.22473 5.73526
#
# Compressibility (1/GPa) = 0.04735380
#
# Stress axis : x y z
#
# Youngs Moduli (GPa) = 34.00560 61.89791 42.64835
#
# Poissons Ratio (x) = 0.75409 -0.43889
# Poissons Ratio (y) = 0.41428 0.38112
# Poissons Ratio (z) = -0.34995 0.55314
#
# Static dielectric constant tensor:
#      x y z
#    x 1.690550 0.000000 0.000000 
#    y 0.000000 1.692730 0.000000 
#    z 0.000000 0.000000 1.650850 
# 
# From -- ./inp_files/9575.got.cif
#   From: 2010.05.17/outbox.cif.g08.bks.cpg/sg51_5_cif.got.tgz:9575.got - 2010.06.03 11:52:47.
