data_PCOD9402389
_publ_section_title
;
Structure prediction by ZEFSAII (Michael W. Deem and Ramdas Pophale) SiO2 
 PCOD9402389
Probable space group: P M M A
;
_chemical_formula_sum "Si O2"
_cell_formula_units_Z 52
_cell_length_a 7.875426
_cell_length_b 15.587771
_cell_length_c 20.906889
_cell_angle_alpha 90.000000
_cell_angle_beta 90.000000
_cell_angle_gamma 90.000000
_cell_volume 2566.536740
_symmetry_space_group_name_H-M "P M M A"
_symmetry_group_IT_number 51
_symmetry_cell_setting 'orthorhombic'
loop_
_space_group_symop_operation_xyz
x,y,z
1/2-x,-y,z
1/2+x,-y,-z
-x,y,-z
-x,-y,-z
1/2+x,y,-z
1/2-x,y,z
x,-y,z
loop_
_atom_site_type_symbol
_atom_site_label
_atom_site_fract_x
_atom_site_fract_y
_atom_site_fract_z
Si Si1 0.952623 0.724308 0.315310
Si Si2 0.547329 0.403387 0.573193
Si Si3 0.554771 0.660852 0.073997
Si Si4 0.958257 0.594593 0.206204
Si Si5 0.946530 0.831750 0.856346
Si Si6 0.046644 0.000000 0.927041
Si Si7 0.449750 0.097848 0.719490
O O1 0.750000 0.732156 0.306091
O O2 0.017539 0.670160 0.253605
O O3 0.021057 0.821811 0.321399
O O4 0.982152 0.666103 0.376968
O O5 0.500000 0.383720 0.500000
O O6 0.750000 0.405210 0.578109
O O7 0.481768 0.500000 0.587467
O O8 0.750000 0.636001 0.071657
O O9 0.478778 0.606173 0.133112
O O10 0.533549 0.756137 0.103418
O O11 0.500000 0.656105 0.000000
O O12 0.750000 0.598628 0.205466
O O13 0.005585 0.500000 0.230270
O O14 0.750000 0.809043 0.845523
O O15 0.962948 0.916546 0.897698
O O16 0.031252 0.861177 0.790128
O O17 0.250000 0.000000 0.915567
O O18 0.000000 0.000000 0.000000
O O19 0.250000 0.088998 0.705216
O O20 0.521265 0.000000 0.716783
#
# Coordination Sequence:
#
# PCOD9402389 Si02
#       7
#     8   8   8   8   8   4   8
#     4  10  19  35  60  88 118 155 194 234 284 338
#     4  10  21  37  59  91 128 163 196 234 281 335
#     4  11  22  38  55  74 103 142 187 236 293 350
#     4   9  18  33  55  81 108 143 190 236 284 346
#     4  12  23  36  54  78 105 137 180 232 291 348
#     4  12  24  38  54  74 102 134 175 228 291 358
#     4  10  20  36  59  85 114 151 191 233 281 339
#
# _framework density 20.260764999999999
#
# number of rings (size 3 to 8) (size 9 to 14) (size 15 to 20)
#    0.000    1.538    2.308    3.923    0.000    2.462 
#    0.000    0.000    0.000    2.769    0.000    0.000 
#    0.000    0.000    0.000    0.000    0.000    0.000 
#
# Total GULP energy -290014.554412 kJ/mol
# GULP energy per Si atom -5577.202969 kJ/mol
# Density = 2.021465 g / cm^3
# Si number density = 20.260765 Si / 1000 Ang^3
#
#
#
# Elastic Constant Matrix: (Units=GPa)
#
#
# Indices 1 2 3 4 5 6 
#
# 1 32.6809 1.1492 0.6491 0.0000 0.0000 0.0000
# 2 1.1492 149.7537 72.4092 0.0000 0.0000 0.0000
# 3 0.6491 72.4092 100.2804 0.0000 0.0000 0.0000
# 4 0.0000 0.0000 0.0000 32.4887 0.0000 0.0000
# 5 0.0000 0.0000 0.0000 0.0000 24.8553 0.0000
# 6 0.0000 0.0000 0.0000 0.0000 0.0000 9.5184
#
#
#
# Elastic Compliance Matrix: (Units=1/GPa)
#
#
# Indices 1 2 3 4 5 6 
#
# 1 0.030607 -0.000214 -0.000044 0.000000 0.000000 0.000000
# 2 -0.000214 0.010261 -0.007408 0.000000 0.000000 0.000000
# 3 -0.000044 -0.007408 0.015321 0.000000 0.000000 0.000000
# 4 0.000000 0.000000 0.000000 0.030780 0.000000 0.000000
# 5 0.000000 0.000000 0.000000 0.000000 0.040233 0.000000
# 6 0.000000 0.000000 0.000000 0.000000 0.000000 0.105060
#
#
# Mechanical properties :
#
#
# Convention : Reuss Voigt Hill
#
# Bulk Modulus (GPa) = 24.47441 47.90333 36.18887
# Shear Modulus (GPa) = 19.14150 27.27297 23.20724
#
# Velocity S-wave (km/s) = 3.07702 3.67290 3.38809
# Velocity P-wave (km/s) = 4.97293 6.45613 5.76245
#
# Compressibility (1/GPa) = 0.04085900
#
# Stress axis : x y z
#
# Youngs Moduli (GPa) = 32.67196 97.45517 65.26866
#
# Poissons Ratio (x) = 0.02083 0.00286
# Poissons Ratio (y) = 0.00698 0.48350
# Poissons Ratio (z) = 0.00143 0.72193
#
# Static dielectric constant tensor:
#      x y z
#    x 1.746670 0.000000 0.000000 
#    y 0.000000 1.773430 0.000000 
#    z 0.000000 0.000000 1.709390 
# 
# From -- ./inp_files/31781.got.cif
#   From: 2010.05.17/outbox.cif.g08.bks.cpg/sg51_16_cif.got.tgz:31781.got - 2010.06.03 11:52:47.
