data_PCOD9402462
_publ_section_title
;
Structure prediction by ZEFSAII (Michael W. Deem and Ramdas Pophale) SiO2 
 PCOD9402462
Probable space group: P M M A
;
_chemical_formula_sum "Si O2"
_cell_formula_units_Z 58
_cell_length_a 17.169358
_cell_length_b 8.874844
_cell_length_c 18.505859
_cell_angle_alpha 90.000000
_cell_angle_beta 90.000000
_cell_angle_gamma 90.000000
_cell_volume 2819.837183
_symmetry_space_group_name_H-M "P M M A"
_symmetry_group_IT_number 51
_symmetry_cell_setting 'orthorhombic'
loop_
_space_group_symop_operation_xyz
x,y,z
1/2-x,-y,z
1/2+x,-y,-z
-x,y,-z
-x,-y,-z
1/2+x,y,-z
1/2-x,y,z
x,-y,z
loop_
_atom_site_type_symbol
_atom_site_label
_atom_site_fract_x
_atom_site_fract_y
_atom_site_fract_z
Si Si1 0.657281 0.335561 0.552381
Si Si2 0.656315 0.173658 0.412008
Si Si3 0.106681 0.241153 0.295289
Si Si4 0.164253 0.677805 0.140755
Si Si5 0.937351 0.320585 0.286624
Si Si6 0.092375 0.679677 0.991648
Si Si7 0.342754 0.820460 0.845236
Si Si8 0.750000 0.000000 0.699869
O O1 0.750000 0.317785 0.563898
O O2 0.644381 0.500000 0.518912
O O3 0.632181 0.211783 0.494321
O O4 0.617648 0.330806 0.630061
O O5 0.750000 0.193100 0.408469
O O6 0.615371 0.283648 0.355923
O O7 0.638984 0.000000 0.394374
O O8 0.119248 0.308031 0.215448
O O9 0.014034 0.214971 0.293656
O O10 0.179120 0.126593 0.300942
O O11 0.250000 0.745636 0.150323
O O12 0.170990 0.500000 0.128270
O O13 0.126985 0.738128 0.067526
O O14 0.957082 0.500000 0.283237
O O15 0.889601 0.270769 0.215744
O O16 0.108953 0.500000 0.982367
O O17 0.126951 0.766584 0.923407
O O18 0.000000 0.695291 0.000000
O O19 0.250000 0.792309 0.839246
O O20 0.355296 0.000000 0.836275
#
# Coordination Sequence:
#
# PCOD9402462 Si02
#       8
#     8   8   8   8   8   8   8   2
#     4  10  20  38  66  94 130 176 223 273 327 394
#     4  10  23  42  66  97 138 180 219 271 336 403
#     4  12  25  43  65  96 131 171 222 272 333 401
#     4  10  19  36  60  87 121 163 212 263 316 377
#     4  12  26  44  70 100 131 172 228 287 335 393
#     4  10  21  39  64  96 131 170 220 275 329 389
#     4  11  25  45  67  98 139 183 227 278 346 414
#     4  12  28  44  66  98 136 184 216 268 338 426
#
# _framework density 20.568563000000001
#
# number of rings (size 3 to 8) (size 9 to 14) (size 15 to 20)
#    0.000    1.241    1.379    4.138    2.897    7.172 
#    1.241    2.069    0.000    0.000    0.000    0.000 
#    0.000    0.000    0.000    0.000    0.000    0.000 
#
# Total GULP energy -322934.424418 kJ/mol
# GULP energy per Si atom -5567.834904 kJ/mol
# Density = 2.052175 g / cm^3
# Si number density = 20.568563 Si / 1000 Ang^3
#
#
#
# Elastic Constant Matrix: (Units=GPa)
#
#
# Indices 1 2 3 4 5 6 
#
# 1 84.4648 40.0977 41.0712 0.0000 0.0000 0.0000
# 2 40.0977 63.5320 23.2774 0.0000 0.0000 0.0000
# 3 41.0712 23.2774 136.1730 0.0000 0.0000 0.0000
# 4 0.0000 0.0000 0.0000 74.4006 0.0000 0.0000
# 5 0.0000 0.0000 0.0000 0.0000 -13.4503 0.0000
# 6 0.0000 0.0000 0.0000 0.0000 0.0000 135.2798
#
#
#
# Elastic Compliance Matrix: (Units=1/GPa)
#
#
# Indices 1 2 3 4 5 6 
#
# 1 0.018620 -0.010342 -0.003848 0.000000 0.000000 0.000000
# 2 -0.010342 0.022536 -0.000733 0.000000 0.000000 0.000000
# 3 -0.003848 -0.000733 0.008630 0.000000 0.000000 0.000000
# 4 0.000000 0.000000 0.000000 0.013441 0.000000 0.000000
# 5 0.000000 0.000000 0.000000 0.000000 -0.074348 0.000000
# 6 0.000000 0.000000 0.000000 0.000000 0.000000 0.007392
#
#
# Mechanical properties :
#
#
# Convention : Reuss Voigt Hill
#
# Bulk Modulus (GPa) = 50.15245 54.78469 52.46857
# Shear Modulus (GPa) = 152.60934 51.22758 101.91846
#
# Velocity S-wave (km/s) = 8.62302 4.99598 7.04686
# Velocity P-wave (km/s) = 11.11656 7.74421 9.57995
#
# Compressibility (1/GPa) = 0.01993921
#
# Stress axis : x y z
#
# Youngs Moduli (GPa) = 53.70558 44.37360 115.88098
#
# Poissons Ratio (x) = 0.45891 0.44593
# Poissons Ratio (y) = 0.55542 0.08494
# Poissons Ratio (z) = 0.20667 0.03253
#
# Static dielectric constant tensor:
#      x y z
#    x 1.206690 0.000000 0.000000 
#    y 0.000000 1.726930 0.000000 
#    z 0.000000 0.000000 1.745230 
# 
# From -- ./inp_files/30190.got.cif
#   From: 2010.05.17/outbox.cif.g08.bks.cpg/sg51_16_cif.got.tgz:30190.got - 2010.06.03 11:52:47.
