data_PCOD9402331
_publ_section_title
;
Structure prediction by ZEFSAII (Michael W. Deem and Ramdas Pophale) SiO2 
 PCOD9402331
Probable space group: P M M A
;
_chemical_formula_sum "Si O2"
_cell_formula_units_Z 64
_cell_length_a 29.064075
_cell_length_b 8.882447
_cell_length_c 13.018204
_cell_angle_alpha 90.000000
_cell_angle_beta 90.000000
_cell_angle_gamma 90.000000
_cell_volume 3360.780922
_symmetry_space_group_name_H-M "P M M A"
_symmetry_group_IT_number 51
_symmetry_cell_setting 'orthorhombic'
loop_
_space_group_symop_operation_xyz
x,y,z
1/2-x,-y,z
1/2+x,-y,-z
-x,y,-z
-x,-y,-z
1/2+x,y,-z
1/2-x,y,z
x,-y,z
loop_
_atom_site_type_symbol
_atom_site_label
_atom_site_fract_x
_atom_site_fract_y
_atom_site_fract_z
Si Si1 0.805582 0.669040 0.814134
Si Si2 0.389028 0.178543 0.852794
Si Si3 0.393562 0.681654 0.462763
Si Si4 0.053462 0.676901 0.033641
Si Si5 0.547137 0.316718 0.731612
Si Si6 0.696756 0.819630 0.025636
Si Si7 0.555341 0.318572 0.331135
Si Si8 0.697160 0.179463 0.597640
O O1 0.750000 0.660368 0.821125
O O2 0.824200 0.500000 0.800305
O O3 0.814165 0.767653 0.713812
O O4 0.820561 0.740417 0.921444
O O5 0.336501 0.218436 0.880534
O O6 0.409971 0.261811 0.755502
O O7 0.392394 0.000000 0.837536
O O8 0.417825 0.227412 0.952914
O O9 0.390668 0.500000 0.462248
O O10 0.416855 0.730009 0.355421
O O11 0.426332 0.727312 0.557045
O O12 0.342524 0.748237 0.471248
O O13 0.066993 0.500000 0.026876
O O14 0.057955 0.728891 0.151710
O O15 0.000000 0.684671 0.000000
O O16 0.546456 0.500000 0.732897
O O17 0.496080 0.266600 0.697565
O O18 0.750000 0.778552 0.043036
O O19 0.694789 0.000000 0.009585
O O20 0.554228 0.500000 0.329650
O O21 0.750000 0.228179 0.575666
O O22 0.695607 0.000000 0.591244
#
# Coordination Sequence:
#
# PCOD9402331 Si02
#       8
#     8   8   8   8   8   8   8   8
#     4   9  17  30  51  78 106 137 177 227 276 322
#     4  11  23  36  55  83 115 149 190 236 280 331
#     4  10  21  36  60  89 111 141 190 243 282 324
#     4  10  19  35  58  83 113 149 184 220 274 344
#     4   9  18  35  59  86 114 145 183 227 281 342
#     4   9  19  36  54  75 108 149 188 226 276 336
#     4  10  20  39  61  81 110 148 189 232 283 340
#     4  10  21  37  55  77 112 154 188 223 275 338
#
# _framework density 19.043192000000001
#
# number of rings (size 3 to 8) (size 9 to 14) (size 15 to 20)
#    0.000    2.250    1.250    1.500    1.750    5.500 
#    0.000    1.250    0.000    3.750    0.000    0.000 
#    0.000    0.000    0.000    0.000    0.000    0.000 
#
# Total GULP energy -357235.921685 kJ/mol
# GULP energy per Si atom -5581.811276 kJ/mol
# Density = 1.899985 g / cm^3
# Si number density = 19.043192 Si / 1000 Ang^3
#
#
#
# Elastic Constant Matrix: (Units=GPa)
#
#
# Indices 1 2 3 4 5 6 
#
# 1 57.7380 8.8505 20.5577 0.0000 0.0000 0.0000
# 2 8.8505 6.3609 5.4396 0.0000 0.0000 0.0000
# 3 20.5577 5.4396 88.9050 0.0000 0.0000 0.0000
# 4 0.0000 0.0000 0.0000 15.9658 0.0000 0.0000
# 5 0.0000 0.0000 0.0000 0.0000 19.0645 0.0000
# 6 0.0000 0.0000 0.0000 0.0000 0.0000 21.6591
#
#
#
# Elastic Compliance Matrix: (Units=1/GPa)
#
#
# Indices 1 2 3 4 5 6 
#
# 1 0.023030 -0.029008 -0.003551 0.000000 0.000000 0.000000
# 2 -0.029008 0.202426 -0.005678 0.000000 0.000000 0.000000
# 3 -0.003551 -0.005678 0.012416 0.000000 0.000000 0.000000
# 4 0.000000 0.000000 0.000000 0.062634 0.000000 0.000000
# 5 0.000000 0.000000 0.000000 0.000000 0.052454 0.000000
# 6 0.000000 0.000000 0.000000 0.000000 0.000000 0.046170
#
#
# Mechanical properties :
#
#
# Convention : Reuss Voigt Hill
#
# Bulk Modulus (GPa) = 6.19578 24.74440 15.47009
# Shear Modulus (GPa) = 9.44462 19.21495 14.32978
#
# Velocity S-wave (km/s) = 2.22943 3.17995 2.74613
# Velocity P-wave (km/s) = 3.14448 5.14828 4.26571
#
# Compressibility (1/GPa) = 0.16140029
#
# Stress axis : x y z
#
# Youngs Moduli (GPa) = 43.42108 4.94008 80.53894
#
# Poissons Ratio (x) = 0.14330 0.28595
# Poissons Ratio (y) = 1.25955 0.45729
# Poissons Ratio (z) = 0.15417 0.02805
#
# Static dielectric constant tensor:
#      x y z
#    x 1.690380 0.000000 0.000000 
#    y 0.000000 1.645290 0.000000 
#    z 0.000000 0.000000 1.639390 
# 
# From -- ./inp_files/19453.got.cif
#   From: 2010.05.17/outbox.cif.g08.bks.cpg/sg51_10_cif.got.tgz:19453.got - 2010.06.03 11:52:47.
