data_PCOD9402510
_publ_section_title
;
Structure prediction by ZEFSAII (Michael W. Deem and Ramdas Pophale) SiO2 
 PCOD9402510
Probable space group: P M M A
;
_chemical_formula_sum "Si O2"
_cell_formula_units_Z 38
_cell_length_a 16.993818
_cell_length_b 12.013590
_cell_length_c 9.166245
_cell_angle_alpha 90.000000
_cell_angle_beta 90.000000
_cell_angle_gamma 90.000000
_cell_volume 1871.350899
_symmetry_space_group_name_H-M "P M M A"
_symmetry_group_IT_number 51
_symmetry_cell_setting 'orthorhombic'
loop_
_space_group_symop_operation_xyz
x,y,z
1/2-x,-y,z
1/2+x,-y,-z
-x,y,-z
-x,-y,-z
1/2+x,y,-z
1/2-x,y,z
x,-y,z
loop_
_atom_site_type_symbol
_atom_site_label
_atom_site_fract_x
_atom_site_fract_y
_atom_site_fract_z
Si Si1 0.000000 0.801847 0.500000
Si Si2 0.750000 0.375652 0.472938
Si Si3 0.250000 0.758205 0.823103
Si Si4 0.750000 0.000000 0.305319
Si Si5 0.400994 0.372013 0.320247
Si Si6 0.906921 0.000000 0.003623
Si Si7 0.597585 0.248247 0.974534
Si Si8 0.909754 0.000000 0.350109
O O1 0.041505 0.719079 0.388216
O O2 0.049163 0.887979 0.598452
O O3 0.750000 0.500000 0.409332
O O4 0.750000 0.293662 0.337750
O O5 0.675209 0.365309 0.577549
O O6 0.250000 0.890249 0.794322
O O7 0.166098 0.728631 0.902911
O O8 0.676613 0.000000 0.413188
O O9 0.430083 0.500000 0.323168
O O10 0.385392 0.332613 0.156214
O O11 0.894501 0.000000 0.177653
O O12 0.883571 0.118360 0.935575
O O13 0.000000 0.000000 0.000000
O O14 0.500000 0.254628 0.000000
#
# Coordination Sequence:
#
# PCOD9402510 Si02
#       8
#     4   4   4   2   8   4   8   4
#     4  11  23  40  66  98 133 181 216 276 346 415
#     4  10  25  46  69  93 131 186 234 287 344 400
#     4  12  23  43  70 100 138 179 231 285 352 424
#     4  12  22  38  64 100 132 170 210 278 340 408
#     4  11  25  44  65  95 138 181 232 284 338 403
#     4  10  19  37  61  93 133 168 214 271 336 412
#     4  11  24  41  68 100 138 180 226 285 351 410
#     4  11  22  39  64 100 134 167 221 273 338 412
#
# _framework density 20.306186
#
# number of rings (size 3 to 8) (size 9 to 14) (size 15 to 20)
#    0.000    1.053    2.105    4.737    2.947    2.105 
#    0.000    1.053    0.000    0.000    0.000    0.000 
#    0.000    0.000    0.000    0.000    0.000    0.000 
#
# Total GULP energy -211669.071481 kJ/mol
# GULP energy per Si atom -5570.238723 kJ/mol
# Density = 2.025997 g / cm^3
# Si number density = 20.306186 Si / 1000 Ang^3
#
#
#
# Elastic Constant Matrix: (Units=GPa)
#
#
# Indices 1 2 3 4 5 6 
#
# 1 107.5375 63.9668 38.8391 0.0000 0.0000 0.0000
# 2 63.9668 161.1858 72.0084 0.0000 0.0000 0.0000
# 3 38.8391 72.0084 81.4185 0.0000 0.0000 0.0000
# 4 0.0000 0.0000 0.0000 25.8327 0.0000 0.0000
# 5 0.0000 0.0000 0.0000 0.0000 26.7153 0.0000
# 6 0.0000 0.0000 0.0000 0.0000 0.0000 32.0586
#
#
#
# Elastic Compliance Matrix: (Units=1/GPa)
#
#
# Indices 1 2 3 4 5 6 
#
# 1 0.012498 -0.003796 -0.002604 0.000000 0.000000 0.000000
# 2 -0.003796 0.011410 -0.008280 0.000000 0.000000 0.000000
# 3 -0.002604 -0.008280 0.020848 0.000000 0.000000 0.000000
# 4 0.000000 0.000000 0.000000 0.038711 0.000000 0.000000
# 5 0.000000 0.000000 0.000000 0.000000 0.037432 0.000000
# 6 0.000000 0.000000 0.000000 0.000000 0.000000 0.031193
#
#
# Mechanical properties :
#
#
# Convention : Reuss Voigt Hill
#
# Bulk Modulus (GPa) = 64.96109 77.75228 71.35668
# Shear Modulus (GPa) = 26.79778 28.60983 27.70380
#
# Velocity S-wave (km/s) = 3.63669 3.75763 3.69766
# Velocity P-wave (km/s) = 7.04941 7.56303 7.31074
#
# Compressibility (1/GPa) = 0.01539383
#
# Stress axis : x y z
#
# Youngs Moduli (GPa) = 80.01378 87.64545 47.96731
#
# Poissons Ratio (x) = 0.33273 0.12492
# Poissons Ratio (y) = 0.30376 0.39717
# Poissons Ratio (z) = 0.20838 0.72570
#
# Static dielectric constant tensor:
#      x y z
#    x 1.825410 0.000000 0.000000 
#    y 0.000000 1.740470 0.000000 
#    z 0.000000 0.000000 1.597390 
# 
# From -- ./inp_files/9355.got.cif
#   From: 2010.05.17/outbox.cif.g08.bks.cpg/sg51_5_cif.got.tgz:9355.got - 2010.06.03 11:52:47.
