data_PCOD9402871
_publ_section_title
;
Structure prediction by ZEFSAII (Michael W. Deem and Ramdas Pophale) SiO2 
 PCOD9402871
Probable space group: P M M A
;
_chemical_formula_sum "Si O2"
_cell_formula_units_Z 48
_cell_length_a 14.107076
_cell_length_b 8.675769
_cell_length_c 21.585413
_cell_angle_alpha 90.000000
_cell_angle_beta 90.000000
_cell_angle_gamma 90.000000
_cell_volume 2641.832926
_symmetry_space_group_name_H-M "P M M A"
_symmetry_group_IT_number 51
_symmetry_cell_setting 'orthorhombic'
loop_
_space_group_symop_operation_xyz
x,y,z
1/2-x,-y,z
1/2+x,-y,-z
-x,y,-z
-x,-y,-z
1/2+x,y,-z
1/2-x,y,z
x,-y,z
loop_
_atom_site_type_symbol
_atom_site_label
_atom_site_fract_x
_atom_site_fract_y
_atom_site_fract_z
Si Si1 0.361319 0.686749 0.713983
Si Si2 0.135946 0.178012 0.963876
Si Si3 0.857679 0.314105 0.903451
Si Si4 0.359717 0.685340 0.469113
Si Si5 0.041965 0.184105 0.591511
Si Si6 0.957187 0.685469 0.158208
O O1 0.250000 0.726760 0.712493
O O2 0.368118 0.500000 0.710212
O O3 0.415887 0.758936 0.656177
O O4 0.407943 0.738877 0.778776
O O5 0.250000 0.185414 0.961239
O O6 0.096494 0.259847 0.903213
O O7 0.106634 0.000000 0.963842
O O8 0.109352 0.254752 0.029275
O O9 0.750000 0.260149 0.892476
O O10 0.856326 0.500000 0.905762
O O11 0.933733 0.265898 0.852050
O O12 0.250000 0.726720 0.457682
O O13 0.367536 0.500000 0.468896
O O14 0.393750 0.747056 0.536007
O O15 0.435666 0.754438 0.421142
O O16 0.042827 0.000000 0.587388
O O17 0.954437 0.500000 0.159378
#
# Coordination Sequence:
#
# PCOD9402871 Si02
#       6
#     8   8   8   8   8   8
#     4  10  21  37  55  75 104 141 178 217 262 315
#     4  10  20  32  48  73 103 132 164 208 263 319
#     4   9  18  33  52  73  98 129 167 212 261 313
#     4  10  20  36  60  86 112 144 182 222 261 305
#     4  11  22  35  55  83 115 147 178 218 265 313
#     4  10  20  34  53  75  99 132 175 219 260 304
#
# _framework density 18.169204000000001
#
# number of rings (size 3 to 8) (size 9 to 14) (size 15 to 20)
#    0.000    2.000    0.000    5.000    0.000    8.667 
#    0.000    0.833    0.000    3.000    0.000    0.000 
#    0.000    0.000    0.000    0.000    0.000    0.000 
#
# Total GULP energy -267998.919013 kJ/mol
# GULP energy per Si atom -5583.310813 kJ/mol
# Density = 1.812785 g / cm^3
# Si number density = 18.169204 Si / 1000 Ang^3
#
#
#
# Elastic Constant Matrix: (Units=GPa)
#
#
# Indices 1 2 3 4 5 6 
#
# 1 152.8413 44.9465 96.5561 0.0000 0.0000 0.0000
# 2 44.9465 37.3507 35.0587 0.0000 0.0000 0.0000
# 3 96.5561 35.0587 130.6333 0.0000 0.0000 0.0000
# 4 0.0000 0.0000 0.0000 -40.9490 0.0000 0.0000
# 5 0.0000 0.0000 0.0000 0.0000 25.9988 0.0000
# 6 0.0000 0.0000 0.0000 0.0000 0.0000 11.4113
#
#
#
# Elastic Compliance Matrix: (Units=1/GPa)
#
#
# Indices 1 2 3 4 5 6 
#
# 1 0.014597 -0.009943 -0.008121 0.000000 0.000000 0.000000
# 2 -0.009943 0.042562 -0.004073 0.000000 0.000000 0.000000
# 3 -0.008121 -0.004073 0.014750 0.000000 0.000000 0.000000
# 4 0.000000 0.000000 0.000000 -0.024421 0.000000 0.000000
# 5 0.000000 0.000000 0.000000 0.000000 0.038463 0.000000
# 6 0.000000 0.000000 0.000000 0.000000 0.000000 0.087632
#
#
# Mechanical properties :
#
#
# Convention : Reuss Voigt Hill
#
# Bulk Modulus (GPa) = 36.18572 74.88311 55.53441
# Shear Modulus (GPa) = 22.01968 8.90982 15.46475
#
# Velocity S-wave (km/s) = 3.48505 2.21686 2.92062
# Velocity P-wave (km/s) = 6.01276 6.91783 6.48111
#
# Compressibility (1/GPa) = 0.02763521
#
# Stress axis : x y z
#
# Youngs Moduli (GPa) = 68.50790 23.49531 67.79465
#
# Poissons Ratio (x) = 0.23362 0.55054
# Poissons Ratio (y) = 0.68118 0.27614
# Poissons Ratio (z) = 0.55633 0.09570
#
# Static dielectric constant tensor:
#      x y z
#    x 1.654870 0.000000 0.000000 
#    y 0.000000 1.609690 0.000000 
#    z 0.000000 0.000000 1.585450 
# 
# From -- ./inp_files/29476.got.cif
#   From: 2010.05.17/outbox.cif.g08.bks.cpg/sg51_15_cif.got.tgz:29476.got - 2010.06.03 11:52:47.
