data_PCOD9402958
_publ_section_title
;
Structure prediction by ZEFSAII (Michael W. Deem and Ramdas Pophale) SiO2 
 PCOD9402958
Probable space group: P M M A
;
_chemical_formula_sum "Si O2"
_cell_formula_units_Z 44
_cell_length_a 26.468472
_cell_length_b 10.152365
_cell_length_c 8.661408
_cell_angle_alpha 90.000000
_cell_angle_beta 90.000000
_cell_angle_gamma 90.000000
_cell_volume 2327.472673
_symmetry_space_group_name_H-M "P M M A"
_symmetry_group_IT_number 51
_symmetry_cell_setting 'orthorhombic'
loop_
_space_group_symop_operation_xyz
x,y,z
1/2-x,-y,z
1/2+x,-y,-z
-x,y,-z
-x,-y,-z
1/2+x,y,-z
1/2-x,y,z
x,-y,z
loop_
_atom_site_type_symbol
_atom_site_label
_atom_site_fract_x
_atom_site_fract_y
_atom_site_fract_z
Si Si1 0.694011 0.151260 0.664635
Si Si2 0.152519 0.349002 0.095251
Si Si3 0.000000 0.230077 0.000000
Si Si4 0.603778 0.147580 0.123012
Si Si5 0.590181 0.151295 0.484624
Si Si6 0.047101 0.645611 0.286262
O O1 0.750000 0.162595 0.594329
O O2 0.688314 0.258936 0.798951
O O3 0.647513 0.169900 0.547436
O O4 0.688986 0.000000 0.723999
O O5 0.168930 0.500000 0.066979
O O6 0.100362 0.356515 0.193338
O O7 0.138591 0.263037 0.944980
O O8 0.051490 0.150891 0.973753
O O9 0.992670 0.315343 0.845416
O O10 0.590750 0.170600 0.301758
O O11 0.625848 0.000000 0.108709
O O12 0.554537 0.248625 0.579618
O O13 0.575592 0.000000 0.517288
O O14 0.037277 0.500000 0.346811
#
# Coordination Sequence:
#
# PCOD9402958 Si02
#       6
#     8   8   4   8   8   8
#     4   9  17  32  55  78  98 125 162 201 245 301
#     4   9  18  32  51  74 100 130 162 200 246 295
#     4  10  20  32  50  74  98 134 180 220 254 300
#     4  10  20  34  51  72 101 136 173 213 256 302
#     4   9  19  34  51  73 102 132 164 208 259 306
#     4   9  18  33  51  71  98 131 168 209 253 300
#
# _framework density 18.904626
#
# number of rings (size 3 to 8) (size 9 to 14) (size 15 to 20)
#    0.000    2.727    0.000    1.091    0.000    7.636 
#    0.000    3.636    0.000    3.273    0.000    0.000 
#    0.000    0.000    0.000    0.000    0.000    0.000 
#
# Total GULP energy -245249.437699 kJ/mol
# GULP energy per Si atom -5573.850857 kJ/mol
# Density = 1.886160 g / cm^3
# Si number density = 18.904626 Si / 1000 Ang^3
#
#
#
# Elastic Constant Matrix: (Units=GPa)
#
#
# Indices 1 2 3 4 5 6 
#
# 1 49.2729 27.6353 11.6389 0.0000 0.0000 0.0000
# 2 27.6353 146.7541 73.2929 0.0000 0.0000 0.0000
# 3 11.6389 73.2929 89.9740 0.0000 0.0000 0.0000
# 4 0.0000 0.0000 0.0000 124.6504 0.0000 0.0000
# 5 0.0000 0.0000 0.0000 0.0000 16.8433 0.0000
# 6 0.0000 0.0000 0.0000 0.0000 0.0000 18.0011
#
#
#
# Elastic Compliance Matrix: (Units=1/GPa)
#
#
# Indices 1 2 3 4 5 6 
#
# 1 0.022737 -0.004742 0.000921 0.000000 0.000000 0.000000
# 2 -0.004742 0.012477 -0.009550 0.000000 0.000000 0.000000
# 3 0.000921 -0.009550 0.018775 0.000000 0.000000 0.000000
# 4 0.000000 0.000000 0.000000 0.008022 0.000000 0.000000
# 5 0.000000 0.000000 0.000000 0.000000 0.059371 0.000000
# 6 0.000000 0.000000 0.000000 0.000000 0.000000 0.055552
#
#
# Mechanical properties :
#
#
# Convention : Reuss Voigt Hill
#
# Bulk Modulus (GPa) = 36.70082 56.79281 46.74681
# Shear Modulus (GPa) = 23.50103 43.46124 33.48113
#
# Velocity S-wave (km/s) = 3.52964 4.79996 4.21296
# Velocity P-wave (km/s) = 6.00558 7.79913 6.96037
#
# Compressibility (1/GPa) = 0.02724735
#
# Stress axis : x y z
#
# Youngs Moduli (GPa) = 43.98128 80.15001 53.26337
#
# Poissons Ratio (x) = 0.38005 -0.04908
# Poissons Ratio (y) = 0.20855 0.50867
# Poissons Ratio (z) = -0.04053 0.76544
#
# Static dielectric constant tensor:
#      x y z
#    x 1.671180 0.000000 0.000000 
#    y 0.000000 1.673830 0.000000 
#    z 0.000000 0.000000 1.629830 
# 
# From -- ./inp_files/12632.got.cif
#   From: 2010.05.17/outbox.cif.g08.bks.cpg/sg51_7_cif.got.tgz:12632.got - 2010.06.03 11:52:47.
