data_PCOD9402868
_publ_section_title
;
Structure prediction by ZEFSAII (Michael W. Deem and Ramdas Pophale) SiO2 
 PCOD9402868
Probable space group: P M M A
;
_chemical_formula_sum "Si O2"
_cell_formula_units_Z 48
_cell_length_a 26.319416
_cell_length_b 7.578227
_cell_length_c 12.147154
_cell_angle_alpha 90.000000
_cell_angle_beta 90.000000
_cell_angle_gamma 90.000000
_cell_volume 2422.804636
_symmetry_space_group_name_H-M "P M M A"
_symmetry_group_IT_number 51
_symmetry_cell_setting 'orthorhombic'
loop_
_space_group_symop_operation_xyz
x,y,z
1/2-x,-y,z
1/2+x,-y,-z
-x,y,-z
-x,-y,-z
1/2+x,y,-z
1/2-x,y,z
x,-y,z
loop_
_atom_site_type_symbol
_atom_site_label
_atom_site_fract_x
_atom_site_fract_y
_atom_site_fract_z
Si Si1 0.998418 0.286221 0.126521
Si Si2 0.398269 0.791591 0.734982
Si Si3 0.595603 0.287491 0.733194
Si Si4 0.442143 0.211188 0.507891
Si Si5 0.192366 0.213141 0.884144
Si Si6 0.807198 0.710606 0.862571
O O1 0.998896 0.500000 0.126459
O O2 0.947296 0.228888 0.187414
O O3 0.047452 0.224282 0.195165
O O4 0.000000 0.227080 0.000000
O O5 0.413241 0.717932 0.615405
O O6 0.349188 0.718484 0.798226
O O7 0.388506 0.000000 0.720296
O O8 0.596061 0.500000 0.742950
O O9 0.586297 0.244172 0.606213
O O10 0.648418 0.220205 0.783974
O O11 0.500000 0.280505 0.500000
O O12 0.446278 0.000000 0.522589
O O13 0.250000 0.275567 0.863742
O O14 0.192874 0.000000 0.878775
O O15 0.178694 0.260077 0.009751
O O16 0.750000 0.781982 0.845583
O O17 0.804515 0.500000 0.845894
#
# Coordination Sequence:
#
# PCOD9402868 Si02
#       6
#     8   8   8   8   8   8
#     4  10  20  32  48  73 103 129 158 202 251 300
#     4  10  20  34  51  72  98 131 168 205 249 295
#     4  10  20  33  51  75 101 131 168 206 249 297
#     4  10  20  35  52  71 100 136 172 209 248 295
#     4   9  18  33  53  76 101 129 164 206 250 298
#     4   9  18  34  55  77 103 134 166 203 250 301
#
# _framework density 19.811751000000001
#
# number of rings (size 3 to 8) (size 9 to 14) (size 15 to 20)
#    0.000    2.333    1.667    1.000    0.000    4.000 
#    0.000    0.833    0.000    1.000    0.000    0.000 
#    0.000    0.000    0.000    0.000    0.000    0.000 
#
# Total GULP energy -267980.953508 kJ/mol
# GULP energy per Si atom -5582.936531 kJ/mol
# Density = 1.976666 g / cm^3
# Si number density = 19.811751 Si / 1000 Ang^3
#
#
#
# Elastic Constant Matrix: (Units=GPa)
#
#
# Indices 1 2 3 4 5 6 
#
# 1 156.9732 -1.5717 117.0883 0.0000 0.0000 0.0000
# 2 -1.5717 41.0401 -9.6902 0.0000 0.0000 0.0000
# 3 117.0883 -9.6902 187.4761 0.0000 0.0000 0.0000
# 4 0.0000 0.0000 0.0000 6.9943 0.0000 0.0000
# 5 0.0000 0.0000 0.0000 0.0000 15.3275 0.0000
# 6 0.0000 0.0000 0.0000 0.0000 0.0000 13.5056
#
#
#
# Elastic Compliance Matrix: (Units=1/GPa)
#
#
# Indices 1 2 3 4 5 6 
#
# 1 0.011998 -0.001326 -0.007562 0.000000 0.000000 0.000000
# 2 -0.001326 0.024814 0.002111 0.000000 0.000000 0.000000
# 3 -0.007562 0.002111 0.010166 0.000000 0.000000 0.000000
# 4 0.000000 0.000000 0.000000 0.142973 0.000000 0.000000
# 5 0.000000 0.000000 0.000000 0.000000 0.065242 0.000000
# 6 0.000000 0.000000 0.000000 0.000000 0.000000 0.074044
#
#
# Mechanical properties :
#
#
# Convention : Reuss Voigt Hill
#
# Bulk Modulus (GPa) = 29.91903 66.34914 48.13409
# Shear Modulus (GPa) = 14.12704 25.80967 19.96835
#
# Velocity S-wave (km/s) = 2.67322 3.61327 3.17820
# Velocity P-wave (km/s) = 4.96615 7.13934 6.14950
#
# Compressibility (1/GPa) = 0.03342354
#
# Stress axis : x y z
#
# Youngs Moduli (GPa) = 83.35045 40.29983 98.36988
#
# Poissons Ratio (x) = 0.05344 0.74383
# Poissons Ratio (y) = 0.11052 -0.20763
# Poissons Ratio (z) = 0.63026 -0.08506
#
# Static dielectric constant tensor:
#      x y z
#    x 1.697530 0.000000 0.000000 
#    y 0.000000 1.749240 0.000000 
#    z 0.000000 0.000000 1.666100 
# 
# From -- ./inp_files/18555.got.cif
#   From: 2010.05.17/outbox.cif.g08.bks.cpg/sg51_10_cif.got.tgz:18555.got - 2010.06.03 11:52:47.
