data_PCOD9402175
_publ_section_title
;
Structure prediction by ZEFSAII (Michael W. Deem and Ramdas Pophale) SiO2 
 PCOD9402175
Probable space group: P M M A
;
_chemical_formula_sum "Si O2"
_cell_formula_units_Z 56
_cell_length_a 21.184987
_cell_length_b 7.559313
_cell_length_c 15.687034
_cell_angle_alpha 90.000000
_cell_angle_beta 90.000000
_cell_angle_gamma 90.000000
_cell_volume 2512.183551
_symmetry_space_group_name_H-M "P M M A"
_symmetry_group_IT_number 51
_symmetry_cell_setting 'orthorhombic'
loop_
_space_group_symop_operation_xyz
x,y,z
1/2-x,-y,z
1/2+x,-y,-z
-x,y,-z
-x,-y,-z
1/2+x,y,-z
1/2-x,y,z
x,-y,z
loop_
_atom_site_type_symbol
_atom_site_label
_atom_site_fract_x
_atom_site_fract_y
_atom_site_fract_z
Si Si1 0.113882 0.796630 0.481279
Si Si2 0.250000 0.699240 0.421861
Si Si3 0.538105 0.784499 0.682666
Si Si4 0.567466 0.697045 0.025985
Si Si5 0.750000 0.210753 0.769610
Si Si6 0.617239 0.786537 0.846766
Si Si7 0.106841 0.783916 0.673138
Si Si8 0.321753 0.788646 0.839722
O O1 0.185599 0.791874 0.449175
O O2 0.069624 0.720380 0.406060
O O3 0.115372 0.719284 0.576210
O O4 0.092240 0.000000 0.491579
O O5 0.250000 0.500000 0.456381
O O6 0.250000 0.695419 0.320306
O O7 0.575903 0.727792 0.766129
O O8 0.465353 0.738393 0.694114
O O9 0.542635 0.000000 0.680097
O O10 0.550755 0.500000 0.056510
O O11 0.620385 0.760920 0.093445
O O12 0.500000 0.787044 0.000000
O O13 0.600822 0.698636 0.934985
O O14 0.811498 0.251103 0.822388
O O15 0.750000 0.000000 0.750286
O O16 0.609485 0.000000 0.856317
O O17 0.154155 0.722132 0.747083
O O18 0.112086 0.000000 0.672184
O O19 0.250000 0.723503 0.860954
O O20 0.316385 0.000000 0.833668
#
# Coordination Sequence:
#
# PCOD9402175 Si02
#       8
#     8   4   8   8   4   8   8   8
#     4  10  19  34  58  84 116 154 194 241 287 337
#     4  12  24  36  52  79 118 159 198 237 284 342
#     4   9  16  30  55  91 121 145 181 233 292 346
#     4  11  25  43  62  87 119 158 200 241 295 362
#     4  10  20  38  60  87 116 149 190 235 292 350
#     4  10  20  35  61  91 119 148 186 237 293 349
#     4   9  18  32  58  90 117 146 191 244 292 337
#     4  10  22  40  62  90 120 154 202 256 304 353
#
# _framework density 22.291364000000002
#
# number of rings (size 3 to 8) (size 9 to 14) (size 15 to 20)
#    0.000    2.000    1.429    2.357    2.000    4.857 
#    0.000    0.714    0.000    2.571    0.000    0.000 
#    0.000    0.000    0.000    0.000    0.000    0.000 
#
# Total GULP energy -312486.615754 kJ/mol
# GULP energy per Si atom -5580.118138 kJ/mol
# Density = 2.224063 g / cm^3
# Si number density = 22.291364 Si / 1000 Ang^3
#
#
#
# Elastic Constant Matrix: (Units=GPa)
#
#
# Indices 1 2 3 4 5 6 
#
# 1 107.9403 4.7625 37.2918 0.0000 0.0000 0.0000
# 2 4.7625 43.4080 6.0647 0.0000 0.0000 0.0000
# 3 37.2918 6.0647 129.8422 0.0000 0.0000 0.0000
# 4 0.0000 0.0000 0.0000 -14.8857 0.0000 0.0000
# 5 0.0000 0.0000 0.0000 0.0000 15.2014 0.0000
# 6 0.0000 0.0000 0.0000 0.0000 0.0000 -2.8861
#
#
#
# Elastic Compliance Matrix: (Units=1/GPa)
#
#
# Indices 1 2 3 4 5 6 
#
# 1 0.010307 -0.000722 -0.002927 0.000000 0.000000 0.000000
# 2 -0.000722 0.023239 -0.000878 0.000000 0.000000 0.000000
# 3 -0.002927 -0.000878 0.008583 0.000000 0.000000 0.000000
# 4 0.000000 0.000000 0.000000 -0.067178 0.000000 0.000000
# 5 0.000000 0.000000 0.000000 0.000000 0.065783 0.000000
# 6 0.000000 0.000000 0.000000 0.000000 0.000000 -0.346486
#
#
# Mechanical properties :
#
#
# Convention : Reuss Voigt Hill
#
# Bulk Modulus (GPa) = 30.23315 41.93651 36.08483
# Shear Modulus (GPa) = -17.50258 15.02402 -1.23928
#
# Velocity S-wave (km/s) = -2.80513 2.59894 -0.74643
# Velocity P-wave (km/s) = 1.76081 5.27823 3.93447
#
# Compressibility (1/GPa) = 0.03307627
#
# Stress axis : x y z
#
# Youngs Moduli (GPa) = 97.01823 43.03087 116.50628
#
# Poissons Ratio (x) = 0.03107 0.34097
# Poissons Ratio (y) = 0.07004 0.10231
# Poissons Ratio (z) = 0.28394 0.03779
#
# Static dielectric constant tensor:
#      x y z
#    x 1.781850 0.000000 0.000000 
#    y 0.000000 1.893790 0.000000 
#    z 0.000000 0.000000 1.677680 
# 
# From -- ./inp_files/25893.got.cif
#   From: 2010.05.17/outbox.cif.g08.bks.cpg/sg51_13_cif.got.tgz:25893.got - 2010.06.03 11:52:47.
