data_PCOD9402341
_publ_section_title
;
Structure prediction by ZEFSAII (Michael W. Deem and Ramdas Pophale) SiO2 
 PCOD9402341
Probable space group: P M M A
;
_chemical_formula_sum "Si O2"
_cell_formula_units_Z 64
_cell_length_a 9.156005
_cell_length_b 25.219924
_cell_length_c 14.805441
_cell_angle_alpha 90.000000
_cell_angle_beta 90.000000
_cell_angle_gamma 90.000000
_cell_volume 3418.779905
_symmetry_space_group_name_H-M "P M M A"
_symmetry_group_IT_number 51
_symmetry_cell_setting 'orthorhombic'
loop_
_space_group_symop_operation_xyz
x,y,z
1/2-x,-y,z
1/2+x,-y,-z
-x,y,-z
-x,-y,-z
1/2+x,y,-z
1/2-x,y,z
x,-y,z
loop_
_atom_site_type_symbol
_atom_site_label
_atom_site_fract_x
_atom_site_fract_y
_atom_site_fract_z
Si Si1 0.924086 0.844795 0.596297
Si Si2 0.917408 0.935267 0.090007
Si Si3 0.921992 0.438659 0.722082
Si Si4 0.423713 0.245095 0.711989
Si Si5 0.923386 0.352788 0.403264
Si Si6 0.078138 0.719977 0.908648
Si Si7 0.423070 0.592167 0.906657
Si Si8 0.924285 0.938734 0.726763
O O1 0.750000 0.839671 0.586866
O O2 0.958046 0.901065 0.643123
O O3 0.000000 0.839907 0.500000
O O4 0.986235 0.799944 0.662188
O O5 0.750000 0.918012 0.089277
O O6 0.996323 0.919588 0.182401
O O7 0.919643 0.000000 0.088610
O O8 0.000000 0.917204 0.000000
O O9 0.750000 0.425021 0.728720
O O10 0.933860 0.500000 0.694410
O O11 0.002376 0.400537 0.651574
O O12 0.998116 0.431683 0.819487
O O13 0.250000 0.232610 0.711622
O O14 0.441245 0.299888 0.656935
O O15 0.472376 0.253943 0.815270
O O16 0.750000 0.362062 0.414397
O O17 0.000000 0.346142 0.500000
O O18 0.250000 0.730113 0.917363
O O19 0.060392 0.656197 0.899886
O O20 0.000000 0.737535 0.000000
O O21 0.250000 0.580159 0.907491
O O22 0.500000 0.575347 0.000000
O O23 0.750000 0.937025 0.742460
O O24 0.965363 0.000000 0.710229
#
# Coordination Sequence:
#
# PCOD9402341 Si02
#       8
#     8   8   8   8   8   8   8   8
#     4  11  24  40  60  87 115 149 192 238 294 346
#     4   9  16  27  48  79 112 147 188 232 279 331
#     4  11  24  40  58  84 117 154 197 243 292 346
#     4  10  21  40  63  88 119 151 189 236 285 340
#     4  11  23  41  63  87 113 147 193 241 294 352
#     4   9  18  34  57  88 119 150 187 228 277 336
#     4  10  19  35  58  86 118 154 195 238 287 343
#     4   9  19  37  58  81 114 154 196 240 284 338
#
# _framework density 18.720129
#
# number of rings (size 3 to 8) (size 9 to 14) (size 15 to 20)
#    0.000    2.000    1.250    2.250    0.000    7.250 
#    0.000    0.625    0.000    1.500    0.000    0.000 
#    0.000    0.000    0.000    0.000    0.000    0.000 
#
# Total GULP energy -357489.123542 kJ/mol
# GULP energy per Si atom -5585.767555 kJ/mol
# Density = 1.867752 g / cm^3
# Si number density = 18.720129 Si / 1000 Ang^3
#
#
#
# Elastic Constant Matrix: (Units=GPa)
#
#
# Indices 1 2 3 4 5 6 
#
# 1 86.6814 54.0102 66.6165 0.0000 0.0000 0.0000
# 2 54.0102 61.0402 56.2737 0.0000 0.0000 0.0000
# 3 66.6165 56.2737 149.0798 0.0000 0.0000 0.0000
# 4 0.0000 0.0000 0.0000 -383.3240 0.0000 0.0000
# 5 0.0000 0.0000 0.0000 0.0000 38.3364 0.0000
# 6 0.0000 0.0000 0.0000 0.0000 0.0000 19.5740
#
#
#
# Elastic Compliance Matrix: (Units=1/GPa)
#
#
# Indices 1 2 3 4 5 6 
#
# 1 0.027793 -0.020158 -0.004811 0.000000 0.000000 0.000000
# 2 -0.020158 0.039746 -0.005996 0.000000 0.000000 0.000000
# 3 -0.004811 -0.005996 0.011121 0.000000 0.000000 0.000000
# 4 0.000000 0.000000 0.000000 -0.002609 0.000000 0.000000
# 5 0.000000 0.000000 0.000000 0.000000 0.026085 0.000000
# 6 0.000000 0.000000 0.000000 0.000000 0.000000 0.051088
#
#
# Mechanical properties :
#
#
# Convention : Reuss Voigt Hill
#
# Bulk Modulus (GPa) = 59.76361 72.28912 66.02636
# Shear Modulus (GPa) = 22.65213 -57.08930 -17.21858
#
# Velocity S-wave (km/s) = 3.48234 -5.52833 -3.03609
# Velocity P-wave (km/s) = 6.93996 1.43190 4.80170
#
# Compressibility (1/GPa) = 0.01673259
#
# Stress axis : x y z
#
# Youngs Moduli (GPa) = 35.97966 25.15966 89.92264
#
# Poissons Ratio (x) = 0.50716 0.43258
# Poissons Ratio (y) = 0.72526 0.53915
# Poissons Ratio (z) = 0.17308 0.15085
#
# Static dielectric constant tensor:
#      x y z
#    x 1.621450 0.000000 0.000000 
#    y 0.000000 1.651330 0.000000 
#    z 0.000000 0.000000 1.618350 
# 
# From -- ./inp_files/22323.got.cif
#   From: 2010.05.17/outbox.cif.g08.bks.cpg/sg51_12_cif.got.tgz:22323.got - 2010.06.03 11:52:47.
