data_PCOD9402560
_publ_section_title
;
Structure prediction by ZEFSAII (Michael W. Deem and Ramdas Pophale) SiO2 
 PCOD9402560
Probable space group: P M M A
;
_chemical_formula_sum "Si O2"
_cell_formula_units_Z 56
_cell_length_a 9.448052
_cell_length_b 17.548540
_cell_length_c 23.808059
_cell_angle_alpha 90.000000
_cell_angle_beta 90.000000
_cell_angle_gamma 90.000000
_cell_volume 3947.364717
_symmetry_space_group_name_H-M "P M M A"
_symmetry_group_IT_number 51
_symmetry_cell_setting 'orthorhombic'
loop_
_space_group_symop_operation_xyz
x,y,z
1/2-x,-y,z
1/2+x,-y,-z
-x,y,-z
-x,-y,-z
1/2+x,y,-z
1/2-x,y,z
x,-y,z
loop_
_atom_site_type_symbol
_atom_site_label
_atom_site_fract_x
_atom_site_fract_y
_atom_site_fract_z
Si Si1 0.088031 0.092365 0.445994
Si Si2 0.909178 0.817649 0.050436
Si Si3 0.586215 0.408343 0.942606
Si Si4 0.909982 0.685948 0.144044
Si Si5 0.088452 0.089634 0.128713
Si Si6 0.082225 0.089229 0.667071
Si Si7 0.580989 0.182531 0.221073
O O1 0.250000 0.119522 0.446286
O O2 0.000000 0.119691 0.500000
O O3 0.007892 0.108729 0.387932
O O4 0.092348 0.000000 0.449685
O O5 0.750000 0.836903 0.033723
O O6 0.903967 0.755869 0.099822
O O7 0.995557 0.888599 0.074835
O O8 0.000000 0.785031 0.000000
O O9 0.750000 0.383214 0.948298
O O10 0.584154 0.500000 0.937380
O O11 0.514513 0.372024 0.887173
O O12 0.500000 0.390334 0.000000
O O13 0.750000 0.654318 0.148987
O O14 0.949111 0.729809 0.202148
O O15 0.250000 0.117045 0.122138
O O16 0.013105 0.130244 0.180770
O O17 0.089613 0.000000 0.137489
O O18 0.250000 0.091352 0.653948
O O19 0.055635 0.149754 0.716740
O O20 0.051213 0.000000 0.683472
O O21 0.750000 0.171582 0.209881
#
# Coordination Sequence:
#
# PCOD9402560 Si02
#       7
#     8   8   8   8   8   8   8
#     4   9  16  25  37  54  77 104 135 172 212 250
#     4  10  20  32  45  59  74  94 121 152 190 236
#     4  10  20  32  47  67  87 106 128 155 191 236
#     4   9  18  31  46  63  81 102 127 155 189 231
#     4  10  20  31  42  56  73  94 123 160 199 236
#     4   9  16  26  41  59  79 105 137 173 210 244
#     4   9  18  31  45  60  78 103 134 164 198 240
#
# _framework density 14.186680000000001
#
# number of rings (size 3 to 8) (size 9 to 14) (size 15 to 20)
#    0.000    2.571    0.000    3.429    0.000    9.143 
#    0.000    1.429    0.000    0.000    0.000    0.000 
#    0.000    0.000    0.000    0.000    0.000    0.714 
#
# Total GULP energy -311776.535151 kJ/mol
# GULP energy per Si atom -5567.438128 kJ/mol
# Density = 1.415439 g / cm^3
# Si number density = 14.186680 Si / 1000 Ang^3
#
#
#
# Elastic Constant Matrix: (Units=GPa)
#
#
# Indices 1 2 3 4 5 6 
#
# 1 95.1954 32.5957 52.8190 0.0000 0.0000 0.0000
# 2 32.5957 35.5026 24.5290 0.0000 0.0000 0.0000
# 3 52.8190 24.5290 84.7028 0.0000 0.0000 0.0000
# 4 0.0000 0.0000 0.0000 14.5087 0.0000 0.0000
# 5 0.0000 0.0000 0.0000 0.0000 20.5464 0.0000
# 6 0.0000 0.0000 0.0000 0.0000 0.0000 16.5282
#
#
#
# Elastic Compliance Matrix: (Units=1/GPa)
#
#
# Indices 1 2 3 4 5 6 
#
# 1 0.019335 -0.011778 -0.008646 0.000000 0.000000 0.000000
# 2 -0.011778 0.042387 -0.004930 0.000000 0.000000 0.000000
# 3 -0.008646 -0.004930 0.018625 0.000000 0.000000 0.000000
# 4 0.000000 0.000000 0.000000 0.068924 0.000000 0.000000
# 5 0.000000 0.000000 0.000000 0.000000 0.048670 0.000000
# 6 0.000000 0.000000 0.000000 0.000000 0.000000 0.060503
#
#
# Mechanical properties :
#
#
# Convention : Reuss Voigt Hill
#
# Bulk Modulus (GPa) = 33.74002 48.36535 41.05268
# Shear Modulus (GPa) = 15.67239 17.34714 16.50977
#
# Velocity S-wave (km/s) = 3.32735 3.50062 3.41508
# Velocity P-wave (km/s) = 6.21258 7.10670 6.67463
#
# Compressibility (1/GPa) = 0.02963840
#
# Stress axis : x y z
#
# Youngs Moduli (GPa) = 51.71995 23.59210 53.69066
#
# Poissons Ratio (x) = 0.27787 0.46421
# Poissons Ratio (y) = 0.60917 0.26470
# Poissons Ratio (z) = 0.44717 0.11631
#
# Static dielectric constant tensor:
#      x y z
#    x 1.486730 0.000000 0.000000 
#    y 0.000000 1.465990 0.000000 
#    z 0.000000 0.000000 1.484520 
# 
# From -- ./inp_files/35048.got.cif
#   From: 2010.05.17/outbox.cif.g08.bks.cpg/sg51_18_cif.got.tgz:35048.got - 2010.06.03 11:52:47.
