data_PCOD9402242
_publ_section_title
;
Structure prediction by ZEFSAII (Michael W. Deem and Ramdas Pophale) SiO2 
 PCOD9402242
Probable space group: P M M A
;
_chemical_formula_sum "Si O2"
_cell_formula_units_Z 48
_cell_length_a 35.445947
_cell_length_b 7.272763
_cell_length_c 9.969387
_cell_angle_alpha 90.000000
_cell_angle_beta 90.000000
_cell_angle_gamma 90.000000
_cell_volume 2570.007994
_symmetry_space_group_name_H-M "P M M A"
_symmetry_group_IT_number 51
_symmetry_cell_setting 'orthorhombic'
loop_
_space_group_symop_operation_xyz
x,y,z
1/2-x,-y,z
1/2+x,-y,-z
-x,y,-z
-x,-y,-z
1/2+x,y,-z
1/2-x,y,z
x,-y,z
loop_
_atom_site_type_symbol
_atom_site_label
_atom_site_fract_x
_atom_site_fract_y
_atom_site_fract_z
Si Si1 0.152781 0.221634 0.617721
Si Si2 0.583714 0.219964 0.186445
Si Si3 0.055077 0.500000 0.395373
Si Si4 0.792912 0.775510 0.152406
Si Si5 0.379379 0.222140 0.340776
Si Si6 0.527527 0.500000 0.295756
Si Si7 0.859574 0.222661 0.957854
O O1 0.114834 0.269166 0.699859
O O2 0.188053 0.283283 0.707000
O O3 0.147686 0.277522 0.464355
O O4 0.154469 0.000000 0.617997
O O5 0.545735 0.325678 0.220785
O O6 0.578695 0.000000 0.188032
O O7 0.604147 0.274420 0.047584
O O8 0.081149 0.676267 0.365681
O O9 0.042588 0.500000 0.550774
O O10 0.017375 0.500000 0.306494
O O11 0.750000 0.715136 0.136275
O O12 0.792702 0.000000 0.151595
O O13 0.821868 0.717429 0.035641
O O14 0.363515 0.277262 0.195856
O O15 0.383861 0.000000 0.343560
O O16 0.858784 0.000000 0.960529
#
# Coordination Sequence:
#
# PCOD9402242 Si02
#       7
#     8   8   4   8   8   4   8
#     4   8  14  26  47  70  97 136 172 203 246 294
#     4   9  17  33  53  74 100 135 175 213 250 300
#     4  11  24  35  51  81 104 128 171 218 269 311
#     4   8  13  24  45  77 110 134 168 217 252 288
#     4  10  19  35  53  74 105 138 173 212 252 307
#     4  11  22  35  53  79 102 128 173 218 265 319
#     4   8  16  30  51  75 103 141 177 207 252 310
#
# _framework density 18.676984999999998
#
# number of rings (size 3 to 8) (size 9 to 14) (size 15 to 20)
#    0.000    3.000    1.667    2.000    0.000    1.333 
#    0.000    4.167    0.000    8.000    0.000   22.167 
#    0.000    0.000    0.000    0.000    0.000    0.000 
#
# Total GULP energy -267653.470000 kJ/mol
# GULP energy per Si atom -5576.113958 kJ/mol
# Density = 1.863448 g / cm^3
# Si number density = 18.676985 Si / 1000 Ang^3
#
#
#
# Elastic Constant Matrix: (Units=GPa)
#
#
# Indices 1 2 3 4 5 6 
#
# 1 110.8236 21.8159 54.8256 0.0000 0.0000 0.0000
# 2 21.8159 87.1046 16.3312 0.0000 0.0000 0.0000
# 3 54.8256 16.3312 157.9581 0.0000 0.0000 0.0000
# 4 0.0000 0.0000 0.0000 -0.6573 0.0000 0.0000
# 5 0.0000 0.0000 0.0000 0.0000 18.3036 0.0000
# 6 0.0000 0.0000 0.0000 0.0000 0.0000 34.7732
#
#
#
# Elastic Compliance Matrix: (Units=1/GPa)
#
#
# Indices 1 2 3 4 5 6 
#
# 1 0.011269 -0.002130 -0.003691 0.000000 0.000000 0.000000
# 2 -0.002130 0.012110 -0.000513 0.000000 0.000000 0.000000
# 3 -0.003691 -0.000513 0.007665 0.000000 0.000000 0.000000
# 4 0.000000 0.000000 0.000000 -1.521345 0.000000 0.000000
# 5 0.000000 0.000000 0.000000 0.000000 0.054634 0.000000
# 6 0.000000 0.000000 0.000000 0.000000 0.000000 0.028758
#
#
# Mechanical properties :
#
#
# Convention : Reuss Voigt Hill
#
# Bulk Modulus (GPa) = 54.41934 60.20352 57.31143
# Shear Modulus (GPa) = -3.60200 28.01147 12.20473
#
# Velocity S-wave (km/s) = -1.39024 3.87691 2.55907
# Velocity P-wave (km/s) = 5.15978 7.23496 6.28363
#
# Compressibility (1/GPa) = 0.01837582
#
# Stress axis : x y z
#
# Youngs Moduli (GPa) = 88.74155 82.57559 130.46485
#
# Poissons Ratio (x) = 0.17591 0.48154
# Poissons Ratio (y) = 0.18904 0.06688
# Poissons Ratio (z) = 0.32754 0.04233
#
# Static dielectric constant tensor:
#      x y z
#    x 1.603350 0.000000 0.000000 
#    y 0.000000 1.702400 0.000000 
#    z 0.000000 0.000000 1.650640 
# 
# From -- ./inp_files/12882.got.cif
#   From: 2010.05.17/outbox.cif.g08.bks.cpg/sg51_7_cif.got.tgz:12882.got - 2010.06.03 11:52:47.
