data_PCOD9402135
_publ_section_title
;
Structure prediction by ZEFSAII (Michael W. Deem and Ramdas Pophale) SiO2 
 PCOD9402135
Probable space group: P M M A
;
_chemical_formula_sum "Si O2"
_cell_formula_units_Z 52
_cell_length_a 8.579758
_cell_length_b 14.083400
_cell_length_c 23.154702
_cell_angle_alpha 90.000000
_cell_angle_beta 90.000000
_cell_angle_gamma 90.000000
_cell_volume 2797.832745
_symmetry_space_group_name_H-M "P M M A"
_symmetry_group_IT_number 51
_symmetry_cell_setting 'orthorhombic'
loop_
_space_group_symop_operation_xyz
x,y,z
1/2-x,-y,z
1/2+x,-y,-z
-x,y,-z
-x,-y,-z
1/2+x,y,-z
1/2-x,y,z
x,-y,z
loop_
_atom_site_type_symbol
_atom_site_label
_atom_site_fract_x
_atom_site_fract_y
_atom_site_fract_z
Si Si1 0.062632 0.609898 0.939687
Si Si2 0.936268 0.500000 0.741519
Si Si3 0.438268 0.892058 0.773467
Si Si4 0.432639 0.500000 0.610872
Si Si5 0.060466 0.682763 0.814255
Si Si6 0.066752 0.313902 0.440078
Si Si7 0.564463 0.000000 0.437301
Si Si8 0.936925 0.829576 0.356481
O O1 0.250000 0.610727 0.941910
O O2 0.010103 0.500000 0.936238
O O3 0.015745 0.659075 0.880180
O O4 0.000000 0.650440 0.000000
O O5 0.750000 0.500000 0.745970
O O6 0.984730 0.500000 0.673887
O O7 0.999260 0.596732 0.773218
O O8 0.250000 0.895062 0.780998
O O9 0.490910 0.791794 0.801765
O O10 0.469786 0.871603 0.706116
O O11 0.494328 0.000000 0.788898
O O12 0.250000 0.500000 0.622820
O O13 0.480185 0.588501 0.571832
O O14 0.250000 0.680401 0.809013
O O15 0.250000 0.325226 0.446995
O O16 0.000000 0.270082 0.500000
O O17 0.029533 0.259263 0.380384
O O18 0.500000 0.000000 0.500000
O O19 0.516859 0.091249 0.402140
O O20 0.750000 0.000000 0.438786
O O21 0.750000 0.810372 0.358911
#
# Coordination Sequence:
#
# PCOD9402135 Si02
#       8
#     8   4   8   4   8   8   4   8
#     4   9  17  30  49  77 114 151 192 234 279 337
#     4  12  24  37  56  87 122 150 187 230 283 344
#     4   9  17  32  57  85 110 142 186 235 284 336
#     4  12  25  43  62  79 106 146 185 224 276 332
#     4  10  19  34  57  84 117 153 192 237 285 337
#     4  12  25  41  59  82 109 139 181 228 281 345
#     4  10  20  32  50  74 104 134 173 222 272 330
#     4  10  19  35  56  80 108 139 177 225 278 336
#
# _framework density 18.585815
#
# number of rings (size 3 to 8) (size 9 to 14) (size 15 to 20)
#    0.000    1.692    1.538    4.385    0.000    3.692 
#    0.000    0.000    0.000    1.846    0.000    0.000 
#    0.000    0.000    0.000    0.000    0.000    0.000 
#
# Total GULP energy -289871.509160 kJ/mol
# GULP energy per Si atom -5574.452099 kJ/mol
# Density = 1.854351 g / cm^3
# Si number density = 18.585815 Si / 1000 Ang^3
#
#
#
# Elastic Constant Matrix: (Units=GPa)
#
#
# Indices 1 2 3 4 5 6 
#
# 1 37.9271 19.3134 13.0096 0.0000 0.0000 0.0000
# 2 19.3134 109.8457 35.1052 0.0000 0.0000 0.0000
# 3 13.0096 35.1052 108.2341 0.0000 0.0000 0.0000
# 4 0.0000 0.0000 0.0000 36.8194 0.0000 0.0000
# 5 0.0000 0.0000 0.0000 0.0000 25.7734 0.0000
# 6 0.0000 0.0000 0.0000 0.0000 0.0000 39.8003
#
#
#
# Elastic Compliance Matrix: (Units=1/GPa)
#
#
# Indices 1 2 3 4 5 6 
#
# 1 0.029369 -0.004502 -0.002070 0.000000 0.000000 0.000000
# 2 -0.004502 0.010847 -0.002977 0.000000 0.000000 0.000000
# 3 -0.002070 -0.002977 0.010454 0.000000 0.000000 0.000000
# 4 0.000000 0.000000 0.000000 0.027160 0.000000 0.000000
# 5 0.000000 0.000000 0.000000 0.000000 0.038800 0.000000
# 6 0.000000 0.000000 0.000000 0.000000 0.000000 0.025125
#
#
# Mechanical properties :
#
#
# Convention : Reuss Voigt Hill
#
# Bulk Modulus (GPa) = 31.67438 43.42926 37.55182
# Shear Modulus (GPa) = 29.17566 33.05051 31.11309
#
# Velocity S-wave (km/s) = 3.96634 4.22152 4.09592
# Velocity P-wave (km/s) = 6.16888 6.86872 6.52818
#
# Compressibility (1/GPa) = 0.03157126
#
# Stress axis : x y z
#
# Youngs Moduli (GPa) = 34.04951 92.19423 95.66114
#
# Poissons Ratio (x) = 0.41508 0.19800
# Poissons Ratio (y) = 0.15330 0.28477
# Poissons Ratio (z) = 0.07048 0.27445
#
# Static dielectric constant tensor:
#      x y z
#    x 1.628160 0.000000 0.000000 
#    y 0.000000 1.707310 0.000000 
#    z 0.000000 0.000000 1.661570 
# 
# From -- ./inp_files/31859.got.cif
#   From: 2010.05.17/outbox.cif.g08.bks.cpg/sg51_16_cif.got.tgz:31859.got - 2010.06.03 11:52:47.
