data_PCOD9402397
_publ_section_title
;
Structure prediction by ZEFSAII (Michael W. Deem and Ramdas Pophale) SiO2 
 PCOD9402397
Probable space group: P M M A
;
_chemical_formula_sum "Si O2"
_cell_formula_units_Z 64
_cell_length_a 24.460829
_cell_length_b 8.568539
_cell_length_c 15.905225
_cell_angle_alpha 90.000000
_cell_angle_beta 90.000000
_cell_angle_gamma 90.000000
_cell_volume 3333.632846
_symmetry_space_group_name_H-M "P M M A"
_symmetry_group_IT_number 51
_symmetry_cell_setting 'orthorhombic'
loop_
_space_group_symop_operation_xyz
x,y,z
1/2-x,-y,z
1/2+x,-y,-z
-x,y,-z
-x,-y,-z
1/2+x,y,-z
1/2-x,y,z
x,-y,z
loop_
_atom_site_type_symbol
_atom_site_label
_atom_site_fract_x
_atom_site_fract_y
_atom_site_fract_z
Si Si1 0.186719 0.187015 0.503675
Si Si2 0.500081 0.687674 0.099303
Si Si3 0.879198 0.688550 0.843552
Si Si4 0.385135 0.186395 0.840022
Si Si5 0.382662 0.687079 0.659789
Si Si6 0.500703 0.310165 0.597538
Si Si7 0.812804 0.188517 0.001469
Si Si8 0.379625 0.689018 0.344811
O O1 0.250000 0.236732 0.504826
O O2 0.154846 0.252640 0.584328
O O3 0.157383 0.245250 0.419055
O O4 0.184576 0.000000 0.506180
O O5 0.504695 0.500000 0.107877
O O6 0.442026 0.735785 0.138192
O O7 0.552679 0.761958 0.142508
O O8 0.500000 0.725426 0.000000
O O9 0.877849 0.500000 0.847628
O O10 0.840949 0.754102 0.916229
O O11 0.862934 0.736018 0.749280
O O12 0.365747 0.253801 0.751249
O O13 0.382323 0.000000 0.836782
O O14 0.348337 0.242005 0.918447
O O15 0.382371 0.500000 0.658616
O O16 0.445098 0.741505 0.642060
O O17 0.500000 0.261715 0.500000
O O18 0.500278 0.500000 0.598775
O O19 0.557440 0.261544 0.639539
O O20 0.750000 0.240491 0.007208
O O21 0.813452 0.000000 0.001623
O O22 0.378149 0.500000 0.349486
#
# Coordination Sequence:
#
# PCOD9402397 Si02
#       8
#     8   8   8   8   8   8   8   8
#     4  11  25  43  60  82 117 157 197 244 294 344
#     4  10  19  35  61  89 120 156 194 239 296 355
#     4  10  21  37  60  90 120 151 192 244 298 347
#     4  11  23  38  59  88 122 157 196 240 296 357
#     4  11  22  39  65  91 118 152 195 241 292 353
#     4   9  16  32  60  89 116 148 183 228 285 342
#     4  10  23  42  60  79 111 157 201 241 290 348
#     4  10  20  37  61  88 118 152 191 235 288 349
#
# _framework density 19.198274999999999
#
# number of rings (size 3 to 8) (size 9 to 14) (size 15 to 20)
#    0.000    1.750    2.500    1.875    0.000    6.000 
#    0.000    6.875    0.000    0.000    0.000    0.000 
#    0.000    0.000    0.000    0.000    0.000    0.000 
#
# Total GULP energy -357594.287717 kJ/mol
# GULP energy per Si atom -5587.410746 kJ/mol
# Density = 1.915458 g / cm^3
# Si number density = 19.198275 Si / 1000 Ang^3
#
#
#
# Elastic Constant Matrix: (Units=GPa)
#
#
# Indices 1 2 3 4 5 6 
#
# 1 134.4911 23.5736 77.0266 0.0000 0.0000 0.0000
# 2 23.5736 19.1329 32.2653 0.0000 0.0000 0.0000
# 3 77.0266 32.2653 182.8404 0.0000 0.0000 0.0000
# 4 0.0000 0.0000 0.0000 28.4239 0.0000 0.0000
# 5 0.0000 0.0000 0.0000 0.0000 -2.8527 0.0000
# 6 0.0000 0.0000 0.0000 0.0000 0.0000 25.8959
#
#
#
# Elastic Compliance Matrix: (Units=1/GPa)
#
#
# Indices 1 2 3 4 5 6 
#
# 1 0.010568 -0.007848 -0.003067 0.000000 0.000000 0.000000
# 2 -0.007848 0.080238 -0.010853 0.000000 0.000000 0.000000
# 3 -0.003067 -0.010853 0.008676 0.000000 0.000000 0.000000
# 4 0.000000 0.000000 0.000000 0.035182 0.000000 0.000000
# 5 0.000000 0.000000 0.000000 0.000000 -0.350545 0.000000
# 6 0.000000 0.000000 0.000000 0.000000 0.000000 0.038616
#
#
# Mechanical properties :
#
#
# Convention : Reuss Voigt Hill
#
# Bulk Modulus (GPa) = 17.87452 66.91060 42.39256
# Shear Modulus (GPa) = -43.44811 23.86668 -9.79072
#
# Velocity S-wave (km/s) = -4.76239 3.52968 -2.26072
# Velocity P-wave (km/s) = 4.57273 7.17911 3.91343
#
# Compressibility (1/GPa) = 0.05594556
#
# Stress axis : x y z
#
# Youngs Moduli (GPa) = 94.62904 12.46292 115.25391
#
# Poissons Ratio (x) = 0.09781 0.35348
# Poissons Ratio (y) = 0.74267 1.25086
# Poissons Ratio (z) = 0.29022 0.13526
#
# Static dielectric constant tensor:
#      x y z
#    x 1.652650 0.000000 0.000000 
#    y 0.000000 1.659890 0.000000 
#    z 0.000000 0.000000 1.653210 
# 
# From -- ./inp_files/26240.got.cif
#   From: 2010.05.17/outbox.cif.g08.bks.cpg/sg51_14_cif.got.tgz:26240.got - 2010.06.03 11:52:47.
