data_PCOD9402100
_publ_section_title
;
Structure prediction by ZEFSAII (Michael W. Deem and Ramdas Pophale) SiO2 
 PCOD9402100
Probable space group: P M M A
;
_chemical_formula_sum "Si O2"
_cell_formula_units_Z 64
_cell_length_a 20.094492
_cell_length_b 8.980959
_cell_length_c 20.604897
_cell_angle_alpha 90.000000
_cell_angle_beta 90.000000
_cell_angle_gamma 90.000000
_cell_volume 3718.520612
_symmetry_space_group_name_H-M "P M M A"
_symmetry_group_IT_number 51
_symmetry_cell_setting 'orthorhombic'
loop_
_space_group_symop_operation_xyz
x,y,z
1/2-x,-y,z
1/2+x,-y,-z
-x,y,-z
-x,-y,-z
1/2+x,y,-z
1/2-x,y,z
x,-y,z
loop_
_atom_site_type_symbol
_atom_site_label
_atom_site_fract_x
_atom_site_fract_y
_atom_site_fract_z
Si Si1 0.416160 0.821157 0.668848
Si Si2 0.672046 0.322124 0.592387
Si Si3 0.549362 0.324141 0.828389
Si Si4 0.070305 0.822140 0.034267
Si Si5 0.672298 0.178609 0.452980
Si Si6 0.327793 0.677622 0.935651
Si Si7 0.392469 0.324566 0.802646
Si Si8 0.930682 0.178894 0.692182
O O1 0.375944 0.772782 0.605195
O O2 0.384385 0.758874 0.734846
O O3 0.494259 0.778216 0.669262
O O4 0.413584 0.000000 0.671020
O O5 0.750000 0.288277 0.605829
O O6 0.663782 0.500000 0.593753
O O7 0.657356 0.259601 0.520548
O O8 0.623686 0.246010 0.644030
O O9 0.563603 0.500000 0.826212
O O10 0.573465 0.253563 0.895422
O O11 0.469246 0.304777 0.824531
O O12 0.577490 0.243674 0.764562
O O13 0.073353 0.000000 0.041139
O O14 0.127877 0.762924 0.987559
O O15 0.000000 0.783642 0.000000
O O16 0.750000 0.206631 0.436598
O O17 0.664818 0.000000 0.461957
O O18 0.250000 0.699824 0.946974
O O19 0.342379 0.500000 0.939823
O O20 0.347426 0.725512 0.862691
O O21 0.381134 0.500000 0.791880
O O22 0.926800 0.000000 0.693230
#
# Coordination Sequence:
#
# PCOD9402100 Si02
#       8
#     8   8   8   8   8   8   8   8
#     4   9  19  33  51  78 110 142 177 219 263 311
#     4  10  21  37  56  78 104 136 178 225 272 324
#     4  10  19  34  57  81 107 139 179 222 265 317
#     4  11  22  35  56  83 109 141 182 226 271 322
#     4   9  18  34  54  75 103 142 184 220 260 315
#     4  10  21  37  55  78 110 146 184 225 270 322
#     4   9  18  32  51  76 105 140 178 216 261 315
#     4  10  20  35  55  80 111 141 174 220 270 320
#
# _framework density 17.211144999999998
#
# number of rings (size 3 to 8) (size 9 to 14) (size 15 to 20)
#    0.000    2.250    1.250    1.500    0.000    4.500 
#    0.000    3.125    0.000    3.750    0.000    0.000 
#    0.000    0.000    0.000    0.000    0.000    0.000 
#
# Total GULP energy -357166.978686 kJ/mol
# GULP energy per Si atom -5580.734042 kJ/mol
# Density = 1.717197 g / cm^3
# Si number density = 17.211145 Si / 1000 Ang^3
#
#
#
# Elastic Constant Matrix: (Units=GPa)
#
#
# Indices 1 2 3 4 5 6 
#
# 1 73.3619 49.1675 86.4665 0.0000 0.0000 0.0000
# 2 49.1675 49.7378 65.1957 0.0000 0.0000 0.0000
# 3 86.4665 65.1957 169.1440 0.0000 0.0000 0.0000
# 4 0.0000 0.0000 0.0000 61.2441 0.0000 0.0000
# 5 0.0000 0.0000 0.0000 0.0000 29.3020 0.0000
# 6 0.0000 0.0000 0.0000 0.0000 0.0000 20.4868
#
#
#
# Elastic Compliance Matrix: (Units=1/GPa)
#
#
# Indices 1 2 3 4 5 6 
#
# 1 0.052729 -0.033939 -0.013873 0.000000 0.000000 0.000000
# 2 -0.033939 0.062482 -0.006733 0.000000 0.000000 0.000000
# 3 -0.013873 -0.006733 0.015600 0.000000 0.000000 0.000000
# 4 0.000000 0.000000 0.000000 0.016328 0.000000 0.000000
# 5 0.000000 0.000000 0.000000 0.000000 0.034127 0.000000
# 6 0.000000 0.000000 0.000000 0.000000 0.000000 0.048812
#
#
# Mechanical properties :
#
#
# Convention : Reuss Voigt Hill
#
# Bulk Modulus (GPa) = 46.04479 77.10034 61.57257
# Shear Modulus (GPa) = 14.43384 28.30086 21.36735
#
# Velocity S-wave (km/s) = 2.89906 4.05944 3.52729
# Velocity P-wave (km/s) = 6.16579 8.17717 7.24165
#
# Compressibility (1/GPa) = 0.02171798
#
# Stress axis : x y z
#
# Youngs Moduli (GPa) = 18.96501 16.00470 64.10459
#
# Poissons Ratio (x) = 0.54319 0.88934
# Poissons Ratio (y) = 0.64366 0.43165
# Poissons Ratio (z) = 0.26311 0.10777
#
# Static dielectric constant tensor:
#      x y z
#    x 1.573150 0.000000 0.000000 
#    y 0.000000 1.575360 0.000000 
#    z 0.000000 0.000000 1.554890 
# 
# From -- ./inp_files/30625.got.cif
#   From: 2010.05.17/outbox.cif.g08.bks.cpg/sg51_16_cif.got.tgz:30625.got - 2010.06.03 11:52:47.
