data_PCOD9402784
_publ_section_title
;
Structure prediction by ZEFSAII (Michael W. Deem and Ramdas Pophale) SiO2 
 PCOD9402784
Probable space group: P M M A
;
_chemical_formula_sum "Si O2"
_cell_formula_units_Z 64
_cell_length_a 14.510323
_cell_length_b 9.506372
_cell_length_c 21.297491
_cell_angle_alpha 90.000000
_cell_angle_beta 90.000000
_cell_angle_gamma 90.000000
_cell_volume 2937.787160
_symmetry_space_group_name_H-M "P M M A"
_symmetry_group_IT_number 51
_symmetry_cell_setting 'orthorhombic'
loop_
_space_group_symop_operation_xyz
x,y,z
1/2-x,-y,z
1/2+x,-y,-z
-x,y,-z
-x,-y,-z
1/2+x,y,-z
1/2-x,y,z
x,-y,z
loop_
_atom_site_type_symbol
_atom_site_label
_atom_site_fract_x
_atom_site_fract_y
_atom_site_fract_z
Si Si1 0.098692 0.341009 0.581560
Si Si2 0.639062 0.162830 0.296065
Si Si3 0.862540 0.163737 0.157193
Si Si4 0.863106 0.661154 0.791777
Si Si5 0.862577 0.161929 0.914101
Si Si6 0.119031 0.661228 0.443253
Si Si7 0.144153 0.156660 0.323067
Si Si8 0.637106 0.337919 0.036304
O O1 0.130986 0.500000 0.594284
O O2 0.110724 0.247654 0.642658
O O3 0.141573 0.295273 0.514679
O O4 0.990669 0.345439 0.566216
O O5 0.750000 0.166875 0.294957
O O6 0.608451 0.212798 0.226796
O O7 0.611695 0.000000 0.301903
O O8 0.750000 0.165192 0.156220
O O9 0.893458 0.259987 0.099756
O O10 0.889324 0.000000 0.149011
O O11 0.750000 0.654855 0.791418
O O12 0.894919 0.500000 0.796359
O O13 0.889801 0.756553 0.850966
O O14 0.896480 0.736497 0.727979
O O15 0.750000 0.159081 0.914533
O O16 0.893651 0.000000 0.915267
O O17 0.891328 0.249336 0.975306
O O18 0.151136 0.500000 0.433129
O O19 0.147850 0.770863 0.390675
O O20 0.250000 0.140417 0.302625
O O21 0.102919 0.000000 0.324426
O O22 0.750000 0.338315 0.036456
O O23 0.607531 0.500000 0.033561
#
# Coordination Sequence:
#
# PCOD9402784 Si02
#       8
#     8   8   8   8   8   8   8   8
#     4   9  19  35  53  71  92 120 155 194 233 276
#     4   9  18  31  47  69  97 126 155 190 234 283
#     4   8  14  25  38  53  79 115 149 181 222 270
#     4   9  16  26  40  58  83 116 151 187 228 272
#     4   9  15  22  33  50  76 112 150 186 225 270
#     4   9  19  36  53  69  92 122 155 191 233 279
#     4  10  20  32  47  70  97 123 154 192 233 279
#     4   9  15  21  31  50  76 108 148 189 225 265
#
# _framework density 21.785105000000001
#
# number of rings (size 3 to 8) (size 9 to 14) (size 15 to 20)
#    0.000    3.000    0.000    3.000    0.000    7.500 
#    0.000    5.000    0.000    0.000    0.000    0.000 
#    0.000    1.000    0.000   10.500    0.000   15.750 
#
# Total GULP energy -357292.500158 kJ/mol
# GULP energy per Si atom -5582.695315 kJ/mol
# Density = 2.173552 g / cm^3
# Si number density = 21.785105 Si / 1000 Ang^3
#
#
#
# Elastic Constant Matrix: (Units=GPa)
#
#
# Indices 1 2 3 4 5 6 
#
# 1 53.8492 -0.9384 3.5577 0.0000 0.0000 0.0000
# 2 -0.9384 179.2034 138.0634 0.0000 0.0000 0.0000
# 3 3.5577 138.0634 225.9032 0.0000 0.0000 0.0000
# 4 0.0000 0.0000 0.0000 22.7150 0.0000 0.0000
# 5 0.0000 0.0000 0.0000 0.0000 36.2710 0.0000
# 6 0.0000 0.0000 0.0000 0.0000 0.0000 5.6526
#
#
#
# Elastic Compliance Matrix: (Units=1/GPa)
#
#
# Indices 1 2 3 4 5 6 
#
# 1 0.018625 0.000611 -0.000667 0.000000 0.000000 0.000000
# 2 0.000611 0.010566 -0.006467 0.000000 0.000000 0.000000
# 3 -0.000667 -0.006467 0.008390 0.000000 0.000000 0.000000
# 4 0.000000 0.000000 0.000000 0.044024 0.000000 0.000000
# 5 0.000000 0.000000 0.000000 0.000000 0.027570 0.000000
# 6 0.000000 0.000000 0.000000 0.000000 0.000000 0.176909
#
#
# Mechanical properties :
#
#
# Convention : Reuss Voigt Hill
#
# Bulk Modulus (GPa) = 40.75770 82.25793 61.50781
# Shear Modulus (GPa) = 16.27035 34.14592 25.20814
#
# Velocity S-wave (km/s) = 2.73583 3.96333 3.40535
# Velocity P-wave (km/s) = 5.35997 7.66712 6.61491
#
# Compressibility (1/GPa) = 0.02453524
#
# Stress axis : x y z
#
# Youngs Moduli (GPa) = 53.69096 94.64417 119.19481
#
# Poissons Ratio (x) = -0.05787 0.07950
# Poissons Ratio (y) = -0.03283 0.77084
# Poissons Ratio (z) = 0.03581 0.61207
#
# Static dielectric constant tensor:
#      x y z
#    x 1.880460 0.000000 0.000000 
#    y 0.000000 1.747890 0.000000 
#    z 0.000000 0.000000 1.771340 
# 
# From -- ./inp_files/33814.got.cif
#   From: 2010.05.17/outbox.cif.g08.bks.cpg/sg51_17_cif.got.tgz:33814.got - 2010.06.03 11:52:47.
