data_PCOD9402525
_publ_section_title
;
Structure prediction by ZEFSAII (Michael W. Deem and Ramdas Pophale) SiO2 
 PCOD9402525
Probable space group: P M M A
;
_chemical_formula_sum "Si O2"
_cell_formula_units_Z 48
_cell_length_a 17.155462
_cell_length_b 14.348784
_cell_length_c 9.919068
_cell_angle_alpha 90.000000
_cell_angle_beta 90.000000
_cell_angle_gamma 90.000000
_cell_volume 2441.677964
_symmetry_space_group_name_H-M "P M M A"
_symmetry_group_IT_number 51
_symmetry_cell_setting 'orthorhombic'
loop_
_space_group_symop_operation_xyz
x,y,z
1/2-x,-y,z
1/2+x,-y,-z
-x,y,-z
-x,-y,-z
1/2+x,y,-z
1/2-x,y,z
x,-y,z
loop_
_atom_site_type_symbol
_atom_site_label
_atom_site_fract_x
_atom_site_fract_y
_atom_site_fract_z
Si Si1 0.840873 0.000000 0.667906
Si Si2 0.591504 0.000000 0.968094
Si Si3 0.409751 0.823989 0.479951
Si Si4 0.837394 0.196392 0.001198
Si Si5 0.078678 0.500000 0.316477
Si Si6 0.117487 0.701202 0.737988
Si Si7 0.566820 0.697565 0.776028
Si Si8 0.891244 0.500000 0.374434
O O1 0.861646 0.090285 0.579057
O O2 0.750000 0.000000 0.704618
O O3 0.890611 0.000000 0.806848
O O4 0.500000 0.000000 0.000000
O O5 0.630059 0.093122 0.027370
O O6 0.500000 0.854313 0.500000
O O7 0.379066 0.774462 0.614672
O O8 0.412754 0.744734 0.366026
O O9 0.750000 0.189437 0.945432
O O10 0.837573 0.257945 0.135446
O O11 0.894035 0.244235 0.893565
O O12 0.096088 0.407903 0.232406
O O13 0.118184 0.500000 0.463733
O O14 0.985203 0.500000 0.347324
O O15 0.138935 0.597031 0.688585
O O16 0.026684 0.697687 0.783991
#
# Coordination Sequence:
#
# PCOD9402525 Si02
#       8
#     4   4   8   8   4   8   8   4
#     4  12  25  42  66  95 130 168 212 264 321 384
#     4  12  26  44  70  92 118 161 212 262 321 377
#     4  10  21  37  65  93 126 161 208 258 315 380
#     4  12  26  43  62  88 128 169 210 256 315 381
#     4   9  16  31  63  98 124 154 209 262 309 364
#     4  10  21  38  64  96 127 163 206 261 317 366
#     4  10  19  37  64  94 122 163 209 260 306 370
#     4   9  16  33  61  96 126 156 201 264 319 362
#
# _framework density 19.658612000000002
#
# number of rings (size 3 to 8) (size 9 to 14) (size 15 to 20)
#    0.000    1.500    3.333    2.500    2.333    2.000 
#    0.000    4.167    0.000    1.000    0.000    0.000 
#    0.000    0.000    0.000    0.000    0.000    0.000 
#
# Total GULP energy -268201.650532 kJ/mol
# GULP energy per Si atom -5587.534386 kJ/mol
# Density = 1.961387 g / cm^3
# Si number density = 19.658612 Si / 1000 Ang^3
#
#
#
# Elastic Constant Matrix: (Units=GPa)
#
#
# Indices 1 2 3 4 5 6 
#
# 1 55.6925 44.2667 32.1975 0.0000 0.0000 0.0000
# 2 44.2667 122.4762 12.5403 0.0000 0.0000 0.0000
# 3 32.1975 12.5403 68.5805 0.0000 0.0000 0.0000
# 4 0.0000 0.0000 0.0000 20.2561 0.0000 0.0000
# 5 0.0000 0.0000 0.0000 0.0000 -12.2919 0.0000
# 6 0.0000 0.0000 0.0000 0.0000 0.0000 -2.5384
#
#
#
# Elastic Compliance Matrix: (Units=1/GPa)
#
#
# Indices 1 2 3 4 5 6 
#
# 1 0.035310 -0.011276 -0.014516 0.000000 0.000000 0.000000
# 2 -0.011276 0.011922 0.003114 0.000000 0.000000 0.000000
# 3 -0.014516 0.003114 0.020827 0.000000 0.000000 0.000000
# 4 0.000000 0.000000 0.000000 0.049368 0.000000 0.000000
# 5 0.000000 0.000000 0.000000 0.000000 -0.081354 0.000000
# 6 0.000000 0.000000 0.000000 0.000000 0.000000 -0.393942
#
#
# Mechanical properties :
#
#
# Convention : Reuss Voigt Hill
#
# Bulk Modulus (GPa) = 44.04664 47.19537 45.62100
# Shear Modulus (GPa) = -16.39634 11.60145 -2.39745
#
# Velocity S-wave (km/s) = -2.89113 2.43193 -1.10553
# Velocity P-wave (km/s) = 3.36297 5.65202 4.65053
#
# Compressibility (1/GPa) = 0.02270321
#
# Stress axis : x y z
#
# Youngs Moduli (GPa) = 28.32022 83.88194 48.01468
#
# Poissons Ratio (x) = 0.94585 0.69697
# Poissons Ratio (y) = 0.31934 -0.14952
# Poissons Ratio (z) = 0.41109 -0.26121
#
# Static dielectric constant tensor:
#      x y z
#    x 1.707020 0.000000 0.000000 
#    y 0.000000 1.687780 0.000000 
#    z 0.000000 0.000000 1.656840 
# 
# From -- ./inp_files/9744.got.cif
#   From: 2010.05.17/outbox.cif.g08.bks.cpg/sg51_5_cif.got.tgz:9744.got - 2010.06.03 11:52:47.
