data_PCOD9402048
_publ_section_title
;
Structure prediction by ZEFSAII (Michael W. Deem and Ramdas Pophale) SiO2 
 PCOD9402048
Probable space group: P M M A
;
_chemical_formula_sum "Si O2"
_cell_formula_units_Z 44
_cell_length_a 8.628378
_cell_length_b 30.267384
_cell_length_c 9.293639
_cell_angle_alpha 90.000000
_cell_angle_beta 90.000000
_cell_angle_gamma 90.000000
_cell_volume 2427.112172
_symmetry_space_group_name_H-M "P M M A"
_symmetry_group_IT_number 51
_symmetry_cell_setting 'orthorhombic'
loop_
_space_group_symop_operation_xyz
x,y,z
1/2-x,-y,z
1/2+x,-y,-z
-x,y,-z
-x,-y,-z
1/2+x,y,-z
1/2-x,y,z
x,-y,z
loop_
_atom_site_type_symbol
_atom_site_label
_atom_site_fract_x
_atom_site_fract_y
_atom_site_fract_z
Si Si1 0.936661 0.096613 0.663034
Si Si2 0.563805 0.179204 0.160487
Si Si3 0.935454 0.548092 0.663788
Si Si4 0.063621 0.000000 0.337631
Si Si5 0.435481 0.638122 0.663464
Si Si6 0.936915 0.735100 0.338004
O O1 0.750000 0.099314 0.659803
O O2 0.000000 0.099800 0.500000
O O3 0.003885 0.136402 0.755106
O O4 0.982812 0.047857 0.723495
O O5 0.750000 0.178716 0.158794
O O6 0.511284 0.223722 0.242614
O O7 0.500000 0.179008 0.000000
O O8 0.750000 0.550825 0.657430
O O9 0.978321 0.500000 0.727806
O O10 0.000000 0.547449 0.500000
O O11 0.999454 0.593179 0.732343
O O12 0.000000 0.000000 0.500000
O O13 0.250000 0.000000 0.342710
O O14 0.500000 0.638961 0.500000
O O15 0.250000 0.634970 0.659110
O O16 0.480495 0.686471 0.722500
O O17 0.750000 0.735995 0.345865
O O18 0.000000 0.739424 0.500000
#
# Coordination Sequence:
#
# PCOD9402048 Si02
#       6
#     8   8   8   4   8   8
#     4  10  19  34  56  82 108 136 169 205 244 289
#     4  11  23  38  53  73 101 133 168 208 253 300
#     4   9  15  21  30  48  77 112 146 180 221 271
#     4   8  16  30  51  78 107 134 164 202 242 284
#     4   9  15  24  38  57  81 111 147 187 228 274
#     4   9  19  33  50  71  95 123 159 201 244 290
#
# _framework density 18.128537999999999
#
# number of rings (size 3 to 8) (size 9 to 14) (size 15 to 20)
#    0.000    2.545    0.000    3.818    0.000    5.455 
#    0.000    0.455    0.000    0.000    0.000    0.000 
#    0.000    0.727    0.000    1.636    0.000    9.273 
#
# Total GULP energy -245055.492635 kJ/mol
# GULP energy per Si atom -5569.443014 kJ/mol
# Density = 1.808728 g / cm^3
# Si number density = 18.128538 Si / 1000 Ang^3
#
#
#
# Elastic Constant Matrix: (Units=GPa)
#
#
# Indices 1 2 3 4 5 6 
#
# 1 47.5849 52.6810 15.7814 0.0000 0.0000 0.0000
# 2 52.6810 248.4894 64.8595 0.0000 0.0000 0.0000
# 3 15.7814 64.8595 48.7112 0.0000 0.0000 0.0000
# 4 0.0000 0.0000 0.0000 -6.1207 0.0000 0.0000
# 5 0.0000 0.0000 0.0000 0.0000 17.1017 0.0000
# 6 0.0000 0.0000 0.0000 0.0000 0.0000 32.7443
#
#
#
# Elastic Compliance Matrix: (Units=1/GPa)
#
#
# Indices 1 2 3 4 5 6 
#
# 1 0.027558 -0.005383 -0.001761 0.000000 0.000000 0.000000
# 2 -0.005383 0.007219 -0.007869 0.000000 0.000000 0.000000
# 3 -0.001761 -0.007869 0.031577 0.000000 0.000000 0.000000
# 4 0.000000 0.000000 0.000000 -0.163379 0.000000 0.000000
# 5 0.000000 0.000000 0.000000 0.000000 0.058474 0.000000
# 6 0.000000 0.000000 0.000000 0.000000 0.000000 0.030540
#
#
# Mechanical properties :
#
#
# Convention : Reuss Voigt Hill
#
# Bulk Modulus (GPa) = 27.52576 67.93659 47.73118
# Shear Modulus (GPa) = 146.52478 22.84264 84.68371
#
# Velocity S-wave (km/s) = 9.00005 3.55355 6.84210
# Velocity P-wave (km/s) = 11.10036 7.37518 9.42367
#
# Compressibility (1/GPa) = 0.03632960
#
# Stress axis : x y z
#
# Youngs Moduli (GPa) = 36.28650 138.51622 31.66865
#
# Poissons Ratio (x) = 0.74562 0.05577
# Poissons Ratio (y) = 0.19533 0.24919
# Poissons Ratio (z) = 0.06390 1.08995
#
# Static dielectric constant tensor:
#      x y z
#    x 1.617130 0.000000 0.000000 
#    y 0.000000 1.714250 0.000000 
#    z 0.000000 0.000000 1.559660 
# 
# From -- ./inp_files/5855.got.cif
#   From: 2010.05.17/outbox.cif.g08.bks.cpg/sg51_3_cif.got.tgz:5855.got - 2010.06.03 11:52:47.
