data_PCOD9402972
_publ_section_title
;
Structure prediction by ZEFSAII (Michael W. Deem and Ramdas Pophale) SiO2 
 PCOD9402972
Probable space group: P M M A
;
_chemical_formula_sum "Si O2"
_cell_formula_units_Z 56
_cell_length_a 15.259128
_cell_length_b 21.345699
_cell_length_c 8.992536
_cell_angle_alpha 90.000000
_cell_angle_beta 90.000000
_cell_angle_gamma 90.000000
_cell_volume 2929.019630
_symmetry_space_group_name_H-M "P M M A"
_symmetry_group_IT_number 51
_symmetry_cell_setting 'orthorhombic'
loop_
_space_group_symop_operation_xyz
x,y,z
1/2-x,-y,z
1/2+x,-y,-z
-x,y,-z
-x,-y,-z
1/2+x,y,-z
1/2-x,y,z
x,-y,z
loop_
_atom_site_type_symbol
_atom_site_label
_atom_site_fract_x
_atom_site_fract_y
_atom_site_fract_z
Si Si1 0.654423 0.000000 0.603192
Si Si2 0.648109 0.221384 0.208019
Si Si3 0.994572 0.000000 0.178150
Si Si4 0.150178 0.741492 0.104053
Si Si5 0.581396 0.895704 0.390325
Si Si6 0.493969 0.706248 0.333541
Si Si7 0.005972 0.568729 0.239194
Si Si8 0.853324 0.402370 0.007924
O O1 0.639126 0.059847 0.496610
O O2 0.750000 0.000000 0.666049
O O3 0.587585 0.000000 0.738682
O O4 0.750000 0.237875 0.218354
O O5 0.626527 0.163735 0.315658
O O6 0.585578 0.277220 0.258156
O O7 0.629770 0.211504 0.031826
O O8 0.948443 0.060633 0.251992
O O9 0.000000 0.000000 0.000000
O O10 0.250000 0.751608 0.155598
O O11 0.145796 0.671970 0.030125
O O12 0.080766 0.740087 0.236376
O O13 0.500000 0.879574 0.500000
O O14 0.500000 0.729400 0.500000
O O15 0.479257 0.631671 0.332322
O O16 0.001541 0.500000 0.310266
O O17 0.088933 0.568775 0.126123
O O18 0.914940 0.580266 0.148101
O O19 0.750000 0.420494 0.018328
#
# Coordination Sequence:
#
# PCOD9402972 Si02
#       8
#     4   8   4   8   8   8   8   8
#     4   9  17  35  60  86 121 158 194 235 280 331
#     4  11  21  36  60  85 110 145 191 238 285 333
#     4   9  19  35  57  86 121 162 198 231 271 321
#     4   9  19  36  58  81 106 138 182 232 280 332
#     4   9  19  36  58  86 120 157 193 230 282 336
#     4  11  23  38  55  76 110 149 182 229 286 342
#     4  10  20  32  50  78 105 135 180 224 276 344
#     4   9  16  31  53  78 105 133 170 223 279 330
#
# _framework density 19.119025000000001
#
# number of rings (size 3 to 8) (size 9 to 14) (size 15 to 20)
#    0.000    2.286    1.429    3.000    0.000    3.143 
#    0.000    2.143    0.000    4.286    0.000    4.000 
#    0.000    0.000    0.000    0.000    0.000    0.000 
#
# Total GULP energy -312017.494748 kJ/mol
# GULP energy per Si atom -5571.740978 kJ/mol
# Density = 1.907551 g / cm^3
# Si number density = 19.119025 Si / 1000 Ang^3
#
#
#
# Elastic Constant Matrix: (Units=GPa)
#
#
# Indices 1 2 3 4 5 6 
#
# 1 108.1774 8.9364 44.3611 0.0000 0.0000 0.0000
# 2 8.9364 56.0344 13.9032 0.0000 0.0000 0.0000
# 3 44.3611 13.9032 116.1328 0.0000 0.0000 0.0000
# 4 0.0000 0.0000 0.0000 2.1445 0.0000 0.0000
# 5 0.0000 0.0000 0.0000 0.0000 6.6964 0.0000
# 6 0.0000 0.0000 0.0000 0.0000 0.0000 13.9821
#
#
#
# Elastic Compliance Matrix: (Units=1/GPa)
#
#
# Indices 1 2 3 4 5 6 
#
# 1 0.010990 -0.000733 -0.004110 0.000000 0.000000 0.000000
# 2 -0.000733 0.018441 -0.001928 0.000000 0.000000 0.000000
# 3 -0.004110 -0.001928 0.010412 0.000000 0.000000 0.000000
# 4 0.000000 0.000000 0.000000 0.466312 0.000000 0.000000
# 5 0.000000 0.000000 0.000000 0.000000 0.149333 0.000000
# 6 0.000000 0.000000 0.000000 0.000000 0.000000 0.071520
#
#
# Mechanical properties :
#
#
# Convention : Reuss Voigt Hill
#
# Bulk Modulus (GPa) = 38.02107 46.08291 42.05199
# Shear Modulus (GPa) = 6.67274 18.77419 12.72346
#
# Velocity S-wave (km/s) = 1.87021 3.13703 2.58250
# Velocity P-wave (km/s) = 4.95916 6.10547 5.56193
#
# Compressibility (1/GPa) = 0.02630120
#
# Stress axis : x y z
#
# Youngs Moduli (GPa) = 90.99033 54.22582 96.04554
#
# Poissons Ratio (x) = 0.03974 0.39478
# Poissons Ratio (y) = 0.06668 0.18516
# Poissons Ratio (z) = 0.37400 0.10454
#
# Static dielectric constant tensor:
#      x y z
#    x 1.654110 0.000000 0.000000 
#    y 0.000000 1.706040 0.000000 
#    z 0.000000 0.000000 1.662860 
# 
# From -- ./inp_files/8615.got.cif
#   From: 2010.05.17/outbox.cif.g08.bks.cpg/sg51_5_cif.got.tgz:8615.got - 2010.06.03 11:52:47.
