data_PCOD9402545
_publ_section_title
;
Structure prediction by ZEFSAII (Michael W. Deem and Ramdas Pophale) SiO2 
 PCOD9402545
Probable space group: P M M A
;
_chemical_formula_sum "Si O2"
_cell_formula_units_Z 64
_cell_length_a 13.974191
_cell_length_b 14.633489
_cell_length_c 19.244836
_cell_angle_alpha 90.000000
_cell_angle_beta 90.000000
_cell_angle_gamma 90.000000
_cell_volume 3935.399036
_symmetry_space_group_name_H-M "P M M A"
_symmetry_group_IT_number 51
_symmetry_cell_setting 'orthorhombic'
loop_
_space_group_symop_operation_xyz
x,y,z
1/2-x,-y,z
1/2+x,-y,-z
-x,y,-z
-x,-y,-z
1/2+x,y,-z
1/2-x,y,z
x,-y,z
loop_
_atom_site_type_symbol
_atom_site_label
_atom_site_fract_x
_atom_site_fract_y
_atom_site_fract_z
Si Si1 0.365010 0.105302 0.957817
Si Si2 0.546790 0.110001 0.185660
Si Si3 0.952516 0.209708 0.325456
Si Si4 0.634637 0.395011 0.363804
Si Si5 0.358254 0.110834 0.110348
Si Si6 0.365717 0.599689 0.473752
Si Si7 0.864132 0.788346 0.598058
Si Si8 0.865160 0.895126 0.456723
O O1 0.250000 0.104284 0.958405
O O2 0.399441 0.142975 0.884242
O O3 0.399669 0.000000 0.956892
O O4 0.391956 0.143905 0.033630
O O5 0.578566 0.158545 0.255792
O O6 0.435923 0.131146 0.168458
O O7 0.558849 0.000000 0.192837
O O8 0.920787 0.315346 0.324162
O O9 0.904956 0.165608 0.394174
O O10 0.065738 0.194234 0.338092
O O11 0.750000 0.380345 0.359202
O O12 0.615851 0.500000 0.342416
O O13 0.607841 0.387590 0.445670
O O14 0.250000 0.142273 0.123973
O O15 0.354820 0.000000 0.104917
O O16 0.250000 0.597175 0.473594
O O17 0.400084 0.500000 0.449622
O O18 0.390583 0.686722 0.428481
O O19 0.750000 0.794208 0.611689
O O20 0.887358 0.854093 0.532700
O O21 0.750000 0.892947 0.451634
O O22 0.897356 0.000000 0.450706
#
# Coordination Sequence:
#
# PCOD9402545 Si02
#       8
#     8   8   8   8   8   8   8   8
#     4   8  14  26  45  67  89 116 150 185 223 266
#     4  10  20  30  41  64  98 128 153 185 222 262
#     4  12  22  31  47  69  92 122 156 188 229 283
#     4   9  18  33  52  72  92 113 143 189 244 295
#     4   8  14  27  47  66  87 121 159 189 220 260
#     4   8  14  28  50  70  85 102 134 188 245 286
#     4  10  21  35  47  63  88 118 156 200 236 270
#     4  10  21  36  50  62  82 117 160 202 237 268
#
# _framework density 16.262646
#
# number of rings (size 3 to 8) (size 9 to 14) (size 15 to 20)
#    0.000    2.625    1.250    3.000    0.000    5.000 
#    0.000    2.500    0.000    0.000    0.000    0.000 
#    0.000    2.000    0.000    2.750    0.000    0.875 
#
# Total GULP energy -356699.511744 kJ/mol
# GULP energy per Si atom -5573.429871 kJ/mol
# Density = 1.622563 g / cm^3
# Si number density = 16.262646 Si / 1000 Ang^3
#
#
#
# Elastic Constant Matrix: (Units=GPa)
#
#
# Indices 1 2 3 4 5 6 
#
# 1 40.6288 7.0688 8.8974 0.0000 0.0000 0.0000
# 2 7.0688 56.8459 16.6503 0.0000 0.0000 0.0000
# 3 8.8974 16.6503 52.2467 0.0000 0.0000 0.0000
# 4 0.0000 0.0000 0.0000 4.5951 0.0000 0.0000
# 5 0.0000 0.0000 0.0000 0.0000 13.9576 0.0000
# 6 0.0000 0.0000 0.0000 0.0000 0.0000 12.2270
#
#
#
# Elastic Compliance Matrix: (Units=1/GPa)
#
#
# Indices 1 2 3 4 5 6 
#
# 1 0.025796 -0.002119 -0.003718 0.000000 0.000000 0.000000
# 2 -0.002119 0.019577 -0.005878 0.000000 0.000000 0.000000
# 3 -0.003718 -0.005878 0.021646 0.000000 0.000000 0.000000
# 4 0.000000 0.000000 0.000000 0.217622 0.000000 0.000000
# 5 0.000000 0.000000 0.000000 0.000000 0.071645 0.000000
# 6 0.000000 0.000000 0.000000 0.000000 0.000000 0.081787
#
#
# Mechanical properties :
#
#
# Convention : Reuss Voigt Hill
#
# Bulk Modulus (GPa) = 22.94113 23.88381 23.41247
# Shear Modulus (GPa) = 10.50351 13.96294 12.23322
#
# Velocity S-wave (km/s) = 2.54415 2.93335 2.74565
# Velocity P-wave (km/s) = 4.77153 5.11770 4.94765
#
# Compressibility (1/GPa) = 0.04358984
#
# Stress axis : x y z
#
# Youngs Moduli (GPa) = 38.76593 51.08151 46.19724
#
# Poissons Ratio (x) = 0.10823 0.17175
# Poissons Ratio (y) = 0.08214 0.27155
# Poissons Ratio (z) = 0.14412 0.30026
#
# Static dielectric constant tensor:
#      x y z
#    x 1.617640 0.000000 0.000000 
#    y 0.000000 1.544290 0.000000 
#    z 0.000000 0.000000 1.530610 
# 
# From -- ./inp_files/29960.got.cif
#   From: 2010.05.17/outbox.cif.g08.bks.cpg/sg51_15_cif.got.tgz:29960.got - 2010.06.03 11:52:47.
