data_PCOD9402537
_publ_section_title
;
Structure prediction by ZEFSAII (Michael W. Deem and Ramdas Pophale) SiO2 
 PCOD9402537
Probable space group: P M M A
;
_chemical_formula_sum "Si O2"
_cell_formula_units_Z 56
_cell_length_a 14.592728
_cell_length_b 22.126388
_cell_length_c 9.650924
_cell_angle_alpha 90.000000
_cell_angle_beta 90.000000
_cell_angle_gamma 90.000000
_cell_volume 3116.132436
_symmetry_space_group_name_H-M "P M M A"
_symmetry_group_IT_number 51
_symmetry_cell_setting 'orthorhombic'
loop_
_space_group_symop_operation_xyz
x,y,z
1/2-x,-y,z
1/2+x,-y,-z
-x,y,-z
-x,-y,-z
1/2+x,y,-z
1/2-x,y,z
x,-y,z
loop_
_atom_site_type_symbol
_atom_site_label
_atom_site_fract_x
_atom_site_fract_y
_atom_site_fract_z
Si Si1 0.858102 0.165250 0.666874
Si Si2 0.640586 0.823900 0.335292
Si Si3 0.007505 0.751590 0.164701
Si Si4 0.917859 0.617403 0.841306
Si Si5 0.250000 0.426533 0.336102
Si Si6 0.750000 0.573041 0.350571
Si Si7 0.892540 0.431334 0.127598
Si Si8 0.994502 0.932055 0.333321
O O1 0.750000 0.161068 0.689553
O O2 0.872597 0.181459 0.503014
O O3 0.908010 0.213759 0.763333
O O4 0.912041 0.103354 0.701699
O O5 0.750000 0.823148 0.308521
O O6 0.582768 0.774134 0.248730
O O7 0.590455 0.887695 0.298502
O O8 0.032634 0.681201 0.179120
O O9 0.000000 0.764980 0.000000
O O10 0.839523 0.600222 0.736013
O O11 0.000339 0.569583 0.839076
O O12 0.877119 0.611247 0.996004
O O13 0.250000 0.500000 0.325936
O O14 0.250000 0.405399 0.494357
O O15 0.750000 0.500000 0.359482
O O16 0.662662 0.590414 0.260311
O O17 0.863540 0.500000 0.093303
O O18 0.000000 0.936345 0.500000
O O19 0.986882 0.000000 0.277397
#
# Coordination Sequence:
#
# PCOD9402537 Si02
#       8
#     8   8   8   8   4   4   8   8
#     4   9  19  36  58  80 115 158 187 230 286 333
#     4   9  19  38  58  81 115 156 189 227 288 333
#     4  11  22  39  54  81 111 145 193 242 273 325
#     4  11  22  38  58  86 106 143 188 233 273 330
#     4  11  23  41  61  87 117 143 174 223 288 351
#     4   9  21  39  59  85 115 143 171 211 276 349
#     4  10  19  39  62  83 110 142 179 225 282 337
#     4   8  14  27  53  89 121 146 185 234 278 331
#
# _framework density 17.970994999999998
#
# number of rings (size 3 to 8) (size 9 to 14) (size 15 to 20)
#    0.000    2.286    1.429    3.429    1.000    2.286 
#    6.429    5.000    0.000    6.857    0.000    8.000 
#    0.000    0.000    0.000    0.000    0.000    0.000 
#
# Total GULP energy -312027.672318 kJ/mol
# GULP energy per Si atom -5571.922720 kJ/mol
# Density = 1.793009 g / cm^3
# Si number density = 17.970995 Si / 1000 Ang^3
#
#
#
# Elastic Constant Matrix: (Units=GPa)
#
#
# Indices 1 2 3 4 5 6 
#
# 1 141.2149 50.6786 75.0129 0.0000 0.0000 0.0000
# 2 50.6786 121.4991 43.7454 0.0000 0.0000 0.0000
# 3 75.0129 43.7454 112.4228 0.0000 0.0000 0.0000
# 4 0.0000 0.0000 0.0000 22.1897 0.0000 0.0000
# 5 0.0000 0.0000 0.0000 0.0000 35.7484 0.0000
# 6 0.0000 0.0000 0.0000 0.0000 0.0000 11.3972
#
#
#
# Elastic Compliance Matrix: (Units=1/GPa)
#
#
# Indices 1 2 3 4 5 6 
#
# 1 0.011528 -0.002371 -0.006769 0.000000 0.000000 0.000000
# 2 -0.002371 0.010059 -0.002332 0.000000 0.000000 0.000000
# 3 -0.006769 -0.002332 0.014319 0.000000 0.000000 0.000000
# 4 0.000000 0.000000 0.000000 0.045066 0.000000 0.000000
# 5 0.000000 0.000000 0.000000 0.000000 0.027973 0.000000
# 6 0.000000 0.000000 0.000000 0.000000 0.000000 0.087741
#
#
# Mechanical properties :
#
#
# Convention : Reuss Voigt Hill
#
# Bulk Modulus (GPa) = 77.15235 79.33451 78.24343
# Shear Modulus (GPa) = 22.32612 27.58039 24.95325
#
# Velocity S-wave (km/s) = 3.52851 3.92180 3.73034
# Velocity P-wave (km/s) = 7.72174 8.04668 7.88588
#
# Compressibility (1/GPa) = 0.01296137
#
# Stress axis : x y z
#
# Youngs Moduli (GPa) = 86.74306 99.41132 69.83609
#
# Poissons Ratio (x) = 0.23573 0.47275
# Poissons Ratio (y) = 0.20569 0.16286
# Poissons Ratio (z) = 0.58720 0.23183
#
# Static dielectric constant tensor:
#      x y z
#    x 1.615720 0.000000 0.000000 
#    y 0.000000 1.637770 0.000000 
#    z 0.000000 0.000000 1.614540 
# 
# From -- ./inp_files/8607.got.cif
#   From: 2010.05.17/outbox.cif.g08.bks.cpg/sg51_5_cif.got.tgz:8607.got - 2010.06.03 11:52:47.
