data_PCOD9402715
_publ_section_title
;
Structure prediction by ZEFSAII (Michael W. Deem and Ramdas Pophale) SiO2 
 PCOD9402715
Probable space group: P M M A
;
_chemical_formula_sum "Si O2"
_cell_formula_units_Z 40
_cell_length_a 9.442588
_cell_length_b 7.392797
_cell_length_c 27.206517
_cell_angle_alpha 90.000000
_cell_angle_beta 90.000000
_cell_angle_gamma 90.000000
_cell_volume 1899.209039
_symmetry_space_group_name_H-M "P M M A"
_symmetry_group_IT_number 51
_symmetry_cell_setting 'orthorhombic'
loop_
_space_group_symop_operation_xyz
x,y,z
1/2-x,-y,z
1/2+x,-y,-z
-x,y,-z
-x,-y,-z
1/2+x,y,-z
1/2-x,y,z
x,-y,z
loop_
_atom_site_type_symbol
_atom_site_label
_atom_site_fract_x
_atom_site_fract_y
_atom_site_fract_z
Si Si1 0.088170 0.717692 0.238876
Si Si2 0.409954 0.214925 0.858125
Si Si3 0.585837 0.721286 0.547566
Si Si4 0.577529 0.289154 0.654239
Si Si5 0.086993 0.221033 0.048223
O O1 0.250000 0.780902 0.229749
O O2 0.095219 0.500000 0.242904
O O3 0.037423 0.786629 0.292420
O O4 0.986884 0.759286 0.193794
O O5 0.250000 0.287593 0.858477
O O6 0.506836 0.283730 0.902695
O O7 0.399618 0.000000 0.865943
O O8 0.500000 0.780593 0.500000
O O9 0.750000 0.772549 0.542696
O O10 0.581685 0.500000 0.548699
O O11 0.532200 0.784894 0.601201
O O12 0.750000 0.283618 0.653786
O O13 0.534971 0.500000 0.654249
O O14 0.250000 0.279708 0.046826
O O15 0.088879 0.000000 0.048567
O O16 0.000000 0.275747 0.000000
#
# Coordination Sequence:
#
# PCOD9402715 Si02
#       5
#     8   8   8   8   8
#     4   9  17  30  48  67  87 116 154 190 223 263
#     4  10  20  32  46  67  95 123 150 182 220 262
#     4   8  12  18  29  46  70 100 132 166 205 249
#     4   7  11  21  36  53  75 105 139 173 211 256
#     4   9  16  27  45  68  92 117 146 181 220 261
#
# _framework density 21.061396999999999
#
# number of rings (size 3 to 8) (size 9 to 14) (size 15 to 20)
#    0.000    3.400    0.000    3.600    0.000    4.000 
#    0.000    1.000    0.000    4.200    0.000    0.000 
#    0.000    0.800    0.000    1.800    0.000    5.200 
#
# Total GULP energy -223010.078968 kJ/mol
# GULP energy per Si atom -5575.251974 kJ/mol
# Density = 2.101346 g / cm^3
# Si number density = 21.061397 Si / 1000 Ang^3
#
#
#
# Elastic Constant Matrix: (Units=GPa)
#
#
# Indices 1 2 3 4 5 6 
#
# 1 138.5236 5.7497 125.9459 0.0000 0.0000 0.0000
# 2 5.7497 71.1912 4.3091 0.0000 0.0000 0.0000
# 3 125.9459 4.3091 260.6552 0.0000 0.0000 0.0000
# 4 0.0000 0.0000 0.0000 13.1500 0.0000 0.0000
# 5 0.0000 0.0000 0.0000 0.0000 36.0431 0.0000
# 6 0.0000 0.0000 0.0000 0.0000 0.0000 1.2162
#
#
#
# Elastic Compliance Matrix: (Units=1/GPa)
#
#
# Indices 1 2 3 4 5 6 
#
# 1 0.012907 -0.000666 -0.006225 0.000000 0.000000 0.000000
# 2 -0.000666 0.014095 0.000089 0.000000 0.000000 0.000000
# 3 -0.006225 0.000089 0.006843 0.000000 0.000000 0.000000
# 4 0.000000 0.000000 0.000000 0.076046 0.000000 0.000000
# 5 0.000000 0.000000 0.000000 0.000000 0.027745 0.000000
# 6 0.000000 0.000000 0.000000 0.000000 0.000000 0.822258
#
#
# Mechanical properties :
#
#
# Convention : Reuss Voigt Hill
#
# Bulk Modulus (GPa) = 49.40687 82.48659 65.94673
# Shear Modulus (GPa) = 5.10077 32.37288 18.73682
#
# Velocity S-wave (km/s) = 1.55792 3.92480 2.98590
# Velocity P-wave (km/s) = 5.17161 7.73231 6.57777
#
# Compressibility (1/GPa) = 0.02024010
#
# Stress axis : x y z
#
# Youngs Moduli (GPa) = 77.47873 70.94677 146.13313
#
# Poissons Ratio (x) = 0.04722 0.90974
# Poissons Ratio (y) = 0.05157 -0.01295
# Poissons Ratio (z) = 0.48234 -0.00629
#
# Static dielectric constant tensor:
#      x y z
#    x 1.708910 0.000000 0.000000 
#    y 0.000000 1.876840 0.000000 
#    z 0.000000 0.000000 1.772260 
# 
# From -- ./inp_files/34321.got.cif
#   From: 2010.05.17/outbox.cif.g08.bks.cpg/sg51_18_cif.got.tgz:34321.got - 2010.06.03 11:52:47.
