data_PCOD9402783
_publ_section_title
;
Structure prediction by ZEFSAII (Michael W. Deem and Ramdas Pophale) SiO2 
 PCOD9402783
Probable space group: P M M A
;
_chemical_formula_sum "Si O2"
_cell_formula_units_Z 48
_cell_length_a 9.618113
_cell_length_b 7.339523
_cell_length_c 32.130516
_cell_angle_alpha 90.000000
_cell_angle_beta 90.000000
_cell_angle_gamma 90.000000
_cell_volume 2268.169003
_symmetry_space_group_name_H-M "P M M A"
_symmetry_group_IT_number 51
_symmetry_cell_setting 'orthorhombic'
loop_
_space_group_symop_operation_xyz
x,y,z
1/2-x,-y,z
1/2+x,-y,-z
-x,y,-z
-x,-y,-z
1/2+x,y,-z
1/2-x,y,z
x,-y,z
loop_
_atom_site_type_symbol
_atom_site_label
_atom_site_fract_x
_atom_site_fract_y
_atom_site_fract_z
Si Si1 0.589392 0.721737 0.790779
Si Si2 0.088721 0.721914 0.960812
Si Si3 0.088820 0.278132 0.868813
Si Si4 0.907355 0.785358 0.382331
Si Si5 0.589449 0.777581 0.540245
Si Si6 0.091000 0.280927 0.302291
O O1 0.750000 0.772298 0.796718
O O2 0.583351 0.500000 0.790900
O O3 0.497656 0.785778 0.829243
O O4 0.548545 0.780281 0.744136
O O5 0.250000 0.774657 0.964855
O O6 0.085432 0.500000 0.961181
O O7 0.038411 0.778286 0.914797
O O8 0.000000 0.785152 0.000000
O O9 0.250000 0.225820 0.865077
O O10 0.084742 0.500000 0.868469
O O11 0.750000 0.711010 0.382323
O O12 0.008250 0.713922 0.418566
O O13 0.984044 0.767747 0.338242
O O14 0.894945 0.000000 0.390882
O O15 0.500000 0.724007 0.500000
O O16 0.750000 0.717946 0.538817
O O17 0.593100 0.000000 0.540628
O O18 0.250000 0.217955 0.310778
O O19 0.096655 0.500000 0.301139
#
# Coordination Sequence:
#
# PCOD9402783 Si02
#       6
#     8   8   8   8   8   8
#     4   8  14  24  37  53  72  95 127 167 207 247
#     4   8  13  19  25  35  53  78 110 149 192 237
#     4   8  13  20  29  42  61  85 116 156 199 242
#     4  10  20  32  47  70  97 122 151 185 219 260
#     4   9  16  27  45  68  93 120 149 182 219 257
#     4   9  18  32  48  66  89 117 150 187 225 266
#
# _framework density 21.162444000000001
#
# number of rings (size 3 to 8) (size 9 to 14) (size 15 to 20)
#    0.000    3.333    0.000    3.000    0.000    4.667 
#    0.000    5.000    0.000    0.500    0.000    0.000 
#    0.000    0.000    0.000    0.000    0.000    0.833 
#
# Total GULP energy -267820.712503 kJ/mol
# GULP energy per Si atom -5579.598177 kJ/mol
# Density = 2.111428 g / cm^3
# Si number density = 21.162444 Si / 1000 Ang^3
#
#
#
# Elastic Constant Matrix: (Units=GPa)
#
#
# Indices 1 2 3 4 5 6 
#
# 1 159.0090 5.3480 146.1252 0.0000 0.0000 0.0000
# 2 5.3480 79.1812 1.0794 0.0000 0.0000 0.0000
# 3 146.1252 1.0794 235.9715 0.0000 0.0000 0.0000
# 4 0.0000 0.0000 0.0000 7.1246 0.0000 0.0000
# 5 0.0000 0.0000 0.0000 0.0000 43.4376 0.0000
# 6 0.0000 0.0000 0.0000 0.0000 0.0000 -2.3606
#
#
#
# Elastic Compliance Matrix: (Units=1/GPa)
#
#
# Indices 1 2 3 4 5 6 
#
# 1 0.014653 -0.000866 -0.009070 0.000000 0.000000 0.000000
# 2 -0.000866 0.012681 0.000478 0.000000 0.000000 0.000000
# 3 -0.009070 0.000478 0.009852 0.000000 0.000000 0.000000
# 4 0.000000 0.000000 0.000000 0.140358 0.000000 0.000000
# 5 0.000000 0.000000 0.000000 0.000000 0.023022 0.000000
# 6 0.000000 0.000000 0.000000 0.000000 0.000000 -0.423625
#
#
# Mechanical properties :
#
#
# Convention : Reuss Voigt Hill
#
# Bulk Modulus (GPa) = 54.73129 86.58521 70.65825
# Shear Modulus (GPa) = -25.24578 31.08094 2.91758
#
# Velocity S-wave (km/s) = -3.45766 3.83650 1.17544
# Velocity P-wave (km/s) = 3.15881 7.78642 5.94165
#
# Compressibility (1/GPa) = 0.01827109
#
# Stress axis : x y z
#
# Youngs Moduli (GPa) = 68.24453 78.85673 101.50008
#
# Poissons Ratio (x) = 0.06829 0.92061
# Poissons Ratio (y) = 0.05910 -0.04855
# Poissons Ratio (z) = 0.61898 -0.03772
#
# Static dielectric constant tensor:
#      x y z
#    x 1.712540 0.000000 0.000000 
#    y 0.000000 1.894200 0.000000 
#    z 0.000000 0.000000 1.743240 
# 
# From -- ./inp_files/37313.got.cif
#   From: 2010.05.17/outbox.cif.g08.bks.cpg/sg51_19_cif.got.tgz:37313.got - 2010.06.03 11:52:47.
