data_PCOD9402120
_publ_section_title
;
Structure prediction by ZEFSAII (Michael W. Deem and Ramdas Pophale) SiO2 
 PCOD9402120
Probable space group: P M M A
;
_chemical_formula_sum "Si O2"
_cell_formula_units_Z 48
_cell_length_a 31.721486
_cell_length_b 8.390724
_cell_length_c 9.655626
_cell_angle_alpha 90.000000
_cell_angle_beta 90.000000
_cell_angle_gamma 90.000000
_cell_volume 2570.001608
_symmetry_space_group_name_H-M "P M M A"
_symmetry_group_IT_number 51
_symmetry_cell_setting 'orthorhombic'
loop_
_space_group_symop_operation_xyz
x,y,z
1/2-x,-y,z
1/2+x,-y,-z
-x,y,-z
-x,-y,-z
1/2+x,y,-z
1/2-x,y,z
x,-y,z
loop_
_atom_site_type_symbol
_atom_site_label
_atom_site_fract_x
_atom_site_fract_y
_atom_site_fract_z
Si Si1 0.452647 0.694362 0.031813
Si Si2 0.620582 0.309897 0.183560
Si Si3 0.335037 0.818164 0.056196
Si Si4 0.250000 0.316523 0.498203
Si Si5 0.750000 0.313469 0.834759
Si Si6 0.604711 0.317753 0.731427
Si Si7 0.654370 0.811370 0.465473
O O1 0.452160 0.500000 0.037155
O O2 0.436108 0.747766 0.184578
O O3 0.500000 0.746825 0.000000
O O4 0.421134 0.739469 0.905029
O O5 0.624222 0.500000 0.171744
O O6 0.626391 0.263071 0.342274
O O7 0.658148 0.220817 0.103348
O O8 0.289148 0.781956 0.107416
O O9 0.362949 0.692257 0.140642
O O10 0.347807 0.000000 0.086761
O O11 0.250000 0.500000 0.544859
O O12 0.250000 0.310715 0.331106
O O13 0.203648 0.245958 0.537880
O O14 0.750000 0.500000 0.877320
O O15 0.596958 0.500000 0.688700
O O16 0.629490 0.232480 0.607389
O O17 0.655176 0.000000 0.451585
#
# Coordination Sequence:
#
# PCOD9402120 Si02
#       7
#     8   8   8   4   4   8   8
#     4   8  16  34  62  91 113 140 187 242 287 336
#     4  10  21  38  59  82 114 150 187 232 287 342
#     4  11  21  34  54  80 110 143 185 232 280 330
#     4  11  23  38  59  82 112 151 197 239 280 332
#     4  11  21  34  55  80 108 143 191 239 276 326
#     4  10  19  34  57  83 112 149 190 230 280 338
#     4  12  24  38  57  83 118 155 195 237 286 339
#
# _framework density 18.677029999999998
#
# number of rings (size 3 to 8) (size 9 to 14) (size 15 to 20)
#    0.000    1.667    1.667    5.500    0.000    1.333 
#    0.000    4.167    0.000   23.000    0.000    0.000 
#    0.000    0.000    0.000    0.000    0.000    0.000 
#
# Total GULP energy -267289.826292 kJ/mol
# GULP energy per Si atom -5568.538048 kJ/mol
# Density = 1.863452 g / cm^3
# Si number density = 18.677030 Si / 1000 Ang^3
#
#
#
# Elastic Constant Matrix: (Units=GPa)
#
#
# Indices 1 2 3 4 5 6 
#
# 1 96.2358 24.3325 33.2387 0.0000 0.0000 0.0000
# 2 24.3325 81.2884 16.9604 0.0000 0.0000 0.0000
# 3 33.2387 16.9604 89.1651 0.0000 0.0000 0.0000
# 4 0.0000 0.0000 0.0000 10.3210 0.0000 0.0000
# 5 0.0000 0.0000 0.0000 0.0000 15.0269 0.0000
# 6 0.0000 0.0000 0.0000 0.0000 0.0000 16.0679
#
#
#
# Elastic Compliance Matrix: (Units=1/GPa)
#
#
# Indices 1 2 3 4 5 6 
#
# 1 0.012549 -0.002895 -0.004127 0.000000 0.000000 0.000000
# 2 -0.002895 0.013478 -0.001484 0.000000 0.000000 0.000000
# 3 -0.004127 -0.001484 0.013036 0.000000 0.000000 0.000000
# 4 0.000000 0.000000 0.000000 0.096889 0.000000 0.000000
# 5 0.000000 0.000000 0.000000 0.000000 0.066547 0.000000
# 6 0.000000 0.000000 0.000000 0.000000 0.000000 0.062236
#
#
# Mechanical properties :
#
#
# Convention : Reuss Voigt Hill
#
# Bulk Modulus (GPa) = 45.35286 46.19470 45.77378
# Shear Modulus (GPa) = 17.29512 21.09369 19.19441
#
# Velocity S-wave (km/s) = 3.04634 3.36429 3.20926
# Velocity P-wave (km/s) = 6.05880 6.31493 6.18819
#
# Compressibility (1/GPa) = 0.02204933
#
# Stress axis : x y z
#
# Youngs Moduli (GPa) = 79.69001 74.19373 76.71048
#
# Poissons Ratio (x) = 0.21480 0.31660
# Poissons Ratio (y) = 0.23071 0.11388
# Poissons Ratio (z) = 0.32889 0.11014
#
# Static dielectric constant tensor:
#      x y z
#    x 1.763750 0.000000 0.000000 
#    y 0.000000 1.647280 0.000000 
#    z 0.000000 0.000000 1.640550 
# 
# From -- ./inp_files/12900.got.cif
#   From: 2010.05.17/outbox.cif.g08.bks.cpg/sg51_7_cif.got.tgz:12900.got - 2010.06.03 11:52:47.
