data_PCOD9402678
_publ_section_title
;
Structure prediction by ZEFSAII (Michael W. Deem and Ramdas Pophale) SiO2 
 PCOD9402678
Probable space group: P M M A
;
_chemical_formula_sum "Si O2"
_cell_formula_units_Z 52
_cell_length_a 9.102025
_cell_length_b 15.954234
_cell_length_c 21.036991
_cell_angle_alpha 90.000000
_cell_angle_beta 90.000000
_cell_angle_gamma 90.000000
_cell_volume 3054.904250
_symmetry_space_group_name_H-M "P M M A"
_symmetry_group_IT_number 51
_symmetry_cell_setting 'orthorhombic'
loop_
_space_group_symop_operation_xyz
x,y,z
1/2-x,-y,z
1/2+x,-y,-z
-x,y,-z
-x,-y,-z
1/2+x,y,-z
1/2-x,y,z
x,-y,z
loop_
_atom_site_type_symbol
_atom_site_label
_atom_site_fract_x
_atom_site_fract_y
_atom_site_fract_z
Si Si1 0.427424 0.771862 0.676326
Si Si2 0.921781 0.645398 0.837613
Si Si3 0.573221 0.903944 0.431851
Si Si4 0.576186 0.184386 0.181093
Si Si5 0.417914 0.100754 0.064289
Si Si6 0.924171 0.500000 0.933416
Si Si7 0.077028 0.594236 0.307688
O O1 0.250000 0.763980 0.677177
O O2 0.470786 0.834978 0.620088
O O3 0.470201 0.813819 0.744348
O O4 0.494873 0.678522 0.669173
O O5 0.750000 0.671922 0.843935
O O6 0.960689 0.580791 0.891998
O O7 0.933150 0.601389 0.768904
O O8 0.031100 0.722601 0.839955
O O9 0.500000 0.888205 0.500000
O O10 0.750000 0.900025 0.438178
O O11 0.535991 0.000000 0.412588
O O12 0.750000 0.169231 0.178542
O O13 0.496013 0.125906 0.130057
O O14 0.250000 0.131429 0.064191
O O15 0.415852 0.000000 0.061066
O O16 0.500000 0.130901 0.000000
O O17 0.750000 0.500000 0.941691
O O18 0.000000 0.500000 0.000000
O O19 0.250000 0.600290 0.324321
O O20 0.025548 0.500000 0.326642
#
# Coordination Sequence:
#
# PCOD9402678 Si02
#       7
#     8   8   8   8   8   4   8
#     4   9  19  33  50  78 110 138 172 213 259 309
#     4   9  17  32  49  65  91 126 163 202 248 299
#     4   9  18  34  55  78 107 143 178 211 253 307
#     4  10  20  33  51  76 103 131 165 204 253 306
#     4  10  21  37  55  73  94 125 166 210 257 308
#     4  10  20  32  46  64  88 122 161 202 249 298
#     4   9  16  29  51  74  97 130 171 213 258 305
#
# _framework density 17.021811
#
# number of rings (size 3 to 8) (size 9 to 14) (size 15 to 20)
#    0.000    2.615    0.769    0.923    0.000    4.308 
#    0.000    3.077    0.000    2.308    0.000    0.000 
#    0.000    0.000    0.000    0.000    0.000    0.000 
#
# Total GULP energy -289636.431314 kJ/mol
# GULP energy per Si atom -5569.931371 kJ/mol
# Density = 1.698307 g / cm^3
# Si number density = 17.021811 Si / 1000 Ang^3
#
#
#
# Elastic Constant Matrix: (Units=GPa)
#
#
# Indices 1 2 3 4 5 6 
#
# 1 40.7635 35.7631 39.3456 0.0000 0.0000 0.0000
# 2 35.7631 88.9606 73.6189 0.0000 0.0000 0.0000
# 3 39.3456 73.6189 106.7239 0.0000 0.0000 0.0000
# 4 0.0000 0.0000 0.0000 -540.3773 0.0000 0.0000
# 5 0.0000 0.0000 0.0000 0.0000 25.9247 0.0000
# 6 0.0000 0.0000 0.0000 0.0000 0.0000 14.2307
#
#
#
# Elastic Compliance Matrix: (Units=1/GPa)
#
#
# Indices 1 2 3 4 5 6 
#
# 1 0.041134 -0.009290 -0.008757 0.000000 0.000000 0.000000
# 2 -0.009290 0.028291 -0.016091 0.000000 0.000000 0.000000
# 3 -0.008757 -0.016091 0.023698 0.000000 0.000000 0.000000
# 4 0.000000 0.000000 0.000000 -0.001851 0.000000 0.000000
# 5 0.000000 0.000000 0.000000 0.000000 0.038573 0.000000
# 6 0.000000 0.000000 0.000000 0.000000 0.000000 0.070270
#
#
# Mechanical properties :
#
#
# Convention : Reuss Voigt Hill
#
# Bulk Modulus (GPa) = 40.24338 59.32258 49.78298
# Shear Modulus (GPa) = 18.07186 -94.19634 -38.06224
#
# Velocity S-wave (km/s) = 3.26189 -7.44706 -4.73386
# Velocity P-wave (km/s) = 6.15468 6.24647 0.75441
#
# Compressibility (1/GPa) = 0.02484881
#
# Stress axis : x y z
#
# Youngs Moduli (GPa) = 24.31082 35.34649 42.19816
#
# Poissons Ratio (x) = 0.32836 0.36951
# Poissons Ratio (y) = 0.22584 0.67900
# Poissons Ratio (z) = 0.21288 0.56875
#
# Static dielectric constant tensor:
#      x y z
#    x 1.584350 0.000000 0.000000 
#    y 0.000000 1.553110 0.000000 
#    z 0.000000 0.000000 1.561270 
# 
# From -- ./inp_files/31702.got.cif
#   From: 2010.05.17/outbox.cif.g08.bks.cpg/sg51_16_cif.got.tgz:31702.got - 2010.06.03 11:52:47.
