data_PCOD9402076
_publ_section_title
;
Structure prediction by ZEFSAII (Michael W. Deem and Ramdas Pophale) SiO2 
 PCOD9402076
Probable space group: P M M A
;
_chemical_formula_sum "Si O2"
_cell_formula_units_Z 48
_cell_length_a 14.427048
_cell_length_b 15.977846
_cell_length_c 9.051061
_cell_angle_alpha 90.000000
_cell_angle_beta 90.000000
_cell_angle_gamma 90.000000
_cell_volume 2086.388593
_symmetry_space_group_name_H-M "P M M A"
_symmetry_group_IT_number 51
_symmetry_cell_setting 'orthorhombic'
loop_
_space_group_symop_operation_xyz
x,y,z
1/2-x,-y,z
1/2+x,-y,-z
-x,y,-z
-x,-y,-z
1/2+x,y,-z
1/2-x,y,z
x,-y,z
loop_
_atom_site_type_symbol
_atom_site_label
_atom_site_fract_x
_atom_site_fract_y
_atom_site_fract_z
Si Si1 0.636076 0.500000 0.614395
Si Si2 0.394701 0.000000 0.557340
Si Si3 0.099958 0.169276 0.423895
Si Si4 0.143960 0.659676 0.566029
Si Si5 0.638130 0.000000 0.098651
Si Si6 0.136755 0.326580 0.895772
Si Si7 0.362986 0.500000 0.047973
Si Si8 0.862829 0.835319 0.915750
O O1 0.750000 0.500000 0.621320
O O2 0.605374 0.417350 0.527246
O O3 0.604109 0.500000 0.783272
O O4 0.500000 0.000000 0.500000
O O5 0.354063 0.913910 0.493108
O O6 0.395468 0.000000 0.733506
O O7 0.145384 0.256511 0.469897
O O8 0.096585 0.161194 0.248243
O O9 0.000000 0.174540 0.500000
O O10 0.250000 0.634441 0.597545
O O11 0.101795 0.677981 0.726986
O O12 0.750000 0.000000 0.107606
O O13 0.611239 0.916914 0.009983
O O14 0.250000 0.322812 0.894630
O O15 0.109444 0.415247 0.965203
O O16 0.109179 0.247950 0.995824
O O17 0.250000 0.500000 0.049627
O O18 0.750000 0.834936 0.899926
#
# Coordination Sequence:
#
# PCOD9402076 Si02
#       8
#     4   4   8   8   4   8   4   8
#     4   9  17  29  52  83 112 145 184 230 292 353
#     4  10  23  42  58  81 117 155 194 232 287 356
#     4  11  23  39  56  81 114 153 197 237 287 351
#     4  10  19  34  56  83 113 147 189 240 294 351
#     4  10  21  38  64  93 117 145 192 250 300 342
#     4   9  17  29  49  77 108 139 176 223 278 335
#     4   9  15  25  43  73 108 139 175 222 273 335
#     4  10  20  36  58  85 113 144 185 240 299 349
#
# _framework density 23.006262
#
# number of rings (size 3 to 8) (size 9 to 14) (size 15 to 20)
#    0.000    2.167    0.000    3.500    0.000    7.333 
#    0.000   11.250    0.000    0.000    0.000    3.500 
#    0.000    0.000    0.000    0.000    0.000    0.000 
#
# Total GULP energy -268528.064722 kJ/mol
# GULP energy per Si atom -5594.334682 kJ/mol
# Density = 2.295390 g / cm^3
# Si number density = 23.006262 Si / 1000 Ang^3
#
#
#
# Elastic Constant Matrix: (Units=GPa)
#
#
# Indices 1 2 3 4 5 6 
#
# 1 68.2709 0.3849 2.3119 0.0000 0.0000 0.0000
# 2 0.3849 227.5409 124.8556 0.0000 0.0000 0.0000
# 3 2.3119 124.8556 247.2673 0.0000 0.0000 0.0000
# 4 0.0000 0.0000 0.0000 44.1242 0.0000 0.0000
# 5 0.0000 0.0000 0.0000 0.0000 20.0164 0.0000
# 6 0.0000 0.0000 0.0000 0.0000 0.0000 -8.1925
#
#
#
# Elastic Compliance Matrix: (Units=1/GPa)
#
#
# Indices 1 2 3 4 5 6 
#
# 1 0.014653 0.000070 -0.000172 0.000000 0.000000 0.000000
# 2 0.000070 0.006080 -0.003070 0.000000 0.000000 0.000000
# 3 -0.000172 -0.003070 0.005596 0.000000 0.000000 0.000000
# 4 0.000000 0.000000 0.000000 0.022663 0.000000 0.000000
# 5 0.000000 0.000000 0.000000 0.000000 0.049959 0.000000
# 6 0.000000 0.000000 0.000000 0.000000 0.000000 -0.122062
#
#
# Mechanical properties :
#
#
# Convention : Reuss Voigt Hill
#
# Bulk Modulus (GPa) = 50.04305 88.68710 69.36507
# Shear Modulus (GPa) = -494.83723 38.89139 -227.97292
#
# Velocity S-wave (km/s) = -14.68179 4.11599 -9.96528
# Velocity P-wave (km/s) = 16.29747 7.82441 10.10906
#
# Compressibility (1/GPa) = 0.01998280
#
# Stress axis : x y z
#
# Youngs Moduli (GPa) = 68.24557 164.48706 178.69219
#
# Poissons Ratio (x) = -0.01147 0.03077
# Poissons Ratio (y) = -0.00476 0.54867
# Poissons Ratio (z) = 0.01175 0.50505
#
# Static dielectric constant tensor:
#      x y z
#    x 2.035290 0.000000 0.000000 
#    y 0.000000 1.828690 0.000000 
#    z 0.000000 0.000000 1.787660 
# 
# From -- ./inp_files/9751.got.cif
#   From: 2010.05.17/outbox.cif.g08.bks.cpg/sg51_5_cif.got.tgz:9751.got - 2010.06.03 11:52:47.
