data_PCOD9402751
_publ_section_title
;
Structure prediction by ZEFSAII (Michael W. Deem and Ramdas Pophale) SiO2 
 PCOD9402751
Probable space group: P M M A
;
_chemical_formula_sum "Si O2"
_cell_formula_units_Z 64
_cell_length_a 8.698979
_cell_length_b 19.642771
_cell_length_c 24.413573
_cell_angle_alpha 90.000000
_cell_angle_beta 90.000000
_cell_angle_gamma 90.000000
_cell_volume 4171.597326
_symmetry_space_group_name_H-M "P M M A"
_symmetry_group_IT_number 51
_symmetry_cell_setting 'orthorhombic'
loop_
_space_group_symop_operation_xyz
x,y,z
1/2-x,-y,z
1/2+x,-y,-z
-x,y,-z
-x,-y,-z
1/2+x,y,-z
1/2-x,y,z
x,-y,z
loop_
_atom_site_type_symbol
_atom_site_label
_atom_site_fract_x
_atom_site_fract_y
_atom_site_fract_z
Si Si1 0.564461 0.079044 0.559153
Si Si2 0.434433 0.282569 0.725504
Si Si3 0.935546 0.077873 0.776062
Si Si4 0.434020 0.422874 0.109469
Si Si5 0.065201 0.798151 0.836445
Si Si6 0.064629 0.576354 0.768008
Si Si7 0.435235 0.841877 0.333423
Si Si8 0.434254 0.712040 0.941321
O O1 0.500000 0.099227 0.500000
O O2 0.750000 0.081215 0.557298
O O3 0.511858 0.126048 0.609353
O O4 0.520145 0.000000 0.569189
O O5 0.250000 0.279239 0.720135
O O6 0.475847 0.249884 0.784685
O O7 0.481566 0.361443 0.728914
O O8 0.507210 0.233689 0.680258
O O9 0.750000 0.078499 0.776875
O O10 0.984619 0.110255 0.717641
O O11 0.996240 0.128384 0.822728
O O12 0.987348 0.000000 0.781291
O O13 0.250000 0.417020 0.107282
O O14 0.477048 0.500000 0.092421
O O15 0.490018 0.414715 0.172218
O O16 0.509017 0.363597 0.073994
O O17 0.250000 0.803062 0.837458
O O18 0.014356 0.762367 0.892417
O O19 0.250000 0.580676 0.775181
O O20 0.027461 0.500000 0.748495
O O21 0.250000 0.841790 0.333663
O O22 0.250000 0.712186 0.942665
O O23 0.500000 0.732148 0.000000
#
# Coordination Sequence:
#
# PCOD9402751 Si02
#       8
#     8   8   8   8   8   8   8   8
#     4   9  17  29  44  62  89 125 162 194 222 257
#     4   9  16  28  44  65  90 116 147 183 221 264
#     4   9  17  29  47  70  92 115 144 178 218 264
#     4  10  20  32  47  68  91 116 148 183 218 261
#     4   9  18  32  47  65  89 113 140 176 221 268
#     4   9  16  28  46  65  89 122 152 180 219 265
#     4   9  17  28  43  65  92 123 153 185 222 260
#     4  11  22  36  51  67  87 114 147 184 223 268
#
# _framework density 15.341846
#
# number of rings (size 3 to 8) (size 9 to 14) (size 15 to 20)
#    0.000    2.625    1.250    1.125    0.000    4.750 
#    0.000    0.000    0.000    2.625    0.000    0.000 
#    0.000    0.500    0.000    1.125    0.000    1.750 
#
# Total GULP energy -356700.911233 kJ/mol
# GULP energy per Si atom -5573.451738 kJ/mol
# Density = 1.530693 g / cm^3
# Si number density = 15.341846 Si / 1000 Ang^3
#
#
#
# Elastic Constant Matrix: (Units=GPa)
#
#
# Indices 1 2 3 4 5 6 
#
# 1 10.9718 23.8311 22.0099 0.0000 0.0000 0.0000
# 2 23.8311 113.3303 62.5454 0.0000 0.0000 0.0000
# 3 22.0099 62.5454 105.3567 0.0000 0.0000 0.0000
# 4 0.0000 0.0000 0.0000 26.7295 0.0000 0.0000
# 5 0.0000 0.0000 0.0000 0.0000 22.0575 0.0000
# 6 0.0000 0.0000 0.0000 0.0000 0.0000 23.5767
#
#
#
# Elastic Compliance Matrix: (Units=1/GPa)
#
#
# Indices 1 2 3 4 5 6 
#
# 1 0.206059 -0.029110 -0.025766 0.000000 0.000000 0.000000
# 2 -0.029110 0.017236 -0.004151 0.000000 0.000000 0.000000
# 3 -0.025766 -0.004151 0.017338 0.000000 0.000000 0.000000
# 4 0.000000 0.000000 0.000000 0.037412 0.000000 0.000000
# 5 0.000000 0.000000 0.000000 0.000000 0.045336 0.000000
# 6 0.000000 0.000000 0.000000 0.000000 0.000000 0.042415
#
#
# Mechanical properties :
#
#
# Convention : Reuss Voigt Hill
#
# Bulk Modulus (GPa) = 8.15799 49.60352 28.88076
# Shear Modulus (GPa) = 9.52909 22.55757 16.04333
#
# Velocity S-wave (km/s) = 2.49493 3.83865 3.23727
# Velocity P-wave (km/s) = 3.69169 7.21452 5.73053
#
# Compressibility (1/GPa) = 0.12257920
#
# Stress axis : x y z
#
# Youngs Moduli (GPa) = 4.85298 58.01881 57.67550
#
# Poissons Ratio (x) = 1.68894 1.48607
# Poissons Ratio (y) = 0.14127 0.23940
# Poissons Ratio (z) = 0.12504 0.24082
#
# Static dielectric constant tensor:
#      x y z
#    x 1.520140 0.000000 0.000000 
#    y 0.000000 1.522250 0.000000 
#    z 0.000000 0.000000 1.488330 
# 
# From -- ./inp_files/32661.got.cif
#   From: 2010.05.17/outbox.cif.g08.bks.cpg/sg51_17_cif.got.tgz:32661.got - 2010.06.03 11:52:47.
