data_PCOD9402183
_publ_section_title
;
Structure prediction by ZEFSAII (Michael W. Deem and Ramdas Pophale) SiO2 
 PCOD9402183
Probable space group: P M M A
;
_chemical_formula_sum "Si O2"
_cell_formula_units_Z 64
_cell_length_a 16.066753
_cell_length_b 7.897492
_cell_length_c 24.599784
_cell_angle_alpha 90.000000
_cell_angle_beta 90.000000
_cell_angle_gamma 90.000000
_cell_volume 3121.394103
_symmetry_space_group_name_H-M "P M M A"
_symmetry_group_IT_number 51
_symmetry_cell_setting 'orthorhombic'
loop_
_space_group_symop_operation_xyz
x,y,z
1/2-x,-y,z
1/2+x,-y,-z
-x,y,-z
-x,-y,-z
1/2+x,y,-z
1/2-x,y,z
x,-y,z
loop_
_atom_site_type_symbol
_atom_site_label
_atom_site_fract_x
_atom_site_fract_y
_atom_site_fract_z
Si Si1 0.403567 0.295257 0.999458
Si Si2 0.341601 0.797378 0.117452
Si Si3 0.842158 0.295375 0.118250
Si Si4 0.500276 0.798792 0.689286
Si Si5 0.658403 0.296118 0.382320
Si Si6 0.997260 0.203818 0.812237
Si Si7 0.841644 0.295828 0.616853
Si Si8 0.903075 0.293241 0.499552
O O1 0.402296 0.500000 0.999847
O O2 0.359445 0.236008 0.054140
O O3 0.500000 0.240290 0.000000
O O4 0.361677 0.237960 0.943375
O O5 0.250000 0.730198 0.132168
O O6 0.418668 0.730020 0.152958
O O7 0.339863 0.000000 0.124985
O O8 0.750000 0.237232 0.134965
O O9 0.841628 0.500000 0.117407
O O10 0.916944 0.242322 0.157122
O O11 0.417535 0.746931 0.656966
O O12 0.502332 0.729524 0.750667
O O13 0.582470 0.750921 0.655719
O O14 0.498727 0.000000 0.693025
O O15 0.750000 0.235553 0.364864
O O16 0.661111 0.500000 0.384885
O O17 0.638606 0.235333 0.443590
O O18 0.989590 0.000000 0.810223
O O19 0.750000 0.236047 0.634443
O O20 0.839839 0.500000 0.614904
O O21 0.860550 0.236306 0.555337
O O22 0.900228 0.500000 0.499436
O O23 0.000000 0.244511 0.500000
#
# Coordination Sequence:
#
# PCOD9402183 Si02
#       8
#     8   8   8   8   8   8   8   8
#     4  10  19  34  58  86 116 147 174 212 274 338
#     4  10  21  37  58  83 109 141 184 230 272 319
#     4  10  21  37  58  85 115 145 179 223 275 330
#     4  11  24  40  57  79 112 153 192 233 282 333
#     4  10  20  36  60  87 113 145 186 231 281 336
#     4  10  23  41  58  77 106 148 193 234 273 319
#     4  10  20  36  60  88 115 144 184 233 279 330
#     4   9  15  29  57  87 114 143 178 226 280 333
#
# _framework density 20.503658999999999
#
# number of rings (size 3 to 8) (size 9 to 14) (size 15 to 20)
#    0.000    2.000    2.500    1.125    0.000    5.750 
#    0.000    5.000    0.000    1.500    0.000    0.000 
#    0.000    0.000    0.000    0.000    0.000    0.000 
#
# Total GULP energy -357456.809559 kJ/mol
# GULP energy per Si atom -5585.262649 kJ/mol
# Density = 2.045699 g / cm^3
# Si number density = 20.503659 Si / 1000 Ang^3
#
#
#
# Elastic Constant Matrix: (Units=GPa)
#
#
# Indices 1 2 3 4 5 6 
#
# 1 221.8948 12.1810 106.6718 0.0000 0.0000 0.0000
# 2 12.1810 19.8730 7.5009 0.0000 0.0000 0.0000
# 3 106.6718 7.5009 172.6873 0.0000 0.0000 0.0000
# 4 0.0000 0.0000 0.0000 21.6260 0.0000 0.0000
# 5 0.0000 0.0000 0.0000 0.0000 -3.1562 0.0000
# 6 0.0000 0.0000 0.0000 0.0000 0.0000 12.1818
#
#
#
# Elastic Compliance Matrix: (Units=1/GPa)
#
#
# Indices 1 2 3 4 5 6 
#
# 1 0.006532 -0.002522 -0.003925 0.000000 0.000000 0.000000
# 2 -0.002522 0.052132 -0.000706 0.000000 0.000000 0.000000
# 3 -0.003925 -0.000706 0.008246 0.000000 0.000000 0.000000
# 4 0.000000 0.000000 0.000000 0.046241 0.000000 0.000000
# 5 0.000000 0.000000 0.000000 0.000000 -0.316841 0.000000
# 6 0.000000 0.000000 0.000000 0.000000 0.000000 0.082089
#
#
# Mechanical properties :
#
#
# Convention : Reuss Voigt Hill
#
# Bulk Modulus (GPa) = 19.01049 74.12917 46.56983
# Shear Modulus (GPa) = -55.70556 25.33710 -15.18423
#
# Velocity S-wave (km/s) = -5.21800 3.51912 -2.72428
# Velocity P-wave (km/s) = 5.19726 7.26257 3.58701
#
# Compressibility (1/GPa) = 0.05260253
#
# Stress axis : x y z
#
# Youngs Moduli (GPa) = 153.08759 19.18198 121.26591
#
# Poissons Ratio (x) = 0.04838 0.47603
# Poissons Ratio (y) = 0.38612 0.08566
# Poissons Ratio (z) = 0.60094 0.01355
#
# Static dielectric constant tensor:
#      x y z
#    x 2.122200 0.000000 0.000000 
#    y 0.000000 1.752400 0.000000 
#    z 0.000000 0.000000 1.707630 
# 
# From -- ./inp_files/35787.got.cif
#   From: 2010.05.17/outbox.cif.g08.bks.cpg/sg51_18_cif.got.tgz:35787.got - 2010.06.03 11:52:47.
