data_PCOD9402851
_publ_section_title
;
Structure prediction by ZEFSAII (Michael W. Deem and Ramdas Pophale) SiO2 
 PCOD9402851
Probable space group: P M M A
;
_chemical_formula_sum "Si O2"
_cell_formula_units_Z 64
_cell_length_a 8.939215
_cell_length_b 29.814327
_cell_length_c 14.349835
_cell_angle_alpha 90.000000
_cell_angle_beta 90.000000
_cell_angle_gamma 90.000000
_cell_volume 3824.470370
_symmetry_space_group_name_H-M "P M M A"
_symmetry_group_IT_number 51
_symmetry_cell_setting 'orthorhombic'
loop_
_space_group_symop_operation_xyz
x,y,z
1/2-x,-y,z
1/2+x,-y,-z
-x,y,-z
-x,-y,-z
1/2+x,y,-z
1/2-x,y,z
x,-y,z
loop_
_atom_site_type_symbol
_atom_site_label
_atom_site_fract_x
_atom_site_fract_y
_atom_site_fract_z
Si Si1 0.430473 0.137621 0.897130
Si Si2 0.927796 0.365470 0.399130
Si Si3 0.416649 0.445998 0.088871
Si Si4 0.070870 0.264834 0.603931
Si Si5 0.568131 0.551011 0.704544
Si Si6 0.929473 0.949557 0.221790
Si Si7 0.428621 0.814612 0.278953
Si Si8 0.572371 0.095467 0.602026
O O1 0.250000 0.141397 0.901485
O O2 0.469925 0.088542 0.853687
O O3 0.495921 0.171710 0.819298
O O4 0.500000 0.143185 0.000000
O O5 0.750000 0.371795 0.403788
O O6 0.956179 0.315618 0.359079
O O7 0.000000 0.362984 0.500000
O O8 0.002328 0.408444 0.352776
O O9 0.250000 0.427496 0.091363
O O10 0.405565 0.500000 0.077617
O O11 0.486800 0.440718 0.189848
O O12 0.500000 0.427470 0.000000
O O13 0.250000 0.258466 0.596043
O O14 0.000000 0.260330 0.500000
O O15 0.999500 0.228981 0.673472
O O16 0.750000 0.552041 0.704487
O O17 0.525992 0.500000 0.676194
O O18 0.750000 0.947168 0.233561
O O19 0.003884 0.937909 0.320930
O O20 0.969713 0.000000 0.192626
O O21 0.250000 0.809916 0.266848
O O22 0.454592 0.855576 0.351773
O O23 0.500000 0.091934 0.500000
O O24 0.750000 0.088727 0.594508
#
# Coordination Sequence:
#
# PCOD9402851 Si02
#       8
#     8   8   8   8   8   8   8   8
#     4  10  20  35  55  78 105 135 169 211 256 302
#     4  10  21  35  51  72  99 132 169 207 246 293
#     4   8  14  25  42  65  91 118 150 190 235 280
#     4  10  20  34  53  78 105 132 163 201 248 301
#     4   9  18  32  49  70  98 132 169 209 252 296
#     4   9  19  35  52  71  98 134 175 215 254 297
#     4  10  20  34  54  79 103 129 164 205 252 304
#     4  10  20  32  48  72 101 132 166 205 250 302
#
# _framework density 16.734342000000002
#
# number of rings (size 3 to 8) (size 9 to 14) (size 15 to 20)
#    0.000    2.500    0.000    3.000    0.000    6.250 
#    0.000    1.250    0.000    0.750    0.000    1.750 
#    0.000    0.000    0.000    0.000    0.000    0.000 
#
# Total GULP energy -356547.653026 kJ/mol
# GULP energy per Si atom -5571.057079 kJ/mol
# Density = 1.669625 g / cm^3
# Si number density = 16.734342 Si / 1000 Ang^3
#
#
#
# Elastic Constant Matrix: (Units=GPa)
#
#
# Indices 1 2 3 4 5 6 
#
# 1 51.6368 49.0944 42.0540 0.0000 0.0000 0.0000
# 2 49.0944 119.3647 59.9927 0.0000 0.0000 0.0000
# 3 42.0540 59.9927 104.1602 0.0000 0.0000 0.0000
# 4 0.0000 0.0000 0.0000 17.6001 0.0000 0.0000
# 5 0.0000 0.0000 0.0000 0.0000 29.9945 0.0000
# 6 0.0000 0.0000 0.0000 0.0000 0.0000 21.2838
#
#
#
# Elastic Compliance Matrix: (Units=1/GPa)
#
#
# Indices 1 2 3 4 5 6 
#
# 1 0.036545 -0.010718 -0.008582 0.000000 0.000000 0.000000
# 2 -0.010718 0.014934 -0.004274 0.000000 0.000000 0.000000
# 3 -0.008582 -0.004274 0.015527 0.000000 0.000000 0.000000
# 4 0.000000 0.000000 0.000000 0.056818 0.000000 0.000000
# 5 0.000000 0.000000 0.000000 0.000000 0.033339 0.000000
# 6 0.000000 0.000000 0.000000 0.000000 0.000000 0.046984
#
#
# Mechanical properties :
#
#
# Convention : Reuss Voigt Hill
#
# Bulk Modulus (GPa) = 50.35531 64.16044 57.25788
# Shear Modulus (GPa) = 19.38617 22.04372 20.71495
#
# Velocity S-wave (km/s) = 3.40732 3.63336 3.52216
# Velocity P-wave (km/s) = 6.75545 7.48503 7.12958
#
# Compressibility (1/GPa) = 0.01985888
#
# Stress axis : x y z
#
# Youngs Moduli (GPa) = 27.36333 66.96066 64.40261
#
# Poissons Ratio (x) = 0.71767 0.55269
# Poissons Ratio (y) = 0.29327 0.27528
# Poissons Ratio (z) = 0.23483 0.28621
#
# Static dielectric constant tensor:
#      x y z
#    x 1.566830 0.000000 0.000000 
#    y 0.000000 1.567180 0.000000 
#    z 0.000000 0.000000 1.555510 
# 
# From -- ./inp_files/14858.got.cif
#   From: 2010.05.17/outbox.cif.g08.bks.cpg/sg51_8_cif.got.tgz:14858.got - 2010.06.03 11:52:47.
