data_PCOD9402810
_publ_section_title
;
Structure prediction by ZEFSAII (Michael W. Deem and Ramdas Pophale) SiO2 
 PCOD9402810
Probable space group: P M M A
;
_chemical_formula_sum "Si O2"
_cell_formula_units_Z 64
_cell_length_a 14.544793
_cell_length_b 8.952791
_cell_length_c 28.891391
_cell_angle_alpha 90.000000
_cell_angle_beta 90.000000
_cell_angle_gamma 90.000000
_cell_volume 3762.135581
_symmetry_space_group_name_H-M "P M M A"
_symmetry_group_IT_number 51
_symmetry_cell_setting 'orthorhombic'
loop_
_space_group_symop_operation_xyz
x,y,z
1/2-x,-y,z
1/2+x,-y,-z
-x,y,-z
-x,-y,-z
1/2+x,y,-z
1/2-x,y,z
x,-y,z
loop_
_atom_site_type_symbol
_atom_site_label
_atom_site_fract_x
_atom_site_fract_y
_atom_site_fract_z
Si Si1 0.464306 0.677815 0.382887
Si Si2 0.857113 0.821786 0.701201
Si Si3 0.141194 0.824283 0.025014
Si Si4 0.860424 0.174011 0.532067
Si Si5 0.142827 0.678589 0.198779
Si Si6 0.642477 0.677696 0.072997
Si Si7 0.527173 0.821158 0.883353
Si Si8 0.855981 0.321489 0.433874
O O1 0.454885 0.500000 0.377352
O O2 0.422428 0.759146 0.338598
O O3 0.408931 0.731762 0.428122
O O4 0.570684 0.713597 0.394147
O O5 0.750000 0.788984 0.689133
O O6 0.876040 0.745962 0.750581
O O7 0.866250 0.000000 0.705091
O O8 0.250000 0.806876 0.034432
O O9 0.084356 0.780763 0.070193
O O10 0.123695 0.000000 0.015442
O O11 0.118935 0.732665 0.978943
O O12 0.750000 0.184782 0.537728
O O13 0.881779 0.236964 0.481137
O O14 0.886451 0.000000 0.535767
O O15 0.250000 0.713454 0.187725
O O16 0.132808 0.500000 0.199776
O O17 0.077382 0.749448 0.160397
O O18 0.750000 0.714545 0.080532
O O19 0.631305 0.500000 0.076110
O O20 0.574716 0.759317 0.108196
O O21 0.527222 0.000000 0.879345
O O22 0.750000 0.285167 0.422500
O O23 0.861272 0.500000 0.442688
#
# Coordination Sequence:
#
# PCOD9402810 Si02
#       8
#     8   8   8   8   8   8   8   8
#     4  11  21  32  51  76 100 131 170 209 251 300
#     4  10  21  37  56  78 105 134 163 200 249 303
#     4   9  18  32  49  72 104 139 173 209 253 307
#     4  10  20  32  47  71 103 136 169 206 249 297
#     4  10  21  37  57  81 108 135 164 203 252 305
#     4  10  21  35  50  71 102 139 178 220 262 302
#     4  11  21  33  53  78 104 137 175 213 255 306
#     4   9  19  35  51  69  98 135 172 209 249 293
#
# _framework density 17.011614999999999
#
# number of rings (size 3 to 8) (size 9 to 14) (size 15 to 20)
#    0.000    2.000    0.000    3.750    0.000   10.000 
#    0.000    1.250    0.000    0.750    0.000    1.750 
#    0.000    0.000    0.000    0.000    0.000    0.000 
#
# Total GULP energy -357478.143227 kJ/mol
# GULP energy per Si atom -5585.595988 kJ/mol
# Density = 1.697290 g / cm^3
# Si number density = 17.011615 Si / 1000 Ang^3
#
#
#
# Elastic Constant Matrix: (Units=GPa)
#
#
# Indices 1 2 3 4 5 6 
#
# 1 91.2023 53.2613 81.8800 0.0000 0.0000 0.0000
# 2 53.2613 60.3231 56.4569 0.0000 0.0000 0.0000
# 3 81.8800 56.4569 112.9806 0.0000 0.0000 0.0000
# 4 0.0000 0.0000 0.0000 34.5523 0.0000 0.0000
# 5 0.0000 0.0000 0.0000 0.0000 32.3550 0.0000
# 6 0.0000 0.0000 0.0000 0.0000 0.0000 23.4648
#
#
#
# Elastic Compliance Matrix: (Units=1/GPa)
#
#
# Indices 1 2 3 4 5 6 
#
# 1 0.036880 -0.014179 -0.019642 0.000000 0.000000 0.000000
# 2 -0.014179 0.036593 -0.008010 0.000000 0.000000 0.000000
# 3 -0.019642 -0.008010 0.027089 0.000000 0.000000 0.000000
# 4 0.000000 0.000000 0.000000 0.028942 0.000000 0.000000
# 5 0.000000 0.000000 0.000000 0.000000 0.030907 0.000000
# 6 0.000000 0.000000 0.000000 0.000000 0.000000 0.042617
#
#
# Mechanical properties :
#
#
# Convention : Reuss Voigt Hill
#
# Bulk Modulus (GPa) = 59.17395 71.96694 65.57044
# Shear Modulus (GPa) = 17.10441 22.93491 20.01966
#
# Velocity S-wave (km/s) = 3.17433 3.67576 3.43421
# Velocity P-wave (km/s) = 6.94947 7.77247 7.37246
#
# Compressibility (1/GPa) = 0.01689933
#
# Stress axis : x y z
#
# Youngs Moduli (GPa) = 27.11532 27.32785 36.91529
#
# Poissons Ratio (x) = 0.38747 0.72511
# Poissons Ratio (y) = 0.38446 0.29569
# Poissons Ratio (z) = 0.53261 0.21889
#
# Static dielectric constant tensor:
#      x y z
#    x 1.593640 0.000000 0.000000 
#    y 0.000000 1.565740 0.000000 
#    z 0.000000 0.000000 1.533190 
# 
# From -- ./inp_files/35632.got.cif
#   From: 2010.05.17/outbox.cif.g08.bks.cpg/sg51_18_cif.got.tgz:35632.got - 2010.06.03 11:52:47.
