data_PCOD9402700
_publ_section_title
;
Structure prediction by ZEFSAII (Michael W. Deem and Ramdas Pophale) SiO2 
 PCOD9402700
Probable space group: P M M A
;
_chemical_formula_sum "Si O2"
_cell_formula_units_Z 48
_cell_length_a 9.461355
_cell_length_b 7.339462
_cell_length_c 31.842135
_cell_angle_alpha 90.000000
_cell_angle_beta 90.000000
_cell_angle_gamma 90.000000
_cell_volume 2211.157832
_symmetry_space_group_name_H-M "P M M A"
_symmetry_group_IT_number 51
_symmetry_cell_setting 'orthorhombic'
loop_
_space_group_symop_operation_xyz
x,y,z
1/2-x,-y,z
1/2+x,-y,-z
-x,y,-z
-x,-y,-z
1/2+x,y,-z
1/2-x,y,z
x,-y,z
loop_
_atom_site_type_symbol
_atom_site_label
_atom_site_fract_x
_atom_site_fract_y
_atom_site_fract_z
Si Si1 0.087316 0.222627 0.123388
Si Si2 0.087885 0.722518 0.540785
Si Si3 0.413044 0.721746 0.378737
Si Si4 0.586723 0.777874 0.041120
Si Si5 0.589156 0.281055 0.715451
Si Si6 0.590944 0.785178 0.202661
O O1 0.250000 0.281689 0.121090
O O2 0.995951 0.277976 0.083043
O O3 0.010305 0.285910 0.165847
O O4 0.089985 0.000000 0.123484
O O5 0.250000 0.780053 0.538370
O O6 0.086885 0.500000 0.540919
O O7 0.000000 0.779704 0.500000
O O8 0.013148 0.782525 0.583750
O O9 0.250000 0.774164 0.386360
O O10 0.416100 0.500000 0.378888
O O11 0.451902 0.780443 0.331495
O O12 0.750000 0.719102 0.040586
O O13 0.588431 0.000000 0.040939
O O14 0.500000 0.720610 0.000000
O O15 0.750000 0.217689 0.724267
O O16 0.594323 0.500000 0.714019
O O17 0.482833 0.232970 0.752305
O O18 0.750000 0.709893 0.202093
O O19 0.602873 0.000000 0.194273
#
# Coordination Sequence:
#
# PCOD9402700 Si02
#       6
#     8   8   8   8   8   8
#     4   9  16  26  40  57  79 110 146 182 222 266
#     4   9  15  21  31  49  74 105 139 172 208 253
#     4   8  14  25  39  55  78 107 138 174 216 260
#     4   9  15  22  33  51  77 108 141 176 215 262
#     4   9  18  32  49  68  90 118 152 189 229 272
#     4  10  20  32  46  66  92 121 153 189 228 270
#
# _framework density 21.708086000000002
#
# number of rings (size 3 to 8) (size 9 to 14) (size 15 to 20)
#    0.000    3.000    0.000    3.000    0.000    8.000 
#    0.000    1.667    0.000    0.000    0.000    0.000 
#    0.000    1.333    0.000    4.667    0.000   10.333 
#
# Total GULP energy -268125.460522 kJ/mol
# GULP energy per Si atom -5585.947094 kJ/mol
# Density = 2.165868 g / cm^3
# Si number density = 21.708086 Si / 1000 Ang^3
#
#
#
# Elastic Constant Matrix: (Units=GPa)
#
#
# Indices 1 2 3 4 5 6 
#
# 1 234.0047 5.8980 163.2001 0.0000 0.0000 0.0000
# 2 5.8980 81.6834 0.3638 0.0000 0.0000 0.0000
# 3 163.2001 0.3638 213.6595 0.0000 0.0000 0.0000
# 4 0.0000 0.0000 0.0000 5.7604 0.0000 0.0000
# 5 0.0000 0.0000 0.0000 0.0000 43.2914 0.0000
# 6 0.0000 0.0000 0.0000 0.0000 0.0000 -3.2616
#
#
#
# Elastic Compliance Matrix: (Units=1/GPa)
#
#
# Indices 1 2 3 4 5 6 
#
# 1 0.009178 -0.000631 -0.007009 0.000000 0.000000 0.000000
# 2 -0.000631 0.012286 0.000461 0.000000 0.000000 0.000000
# 3 -0.007009 0.000461 0.010033 0.000000 0.000000 0.000000
# 4 0.000000 0.000000 0.000000 0.173600 0.000000 0.000000
# 5 0.000000 0.000000 0.000000 0.000000 0.023099 0.000000
# 6 0.000000 0.000000 0.000000 0.000000 0.000000 -0.306595
#
#
# Mechanical properties :
#
#
# Convention : Reuss Voigt Hill
#
# Bulk Modulus (GPa) = 58.34783 96.47462 77.41123
# Shear Modulus (GPa) = -85.72341 33.15041 -26.28650
#
# Velocity S-wave (km/s) = -6.29086 3.91205 -3.48359
# Velocity P-wave (km/s) = 5.08230 8.05877 4.42233
#
# Compressibility (1/GPa) = 0.01713860
#
# Stress axis : x y z
#
# Youngs Moduli (GPa) = 108.96038 81.39393 99.66763
#
# Poissons Ratio (x) = 0.05140 0.69858
# Poissons Ratio (y) = 0.06880 -0.04599
# Poissons Ratio (z) = 0.76372 -0.03756
#
# Static dielectric constant tensor:
#      x y z
#    x 1.736280 0.000000 0.000000 
#    y 0.000000 1.948790 0.000000 
#    z 0.000000 0.000000 1.741660 
# 
# From -- ./inp_files/36870.got.cif
#   From: 2010.05.17/outbox.cif.g08.bks.cpg/sg51_19_cif.got.tgz:36870.got - 2010.06.03 11:52:47.
