data_PCOD9402438
_publ_section_title
;
Structure prediction by ZEFSAII (Michael W. Deem and Ramdas Pophale) SiO2 
 PCOD9402438
Probable space group: P M M A
;
_chemical_formula_sum "Si O2"
_cell_formula_units_Z 40
_cell_length_a 10.024509
_cell_length_b 7.529142
_cell_length_c 24.849521
_cell_angle_alpha 90.000000
_cell_angle_beta 90.000000
_cell_angle_gamma 90.000000
_cell_volume 1875.541248
_symmetry_space_group_name_H-M "P M M A"
_symmetry_group_IT_number 51
_symmetry_cell_setting 'orthorhombic'
loop_
_space_group_symop_operation_xyz
x,y,z
1/2-x,-y,z
1/2+x,-y,-z
-x,y,-z
-x,-y,-z
1/2+x,y,-z
1/2-x,y,z
x,-y,z
loop_
_atom_site_type_symbol
_atom_site_label
_atom_site_fract_x
_atom_site_fract_y
_atom_site_fract_z
Si Si1 0.402344 0.789707 0.453746
Si Si2 0.401927 0.285723 0.642866
Si Si3 0.096854 0.282869 0.765326
Si Si4 0.976861 0.297017 0.871755
Si Si5 0.750000 0.205657 0.075352
Si Si6 0.250000 0.716833 0.049770
O O1 0.500000 0.714135 0.500000
O O2 0.250000 0.718789 0.452863
O O3 0.484139 0.768986 0.398493
O O4 0.390164 0.000000 0.464144
O O5 0.250000 0.226072 0.628458
O O6 0.398306 0.500000 0.643013
O O7 0.431374 0.227987 0.704149
O O8 0.250000 0.231555 0.777485
O O9 0.094094 0.500000 0.766473
O O10 0.999673 0.218210 0.812448
O O11 0.931753 0.500000 0.863268
O O12 0.119939 0.294595 0.899987
O O13 0.875551 0.220506 0.915082
O O14 0.750000 0.000000 0.091326
O O15 0.750000 0.217894 0.010994
O O16 0.250000 0.500000 0.045394
#
# Coordination Sequence:
#
# PCOD9402438 Si02
#       6
#     8   8   8   8   4   4
#     4  10  21  37  56  78 107 146 190 227 263 309
#     4   9  18  33  55  84 112 139 174 219 273 325
#     4   8  14  29  55  81 104 134 173 218 265 312
#     4  10  19  36  59  80 104 137 179 225 267 317
#     4  12  24  36  54  78 106 142 181 218 269 328
#     4  10  22  36  54  82 106 134 179 224 271 324
#
# _framework density 21.327176000000001
#
# number of rings (size 3 to 8) (size 9 to 14) (size 15 to 20)
#    0.000    2.400    1.000    3.300    0.000    5.200 
#    1.800    1.000    0.000    0.000    0.000    0.000 
#    0.000    0.000    0.000    0.000    0.000    0.000 
#
# Total GULP energy -223209.954197 kJ/mol
# GULP energy per Si atom -5580.248855 kJ/mol
# Density = 2.127863 g / cm^3
# Si number density = 21.327176 Si / 1000 Ang^3
#
#
#
# Elastic Constant Matrix: (Units=GPa)
#
#
# Indices 1 2 3 4 5 6 
#
# 1 131.6831 -5.3056 71.0154 0.0000 0.0000 0.0000
# 2 -5.3056 61.9264 -8.2541 0.0000 0.0000 0.0000
# 3 71.0154 -8.2541 144.5835 0.0000 0.0000 0.0000
# 4 0.0000 0.0000 0.0000 31.1286 0.0000 0.0000
# 5 0.0000 0.0000 0.0000 0.0000 42.9932 0.0000
# 6 0.0000 0.0000 0.0000 0.0000 0.0000 10.5191
#
#
#
# Elastic Compliance Matrix: (Units=1/GPa)
#
#
# Indices 1 2 3 4 5 6 
#
# 1 0.010333 0.000210 -0.005063 0.000000 0.000000 0.000000
# 2 0.000210 0.016276 0.000826 0.000000 0.000000 0.000000
# 3 -0.005063 0.000826 0.009451 0.000000 0.000000 0.000000
# 4 0.000000 0.000000 0.000000 0.032125 0.000000 0.000000
# 5 0.000000 0.000000 0.000000 0.000000 0.023260 0.000000
# 6 0.000000 0.000000 0.000000 0.000000 0.000000 0.095065
#
#
# Mechanical properties :
#
#
# Convention : Reuss Voigt Hill
#
# Bulk Modulus (GPa) = 35.70690 50.34495 43.02592
# Shear Modulus (GPa) = 24.52199 35.64399 30.08299
#
# Velocity S-wave (km/s) = 3.39455 4.09258 3.75980
# Velocity P-wave (km/s) = 5.66946 6.78156 6.25029
#
# Compressibility (1/GPa) = 0.02800579
#
# Stress axis : x y z
#
# Youngs Moduli (GPa) = 96.77683 61.43896 105.81428
#
# Poissons Ratio (x) = -0.01293 0.53577
# Poissons Ratio (y) = -0.02036 -0.08739
# Poissons Ratio (z) = 0.49001 -0.05074
#
# Static dielectric constant tensor:
#      x y z
#    x 1.757760 0.000000 0.000000 
#    y 0.000000 1.837990 0.000000 
#    z 0.000000 0.000000 1.768160 
# 
# From -- ./inp_files/35998.got.cif
#   From: 2010.05.17/outbox.cif.g08.bks.cpg/sg51_18_cif.got.tgz:35998.got - 2010.06.03 11:52:47.
