data_PCOD9402126
_publ_section_title
;
Structure prediction by ZEFSAII (Michael W. Deem and Ramdas Pophale) SiO2 
 PCOD9402126
Probable space group: P M M A
;
_chemical_formula_sum "Si O2"
_cell_formula_units_Z 64
_cell_length_a 18.088094
_cell_length_b 8.691194
_cell_length_c 22.084095
_cell_angle_alpha 90.000000
_cell_angle_beta 90.000000
_cell_angle_gamma 90.000000
_cell_volume 3471.777283
_symmetry_space_group_name_H-M "P M M A"
_symmetry_group_IT_number 51
_symmetry_cell_setting 'orthorhombic'
loop_
_space_group_symop_operation_xyz
x,y,z
1/2-x,-y,z
1/2+x,-y,-z
-x,y,-z
-x,-y,-z
1/2+x,y,-z
1/2-x,y,z
x,-y,z
loop_
_atom_site_type_symbol
_atom_site_label
_atom_site_fract_x
_atom_site_fract_y
_atom_site_fract_z
Si Si1 0.334771 0.184773 0.992906
Si Si2 0.958161 0.316466 0.687724
Si Si3 0.606306 0.182961 0.256097
Si Si4 0.431699 0.815846 0.109186
Si Si5 0.595324 0.682384 0.126843
Si Si6 0.835579 0.684908 0.781467
Si Si7 0.020101 0.184135 0.568144
Si Si8 0.667401 0.683780 0.376557
O O1 0.250000 0.221291 0.009595
O O2 0.357627 0.265198 0.930852
O O3 0.442336 0.000000 0.110004
O O4 0.390731 0.227139 0.046740
O O5 0.970763 0.500000 0.689689
O O6 0.880557 0.282590 0.719855
O O7 0.967879 0.258389 0.619374
O O8 0.022982 0.235770 0.726539
O O9 0.622586 0.238777 0.188629
O O10 0.656173 0.261181 0.307492
O O11 0.611816 0.000000 0.260592
O O12 0.510938 0.736292 0.115780
O O13 0.378858 0.766063 0.164100
O O14 0.339979 0.000000 0.984763
O O15 0.597418 0.500000 0.134304
O O16 0.750000 0.730822 0.778938
O O17 0.839003 0.500000 0.791055
O O18 0.000000 0.230185 0.500000
O O19 0.102654 0.237254 0.585347
O O20 0.015273 0.000000 0.573136
O O21 0.750000 0.723159 0.397115
O O22 0.657968 0.500000 0.379010
#
# Coordination Sequence:
#
# PCOD9402126 Si02
#       8
#     8   8   8   8   8   8   8   8
#     4  10  23  42  59  79 110 146 187 237 291 345
#     4  10  19  34  57  83 115 150 187 233 280 333
#     4  11  21  35  58  84 112 148 187 231 283 340
#     4  11  22  38  61  85 110 146 191 237 287 344
#     4  12  24  38  58  84 113 148 190 236 287 344
#     4  10  21  36  56  84 117 151 186 231 288 343
#     4  10  21  37  59  86 117 156 199 239 283 334
#     4  10  21  37  59  88 120 153 192 238 287 341
#
# _framework density 18.434363000000001
#
# number of rings (size 3 to 8) (size 9 to 14) (size 15 to 20)
#    0.000    1.500    1.250    6.000    0.000    6.500 
#    0.000    0.625    0.000    2.250    0.000    0.000 
#    0.000    0.000    0.000    0.000    0.000    0.000 
#
# Total GULP energy -357691.475262 kJ/mol
# GULP energy per Si atom -5588.929301 kJ/mol
# Density = 1.839241 g / cm^3
# Si number density = 18.434363 Si / 1000 Ang^3
#
#
#
# Elastic Constant Matrix: (Units=GPa)
#
#
# Indices 1 2 3 4 5 6 
#
# 1 37.0989 -4.1959 1.1626 0.0000 0.0000 0.0000
# 2 -4.1959 30.8522 10.2394 0.0000 0.0000 0.0000
# 3 1.1626 10.2394 101.0093 0.0000 0.0000 0.0000
# 4 0.0000 0.0000 0.0000 41.6900 0.0000 0.0000
# 5 0.0000 0.0000 0.0000 0.0000 14.0187 0.0000
# 6 0.0000 0.0000 0.0000 0.0000 0.0000 19.0507
#
#
#
# Elastic Compliance Matrix: (Units=1/GPa)
#
#
# Indices 1 2 3 4 5 6 
#
# 1 0.027426 0.003968 -0.000718 0.000000 0.000000 0.000000
# 2 0.003968 0.034115 -0.003504 0.000000 0.000000 0.000000
# 3 -0.000718 -0.003504 0.010264 0.000000 0.000000 0.000000
# 4 0.000000 0.000000 0.000000 0.023987 0.000000 0.000000
# 5 0.000000 0.000000 0.000000 0.000000 0.071333 0.000000
# 6 0.000000 0.000000 0.000000 0.000000 0.000000 0.052492
#
#
# Mechanical properties :
#
#
# Convention : Reuss Voigt Hill
#
# Bulk Modulus (GPa) = 14.02570 20.37474 17.20022
# Shear Modulus (GPa) = 20.50106 25.73549 23.11828
#
# Velocity S-wave (km/s) = 3.33845 3.74044 3.54515
# Velocity P-wave (km/s) = 4.74187 5.45263 5.10962
#
# Compressibility (1/GPa) = 0.07129770
#
# Stress axis : x y z
#
# Youngs Moduli (GPa) = 36.46138 29.31245 97.43231
#
# Poissons Ratio (x) = -0.11632 0.06995
# Poissons Ratio (y) = -0.14469 0.34140
# Poissons Ratio (z) = 0.02618 0.10271
#
# Static dielectric constant tensor:
#      x y z
#    x 1.629620 0.000000 0.000000 
#    y 0.000000 1.618640 0.000000 
#    z 0.000000 0.000000 1.617220 
# 
# From -- ./inp_files/33864.got.cif
#   From: 2010.05.17/outbox.cif.g08.bks.cpg/sg51_17_cif.got.tgz:33864.got - 2010.06.03 11:52:47.
