data_PCOD9402924
_publ_section_title
;
Structure prediction by ZEFSAII (Michael W. Deem and Ramdas Pophale) SiO2 
 PCOD9402924
Probable space group: P M M A
;
_chemical_formula_sum "Si O2"
_cell_formula_units_Z 48
_cell_length_a 14.763408
_cell_length_b 9.262966
_cell_length_c 18.628853
_cell_angle_alpha 90.000000
_cell_angle_beta 90.000000
_cell_angle_gamma 90.000000
_cell_volume 2547.550535
_symmetry_space_group_name_H-M "P M M A"
_symmetry_group_IT_number 51
_symmetry_cell_setting 'orthorhombic'
loop_
_space_group_symop_operation_xyz
x,y,z
1/2-x,-y,z
1/2+x,-y,-z
-x,y,-z
-x,-y,-z
1/2+x,y,-z
1/2-x,y,z
x,-y,z
loop_
_atom_site_type_symbol
_atom_site_label
_atom_site_fract_x
_atom_site_fract_y
_atom_site_fract_z
Si Si1 0.144867 0.327393 0.384719
Si Si2 0.858030 0.668056 0.447693
Si Si3 0.605731 0.835664 0.022939
Si Si4 0.969665 0.826606 0.169026
Si Si5 0.349887 0.672038 0.116599
Si Si6 0.474462 0.828399 0.670482
O O1 0.250000 0.291381 0.371091
O O2 0.134896 0.500000 0.374829
O O3 0.124506 0.296016 0.468817
O O4 0.073492 0.241508 0.337849
O O5 0.750000 0.680892 0.437090
O O6 0.883402 0.500000 0.437620
O O7 0.912248 0.763100 0.391646
O O8 0.600607 0.787321 0.105721
O O9 0.641144 0.000000 0.017479
O O10 0.500000 0.841651 0.000000
O O11 0.649214 0.730050 0.965334
O O12 0.065756 0.749743 0.154486
O O13 0.938750 0.794775 0.249606
O O14 0.983188 0.000000 0.162367
O O15 0.250000 0.704966 0.147632
O O16 0.362707 0.500000 0.118162
O O17 0.480287 0.000000 0.662944
#
# Coordination Sequence:
#
# PCOD9402924 Si02
#       6
#     8   8   8   8   8   8
#     4   9  19  36  56  77 104 140 180 219 259 311
#     4   9  19  37  58  77 100 136 181 222 261 313
#     4   8  15  31  52  68  87 122 163 195 229 283
#     4   9  20  36  50  69 100 135 168 200 242 302
#     4  10  20  32  49  76 103 125 158 206 253 295
#     4  11  22  34  52  80 111 140 172 217 269 313
#
# _framework density 18.841629999999999
#
# number of rings (size 3 to 8) (size 9 to 14) (size 15 to 20)
#    0.000    2.667    0.000    3.500    0.000    9.667 
#    0.000    5.833    0.000    5.000    0.000    0.000 
#    0.000    0.000    0.000    0.000    0.000    0.000 
#
# Total GULP energy -267741.224563 kJ/mol
# GULP energy per Si atom -5577.942178 kJ/mol
# Density = 1.879875 g / cm^3
# Si number density = 18.841630 Si / 1000 Ang^3
#
#
#
# Elastic Constant Matrix: (Units=GPa)
#
#
# Indices 1 2 3 4 5 6 
#
# 1 16.2649 2.1117 -0.9017 0.0000 0.0000 0.0000
# 2 2.1117 20.7894 15.0731 0.0000 0.0000 0.0000
# 3 -0.9017 15.0731 59.9294 0.0000 0.0000 0.0000
# 4 0.0000 0.0000 0.0000 -8.7315 0.0000 0.0000
# 5 0.0000 0.0000 0.0000 0.0000 10.1892 0.0000
# 6 0.0000 0.0000 0.0000 0.0000 0.0000 65.9838
#
#
#
# Elastic Compliance Matrix: (Units=1/GPa)
#
#
# Indices 1 2 3 4 5 6 
#
# 1 0.062776 -0.008636 0.003117 0.000000 0.000000 0.000000
# 2 -0.008636 0.060017 -0.015225 0.000000 0.000000 0.000000
# 3 0.003117 -0.015225 0.020563 0.000000 0.000000 0.000000
# 4 0.000000 0.000000 0.000000 -0.114528 0.000000 0.000000
# 5 0.000000 0.000000 0.000000 0.000000 0.098143 0.000000
# 6 0.000000 0.000000 0.000000 0.000000 0.000000 0.015155
#
#
# Mechanical properties :
#
#
# Convention : Reuss Voigt Hill
#
# Bulk Modulus (GPa) = 9.81676 14.39444 12.10560
# Shear Modulus (GPa) = 22.98092 18.86834 20.92463
#
# Velocity S-wave (km/s) = 3.49619 3.16795 3.33611
# Velocity P-wave (km/s) = 4.63889 4.58667 4.61285
#
# Compressibility (1/GPa) = 0.10186658
#
# Stress axis : x y z
#
# Youngs Moduli (GPa) = 15.92957 16.66182 48.63211
#
# Poissons Ratio (x) = 0.14390 -0.15157
# Poissons Ratio (y) = 0.13757 0.74043
# Poissons Ratio (z) = -0.04965 0.25368
#
# Static dielectric constant tensor:
#      x y z
#    x 1.658660 0.000000 0.000000 
#    y 0.000000 1.621190 0.000000 
#    z 0.000000 0.000000 1.685520 
# 
# From -- ./inp_files/29430.got.cif
#   From: 2010.05.17/outbox.cif.g08.bks.cpg/sg51_15_cif.got.tgz:29430.got - 2010.06.03 11:52:47.
