data_PCOD9402310
_publ_section_title
;
Structure prediction by ZEFSAII (Michael W. Deem and Ramdas Pophale) SiO2 
 PCOD9402310
Probable space group: P M M A
;
_chemical_formula_sum "Si O2"
_cell_formula_units_Z 40
_cell_length_a 26.390781
_cell_length_b 8.478537
_cell_length_c 9.423396
_cell_angle_alpha 90.000000
_cell_angle_beta 90.000000
_cell_angle_gamma 90.000000
_cell_volume 2108.533981
_symmetry_space_group_name_H-M "P M M A"
_symmetry_group_IT_number 51
_symmetry_cell_setting 'orthorhombic'
loop_
_space_group_symop_operation_xyz
x,y,z
1/2-x,-y,z
1/2+x,-y,-z
-x,y,-z
-x,-y,-z
1/2+x,y,-z
1/2-x,y,z
x,-y,z
loop_
_atom_site_type_symbol
_atom_site_label
_atom_site_fract_x
_atom_site_fract_y
_atom_site_fract_z
Si Si1 0.056174 0.191794 0.835540
Si Si2 0.348039 0.808886 0.655379
Si Si3 0.750000 0.192410 0.165047
Si Si4 0.441230 0.809018 0.163824
Si Si5 0.250000 0.810872 0.161151
Si Si6 0.345968 0.312982 0.335663
O O1 0.099883 0.245650 0.729630
O O2 0.998781 0.239964 0.798998
O O3 0.056186 0.000000 0.833850
O O4 0.067289 0.236322 0.998851
O O5 0.300214 0.758190 0.750488
O O6 0.343135 0.750595 0.495552
O O7 0.348430 0.000000 0.653655
O O8 0.750000 0.000000 0.163090
O O9 0.750000 0.245477 0.002053
O O10 0.398568 0.739111 0.263831
O O11 0.438621 0.000000 0.171542
O O12 0.200196 0.754567 0.243192
O O13 0.250000 0.000000 0.159312
O O14 0.342297 0.500000 0.337496
#
# Coordination Sequence:
#
# PCOD9402310 Si02
#       6
#     8   8   4   8   4   8
#     4   8  16  32  59  87 109 138 191 245 278 316
#     4  10  19  35  57  83 112 146 184 227 274 325
#     4   9  19  35  62  90 106 127 176 233 280 328
#     4   9  17  35  60  84 108 143 188 237 282 324
#     4  11  22  41  66  86 104 137 182 231 278 328
#     4  12  25  38  52  81 119 151 181 221 271 332
#
# _framework density 18.970527000000001
#
# number of rings (size 3 to 8) (size 9 to 14) (size 15 to 20)
#    0.000    2.200    0.000    5.100    0.000    4.800 
#    0.000   12.000    0.000    0.000    0.000    0.000 
#    0.000    0.000    0.000    0.000    0.000    0.000 
#
# Total GULP energy -223387.627006 kJ/mol
# GULP energy per Si atom -5584.690675 kJ/mol
# Density = 1.892735 g / cm^3
# Si number density = 18.970527 Si / 1000 Ang^3
#
#
#
# Elastic Constant Matrix: (Units=GPa)
#
#
# Indices 1 2 3 4 5 6 
#
# 1 177.0079 35.4276 136.6588 0.0000 0.0000 0.0000
# 2 35.4276 36.9280 33.8897 0.0000 0.0000 0.0000
# 3 136.6588 33.8897 190.4007 0.0000 0.0000 0.0000
# 4 0.0000 0.0000 0.0000 -25.7984 0.0000 0.0000
# 5 0.0000 0.0000 0.0000 0.0000 -117.1926 0.0000
# 6 0.0000 0.0000 0.0000 0.0000 0.0000 -4.0603
#
#
#
# Elastic Compliance Matrix: (Units=1/GPa)
#
#
# Indices 1 2 3 4 5 6 
#
# 1 0.013346 -0.004796 -0.008725 0.000000 0.000000 0.000000
# 2 -0.004796 0.034090 -0.002625 0.000000 0.000000 0.000000
# 3 -0.008725 -0.002625 0.011982 0.000000 0.000000 0.000000
# 4 0.000000 0.000000 0.000000 -0.038762 0.000000 0.000000
# 5 0.000000 0.000000 0.000000 0.000000 -0.008533 0.000000
# 6 0.000000 0.000000 0.000000 0.000000 0.000000 -0.246290
#
#
# Mechanical properties :
#
#
# Convention : Reuss Voigt Hill
#
# Bulk Modulus (GPa) = 36.86698 90.69873 63.78285
# Shear Modulus (GPa) = -25.92916 -16.18621 -21.05768
#
# Velocity S-wave (km/s) = -3.70105 -2.92418 -3.33531
# Velocity P-wave (km/s) = 1.10103 6.04260 4.34312
#
# Compressibility (1/GPa) = 0.02712455
#
# Stress axis : x y z
#
# Youngs Moduli (GPa) = 74.93161 29.33377 83.46089
#
# Poissons Ratio (x) = 0.14069 0.72819
# Poissons Ratio (y) = 0.35938 0.21912
# Poissons Ratio (z) = 0.65378 0.07701
#
# Static dielectric constant tensor:
#      x y z
#    x 1.650370 0.000000 0.000000 
#    y 0.000000 1.639130 0.000000 
#    z 0.000000 0.000000 1.625930 
# 
# From -- ./inp_files/11458.got.cif
#   From: 2010.05.17/outbox.cif.g08.bks.cpg/sg51_6_cif.got.tgz:11458.got - 2010.06.03 11:52:47.
