data_PCOD9402855
_publ_section_title
;
Structure prediction by ZEFSAII (Michael W. Deem and Ramdas Pophale) SiO2 
 PCOD9402855
Probable space group: P M M A
;
_chemical_formula_sum "Si O2"
_cell_formula_units_Z 64
_cell_length_a 9.770055
_cell_length_b 16.329315
_cell_length_c 23.300904
_cell_angle_alpha 90.000000
_cell_angle_beta 90.000000
_cell_angle_gamma 90.000000
_cell_volume 3717.386745
_symmetry_space_group_name_H-M "P M M A"
_symmetry_group_IT_number 51
_symmetry_cell_setting 'orthorhombic'
loop_
_space_group_symop_operation_xyz
x,y,z
1/2-x,-y,z
1/2+x,-y,-z
-x,y,-z
-x,-y,-z
1/2+x,y,-z
1/2-x,y,z
x,-y,z
loop_
_atom_site_type_symbol
_atom_site_label
_atom_site_fract_x
_atom_site_fract_y
_atom_site_fract_z
Si Si1 0.088281 0.259644 0.748109
Si Si2 0.402595 0.160066 0.635109
Si Si3 0.908060 0.323810 0.443737
Si Si4 0.587698 0.093163 0.942286
Si Si5 0.086475 0.750632 0.137584
Si Si6 0.412886 0.593986 0.058041
Si Si7 0.416540 0.409594 0.668583
Si Si8 0.099237 0.903846 0.450439
O O1 0.250000 0.268134 0.762161
O O2 0.078367 0.188177 0.700348
O O3 0.040904 0.340777 0.713745
O O4 0.999042 0.246893 0.804123
O O5 0.250000 0.123772 0.627929
O O6 0.406851 0.241260 0.594992
O O7 0.523476 0.106398 0.609764
O O8 0.750000 0.340501 0.459548
O O9 0.958845 0.389468 0.396563
O O10 0.000000 0.319766 0.500000
O O11 0.750000 0.098685 0.955435
O O12 0.555680 0.167795 0.899580
O O13 0.562868 0.000000 0.919857
O O14 0.500000 0.102342 0.000000
O O15 0.250000 0.750092 0.148735
O O16 0.054089 0.667319 0.102078
O O17 0.250000 0.600084 0.045535
O O18 0.437977 0.500000 0.078969
O O19 0.500000 0.604667 0.000000
O O20 0.250000 0.405625 0.667381
O O21 0.459338 0.500000 0.685838
O O22 0.250000 0.865503 0.452087
O O23 0.000000 0.870896 0.500000
O O24 0.113621 0.000000 0.461802
#
# Coordination Sequence:
#
# PCOD9402855 Si02
#       8
#     8   8   8   8   8   8   8   8
#     4   9  19  34  51  71  93 122 165 206 235 275
#     4   9  18  33  49  65  90 123 157 196 239 280
#     4   9  17  28  44  67  91 116 149 189 235 286
#     4   9  18  33  53  77 103 130 161 197 238 285
#     4  10  20  33  50  73 102 134 163 198 247 291
#     4   9  18  32  49  72 103 135 166 201 243 292
#     4   8  15  30  49  66  89 122 156 193 237 280
#     4  10  20  32  48  72  97 120 150 189 235 289
#
# _framework density 17.216396
#
# number of rings (size 3 to 8) (size 9 to 14) (size 15 to 20)
#    0.000    2.875    0.000    2.625    0.000    4.500 
#    0.000    2.500    0.000    3.000    0.000    0.000 
#    0.000    0.000    0.000    0.000    0.000    0.000 
#
# Total GULP energy -356427.025078 kJ/mol
# GULP energy per Si atom -5569.172267 kJ/mol
# Density = 1.717721 g / cm^3
# Si number density = 17.216396 Si / 1000 Ang^3
#
#
#
# Elastic Constant Matrix: (Units=GPa)
#
#
# Indices 1 2 3 4 5 6 
#
# 1 76.2960 38.9882 66.1000 0.0000 0.0000 0.0000
# 2 38.9882 74.9245 55.5541 0.0000 0.0000 0.0000
# 3 66.1000 55.5541 124.4619 0.0000 0.0000 0.0000
# 4 0.0000 0.0000 0.0000 14.7410 0.0000 0.0000
# 5 0.0000 0.0000 0.0000 0.0000 34.5614 0.0000
# 6 0.0000 0.0000 0.0000 0.0000 0.0000 14.8554
#
#
#
# Elastic Compliance Matrix: (Units=1/GPa)
#
#
# Indices 1 2 3 4 5 6 
#
# 1 0.025383 -0.004802 -0.011337 0.000000 0.000000 0.000000
# 2 -0.004802 0.020858 -0.006759 0.000000 0.000000 0.000000
# 3 -0.011337 -0.006759 0.017073 0.000000 0.000000 0.000000
# 4 0.000000 0.000000 0.000000 0.067838 0.000000 0.000000
# 5 0.000000 0.000000 0.000000 0.000000 0.028934 0.000000
# 6 0.000000 0.000000 0.000000 0.000000 0.000000 0.067316
#
#
# Mechanical properties :
#
#
# Convention : Reuss Voigt Hill
#
# Bulk Modulus (GPa) = 57.09201 66.32969 61.71085
# Shear Modulus (GPa) = 17.91878 20.50088 19.20983
#
# Velocity S-wave (km/s) = 3.22964 3.45451 3.34396
# Velocity P-wave (km/s) = 6.86592 7.38391 7.12962
#
# Compressibility (1/GPa) = 0.01751559
#
# Stress axis : x y z
#
# Youngs Moduli (GPa) = 39.39671 47.94397 58.57357
#
# Poissons Ratio (x) = 0.23025 0.66404
# Poissons Ratio (y) = 0.18920 0.39592
# Poissons Ratio (z) = 0.44664 0.32407
#
# Static dielectric constant tensor:
#      x y z
#    x 1.587180 0.000000 0.000000 
#    y 0.000000 1.633680 0.000000 
#    z 0.000000 0.000000 1.555340 
# 
# From -- ./inp_files/35122.got.cif
#   From: 2010.05.17/outbox.cif.g08.bks.cpg/sg51_18_cif.got.tgz:35122.got - 2010.06.03 11:52:47.
