data_PCOD9402373
_publ_section_title
;
Structure prediction by ZEFSAII (Michael W. Deem and Ramdas Pophale) SiO2 
 PCOD9402373
Probable space group: P M M A
;
_chemical_formula_sum "Si O2"
_cell_formula_units_Z 64
_cell_length_a 32.153002
_cell_length_b 7.822633
_cell_length_c 12.109254
_cell_angle_alpha 90.000000
_cell_angle_beta 90.000000
_cell_angle_gamma 90.000000
_cell_volume 3045.733304
_symmetry_space_group_name_H-M "P M M A"
_symmetry_group_IT_number 51
_symmetry_cell_setting 'orthorhombic'
loop_
_space_group_symop_operation_xyz
x,y,z
1/2-x,-y,z
1/2+x,-y,-z
-x,y,-z
-x,-y,-z
1/2+x,y,-z
1/2-x,y,z
x,-y,z
loop_
_atom_site_type_symbol
_atom_site_label
_atom_site_fract_x
_atom_site_fract_y
_atom_site_fract_z
Si Si1 0.453477 0.696561 0.997110
Si Si2 0.678511 0.206724 0.250895
Si Si3 0.703872 0.791146 0.006342
Si Si4 0.377163 0.701973 0.390691
Si Si5 0.082407 0.201852 0.767940
Si Si6 0.045661 0.292406 0.534096
Si Si7 0.705100 0.702704 0.492831
Si Si8 0.625571 0.200393 0.861758
O O1 0.456866 0.500000 0.034545
O O2 0.417373 0.777512 0.071571
O O3 0.500000 0.772829 0.000000
O O4 0.437702 0.705847 0.871818
O O5 0.697738 0.261229 0.134026
O O6 0.630021 0.257067 0.250071
O O7 0.699110 0.275126 0.361750
O O8 0.680989 0.000000 0.255782
O O9 0.750000 0.739453 0.967588
O O10 0.702579 0.000000 0.006221
O O11 0.664795 0.731307 0.933068
O O12 0.376956 0.500000 0.415590
O O13 0.418506 0.770020 0.450375
O O14 0.335102 0.775918 0.444719
O O15 0.377574 0.722480 0.259720
O O16 0.057577 0.234252 0.656293
O O17 0.083175 0.000000 0.794117
O O18 0.045209 0.500000 0.533116
O O19 0.000000 0.232947 0.500000
O O20 0.750000 0.775856 0.525558
O O21 0.706193 0.500000 0.516283
O O22 0.632981 0.000000 0.846675
#
# Coordination Sequence:
#
# PCOD9402373 Si02
#       8
#     8   8   8   8   8   8   8   8
#     4  11  25  43  64  88 118 159 201 238 290 360
#     4  10  19  35  59  87 120 153 188 235 294 353
#     4   9  18  35  58  84 117 155 191 232 289 352
#     4  10  22  40  58  81 117 159 197 240 294 349
#     4  11  22  38  63  94 123 150 191 245 298 346
#     4  10  22  40  62  86 116 157 200 237 286 355
#     4  10  21  37  58  85 117 154 198 245 291 342
#     4  11  23  40  61  88 120 154 197 250 299 343
#
# _framework density 21.013000999999999
#
# number of rings (size 3 to 8) (size 9 to 14) (size 15 to 20)
#    0.000    1.750    2.500    1.500    1.750    4.000 
#    0.000    0.000    0.000    1.875    0.000    0.000 
#    0.000    0.000    0.000    0.000    0.000    0.000 
#
# Total GULP energy -357578.826125 kJ/mol
# GULP energy per Si atom -5587.169158 kJ/mol
# Density = 2.096517 g / cm^3
# Si number density = 21.013001 Si / 1000 Ang^3
#
#
#
# Elastic Constant Matrix: (Units=GPa)
#
#
# Indices 1 2 3 4 5 6 
#
# 1 183.1553 7.3679 58.0886 0.0000 0.0000 0.0000
# 2 7.3679 22.1330 -14.5742 0.0000 0.0000 0.0000
# 3 58.0886 -14.5742 106.2541 0.0000 0.0000 0.0000
# 4 0.0000 0.0000 0.0000 33.1900 0.0000 0.0000
# 5 0.0000 0.0000 0.0000 0.0000 43.8318 0.0000
# 6 0.0000 0.0000 0.0000 0.0000 0.0000 -9.2091
#
#
#
# Elastic Compliance Matrix: (Units=1/GPa)
#
#
# Indices 1 2 3 4 5 6 
#
# 1 0.007157 -0.005452 -0.004661 0.000000 0.000000 0.000000
# 2 -0.005452 0.053820 0.010362 0.000000 0.000000 0.000000
# 3 -0.004661 0.010362 0.013381 0.000000 0.000000 0.000000
# 4 0.000000 0.000000 0.000000 0.030130 0.000000 0.000000
# 5 0.000000 0.000000 0.000000 0.000000 0.022814 0.000000
# 6 0.000000 0.000000 0.000000 0.000000 0.000000 -0.108588
#
#
# Mechanical properties :
#
#
# Convention : Reuss Voigt Hill
#
# Bulk Modulus (GPa) = 13.35855 45.92298 29.64077
# Shear Modulus (GPa) = 115.83294 30.93988 73.38641
#
# Velocity S-wave (km/s) = 7.43264 3.84137 5.91609
# Velocity P-wave (km/s) = 8.94594 6.44801 7.79765
#
# Compressibility (1/GPa) = 0.07485843
#
# Stress axis : x y z
#
# Youngs Moduli (GPa) = 139.71769 18.58052 74.73450
#
# Poissons Ratio (x) = 0.10129 0.34831
# Poissons Ratio (y) = 0.76168 -0.77444
# Poissons Ratio (z) = 0.65117 -0.19254
#
# Static dielectric constant tensor:
#      x y z
#    x 1.777260 0.000000 0.000000 
#    y 0.000000 1.691400 0.000000 
#    z 0.000000 0.000000 1.690600 
# 
# From -- ./inp_files/19645.got.cif
#   From: 2010.05.17/outbox.cif.g08.bks.cpg/sg51_10_cif.got.tgz:19645.got - 2010.06.03 11:52:47.
