data_PCOD9402481
_publ_section_title
;
Structure prediction by ZEFSAII (Michael W. Deem and Ramdas Pophale) SiO2 
 PCOD9402481
Probable space group: P M M A
;
_chemical_formula_sum "Si O2"
_cell_formula_units_Z 48
_cell_length_a 14.606614
_cell_length_b 16.446471
_cell_length_c 10.109320
_cell_angle_alpha 90.000000
_cell_angle_beta 90.000000
_cell_angle_gamma 90.000000
_cell_volume 2428.534179
_symmetry_space_group_name_H-M "P M M A"
_symmetry_group_IT_number 51
_symmetry_cell_setting 'orthorhombic'
loop_
_space_group_symop_operation_xyz
x,y,z
1/2-x,-y,z
1/2+x,-y,-z
-x,y,-z
-x,-y,-z
1/2+x,y,-z
1/2-x,y,z
x,-y,z
loop_
_atom_site_type_symbol
_atom_site_label
_atom_site_fract_x
_atom_site_fract_y
_atom_site_fract_z
Si Si1 0.750000 0.901910 0.791003
Si Si2 0.147249 0.596770 0.374421
Si Si3 0.359649 0.596817 0.669161
Si Si4 0.059356 0.094403 0.633052
Si Si5 0.487806 0.648976 0.145246
Si Si6 0.250000 0.099549 0.519189
Si Si7 0.554490 0.164102 0.872523
O O1 0.750000 0.877087 0.635317
O O2 0.842955 0.869238 0.856925
O O3 0.750000 0.000000 0.795600
O O4 0.250000 0.629088 0.349312
O O5 0.154391 0.500000 0.391569
O O6 0.115500 0.625589 0.520000
O O7 0.081167 0.611112 0.252054
O O8 0.250000 0.603999 0.681482
O O9 0.382570 0.500000 0.682629
O O10 0.415080 0.645555 0.779422
O O11 0.159101 0.127011 0.594598
O O12 0.000000 0.095608 0.500000
O O13 0.004147 0.140239 0.744680
O O14 0.068796 0.000000 0.674185
O O15 0.447896 0.738604 0.120445
O O16 0.500000 0.609943 0.000000
O O17 0.250000 0.000000 0.518859
O O18 0.500000 0.131619 0.000000
#
# Coordination Sequence:
#
# PCOD9402481 Si02
#       7
#     4   8   8   8   8   4   8
#     4  11  22  43  71  89 116 162 205 253 317 374
#     4   9  19  37  63  90 115 153 207 259 296 346
#     4   9  19  39  64  90 120 159 210 259 297 345
#     4  10  19  36  62  89 117 148 196 251 298 362
#     4  11  24  39  54  84 126 167 193 245 306 360
#     4   9  18  35  63  95 117 146 189 249 310 352
#     4  11  26  43  58  90 127 164 200 253 309 371
#
# _framework density 19.765008999999999
#
# number of rings (size 3 to 8) (size 9 to 14) (size 15 to 20)
#    0.000    2.000    1.667    2.500    1.167    6.667 
#    6.000    2.500    0.000    0.000    0.000    0.000 
#    0.000    0.000    0.000    0.000    0.000    0.000 
#
# Total GULP energy -267875.696367 kJ/mol
# GULP energy per Si atom -5580.743674 kJ/mol
# Density = 1.972002 g / cm^3
# Si number density = 19.765009 Si / 1000 Ang^3
#
#
#
# Elastic Constant Matrix: (Units=GPa)
#
#
# Indices 1 2 3 4 5 6 
#
# 1 145.9069 15.6128 57.5934 0.0000 0.0000 0.0000
# 2 15.6128 20.6300 7.6826 0.0000 0.0000 0.0000
# 3 57.5934 7.6826 130.5404 0.0000 0.0000 0.0000
# 4 0.0000 0.0000 0.0000 23.1400 0.0000 0.0000
# 5 0.0000 0.0000 0.0000 0.0000 13.6225 0.0000
# 6 0.0000 0.0000 0.0000 0.0000 0.0000 11.6542
#
#
#
# Elastic Compliance Matrix: (Units=1/GPa)
#
#
# Indices 1 2 3 4 5 6 
#
# 1 0.008842 -0.005356 -0.003586 0.000000 0.000000 0.000000
# 2 -0.005356 0.052804 -0.000744 0.000000 0.000000 0.000000
# 3 -0.003586 -0.000744 0.009286 0.000000 0.000000 0.000000
# 4 0.000000 0.000000 0.000000 0.043215 0.000000 0.000000
# 5 0.000000 0.000000 0.000000 0.000000 0.073408 0.000000
# 6 0.000000 0.000000 0.000000 0.000000 0.000000 0.085806
#
#
# Mechanical properties :
#
#
# Convention : Reuss Voigt Hill
#
# Bulk Modulus (GPa) = 19.39523 50.98388 35.18955
# Shear Modulus (GPa) = 16.13312 24.09591 20.11451
#
# Velocity S-wave (km/s) = 2.86010 3.49538 3.19358
# Velocity P-wave (km/s) = 4.55424 6.49163 5.60724
#
# Compressibility (1/GPa) = 0.05155908
#
# Stress axis : x y z
#
# Youngs Moduli (GPa) = 113.09251 18.93796 107.68490
#
# Poissons Ratio (x) = 0.10144 0.38615
# Poissons Ratio (y) = 0.60578 0.08016
# Poissons Ratio (z) = 0.40554 0.01410
#
# Static dielectric constant tensor:
#      x y z
#    x 1.703640 0.000000 0.000000 
#    y 0.000000 1.743670 0.000000 
#    z 0.000000 0.000000 1.691020 
# 
# From -- ./inp_files/8306.got.cif
#   From: 2010.05.17/outbox.cif.g08.bks.cpg/sg51_5_cif.got.tgz:8306.got - 2010.06.03 11:52:47.
