data_PCOD9402297
_publ_section_title
;
Structure prediction by ZEFSAII (Michael W. Deem and Ramdas Pophale) SiO2 
 PCOD9402297
Probable space group: P M M A
;
_chemical_formula_sum "Si O2"
_cell_formula_units_Z 64
_cell_length_a 8.614350
_cell_length_b 20.441196
_cell_length_c 20.583878
_cell_angle_alpha 90.000000
_cell_angle_beta 90.000000
_cell_angle_gamma 90.000000
_cell_volume 3624.566021
_symmetry_space_group_name_H-M "P M M A"
_symmetry_group_IT_number 51
_symmetry_cell_setting 'orthorhombic'
loop_
_space_group_symop_operation_xyz
x,y,z
1/2-x,-y,z
1/2+x,-y,-z
-x,y,-z
-x,-y,-z
1/2+x,y,-z
1/2-x,y,z
x,-y,z
loop_
_atom_site_type_symbol
_atom_site_label
_atom_site_fract_x
_atom_site_fract_y
_atom_site_fract_z
Si Si1 0.931781 0.396095 0.261896
Si Si2 0.066501 0.708047 0.068696
Si Si3 0.434781 0.430001 0.396866
Si Si4 0.062614 0.924568 0.929350
Si Si5 0.932938 0.244913 0.298494
Si Si6 0.435193 0.286291 0.432575
Si Si7 0.062255 0.187688 0.832069
Si Si8 0.936756 0.573051 0.113167
O O1 0.750000 0.411957 0.273336
O O2 0.948567 0.317745 0.267842
O O3 0.972070 0.419766 0.190064
O O4 0.031428 0.425687 0.319975
O O5 0.250000 0.715482 0.069801
O O6 0.992161 0.750223 0.126203
O O7 0.020192 0.632387 0.077751
O O8 0.000000 0.731497 0.000000
O O9 0.250000 0.429947 0.407632
O O10 0.498644 0.500000 0.420752
O O11 0.497731 0.361466 0.424687
O O12 0.250000 0.922673 0.931724
O O13 0.011057 0.876149 0.872088
O O14 0.014635 0.000000 0.918596
O O15 0.000000 0.904022 0.000000
O O16 0.750000 0.233727 0.309659
O O17 0.990806 0.195955 0.242435
O O18 0.015228 0.247784 0.367939
O O19 0.500000 0.259405 0.500000
O O20 0.250000 0.288826 0.435147
O O21 0.250000 0.188378 0.830443
O O22 0.750000 0.580803 0.106295
O O23 0.979603 0.500000 0.091443
#
# Coordination Sequence:
#
# PCOD9402297 Si02
#       8
#     8   8   8   8   8   8   8   8
#     4   9  16  29  48  68  89 115 151 194 244 301
#     4  12  25  38  53  71  96 127 167 213 261 311
#     4   9  18  30  43  62  89 118 151 194 243 297
#     4   9  18  32  52  80 114 150 182 211 247 294
#     4   9  17  31  52  73  96 126 161 203 248 294
#     4  10  20  33  48  67  94 126 161 202 251 305
#     4  10  19  35  57  79 106 137 173 213 252 297
#     4  10  20  35  53  70  91 120 158 207 263 319
#
# _framework density 17.657287
#
# number of rings (size 3 to 8) (size 9 to 14) (size 15 to 20)
#    0.000    2.250    1.250    2.250    0.000    4.500 
#    0.000    0.000    0.000    0.000    0.000    0.000 
#    0.000    0.500    0.000    0.875    0.000    1.250 
#
# Total GULP energy -357114.536278 kJ/mol
# GULP energy per Si atom -5579.914629 kJ/mol
# Density = 1.761710 g / cm^3
# Si number density = 17.657287 Si / 1000 Ang^3
#
#
#
# Elastic Constant Matrix: (Units=GPa)
#
#
# Indices 1 2 3 4 5 6 
#
# 1 10.7344 16.4005 26.0757 0.0000 0.0000 0.0000
# 2 16.4005 66.1555 45.2996 0.0000 0.0000 0.0000
# 3 26.0757 45.2996 129.5367 0.0000 0.0000 0.0000
# 4 0.0000 0.0000 0.0000 78.1447 0.0000 0.0000
# 5 0.0000 0.0000 0.0000 0.0000 24.3241 0.0000
# 6 0.0000 0.0000 0.0000 0.0000 0.0000 11.9019
#
#
#
# Elastic Compliance Matrix: (Units=1/GPa)
#
#
# Indices 1 2 3 4 5 6 
#
# 1 0.225654 -0.032658 -0.034004 0.000000 0.000000 0.000000
# 2 -0.032658 0.024602 -0.002029 0.000000 0.000000 0.000000
# 3 -0.034004 -0.002029 0.015274 0.000000 0.000000 0.000000
# 4 0.000000 0.000000 0.000000 0.012797 0.000000 0.000000
# 5 0.000000 0.000000 0.000000 0.000000 0.041111 0.000000
# 6 0.000000 0.000000 0.000000 0.000000 0.000000 0.084020
#
#
# Mechanical properties :
#
#
# Convention : Reuss Voigt Hill
#
# Bulk Modulus (GPa) = 7.80343 42.44204 25.12274
# Shear Modulus (GPa) = 8.56816 30.78418 19.67617
#
# Velocity S-wave (km/s) = 2.20522 4.17997 3.34179
# Velocity P-wave (km/s) = 3.30348 6.88367 5.39898
#
# Compressibility (1/GPa) = 0.12814872
#
# Stress axis : x y z
#
# Youngs Moduli (GPa) = 4.43157 40.64779 65.46910
#
# Poissons Ratio (x) = 1.32747 2.22618
# Poissons Ratio (y) = 0.14472 0.13286
# Poissons Ratio (z) = 0.15069 0.08249
#
# Static dielectric constant tensor:
#      x y z
#    x 1.597660 0.000000 0.000000 
#    y 0.000000 1.620290 0.000000 
#    z 0.000000 0.000000 1.607250 
# 
# From -- ./inp_files/32588.got.cif
#   From: 2010.05.17/outbox.cif.g08.bks.cpg/sg51_17_cif.got.tgz:32588.got - 2010.06.03 11:52:47.
