data_PCOD9402046
_publ_section_title
;
Structure prediction by ZEFSAII (Michael W. Deem and Ramdas Pophale) SiO2 
 PCOD9402046
Probable space group: P M M A
;
_chemical_formula_sum "Si O2"
_cell_formula_units_Z 56
_cell_length_a 15.442569
_cell_length_b 11.244679
_cell_length_c 16.313967
_cell_angle_alpha 90.000000
_cell_angle_beta 90.000000
_cell_angle_gamma 90.000000
_cell_volume 2832.867045
_symmetry_space_group_name_H-M "P M M A"
_symmetry_group_IT_number 51
_symmetry_cell_setting 'orthorhombic'
loop_
_space_group_symop_operation_xyz
x,y,z
1/2-x,-y,z
1/2+x,-y,-z
-x,y,-z
-x,-y,-z
1/2+x,y,-z
1/2-x,y,z
x,-y,z
loop_
_atom_site_type_symbol
_atom_site_label
_atom_site_fract_x
_atom_site_fract_y
_atom_site_fract_z
Si Si1 0.396109 0.372620 0.017207
Si Si2 0.599193 0.134313 0.528060
Si Si3 0.512110 0.135570 0.227672
Si Si4 0.150410 0.296343 0.196200
Si Si5 0.908095 0.871263 0.048872
Si Si6 0.343490 0.856730 0.653784
Si Si7 0.351407 0.371094 0.379405
O O1 0.362920 0.500000 0.985932
O O2 0.375938 0.364270 0.113618
O O3 0.500000 0.372541 0.000000
O O4 0.362275 0.249666 0.978738
O O5 0.500000 0.127915 0.500000
O O6 0.649458 0.159367 0.443453
O O7 0.610834 0.246718 0.587342
O O8 0.623171 0.000000 0.558527
O O9 0.421628 0.195724 0.207626
O O10 0.568112 0.136627 0.144386
O O11 0.572979 0.191226 0.298041
O O12 0.493800 0.000000 0.251479
O O13 0.250000 0.255221 0.188157
O O14 0.144647 0.368208 0.280805
O O15 0.865696 0.000000 0.032884
O O16 0.000000 0.874121 0.000000
O O17 0.250000 0.811779 0.683293
O O18 0.344554 0.000000 0.667318
O O19 0.250000 0.368359 0.402312
O O20 0.387585 0.500000 0.407837
#
# Coordination Sequence:
#
# PCOD9402046 Si02
#       7
#     8   8   8   8   8   8   8
#     4  10  19  34  57  81 105 142 193 238 285 345
#     4  10  20  36  59  87 117 149 192 246 297 349
#     4  10  19  34  56  81 116 154 192 242 293 349
#     4  11  22  36  55  81 115 156 198 241 294 352
#     4   9  16  31  55  78 107 143 178 229 293 341
#     4   9  18  33  56  85 115 152 197 242 294 354
#     4  10  22  38  55  79 114 154 194 237 288 349
#
# _framework density 19.767959000000001
#
# number of rings (size 3 to 8) (size 9 to 14) (size 15 to 20)
#    0.000    2.143    2.857    1.714    0.000    4.000 
#    0.000    2.143    0.000    1.714    0.000    0.000 
#    0.000    0.000    0.000    0.000    0.000    0.000 
#
# Total GULP energy -311918.298015 kJ/mol
# GULP energy per Si atom -5569.969607 kJ/mol
# Density = 1.972297 g / cm^3
# Si number density = 19.767959 Si / 1000 Ang^3
#
#
#
# Elastic Constant Matrix: (Units=GPa)
#
#
# Indices 1 2 3 4 5 6 
#
# 1 84.7102 35.2719 24.3557 0.0000 0.0000 0.0000
# 2 35.2719 169.7797 40.0339 0.0000 0.0000 0.0000
# 3 24.3557 40.0339 70.9674 0.0000 0.0000 0.0000
# 4 0.0000 0.0000 0.0000 35.5673 0.0000 0.0000
# 5 0.0000 0.0000 0.0000 0.0000 19.4876 0.0000
# 6 0.0000 0.0000 0.0000 0.0000 0.0000 -3.2935
#
#
#
# Elastic Compliance Matrix: (Units=1/GPa)
#
#
# Indices 1 2 3 4 5 6 
#
# 1 0.013661 -0.001998 -0.003561 0.000000 0.000000 0.000000
# 2 -0.001998 0.007086 -0.003311 0.000000 0.000000 0.000000
# 3 -0.003561 -0.003311 0.017181 0.000000 0.000000 0.000000
# 4 0.000000 0.000000 0.000000 0.028116 0.000000 0.000000
# 5 0.000000 0.000000 0.000000 0.000000 0.051315 0.000000
# 6 0.000000 0.000000 0.000000 0.000000 0.000000 -0.303633
#
#
# Mechanical properties :
#
#
# Convention : Reuss Voigt Hill
#
# Bulk Modulus (GPa) = 49.53864 58.30892 53.92378
# Shear Modulus (GPa) = -30.90164 25.40534 -2.74815
#
# Velocity S-wave (km/s) = -3.95805 3.58883 -1.18035
# Velocity P-wave (km/s) = 2.05580 6.83620 5.04777
#
# Compressibility (1/GPa) = 0.02018626
#
# Stress axis : x y z
#
# Youngs Moduli (GPa) = 73.20155 141.12335 58.20319
#
# Poissons Ratio (x) = 0.28202 0.20726
# Poissons Ratio (y) = 0.14628 0.19274
# Poissons Ratio (z) = 0.26067 0.46733
#
# Static dielectric constant tensor:
#      x y z
#    x 1.706200 0.000000 0.000000 
#    y 0.000000 1.746040 0.000000 
#    z 0.000000 0.000000 1.712580 
# 
# From -- ./inp_files/24187.got.cif
#   From: 2010.05.17/outbox.cif.g08.bks.cpg/sg51_13_cif.got.tgz:24187.got - 2010.06.03 11:52:47.
