data_PCOD9402654
_publ_section_title
;
Structure prediction by ZEFSAII (Michael W. Deem and Ramdas Pophale) SiO2 
 PCOD9402654
Probable space group: P M M A
;
_chemical_formula_sum "Si O2"
_cell_formula_units_Z 56
_cell_length_a 9.030318
_cell_length_b 15.456437
_cell_length_c 21.458235
_cell_angle_alpha 90.000000
_cell_angle_beta 90.000000
_cell_angle_gamma 90.000000
_cell_volume 2995.066223
_symmetry_space_group_name_H-M "P M M A"
_symmetry_group_IT_number 51
_symmetry_cell_setting 'orthorhombic'
loop_
_space_group_symop_operation_xyz
x,y,z
1/2-x,-y,z
1/2+x,-y,-z
-x,y,-z
-x,-y,-z
1/2+x,y,-z
1/2-x,y,z
x,-y,z
loop_
_atom_site_type_symbol
_atom_site_label
_atom_site_fract_x
_atom_site_fract_y
_atom_site_fract_z
Si Si1 0.580527 0.668721 0.308934
Si Si2 0.087333 0.100669 0.443742
Si Si3 0.071188 0.293603 0.179106
Si Si4 0.427303 0.905756 0.191442
Si Si5 0.925214 0.396632 0.066188
Si Si6 0.421408 0.604510 0.435182
Si Si7 0.582786 0.125194 0.318477
O O1 0.750000 0.635388 0.303144
O O2 0.492747 0.664150 0.243134
O O3 0.502101 0.631982 0.370914
O O4 0.587458 0.771496 0.318265
O O5 0.250000 0.138556 0.432283
O O6 0.000000 0.144551 0.500000
O O7 0.986940 0.100629 0.383499
O O8 0.108465 0.000000 0.460268
O O9 0.250000 0.296306 0.181325
O O10 0.024662 0.191492 0.170840
O O11 0.006360 0.346333 0.121363
O O12 0.250000 0.905612 0.186859
O O13 0.479172 0.905734 0.262895
O O14 0.478337 0.000000 0.164309
O O15 0.750000 0.376813 0.065228
O O16 0.941430 0.500000 0.075376
O O17 0.000000 0.375010 0.000000
O O18 0.500000 0.632942 0.500000
O O19 0.250000 0.633373 0.434335
O O20 0.422583 0.500000 0.436114
O O21 0.750000 0.094301 0.309973
#
# Coordination Sequence:
#
# PCOD9402654 Si02
#       7
#     8   8   8   8   8   8   8
#     4  10  21  36  53  75 104 137 174 218 268 321
#     4  10  20  32  45  61  83 114 153 198 250 308
#     4  10  20  35  57  85 117 151 188 233 280 328
#     4   9  18  33  53  77 106 142 182 223 270 322
#     4  10  21  38  61  89 121 156 191 227 271 326
#     4  10  21  37  56  76  98 129 172 221 275 337
#     4  10  20  32  47  69  95 124 162 208 258 313
#
# _framework density 18.697414999999999
#
# number of rings (size 3 to 8) (size 9 to 14) (size 15 to 20)
#    0.000    2.143    0.000    3.000    0.000    8.000 
#    0.000    0.000    0.000    0.429    0.000    0.000 
#    0.000    0.000    0.000    0.000    0.000    0.000 
#
# Total GULP energy -312051.361516 kJ/mol
# GULP energy per Si atom -5572.345741 kJ/mol
# Density = 1.865486 g / cm^3
# Si number density = 18.697415 Si / 1000 Ang^3
#
#
#
# Elastic Constant Matrix: (Units=GPa)
#
#
# Indices 1 2 3 4 5 6 
#
# 1 67.6883 29.7792 60.4844 0.0000 0.0000 0.0000
# 2 29.7792 53.5206 51.9490 0.0000 0.0000 0.0000
# 3 60.4844 51.9490 137.1584 0.0000 0.0000 0.0000
# 4 0.0000 0.0000 0.0000 3.5606 0.0000 0.0000
# 5 0.0000 0.0000 0.0000 0.0000 31.3721 0.0000
# 6 0.0000 0.0000 0.0000 0.0000 0.0000 21.5014
#
#
#
# Elastic Compliance Matrix: (Units=1/GPa)
#
#
# Indices 1 2 3 4 5 6 
#
# 1 0.025239 -0.005124 -0.009189 0.000000 0.000000 0.000000
# 2 -0.005124 0.030587 -0.009325 0.000000 0.000000 0.000000
# 3 -0.009189 -0.009325 0.014875 0.000000 0.000000 0.000000
# 4 0.000000 0.000000 0.000000 0.280852 0.000000 0.000000
# 5 0.000000 0.000000 0.000000 0.000000 0.031876 0.000000
# 6 0.000000 0.000000 0.000000 0.000000 0.000000 0.046509
#
#
# Mechanical properties :
#
#
# Convention : Reuss Voigt Hill
#
# Bulk Modulus (GPa) = 42.69079 60.31027 51.50053
# Shear Modulus (GPa) = 10.30881 19.03047 14.66964
#
# Velocity S-wave (km/s) = 2.35063 3.19378 2.80408
# Velocity P-wave (km/s) = 5.49994 6.77689 6.17153
#
# Compressibility (1/GPa) = 0.02342426
#
# Stress axis : x y z
#
# Youngs Moduli (GPa) = 39.62105 32.69394 67.22599
#
# Poissons Ratio (x) = 0.16751 0.61777
# Poissons Ratio (y) = 0.20300 0.62691
# Poissons Ratio (z) = 0.36409 0.30488
#
# Static dielectric constant tensor:
#      x y z
#    x 1.693420 0.000000 0.000000 
#    y 0.000000 1.699000 0.000000 
#    z 0.000000 0.000000 1.577200 
# 
# From -- ./inp_files/31921.got.cif
#   From: 2010.05.17/outbox.cif.g08.bks.cpg/sg51_16_cif.got.tgz:31921.got - 2010.06.03 11:52:47.
