data_PCOD9402720
_publ_section_title
;
Structure prediction by ZEFSAII (Michael W. Deem and Ramdas Pophale) SiO2 
 PCOD9402720
Probable space group: P M M A
;
_chemical_formula_sum "Si O2"
_cell_formula_units_Z 40
_cell_length_a 18.915286
_cell_length_b 9.361549
_cell_length_c 13.910013
_cell_angle_alpha 90.000000
_cell_angle_beta 90.000000
_cell_angle_gamma 90.000000
_cell_volume 2463.134702
_symmetry_space_group_name_H-M "P M M A"
_symmetry_group_IT_number 51
_symmetry_cell_setting 'orthorhombic'
loop_
_space_group_symop_operation_xyz
x,y,z
1/2-x,-y,z
1/2+x,-y,-z
-x,y,-z
-x,-y,-z
1/2+x,y,-z
1/2-x,y,z
x,-y,z
loop_
_atom_site_type_symbol
_atom_site_label
_atom_site_fract_x
_atom_site_fract_y
_atom_site_fract_z
Si Si1 0.469249 0.163515 0.282194
Si Si2 0.328583 0.828731 0.839542
Si Si3 0.030808 0.331743 0.893318
Si Si4 0.371976 0.838368 0.629867
Si Si5 0.919476 0.664070 0.542790
O O1 0.481776 0.251518 0.184742
O O2 0.546932 0.157750 0.331915
O O3 0.421092 0.244253 0.359798
O O4 0.447302 0.000000 0.264526
O O5 0.250000 0.799287 0.877567
O O6 0.392131 0.741435 0.886530
O O7 0.330221 0.795105 0.725357
O O8 0.342179 0.000000 0.846995
O O9 0.035689 0.500000 0.869077
O O10 0.000000 0.317257 0.000000
O O11 0.371235 0.734990 0.539177
O O12 0.352086 0.000000 0.602298
O O13 0.901138 0.500000 0.560973
O O14 0.000000 0.665845 0.500000
#
# Coordination Sequence:
#
# PCOD9402720 Si02
#       5
#     8   8   8   8   8
#     4   9  16  26  41  60  84 115 149 185 225 268
#     4   9  18  32  49  69  93 122 156 193 234 283
#     4  10  20  32  46  67  95 124 156 198 246 290
#     4   8  14  24  38  58  85 114 143 176 215 261
#     4   9  15  22  35  57  85 114 142 172 208 254
#
# _framework density 16.239469
#
# number of rings (size 3 to 8) (size 9 to 14) (size 15 to 20)
#    0.000    3.000    0.000    3.000    0.000    9.200 
#    0.000    0.000    0.000    0.000    0.000    1.400 
#    0.000    8.000    0.000    0.000    0.000    0.000 
#
# Total GULP energy -222720.918816 kJ/mol
# GULP energy per Si atom -5568.022970 kJ/mol
# Density = 1.620251 g / cm^3
# Si number density = 16.239469 Si / 1000 Ang^3
#
#
#
# Elastic Constant Matrix: (Units=GPa)
#
#
# Indices 1 2 3 4 5 6 
#
# 1 41.4654 35.6372 25.7373 0.0000 0.0000 0.0000
# 2 35.6372 126.6843 74.1462 0.0000 0.0000 0.0000
# 3 25.7373 74.1462 85.0836 0.0000 0.0000 0.0000
# 4 0.0000 0.0000 0.0000 28.2450 0.0000 0.0000
# 5 0.0000 0.0000 0.0000 0.0000 10.0564 0.0000
# 6 0.0000 0.0000 0.0000 0.0000 0.0000 5.6074
#
#
#
# Elastic Compliance Matrix: (Units=1/GPa)
#
#
# Indices 1 2 3 4 5 6 
#
# 1 0.032395 -0.006894 -0.003792 0.000000 0.000000 0.000000
# 2 -0.006894 0.017578 -0.013233 0.000000 0.000000 0.000000
# 3 -0.003792 -0.013233 0.024432 0.000000 0.000000 0.000000
# 4 0.000000 0.000000 0.000000 0.035405 0.000000 0.000000
# 5 0.000000 0.000000 0.000000 0.000000 0.099439 0.000000
# 6 0.000000 0.000000 0.000000 0.000000 0.000000 0.178336
#
#
# Mechanical properties :
#
#
# Convention : Reuss Voigt Hill
#
# Bulk Modulus (GPa) = 37.63942 58.25275 47.94609
# Shear Modulus (GPa) = 11.25424 16.62926 13.94175
#
# Velocity S-wave (km/s) = 2.63538 3.20348 2.93321
# Velocity P-wave (km/s) = 5.69986 7.04500 6.40782
#
# Compressibility (1/GPa) = 0.02656789
#
# Stress axis : x y z
#
# Youngs Moduli (GPa) = 30.86923 56.88954 40.92986
#
# Poissons Ratio (x) = 0.39217 0.15520
# Poissons Ratio (y) = 0.21280 0.54163
# Poissons Ratio (z) = 0.11705 0.75282
#
# Static dielectric constant tensor:
#      x y z
#    x 1.557310 0.000000 0.000000 
#    y 0.000000 1.551990 0.000000 
#    z 0.000000 0.000000 1.533460 
# 
# From -- ./inp_files/17883.got.cif
#   From: 2010.05.17/outbox.cif.g08.bks.cpg/sg51_9_cif.got.tgz:17883.got - 2010.06.03 11:52:47.
