data_PCOD9402153
_publ_section_title
;
Structure prediction by ZEFSAII (Michael W. Deem and Ramdas Pophale) SiO2 
 PCOD9402153
Probable space group: P M M A
;
_chemical_formula_sum "Si O2"
_cell_formula_units_Z 52
_cell_length_a 26.538220
_cell_length_b 7.732823
_cell_length_c 12.018486
_cell_angle_alpha 90.000000
_cell_angle_beta 90.000000
_cell_angle_gamma 90.000000
_cell_volume 2466.377907
_symmetry_space_group_name_H-M "P M M A"
_symmetry_group_IT_number 51
_symmetry_cell_setting 'orthorhombic'
loop_
_space_group_symop_operation_xyz
x,y,z
1/2-x,-y,z
1/2+x,-y,-z
-x,y,-z
-x,-y,-z
1/2+x,y,-z
1/2-x,y,z
x,-y,z
loop_
_atom_site_type_symbol
_atom_site_label
_atom_site_fract_x
_atom_site_fract_y
_atom_site_fract_z
Si Si1 0.901374 0.804713 0.989351
Si Si2 0.033442 0.292966 0.219449
Si Si3 0.693217 0.200382 0.588619
Si Si4 0.410950 0.000000 0.621064
Si Si5 0.917862 0.303204 0.230490
Si Si6 0.193432 0.294005 0.155238
Si Si7 0.416197 0.302980 0.452392
O O1 0.943398 0.774207 0.895005
O O2 0.849044 0.773509 0.926078
O O3 0.905668 0.000000 0.028295
O O4 0.905904 0.692708 0.099619
O O5 0.033307 0.500000 0.209980
O O6 0.066566 0.250272 0.327658
O O7 0.976055 0.238371 0.237226
O O8 0.750000 0.258347 0.558352
O O9 0.690308 0.211017 0.722626
O O10 0.644854 0.300476 0.544996
O O11 0.686889 0.000000 0.553276
O O12 0.388828 0.844311 0.703149
O O13 0.432292 0.844874 0.537321
O O14 0.913368 0.500000 0.273975
O O15 0.250000 0.264195 0.112698
O O16 0.186146 0.500000 0.170852
O O17 0.434538 0.500000 0.471611
#
# Coordination Sequence:
#
# PCOD9402153 Si02
#       7
#     8   8   8   4   8   8   8
#     4  12  23  37  63  94 128 164 206 253 314 375
#     4  10  23  40  62  94 126 162 206 256 318 377
#     4  10  19  34  57  92 129 159 196 249 314 382
#     4  12  26  45  62  90 115 166 215 261 306 363
#     4  11  25  45  64  87 125 170 217 262 303 363
#     4  10  20  34  57  91 129 164 198 244 312 385
#     4  11  23  40  64  93 126 162 203 259 317 374
#
# _framework density 21.083549999999999
#
# number of rings (size 3 to 8) (size 9 to 14) (size 15 to 20)
#    0.000    1.231    3.077    3.231    2.154    4.923 
#    0.000    2.308    0.000    1.846    0.000    0.000 
#    0.000    0.000    0.000    0.000    0.000    0.000 
#
# Total GULP energy -289554.506032 kJ/mol
# GULP energy per Si atom -5568.355885 kJ/mol
# Density = 2.103556 g / cm^3
# Si number density = 21.083550 Si / 1000 Ang^3
#
#
#
# Elastic Constant Matrix: (Units=GPa)
#
#
# Indices 1 2 3 4 5 6 
#
# 1 52.8166 1.3071 -17.2383 0.0000 0.0000 0.0000
# 2 1.3071 105.7933 25.9065 0.0000 0.0000 0.0000
# 3 -17.2383 25.9065 63.6562 0.0000 0.0000 0.0000
# 4 0.0000 0.0000 0.0000 78.1653 0.0000 0.0000
# 5 0.0000 0.0000 0.0000 0.0000 -3.6808 0.0000
# 6 0.0000 0.0000 0.0000 0.0000 0.0000 -4.8433
#
#
#
# Elastic Compliance Matrix: (Units=1/GPa)
#
#
# Indices 1 2 3 4 5 6 
#
# 1 0.021088 -0.001843 0.006460 0.000000 0.000000 0.000000
# 2 -0.001843 0.010660 -0.004837 0.000000 0.000000 0.000000
# 3 0.006460 -0.004837 0.019428 0.000000 0.000000 0.000000
# 4 0.000000 0.000000 0.000000 0.012793 0.000000 0.000000
# 5 0.000000 0.000000 0.000000 0.000000 -0.271683 0.000000
# 6 0.000000 0.000000 0.000000 0.000000 0.000000 -0.206469
#
#
# Mechanical properties :
#
#
# Convention : Reuss Voigt Hill
#
# Bulk Modulus (GPa) = 19.70980 26.91298 23.31139
# Shear Modulus (GPa) = -12.59978 28.08095 7.74059
#
# Velocity S-wave (km/s) = -2.44726 3.65346 1.91816
# Velocity P-wave (km/s) = 1.17612 5.53080 3.99831
#
# Compressibility (1/GPa) = 0.05073618
#
# Stress axis : x y z
#
# Youngs Moduli (GPa) = 47.42123 93.81133 51.47331
#
# Poissons Ratio (x) = 0.17285 -0.33254
# Poissons Ratio (y) = 0.08738 0.24899
# Poissons Ratio (z) = -0.30636 0.45379
#
# Static dielectric constant tensor:
#      x y z
#    x 1.815150 0.000000 0.000000 
#    y 0.000000 1.777620 0.000000 
#    z 0.000000 0.000000 1.787450 
# 
# From -- ./inp_files/19097.got.cif
#   From: 2010.05.17/outbox.cif.g08.bks.cpg/sg51_10_cif.got.tgz:19097.got - 2010.06.03 11:52:47.
