data_PCOD9402906
_publ_section_title
;
Structure prediction by ZEFSAII (Michael W. Deem and Ramdas Pophale) SiO2 
 PCOD9402906
Probable space group: P M M A
;
_chemical_formula_sum "Si O2"
_cell_formula_units_Z 64
_cell_length_a 15.668177
_cell_length_b 7.410764
_cell_length_c 24.942362
_cell_angle_alpha 90.000000
_cell_angle_beta 90.000000
_cell_angle_gamma 90.000000
_cell_volume 2896.136521
_symmetry_space_group_name_H-M "P M M A"
_symmetry_group_IT_number 51
_symmetry_cell_setting 'orthorhombic'
loop_
_space_group_symop_operation_xyz
x,y,z
1/2-x,-y,z
1/2+x,-y,-z
-x,y,-z
-x,-y,-z
1/2+x,y,-z
1/2-x,y,z
x,-y,z
loop_
_atom_site_type_symbol
_atom_site_label
_atom_site_fract_x
_atom_site_fract_y
_atom_site_fract_z
Si Si1 0.650462 0.221271 0.900001
Si Si2 0.655509 0.220281 0.376297
Si Si3 0.353372 0.794662 0.983243
Si Si4 0.342908 0.219920 0.390125
Si Si5 0.152985 0.293994 0.862844
Si Si6 0.021897 0.207427 0.190689
Si Si7 0.598813 0.219581 0.494124
Si Si8 0.007640 0.221326 0.310633
O O1 0.750000 0.272270 0.891446
O O2 0.586827 0.284207 0.853534
O O3 0.649186 0.000000 0.902313
O O4 0.619408 0.281499 0.959252
O O5 0.750000 0.276952 0.360520
O O6 0.635450 0.279300 0.437190
O O7 0.582280 0.278415 0.335713
O O8 0.653867 0.000000 0.377146
O O9 0.250000 0.798487 0.987677
O O10 0.370447 0.707654 0.926044
O O11 0.385022 0.000000 0.978794
O O12 0.250000 0.274364 0.370239
O O13 0.355208 0.278491 0.451591
O O14 0.418637 0.278244 0.351591
O O15 0.345888 0.000000 0.390943
O O16 0.250000 0.217639 0.857723
O O17 0.156839 0.500000 0.844780
O O18 0.074902 0.207876 0.831191
O O19 0.022893 0.285664 0.250318
O O20 0.049595 0.000000 0.196554
O O21 0.500000 0.269731 0.500000
O O22 0.602711 0.000000 0.493316
O O23 0.006925 0.000000 0.309823
#
# Coordination Sequence:
#
# PCOD9402906 Si02
#       8
#     8   8   8   8   8   8   8   8
#     4   8  15  29  49  73  99 126 157 193 234 282
#     4   9  15  22  32  46  68 102 142 183 226 268
#     4   8  14  28  51  74  95 121 154 192 234 283
#     4   9  15  22  33  50  74 107 147 189 233 278
#     4  10  21  36  52  71  97 126 155 193 241 288
#     4  10  20  32  49  71  95 127 165 200 235 279
#     4   9  13  19  31  45  68 103 142 184 226 273
#     4   9  17  27  36  53  80 109 147 192 229 263
#
# _framework density 22.098406000000001
#
# number of rings (size 3 to 8) (size 9 to 14) (size 15 to 20)
#    0.000    3.000    1.250    1.500    0.000    3.750 
#    0.000    6.875    0.000    1.125    0.000    0.000 
#    0.000    0.000    0.000    2.250    0.000    7.250 
#
# Total GULP energy -357168.489042 kJ/mol
# GULP energy per Si atom -5580.757641 kJ/mol
# Density = 2.204811 g / cm^3
# Si number density = 22.098406 Si / 1000 Ang^3
#
#
#
# Elastic Constant Matrix: (Units=GPa)
#
#
# Indices 1 2 3 4 5 6 
#
# 1 79.6474 -6.3915 6.5287 0.0000 0.0000 0.0000
# 2 -6.3915 67.3777 -4.6557 0.0000 0.0000 0.0000
# 3 6.5287 -4.6557 75.1170 0.0000 0.0000 0.0000
# 4 0.0000 0.0000 0.0000 -181.0502 0.0000 0.0000
# 5 0.0000 0.0000 0.0000 0.0000 -14.7939 0.0000
# 6 0.0000 0.0000 0.0000 0.0000 0.0000 -24.9294
#
#
#
# Elastic Compliance Matrix: (Units=1/GPa)
#
#
# Indices 1 2 3 4 5 6 
#
# 1 0.012731 0.001136 -0.001036 0.000000 0.000000 0.000000
# 2 0.001136 0.015007 0.000831 0.000000 0.000000 0.000000
# 3 -0.001036 0.000831 0.013454 0.000000 0.000000 0.000000
# 4 0.000000 0.000000 0.000000 -0.005523 0.000000 0.000000
# 5 0.000000 0.000000 0.000000 0.000000 -0.067596 0.000000
# 6 0.000000 0.000000 0.000000 0.000000 0.000000 -0.040113
#
#
# Mechanical properties :
#
#
# Convention : Reuss Voigt Hill
#
# Bulk Modulus (GPa) = 23.22598 23.67836 23.45217
# Shear Modulus (GPa) = -83.96203 -29.04398 -56.50300
#
# Velocity S-wave (km/s) = -6.17066 -3.62926 -5.06205
# Velocity P-wave (km/s) = 6.34322 2.61225 4.85079
#
# Compressibility (1/GPa) = 0.04305523
#
# Stress axis : x y z
#
# Youngs Moduli (GPa) = 78.54568 66.63594 74.32657
#
# Poissons Ratio (x) = -0.07571 0.07701
# Poissons Ratio (y) = -0.08924 -0.06179
# Poissons Ratio (z) = 0.08138 -0.05540
#
# Static dielectric constant tensor:
#      x y z
#    x 1.781500 0.000000 0.000000 
#    y 0.000000 1.943940 0.000000 
#    z 0.000000 0.000000 1.783150 
# 
# From -- ./inp_files/35819.got.cif
#   From: 2010.05.17/outbox.cif.g08.bks.cpg/sg51_18_cif.got.tgz:35819.got - 2010.06.03 11:52:47.
