data_PCOD9402377
_publ_section_title
;
Structure prediction by ZEFSAII (Michael W. Deem and Ramdas Pophale) SiO2 
 PCOD9402377
Probable space group: P M M A
;
_chemical_formula_sum "Si O2"
_cell_formula_units_Z 64
_cell_length_a 26.420456
_cell_length_b 13.965457
_cell_length_c 9.710820
_cell_angle_alpha 90.000000
_cell_angle_beta 90.000000
_cell_angle_gamma 90.000000
_cell_volume 3583.037595
_symmetry_space_group_name_H-M "P M M A"
_symmetry_group_IT_number 51
_symmetry_cell_setting 'orthorhombic'
loop_
_space_group_symop_operation_xyz
x,y,z
1/2-x,-y,z
1/2+x,-y,-z
-x,y,-z
-x,-y,-z
1/2+x,y,-z
1/2-x,y,z
x,-y,z
loop_
_atom_site_type_symbol
_atom_site_label
_atom_site_fract_x
_atom_site_fract_y
_atom_site_fract_z
Si Si1 0.429021 0.758157 0.873292
Si Si2 0.192121 0.713469 0.561598
Si Si3 0.952645 0.252732 0.804711
Si Si4 0.653123 0.387534 0.186161
Si Si5 0.132584 0.889488 0.675218
Si Si6 0.117642 0.385887 0.344821
Si Si7 0.195417 0.385010 0.101198
Si Si8 0.949020 0.889768 0.569673
O O1 0.487113 0.756926 0.824909
O O2 0.400091 0.667029 0.809230
O O3 0.397857 0.846718 0.806964
O O4 0.429998 0.751275 0.040176
O O5 0.250000 0.714557 0.506782
O O6 0.188003 0.638516 0.686369
O O7 0.176338 0.815604 0.628324
O O8 0.147228 0.675490 0.460837
O O9 0.935241 0.344243 0.713123
O O10 0.934948 0.166017 0.707405
O O11 0.645042 0.500000 0.176798
O O12 0.679704 0.349576 0.048020
O O13 0.093576 0.887252 0.546943
O O14 0.147980 0.000000 0.697037
O O15 0.115725 0.500000 0.377813
O O16 0.153531 0.369112 0.213688
O O17 0.250000 0.347104 0.143621
O O18 0.198980 0.500000 0.088945
O O19 0.000000 0.848440 0.500000
O O20 0.959764 0.000000 0.605863
#
# Coordination Sequence:
#
# PCOD9402377 Si02
#       8
#     8   8   8   8   8   8   8   8
#     4  10  22  35  56  83 118 153 191 237 281 338
#     4  11  23  38  59  86 112 144 187 239 292 343
#     4  11  21  36  55  85 117 153 193 235 285 338
#     4  10  20  36  54  79 112 147 191 234 276 330
#     4  10  21  39  61  85 114 146 181 231 289 346
#     4  11  22  36  53  80 117 151 190 236 283 336
#     4   9  17  31  52  73  98 139 187 231 274 322
#     4  10  19  35  60  84 109 143 184 230 283 340
#
# _framework density 17.861940000000001
#
# number of rings (size 3 to 8) (size 9 to 14) (size 15 to 20)
#    0.000    1.750    3.750    1.125    0.000    3.250 
#    0.000    2.500    0.000    2.625    0.000    0.000 
#    0.000    0.000    0.000    0.000    0.000    0.000 
#
# Total GULP energy -356391.157436 kJ/mol
# GULP energy per Si atom -5568.611835 kJ/mol
# Density = 1.782129 g / cm^3
# Si number density = 17.861940 Si / 1000 Ang^3
#
#
#
# Elastic Constant Matrix: (Units=GPa)
#
#
# Indices 1 2 3 4 5 6 
#
# 1 34.5397 16.1861 16.0255 0.0000 0.0000 0.0000
# 2 16.1861 95.2409 28.8463 0.0000 0.0000 0.0000
# 3 16.0255 28.8463 69.5132 0.0000 0.0000 0.0000
# 4 0.0000 0.0000 0.0000 21.6775 0.0000 0.0000
# 5 0.0000 0.0000 0.0000 0.0000 28.5890 0.0000
# 6 0.0000 0.0000 0.0000 0.0000 0.0000 6.5307
#
#
#
# Elastic Compliance Matrix: (Units=1/GPa)
#
#
# Indices 1 2 3 4 5 6 
#
# 1 0.033610 -0.003849 -0.006151 0.000000 0.000000 0.000000
# 2 -0.003849 0.012450 -0.004279 0.000000 0.000000 0.000000
# 3 -0.006151 -0.004279 0.017580 0.000000 0.000000 0.000000
# 4 0.000000 0.000000 0.000000 0.046131 0.000000 0.000000
# 5 0.000000 0.000000 0.000000 0.000000 0.034978 0.000000
# 6 0.000000 0.000000 0.000000 0.000000 0.000000 0.153123
#
#
# Mechanical properties :
#
#
# Convention : Reuss Voigt Hill
#
# Bulk Modulus (GPa) = 28.50550 35.71217 32.10883
# Shear Modulus (GPa) = 14.78751 20.57517 17.68134
#
# Velocity S-wave (km/s) = 2.88041 3.39765 3.14966
# Velocity P-wave (km/s) = 5.20152 5.95221 5.58948
#
# Compressibility (1/GPa) = 0.03508096
#
# Stress axis : x y z
#
# Youngs Moduli (GPa) = 29.75315 80.32238 56.88428
#
# Poissons Ratio (x) = 0.30915 0.34991
# Poissons Ratio (y) = 0.11452 0.24341
# Poissons Ratio (z) = 0.18302 0.34370
#
# Static dielectric constant tensor:
#      x y z
#    x 1.657670 0.000000 0.000000 
#    y 0.000000 1.622440 0.000000 
#    z 0.000000 0.000000 1.631160 
# 
# From -- ./inp_files/11891.got.cif
#   From: 2010.05.17/outbox.cif.g08.bks.cpg/sg51_6_cif.got.tgz:11891.got - 2010.06.03 11:52:47.
