data_PCOD9402515
_publ_section_title
;
Structure prediction by ZEFSAII (Michael W. Deem and Ramdas Pophale) SiO2 
 PCOD9402515
Probable space group: P M M A
;
_chemical_formula_sum "Si O2"
_cell_formula_units_Z 64
_cell_length_a 8.626169
_cell_length_b 24.330155
_cell_length_c 15.850950
_cell_angle_alpha 90.000000
_cell_angle_beta 90.000000
_cell_angle_gamma 90.000000
_cell_volume 3326.734439
_symmetry_space_group_name_H-M "P M M A"
_symmetry_group_IT_number 51
_symmetry_cell_setting 'orthorhombic'
loop_
_space_group_symop_operation_xyz
x,y,z
1/2-x,-y,z
1/2+x,-y,-z
-x,y,-z
-x,-y,-z
1/2+x,y,-z
1/2-x,y,z
x,-y,z
loop_
_atom_site_type_symbol
_atom_site_label
_atom_site_fract_x
_atom_site_fract_y
_atom_site_fract_z
Si Si1 0.936230 0.868253 0.090498
Si Si2 0.564209 0.935706 0.751264
Si Si3 0.563965 0.870676 0.409256
Si Si4 0.562906 0.749334 0.350460
Si Si5 0.064824 0.365743 0.410704
Si Si6 0.562599 0.436218 0.751425
Si Si7 0.064104 0.369398 0.909571
Si Si8 0.061795 0.749430 0.846511
O O1 0.750000 0.869028 0.089665
O O2 0.989794 0.805481 0.109023
O O3 0.995408 0.905429 0.167088
O O4 0.000000 0.886182 0.000000
O O5 0.750000 0.930800 0.752730
O O6 0.500230 0.906881 0.667219
O O7 0.522848 0.000000 0.751980
O O8 0.500000 0.888095 0.500000
O O9 0.750000 0.873234 0.408758
O O10 0.517519 0.807202 0.391750
O O11 0.750000 0.744984 0.354041
O O12 0.491178 0.696395 0.394473
O O13 0.516131 0.749815 0.251858
O O14 0.250000 0.366695 0.413504
O O15 0.012377 0.402745 0.331707
O O16 0.000000 0.385455 0.500000
O O17 0.750000 0.433311 0.755847
O O18 0.517943 0.500000 0.746218
O O19 0.494045 0.407545 0.833982
O O20 0.250000 0.369603 0.911083
O O21 0.009393 0.306892 0.889881
O O22 0.000000 0.386983 0.000000
O O23 0.250000 0.749536 0.847948
#
# Coordination Sequence:
#
# PCOD9402515 Si02
#       8
#     8   8   8   8   8   8   8   8
#     4  11  22  40  64  93 125 160 199 244 299 358
#     4  11  25  44  64  88 119 158 206 255 301 352
#     4  11  23  40  64  92 124 160 199 244 299 358
#     4  10  19  37  62  90 123 157 194 240 294 355
#     4  11  23  38  60  90 120 156 197 242 298 355
#     4  10  23  43  62  83 115 154 201 252 296 345
#     4  11  22  38  62  90 122 156 194 240 293 354
#     4   9  18  35  60  90 123 156 191 237 294 353
#
# _framework density 19.238085000000002
#
# number of rings (size 3 to 8) (size 9 to 14) (size 15 to 20)
#    0.000    1.500    2.500    2.625    0.000    4.750 
#    0.000    1.875    0.000    0.000    0.000    0.000 
#    0.000    0.000    0.000    0.000    0.000    0.000 
#
# Total GULP energy -357800.999852 kJ/mol
# GULP energy per Si atom -5590.640623 kJ/mol
# Density = 1.919430 g / cm^3
# Si number density = 19.238085 Si / 1000 Ang^3
#
#
#
# Elastic Constant Matrix: (Units=GPa)
#
#
# Indices 1 2 3 4 5 6 
#
# 1 39.0007 45.0805 44.1079 0.0000 0.0000 0.0000
# 2 45.0805 144.0106 83.8302 0.0000 0.0000 0.0000
# 3 44.1079 83.8302 198.9334 0.0000 0.0000 0.0000
# 4 0.0000 0.0000 0.0000 -4.5269 0.0000 0.0000
# 5 0.0000 0.0000 0.0000 0.0000 31.4561 0.0000
# 6 0.0000 0.0000 0.0000 0.0000 0.0000 6.2496
#
#
#
# Elastic Compliance Matrix: (Units=1/GPa)
#
#
# Indices 1 2 3 4 5 6 
#
# 1 0.043931 -0.010709 -0.005228 0.000000 0.000000 0.000000
# 2 -0.010709 0.011811 -0.002603 0.000000 0.000000 0.000000
# 3 -0.005228 -0.002603 0.007283 0.000000 0.000000 0.000000
# 4 0.000000 0.000000 0.000000 -0.220902 0.000000 0.000000
# 5 0.000000 0.000000 0.000000 0.000000 0.031790 0.000000
# 6 0.000000 0.000000 0.000000 0.000000 0.000000 0.160011
#
#
# Mechanical properties :
#
#
# Convention : Reuss Voigt Hill
#
# Bulk Modulus (GPa) = 38.54131 80.88688 59.71409
# Shear Modulus (GPa) = 62.77295 20.56417 41.66856
#
# Velocity S-wave (km/s) = 5.71842 3.27300 4.65902
# Velocity P-wave (km/s) = 7.97984 7.51131 7.74912
#
# Compressibility (1/GPa) = 0.02594619
#
# Stress axis : x y z
#
# Youngs Moduli (GPa) = 22.76286 84.66413 137.31010
#
# Poissons Ratio (x) = 0.90666 0.71783
# Poissons Ratio (y) = 0.24376 0.35740
# Poissons Ratio (z) = 0.11900 0.22037
#
# Static dielectric constant tensor:
#      x y z
#    x 1.646710 0.000000 0.000000 
#    y 0.000000 1.655690 0.000000 
#    z 0.000000 0.000000 1.646490 
# 
# From -- ./inp_files/22257.got.cif
#   From: 2010.05.17/outbox.cif.g08.bks.cpg/sg51_12_cif.got.tgz:22257.got - 2010.06.03 11:52:47.
