data_PCOD9402628
_publ_section_title
;
Structure prediction by ZEFSAII (Michael W. Deem and Ramdas Pophale) SiO2 
 PCOD9402628
Probable space group: P M M A
;
_chemical_formula_sum "Si O2"
_cell_formula_units_Z 48
_cell_length_a 13.909647
_cell_length_b 17.453950
_cell_length_c 11.119136
_cell_angle_alpha 90.000000
_cell_angle_beta 90.000000
_cell_angle_gamma 90.000000
_cell_volume 2699.484749
_symmetry_space_group_name_H-M "P M M A"
_symmetry_group_IT_number 51
_symmetry_cell_setting 'orthorhombic'
loop_
_space_group_symop_operation_xyz
x,y,z
1/2-x,-y,z
1/2+x,-y,-z
-x,y,-z
-x,-y,-z
1/2+x,y,-z
1/2-x,y,z
x,-y,z
loop_
_atom_site_type_symbol
_atom_site_label
_atom_site_fract_x
_atom_site_fract_y
_atom_site_fract_z
Si Si1 0.362925 0.814230 0.226419
Si Si2 0.020311 0.672437 0.135605
Si Si3 0.634880 0.227336 0.253914
Si Si4 0.478202 0.087264 0.858580
Si Si5 0.135712 0.265654 0.480018
Si Si6 0.134592 0.588197 0.337861
O O1 0.250000 0.819822 0.203998
O O2 0.410908 0.748097 0.143362
O O3 0.421068 0.891356 0.204162
O O4 0.379683 0.786230 0.362880
O O5 0.073785 0.611441 0.220241
O O6 0.920003 0.702238 0.191031
O O7 0.000000 0.647994 0.000000
O O8 0.750000 0.231929 0.245210
O O9 0.596707 0.149741 0.191491
O O10 0.600980 0.232719 0.393570
O O11 0.448205 0.000000 0.836340
O O12 0.500000 0.096758 0.000000
O O13 0.250000 0.270431 0.495793
O O14 0.105255 0.350987 0.440640
O O15 0.250000 0.599441 0.314742
O O16 0.119959 0.500000 0.370647
#
# Coordination Sequence:
#
# PCOD9402628 Si02
#       6
#     8   8   8   8   8   8
#     4   9  17  32  53  74  99 133 171 213 258 300
#     4  10  20  31  48  77 106 133 176 219 244 292
#     4  10  20  35  54  74 101 137 169 205 255 301
#     4  10  22  36  50  75 104 130 169 211 246 298
#     4   8  16  32  53  77 101 127 170 215 247 299
#     4   9  18  34  56  78 102 135 170 210 263 311
#
# _framework density 17.781171000000001
#
# number of rings (size 3 to 8) (size 9 to 14) (size 15 to 20)
#    0.000    2.667    0.000    3.500    0.000   10.333 
#    0.000    5.000    0.000    4.500    0.000    0.000 
#    0.000    0.000    0.000    0.000    0.000    0.000 
#
# Total GULP energy -267484.303891 kJ/mol
# GULP energy per Si atom -5572.589664 kJ/mol
# Density = 1.774070 g / cm^3
# Si number density = 17.781171 Si / 1000 Ang^3
#
#
#
# Elastic Constant Matrix: (Units=GPa)
#
#
# Indices 1 2 3 4 5 6 
#
# 1 116.1595 22.8184 29.1704 0.0000 0.0000 0.0000
# 2 22.8184 88.3570 51.8990 0.0000 0.0000 0.0000
# 3 29.1704 51.8990 84.4695 0.0000 0.0000 0.0000
# 4 0.0000 0.0000 0.0000 -92.4856 0.0000 0.0000
# 5 0.0000 0.0000 0.0000 0.0000 33.5433 0.0000
# 6 0.0000 0.0000 0.0000 0.0000 0.0000 12.6549
#
#
#
# Elastic Compliance Matrix: (Units=1/GPa)
#
#
# Indices 1 2 3 4 5 6 
#
# 1 0.009464 -0.000821 -0.002764 0.000000 0.000000 0.000000
# 2 -0.000821 0.017780 -0.010641 0.000000 0.000000 0.000000
# 3 -0.002764 -0.010641 0.019331 0.000000 0.000000 0.000000
# 4 0.000000 0.000000 0.000000 -0.010812 0.000000 0.000000
# 5 0.000000 0.000000 0.000000 0.000000 0.029812 0.000000
# 6 0.000000 0.000000 0.000000 0.000000 0.000000 0.079021
#
#
# Mechanical properties :
#
#
# Convention : Reuss Voigt Hill
#
# Bulk Modulus (GPa) = 55.17539 55.19572 55.18556
# Shear Modulus (GPa) = 27.91926 3.08240 15.50083
#
# Velocity S-wave (km/s) = 3.96682 1.31806 2.95575
# Velocity P-wave (km/s) = 7.21654 5.78147 6.53850
#
# Compressibility (1/GPa) = 0.01812402
#
# Stress axis : x y z
#
# Youngs Moduli (GPa) = 105.66145 56.24377 51.73054
#
# Poissons Ratio (x) = 0.04615 0.14299
# Poissons Ratio (y) = 0.08670 0.55045
# Poissons Ratio (z) = 0.29207 0.59847
#
# Static dielectric constant tensor:
#      x y z
#    x 1.639300 0.000000 0.000000 
#    y 0.000000 1.591680 0.000000 
#    z 0.000000 0.000000 1.633360 
# 
# From -- ./inp_files/16709.got.cif
#   From: 2010.05.17/outbox.cif.g08.bks.cpg/sg51_9_cif.got.tgz:16709.got - 2010.06.03 11:52:47.
