data_PCOD9402752
_publ_section_title
;
Structure prediction by ZEFSAII (Michael W. Deem and Ramdas Pophale) SiO2 
 PCOD9402752
Probable space group: P M M A
;
_chemical_formula_sum "Si O2"
_cell_formula_units_Z 52
_cell_length_a 9.577910
_cell_length_b 10.434269
_cell_length_c 30.397649
_cell_angle_alpha 90.000000
_cell_angle_beta 90.000000
_cell_angle_gamma 90.000000
_cell_volume 3037.895122
_symmetry_space_group_name_H-M "P M M A"
_symmetry_group_IT_number 51
_symmetry_cell_setting 'orthorhombic'
loop_
_space_group_symop_operation_xyz
x,y,z
1/2-x,-y,z
1/2+x,-y,-z
-x,y,-z
-x,-y,-z
1/2+x,y,-z
1/2-x,y,z
x,-y,z
loop_
_atom_site_type_symbol
_atom_site_label
_atom_site_fract_x
_atom_site_fract_y
_atom_site_fract_z
Si Si1 0.412335 0.348047 0.700736
Si Si2 0.914059 0.000000 0.454218
Si Si3 0.411356 0.747931 0.605204
Si Si4 0.089225 0.344253 0.213954
Si Si5 0.401527 0.351684 0.463074
Si Si6 0.912153 0.656266 0.129058
Si Si7 0.412468 0.343872 0.043008
O O1 0.250000 0.337705 0.715027
O O2 0.434208 0.500000 0.689785
O O3 0.430353 0.261332 0.657411
O O4 0.514985 0.311224 0.740124
O O5 0.937547 0.879198 0.421352
O O6 0.000000 0.000000 0.500000
O O7 0.750000 0.000000 0.465928
O O8 0.250000 0.710156 0.596526
O O9 0.520178 0.653610 0.582763
O O10 0.250000 0.300828 0.210952
O O11 0.091623 0.500000 0.212392
O O12 0.993782 0.302247 0.172990
O O13 0.500000 0.291957 0.500000
O O14 0.250000 0.289629 0.461914
O O15 0.384406 0.500000 0.475108
O O16 0.750000 0.697494 0.127575
O O17 0.909928 0.500000 0.129224
O O18 0.002217 0.695259 0.086496
O O19 0.250000 0.302399 0.042713
O O20 0.409646 0.500000 0.042884
O O21 0.500000 0.304159 0.000000
#
# Coordination Sequence:
#
# PCOD9402752 Si02
#       7
#     8   4   8   8   8   8   8
#     4   9  17  29  45  64  85 109 135 165 205 252
#     4  10  22  38  54  72  92 116 146 178 209 244
#     4  10  20  34  51  69  90 115 143 174 208 247
#     4   9  16  25  37  54  76 100 126 159 200 246
#     4  10  20  32  47  68  92 115 139 168 203 244
#     4   9  15  22  32  45  63  90 124 161 202 248
#     4   9  15  21  28  39  57  83 119 164 211 253
#
# _framework density 17.117114999999998
#
# number of rings (size 3 to 8) (size 9 to 14) (size 15 to 20)
#    0.000    2.615    0.000    2.769    0.000    9.538 
#    0.000    1.538    0.000    0.000    0.000    0.000 
#    0.000    0.000    0.000    0.000    0.000    0.000 
#
# Total GULP energy -289518.524337 kJ/mol
# GULP energy per Si atom -5567.663930 kJ/mol
# Density = 1.707816 g / cm^3
# Si number density = 17.117115 Si / 1000 Ang^3
#
#
#
# Elastic Constant Matrix: (Units=GPa)
#
#
# Indices 1 2 3 4 5 6 
#
# 1 167.2838 18.1055 106.9634 0.0000 0.0000 0.0000
# 2 18.1055 24.6990 17.0068 0.0000 0.0000 0.0000
# 3 106.9634 17.0068 141.0544 0.0000 0.0000 0.0000
# 4 0.0000 0.0000 0.0000 3.7985 0.0000 0.0000
# 5 0.0000 0.0000 0.0000 0.0000 31.0191 0.0000
# 6 0.0000 0.0000 0.0000 0.0000 0.0000 2.1739
#
#
#
# Elastic Compliance Matrix: (Units=1/GPa)
#
#
# Indices 1 2 3 4 5 6 
#
# 1 0.011768 -0.002707 -0.008598 0.000000 0.000000 0.000000
# 2 -0.002707 0.044775 -0.003346 0.000000 0.000000 0.000000
# 3 -0.008598 -0.003346 0.014013 0.000000 0.000000 0.000000
# 4 0.000000 0.000000 0.000000 0.263262 0.000000 0.000000
# 5 0.000000 0.000000 0.000000 0.000000 0.032238 0.000000
# 6 0.000000 0.000000 0.000000 0.000000 0.000000 0.460005
#
#
# Mechanical properties :
#
#
# Convention : Reuss Voigt Hill
#
# Bulk Modulus (GPa) = 24.23913 68.57650 46.40782
# Shear Modulus (GPa) = 5.75298 20.12907 12.94103
#
# Velocity S-wave (km/s) = 1.83528 3.43295 2.75258
# Velocity P-wave (km/s) = 4.32233 7.47420 6.10517
#
# Compressibility (1/GPa) = 0.04125560
#
# Stress axis : x y z
#
# Youngs Moduli (GPa) = 84.97403 22.33366 71.36403
#
# Poissons Ratio (x) = 0.06045 0.61357
# Poissons Ratio (y) = 0.22999 0.23879
# Poissons Ratio (z) = 0.73058 0.07473
#
# Static dielectric constant tensor:
#      x y z
#    x 1.616650 0.000000 0.000000 
#    y 0.000000 1.598290 0.000000 
#    z 0.000000 0.000000 1.583430 
# 
# From -- ./inp_files/37344.got.cif
#   From: 2010.05.17/outbox.cif.g08.bks.cpg/sg51_19_cif.got.tgz:37344.got - 2010.06.03 11:52:47.
