data_PCOD9402134
_publ_section_title
;
Structure prediction by ZEFSAII (Michael W. Deem and Ramdas Pophale) SiO2 
 PCOD9402134
Probable space group: P M M A
;
_chemical_formula_sum "Si O2"
_cell_formula_units_Z 64
_cell_length_a 16.974790
_cell_length_b 20.555232
_cell_length_c 9.755791
_cell_angle_alpha 90.000000
_cell_angle_beta 90.000000
_cell_angle_gamma 90.000000
_cell_volume 3403.997879
_symmetry_space_group_name_H-M "P M M A"
_symmetry_group_IT_number 51
_symmetry_cell_setting 'orthorhombic'
loop_
_space_group_symop_operation_xyz
x,y,z
1/2-x,-y,z
1/2+x,-y,-z
-x,y,-z
-x,-y,-z
1/2+x,y,-z
1/2-x,y,z
x,-y,z
loop_
_atom_site_type_symbol
_atom_site_label
_atom_site_fract_x
_atom_site_fract_y
_atom_site_fract_z
Si Si1 0.655588 0.926131 0.405694
Si Si2 0.924253 0.835161 0.597273
Si Si3 0.594295 0.426318 0.031079
Si Si4 0.388515 0.331533 0.199239
Si Si5 0.076268 0.318754 0.748874
Si Si6 0.661919 0.296117 0.517133
Si Si7 0.656565 0.180446 0.176017
Si Si8 0.919975 0.197221 0.913097
O O1 0.750000 0.923500 0.421688
O O2 0.614160 0.901515 0.543945
O O3 0.634321 0.874624 0.286575
O O4 0.633208 0.000000 0.371659
O O5 0.865265 0.776648 0.556675
O O6 0.936757 0.831564 0.761493
O O7 0.000000 0.823925 0.500000
O O8 0.619986 0.500000 0.056230
O O9 0.608148 0.376496 0.155329
O O10 0.500000 0.427225 0.000000
O O11 0.628220 0.392607 0.895771
O O12 0.481861 0.322620 0.235151
O O13 0.342815 0.333616 0.340229
O O14 0.374684 0.265072 0.115341
O O15 0.102680 0.325761 0.592773
O O16 0.111769 0.248343 0.790988
O O17 0.750000 0.295109 0.460557
O O18 0.750000 0.191065 0.185235
O O19 0.632890 0.158752 0.022454
O O20 0.000000 0.208959 0.000000
#
# Coordination Sequence:
#
# PCOD9402134 Si02
#       8
#     8   8   8   8   8   8   8   8
#     4  10  22  41  61  83 117 159 196 235 293 361
#     4  11  22  36  60  86 113 150 194 245 296 348
#     4   9  18  34  58  86 116 150 192 241 289 345
#     4  10  19  34  57  84 115 150 191 237 295 340
#     4  11  18  35  58  86 114 146 192 241 288 343
#     4  11  22  34  53  85 117 147 191 244 293 341
#     4  11  21  34  58  87 116 152 193 243 294 348
#     4  11  19  34  55  86 116 145 188 243 297 343
#
# _framework density 18.801421999999999
#
# number of rings (size 3 to 8) (size 9 to 14) (size 15 to 20)
#    0.000    1.500    3.750    3.750    0.000    2.750 
#    0.000    1.250    0.000   10.125    0.000    0.000 
#    0.000    0.000    0.000    0.000    0.000    0.000 
#
# Total GULP energy -357059.538334 kJ/mol
# GULP energy per Si atom -5579.055286 kJ/mol
# Density = 1.875863 g / cm^3
# Si number density = 18.801422 Si / 1000 Ang^3
#
#
#
# Elastic Constant Matrix: (Units=GPa)
#
#
# Indices 1 2 3 4 5 6 
#
# 1 27.7325 15.5789 11.2774 0.0000 0.0000 0.0000
# 2 15.5789 115.6224 54.2078 0.0000 0.0000 0.0000
# 3 11.2774 54.2078 137.4053 0.0000 0.0000 0.0000
# 4 0.0000 0.0000 0.0000 23.9984 0.0000 0.0000
# 5 0.0000 0.0000 0.0000 0.0000 10.9521 0.0000
# 6 0.0000 0.0000 0.0000 0.0000 0.0000 13.9331
#
#
#
# Elastic Compliance Matrix: (Units=1/GPa)
#
#
# Indices 1 2 3 4 5 6 
#
# 1 0.039227 -0.004633 -0.001392 0.000000 0.000000 0.000000
# 2 -0.004633 0.011159 -0.004022 0.000000 0.000000 0.000000
# 3 -0.001392 -0.004022 0.008979 0.000000 0.000000 0.000000
# 4 0.000000 0.000000 0.000000 0.041670 0.000000 0.000000
# 5 0.000000 0.000000 0.000000 0.000000 0.091307 0.000000
# 6 0.000000 0.000000 0.000000 0.000000 0.000000 0.071772
#
#
# Mechanical properties :
#
#
# Convention : Reuss Voigt Hill
#
# Bulk Modulus (GPa) = 25.46392 49.20982 37.33687
# Shear Modulus (GPa) = 16.81823 23.08979 19.95401
#
# Velocity S-wave (km/s) = 2.99410 3.50821 3.26130
# Velocity P-wave (km/s) = 5.05231 6.52996 5.83807
#
# Compressibility (1/GPa) = 0.03927126
#
# Stress axis : x y z
#
# Youngs Moduli (GPa) = 25.49246 89.61589 111.37486
#
# Poissons Ratio (x) = 0.41519 0.15501
# Poissons Ratio (y) = 0.11811 0.44795
# Poissons Ratio (z) = 0.03548 0.36043
#
# Static dielectric constant tensor:
#      x y z
#    x 1.699790 0.000000 0.000000 
#    y 0.000000 1.647680 0.000000 
#    z 0.000000 0.000000 1.686000 
# 
# From -- ./inp_files/10065.got.cif
#   From: 2010.05.17/outbox.cif.g08.bks.cpg/sg51_6_cif.got.tgz:10065.got - 2010.06.03 11:52:47.
