data_PCOD9402564
_publ_section_title
;
Structure prediction by ZEFSAII (Michael W. Deem and Ramdas Pophale) SiO2 
 PCOD9402564
Probable space group: P M M A
;
_chemical_formula_sum "Si O2"
_cell_formula_units_Z 64
_cell_length_a 8.961629
_cell_length_b 14.686139
_cell_length_c 29.433315
_cell_angle_alpha 90.000000
_cell_angle_beta 90.000000
_cell_angle_gamma 90.000000
_cell_volume 3873.769482
_symmetry_space_group_name_H-M "P M M A"
_symmetry_group_IT_number 51
_symmetry_cell_setting 'orthorhombic'
loop_
_space_group_symop_operation_xyz
x,y,z
1/2-x,-y,z
1/2+x,-y,-z
-x,y,-z
-x,-y,-z
1/2+x,y,-z
1/2-x,y,z
x,-y,z
loop_
_atom_site_type_symbol
_atom_site_label
_atom_site_fract_x
_atom_site_fract_y
_atom_site_fract_z
Si Si1 0.422303 0.389201 0.546060
Si Si2 0.427475 0.399634 0.079199
Si Si3 0.570666 0.211761 0.047002
Si Si4 0.432327 0.394562 0.645768
Si Si5 0.419390 0.144017 0.857866
Si Si6 0.572489 0.900150 0.766940
Si Si7 0.430618 0.287020 0.735022
Si Si8 0.419707 0.643470 0.829854
O O1 0.500000 0.357577 0.500000
O O2 0.250000 0.361951 0.543977
O O3 0.427089 0.500000 0.546195
O O4 0.484084 0.362944 0.595692
O O5 0.250000 0.386781 0.074778
O O6 0.467299 0.500000 0.060762
O O7 0.510992 0.314210 0.056779
O O8 0.474477 0.398860 0.132335
O O9 0.750000 0.214635 0.045037
O O10 0.529299 0.148163 0.089998
O O11 0.500000 0.180305 0.000000
O O12 0.250000 0.394390 0.644439
O O13 0.476863 0.500000 0.652834
O O14 0.477825 0.331649 0.687632
O O15 0.250000 0.107967 0.855080
O O16 0.523614 0.101633 0.819840
O O17 0.411269 0.250348 0.843874
O O18 0.750000 0.890392 0.763768
O O19 0.495808 0.813301 0.743545
O O20 0.529245 0.000000 0.748421
O O21 0.250000 0.280871 0.736322
O O22 0.471558 0.352432 0.777692
O O23 0.250000 0.607177 0.832703
#
# Coordination Sequence:
#
# PCOD9402564 Si02
#       8
#     8   8   8   8   8   8   8   8
#     4   8  13  22  37  56  80 113 153 195 233 267
#     4  10  20  31  42  58  81 110 144 179 214 254
#     4  10  20  33  49  67  85 107 136 170 213 261
#     4   8  14  25  41  62  89 122 159 195 229 266
#     4   8  16  31  49  68  86 106 136 170 203 246
#     4  10  20  32  48  71  96 121 147 178 221 268
#     4   9  17  29  46  67  90 119 154 188 223 265
#     4   8  15  27  42  60  80 104 137 175 214 254
#
# _framework density 16.521376
#
# number of rings (size 3 to 8) (size 9 to 14) (size 15 to 20)
#    0.000    3.125    0.000    3.375    0.000    7.750 
#    0.000    1.875    0.000    1.500    0.000    0.000 
#    0.000    0.500    0.000    1.125    0.000    2.000 
#
# Total GULP energy -356293.047989 kJ/mol
# GULP energy per Si atom -5567.078875 kJ/mol
# Density = 1.648377 g / cm^3
# Si number density = 16.521376 Si / 1000 Ang^3
#
#
#
# Elastic Constant Matrix: (Units=GPa)
#
#
# Indices 1 2 3 4 5 6 
#
# 1 21.8419 10.8062 20.1077 0.0000 0.0000 0.0000
# 2 10.8062 49.5212 24.9466 0.0000 0.0000 0.0000
# 3 20.1077 24.9466 137.4512 0.0000 0.0000 0.0000
# 4 0.0000 0.0000 0.0000 5.8321 0.0000 0.0000
# 5 0.0000 0.0000 0.0000 0.0000 21.0081 0.0000
# 6 0.0000 0.0000 0.0000 0.0000 0.0000 23.1463
#
#
#
# Elastic Compliance Matrix: (Units=1/GPa)
#
#
# Indices 1 2 3 4 5 6 
#
# 1 0.056300 -0.008955 -0.006611 0.000000 0.000000 0.000000
# 2 -0.008955 0.023650 -0.002982 0.000000 0.000000 0.000000
# 3 -0.006611 -0.002982 0.008784 0.000000 0.000000 0.000000
# 4 0.000000 0.000000 0.000000 0.171465 0.000000 0.000000
# 5 0.000000 0.000000 0.000000 0.000000 0.047601 0.000000
# 6 0.000000 0.000000 0.000000 0.000000 0.000000 0.043203
#
#
# Mechanical properties :
#
#
# Convention : Reuss Voigt Hill
#
# Bulk Modulus (GPa) = 19.36595 35.61503 27.49049
# Shear Modulus (GPa) = 12.33621 20.19422 16.26521
#
# Velocity S-wave (km/s) = 2.73551 3.49995 3.14107
# Velocity P-wave (km/s) = 4.66096 6.15927 5.46174
#
# Compressibility (1/GPa) = 0.05163702
#
# Stress axis : x y z
#
# Youngs Moduli (GPa) = 17.76201 42.28358 113.84770
#
# Poissons Ratio (x) = 0.37866 0.75262
# Poissons Ratio (y) = 0.15906 0.33952
# Poissons Ratio (z) = 0.11742 0.12610
#
# Static dielectric constant tensor:
#      x y z
#    x 1.555950 0.000000 0.000000 
#    y 0.000000 1.565620 0.000000 
#    z 0.000000 0.000000 1.592200 
# 
# From -- ./inp_files/37528.got.cif
#   From: 2010.05.17/outbox.cif.g08.bks.cpg/sg51_19_cif.got.tgz:37528.got - 2010.06.03 11:52:47.
