data_PCOD9402118
_publ_section_title
;
Structure prediction by ZEFSAII (Michael W. Deem and Ramdas Pophale) SiO2 
 PCOD9402118
Probable space group: P M M A
;
_chemical_formula_sum "Si O2"
_cell_formula_units_Z 64
_cell_length_a 25.978025
_cell_length_b 7.661311
_cell_length_c 14.903712
_cell_angle_alpha 90.000000
_cell_angle_beta 90.000000
_cell_angle_gamma 90.000000
_cell_volume 2966.222141
_symmetry_space_group_name_H-M "P M M A"
_symmetry_group_IT_number 51
_symmetry_cell_setting 'orthorhombic'
loop_
_space_group_symop_operation_xyz
x,y,z
1/2-x,-y,z
1/2+x,-y,-z
-x,y,-z
-x,-y,-z
1/2+x,y,-z
1/2-x,y,z
x,-y,z
loop_
_atom_site_type_symbol
_atom_site_label
_atom_site_fract_x
_atom_site_fract_y
_atom_site_fract_z
Si Si1 0.191446 0.703892 0.804591
Si Si2 0.810341 0.790002 0.397114
Si Si3 0.354962 0.797008 0.418449
Si Si4 0.308025 0.213960 0.233685
Si Si5 0.471459 0.704500 0.412190
Si Si6 0.596578 0.213548 0.885800
Si Si7 0.493879 0.788550 0.779289
Si Si8 0.906417 0.202647 0.088075
O O1 0.250000 0.774096 0.810811
O O2 0.192871 0.500000 0.826739
O O3 0.174561 0.721856 0.700768
O O4 0.150198 0.788942 0.869797
O O5 0.750000 0.748233 0.410910
O O6 0.841428 0.723544 0.483489
O O7 0.815402 0.000000 0.391226
O O8 0.324687 0.724041 0.332921
O O9 0.415534 0.788124 0.399353
O O10 0.339326 0.000000 0.423577
O O11 0.250000 0.267298 0.212209
O O12 0.351134 0.270377 0.162893
O O13 0.309141 0.000000 0.234849
O O14 0.500000 0.775695 0.500000
O O15 0.461766 0.500000 0.426887
O O16 0.504944 0.727051 0.322932
O O17 0.547083 0.264076 0.827387
O O18 0.597425 0.000000 0.887148
O O19 0.592137 0.277167 0.987953
O O20 0.446727 0.723172 0.839982
O O21 0.492381 0.000000 0.775718
O O22 0.921519 0.000000 0.077810
#
# Coordination Sequence:
#
# PCOD9402118 Si02
#       8
#     8   8   8   8   8   8   8   8
#     4  10  22  39  56  77 112 155 191 227 276 333
#     4   9  18  33  55  83 111 140 180 229 275 323
#     4  10  19  34  57  83 111 144 183 229 280 333
#     4   9  16  28  52  86 117 145 181 226 278 334
#     4  11  25  40  54  79 114 151 186 227 277 332
#     4   9  17  33  56  86 118 144 177 230 288 334
#     4  10  20  38  61  85 112 145 186 233 283 338
#     4  10  21  35  59  89 112 141 186 237 285 335
#
# _framework density 21.576266
#
# number of rings (size 3 to 8) (size 9 to 14) (size 15 to 20)
#    0.000    2.250    1.250    1.500    1.750    6.250 
#    0.000    1.875    0.000    2.625    0.000    0.000 
#    0.000    0.000    0.000    0.000    0.000    0.000 
#
# Total GULP energy -357482.442120 kJ/mol
# GULP energy per Si atom -5585.663158 kJ/mol
# Density = 2.152716 g / cm^3
# Si number density = 21.576266 Si / 1000 Ang^3
#
#
#
# Elastic Constant Matrix: (Units=GPa)
#
#
# Indices 1 2 3 4 5 6 
#
# 1 90.6231 -6.3054 55.9221 0.0000 0.0000 0.0000
# 2 -6.3054 36.5240 -4.3914 0.0000 0.0000 0.0000
# 3 55.9221 -4.3914 152.1416 0.0000 0.0000 0.0000
# 4 0.0000 0.0000 0.0000 51.6343 0.0000 0.0000
# 5 0.0000 0.0000 0.0000 0.0000 18.5768 0.0000
# 6 0.0000 0.0000 0.0000 0.0000 0.0000 -13.4066
#
#
#
# Elastic Compliance Matrix: (Units=1/GPa)
#
#
# Indices 1 2 3 4 5 6 
#
# 1 0.014396 0.001856 -0.005238 0.000000 0.000000 0.000000
# 2 0.001856 0.027714 0.000118 0.000000 0.000000 0.000000
# 3 -0.005238 0.000118 0.008502 0.000000 0.000000 0.000000
# 4 0.000000 0.000000 0.000000 0.019367 0.000000 0.000000
# 5 0.000000 0.000000 0.000000 0.000000 0.053831 0.000000
# 6 0.000000 0.000000 0.000000 0.000000 0.000000 -0.074590
#
#
# Mechanical properties :
#
#
# Convention : Reuss Voigt Hill
#
# Bulk Modulus (GPa) = 22.68482 41.08213 31.88348
# Shear Modulus (GPa) = 70.98071 26.96514 48.97292
#
# Velocity S-wave (km/s) = 5.74186 3.53903 4.76937
# Velocity P-wave (km/s) = 7.38209 5.98176 6.71851
#
# Compressibility (1/GPa) = 0.04408234
#
# Stress axis : x y z
#
# Youngs Moduli (GPa) = 69.46343 36.08311 117.62606
#
# Poissons Ratio (x) = -0.06695 0.61612
# Poissons Ratio (y) = -0.12889 -0.01387
# Poissons Ratio (z) = 0.36385 -0.00425
#
# Static dielectric constant tensor:
#      x y z
#    x 1.749970 0.000000 0.000000 
#    y 0.000000 1.825030 0.000000 
#    z 0.000000 0.000000 1.766680 
# 
# From -- ./inp_files/26283.got.cif
#   From: 2010.05.17/outbox.cif.g08.bks.cpg/sg51_14_cif.got.tgz:26283.got - 2010.06.03 11:52:47.
