data_PCOD9402375
_publ_section_title
;
Structure prediction by ZEFSAII (Michael W. Deem and Ramdas Pophale) SiO2 
 PCOD9402375
Probable space group: P M M A
;
_chemical_formula_sum "Si O2"
_cell_formula_units_Z 48
_cell_length_a 8.670715
_cell_length_b 21.077418
_cell_length_c 14.449031
_cell_angle_alpha 90.000000
_cell_angle_beta 90.000000
_cell_angle_gamma 90.000000
_cell_volume 2640.651219
_symmetry_space_group_name_H-M "P M M A"
_symmetry_group_IT_number 51
_symmetry_cell_setting 'orthorhombic'
loop_
_space_group_symop_operation_xyz
x,y,z
1/2-x,-y,z
1/2+x,-y,-z
-x,y,-z
-x,-y,-z
1/2+x,y,-z
1/2-x,y,z
x,-y,z
loop_
_atom_site_type_symbol
_atom_site_label
_atom_site_fract_x
_atom_site_fract_y
_atom_site_fract_z
Si Si1 0.435691 0.249341 0.102801
Si Si2 0.063804 0.622153 0.208236
Si Si3 0.566628 0.500000 0.104093
Si Si4 0.564660 0.319611 0.599730
Si Si5 0.063956 0.000000 0.103840
Si Si6 0.066049 0.177991 0.600002
Si Si7 0.063415 0.125005 0.217646
O O1 0.250000 0.248876 0.099519
O O2 0.482643 0.313990 0.153794
O O3 0.483905 0.187443 0.160078
O O4 0.500000 0.247295 0.000000
O O5 0.250000 0.616376 0.202992
O O6 0.022774 0.634322 0.315569
O O7 0.990092 0.561705 0.159807
O O8 0.750000 0.500000 0.097848
O O9 0.500000 0.500000 0.000000
O O10 0.500000 0.339608 0.500000
O O11 0.750000 0.314980 0.595745
O O12 0.500015 0.248907 0.618783
O O13 0.017380 0.062606 0.160869
O O14 0.250000 0.000000 0.098082
O O15 0.000000 0.000000 0.000000
O O16 0.250000 0.181176 0.596393
O O17 0.000000 0.159032 0.500000
O O18 0.009331 0.132272 0.681386
O O19 0.250000 0.125247 0.226375
#
# Coordination Sequence:
#
# PCOD9402375 Si02
#       7
#     8   8   4   8   4   8   8
#     4  10  20  34  54  80 112 144 186 238 285 335
#     4  10  21  39  60  83 114 154 191 236 289 339
#     4  12  26  42  61  84 115 154 195 240 286 348
#     4  10  19  35  59  88 121 153 188 235 288 343
#     4  10  22  38  61  84 117 160 195 240 290 346
#     4  11  21  34  57  87 117 152 190 237 290 346
#     4  10  20  38  57  82 116 153 194 237 290 341
#
# _framework density 18.177334999999999
#
# number of rings (size 3 to 8) (size 9 to 14) (size 15 to 20)
#    0.000    1.667    1.667    4.750    0.000    4.667 
#    0.000    0.833    0.000    0.000    0.000    0.000 
#    0.000    0.000    0.000    0.000    0.000    0.000 
#
# Total GULP energy -268160.943934 kJ/mol
# GULP energy per Si atom -5586.686332 kJ/mol
# Density = 1.813596 g / cm^3
# Si number density = 18.177335 Si / 1000 Ang^3
#
#
#
# Elastic Constant Matrix: (Units=GPa)
#
#
# Indices 1 2 3 4 5 6 
#
# 1 60.8360 47.5861 60.0618 0.0000 0.0000 0.0000
# 2 47.5861 151.8303 102.4291 0.0000 0.0000 0.0000
# 3 60.0618 102.4291 198.4052 0.0000 0.0000 0.0000
# 4 0.0000 0.0000 0.0000 31.6180 0.0000 0.0000
# 5 0.0000 0.0000 0.0000 0.0000 36.5037 0.0000
# 6 0.0000 0.0000 0.0000 0.0000 0.0000 13.7078
#
#
#
# Elastic Compliance Matrix: (Units=1/GPa)
#
#
# Indices 1 2 3 4 5 6 
#
# 1 0.025078 -0.004202 -0.005422 0.000000 0.000000 0.000000
# 2 -0.004202 0.010810 -0.004309 0.000000 0.000000 0.000000
# 3 -0.005422 -0.004309 0.008906 0.000000 0.000000 0.000000
# 4 0.000000 0.000000 0.000000 0.031628 0.000000 0.000000
# 5 0.000000 0.000000 0.000000 0.000000 0.027395 0.000000
# 6 0.000000 0.000000 0.000000 0.000000 0.000000 0.072951
#
#
# Mechanical properties :
#
#
# Convention : Reuss Voigt Hill
#
# Bulk Modulus (GPa) = 59.07382 92.35839 75.71610
# Shear Modulus (GPa) = 23.77835 29.76555 26.77195
#
# Velocity S-wave (km/s) = 3.62073 4.05100 3.84190
# Velocity P-wave (km/s) = 7.07452 8.53234 7.83740
#
# Compressibility (1/GPa) = 0.01692797
#
# Stress axis : x y z
#
# Youngs Moduli (GPa) = 39.87628 92.50640 112.28132
#
# Poissons Ratio (x) = 0.38868 0.60884
# Poissons Ratio (y) = 0.16754 0.48381
# Poissons Ratio (z) = 0.21623 0.39860
#
# Static dielectric constant tensor:
#      x y z
#    x 1.611030 0.000000 0.000000 
#    y 0.000000 1.604270 0.000000 
#    z 0.000000 0.000000 1.614420 
# 
# From -- ./inp_files/21240.got.cif
#   From: 2010.05.17/outbox.cif.g08.bks.cpg/sg51_11_cif.got.tgz:21240.got - 2010.06.03 11:52:47.
