data_PCOD9402739
_publ_section_title
;
Structure prediction by ZEFSAII (Michael W. Deem and Ramdas Pophale) SiO2 
 PCOD9402739
Probable space group: P M M A
;
_chemical_formula_sum "Si O2"
_cell_formula_units_Z 64
_cell_length_a 14.404879
_cell_length_b 8.999794
_cell_length_c 23.891761
_cell_angle_alpha 90.000000
_cell_angle_beta 90.000000
_cell_angle_gamma 90.000000
_cell_volume 3097.350440
_symmetry_space_group_name_H-M "P M M A"
_symmetry_group_IT_number 51
_symmetry_cell_setting 'orthorhombic'
loop_
_space_group_symop_operation_xyz
x,y,z
1/2-x,-y,z
1/2+x,-y,-z
-x,y,-z
-x,-y,-z
1/2+x,y,-z
1/2-x,y,z
x,-y,z
loop_
_atom_site_type_symbol
_atom_site_label
_atom_site_fract_x
_atom_site_fract_y
_atom_site_fract_z
Si Si1 0.139843 0.324807 0.196632
Si Si2 0.537890 0.175096 0.698905
Si Si3 0.883585 0.327475 0.049863
Si Si4 0.645441 0.680237 0.469060
Si Si5 0.396148 0.329255 0.071988
Si Si6 0.860729 0.670473 0.268234
Si Si7 0.048712 0.679039 0.415069
Si Si8 0.143982 0.162165 0.838486
O O1 0.250000 0.315389 0.206409
O O2 0.113001 0.500000 0.197139
O O3 0.085615 0.242134 0.245705
O O4 0.121591 0.264192 0.133347
O O5 0.429016 0.220882 0.699404
O O6 0.578272 0.247555 0.642739
O O7 0.548195 0.000000 0.698663
O O8 0.852988 0.500000 0.055663
O O9 0.852828 0.219635 0.098732
O O10 0.994187 0.332045 0.060321
O O11 0.859042 0.271155 0.987585
O O12 0.750000 0.733057 0.455451
O O13 0.647499 0.500000 0.465579
O O14 0.615088 0.717044 0.532653
O O15 0.556987 0.725812 0.431549
O O16 0.362582 0.500000 0.075311
O O17 0.750000 0.687864 0.278054
O O18 0.883741 0.500000 0.281190
O O19 0.886737 0.708436 0.203493
O O20 0.048883 0.500000 0.409526
O O21 0.250000 0.142430 0.820828
O O22 0.096981 0.000000 0.832757
#
# Coordination Sequence:
#
# PCOD9402739 Si02
#       8
#     8   8   8   8   8   8   8   8
#     4  10  21  38  59  80 106 149 206 258 296 336
#     4  12  25  39  57  83 120 159 192 236 291 346
#     4   9  16  29  51  75 100 132 171 218 276 345
#     4   8  15  31  58  89 118 148 185 234 282 317
#     4   8  16  31  51  76 101 127 170 230 286 333
#     4  10  21  38  60  83 107 142 191 242 291 348
#     4   9  18  34  57  86 116 148 193 237 272 325
#     4  10  20  32  46  70 105 137 166 208 267 335
#
# _framework density 20.662821999999998
#
# number of rings (size 3 to 8) (size 9 to 14) (size 15 to 20)
#    0.000    2.500    0.000    4.125    0.000    4.250 
#    0.000    6.875    0.000    0.750    0.000    0.000 
#    0.000    0.000    0.000    0.000    0.000    0.000 
#
# Total GULP energy -356644.785981 kJ/mol
# GULP energy per Si atom -5572.574781 kJ/mol
# Density = 2.061579 g / cm^3
# Si number density = 20.662822 Si / 1000 Ang^3
#
#
#
# Elastic Constant Matrix: (Units=GPa)
#
#
# Indices 1 2 3 4 5 6 
#
# 1 70.5817 9.6901 1.6852 0.0000 0.0000 0.0000
# 2 9.6901 50.4338 17.1734 0.0000 0.0000 0.0000
# 3 1.6852 17.1734 92.9245 0.0000 0.0000 0.0000
# 4 0.0000 0.0000 0.0000 -26.7989 0.0000 0.0000
# 5 0.0000 0.0000 0.0000 0.0000 -1.6255 0.0000
# 6 0.0000 0.0000 0.0000 0.0000 0.0000 4.5838
#
#
#
# Elastic Compliance Matrix: (Units=1/GPa)
#
#
# Indices 1 2 3 4 5 6 
#
# 1 0.014558 -0.002889 0.000270 0.000000 0.000000 0.000000
# 2 -0.002889 0.021733 -0.003964 0.000000 0.000000 0.000000
# 3 0.000270 -0.003964 0.011489 0.000000 0.000000 0.000000
# 4 0.000000 0.000000 0.000000 -0.037315 0.000000 0.000000
# 5 0.000000 0.000000 0.000000 0.000000 -0.615212 0.000000
# 6 0.000000 0.000000 0.000000 0.000000 0.000000 0.218162
#
#
# Mechanical properties :
#
#
# Convention : Reuss Voigt Hill
#
# Bulk Modulus (GPa) = 28.89022 30.11527 29.50275
# Shear Modulus (GPa) = -13.81672 7.59130 -3.11271
#
# Velocity S-wave (km/s) = -2.58868 1.91882 -1.22870
# Velocity P-wave (km/s) = 2.25323 4.41763 3.50660
#
# Compressibility (1/GPa) = 0.03461378
#
# Stress axis : x y z
#
# Youngs Moduli (GPa) = 68.68999 46.01322 87.03881
#
# Poissons Ratio (x) = 0.13293 -0.02349
# Poissons Ratio (y) = 0.19845 0.34503
# Poissons Ratio (z) = -0.01854 0.18240
#
# Static dielectric constant tensor:
#      x y z
#    x 1.702500 0.000000 0.000000 
#    y 0.000000 1.717180 0.000000 
#    z 0.000000 0.000000 1.773480 
# 
# From -- ./inp_files/35649.got.cif
#   From: 2010.05.17/outbox.cif.g08.bks.cpg/sg51_18_cif.got.tgz:35649.got - 2010.06.03 11:52:47.
