data_PCOD9402801
_publ_section_title
;
Structure prediction by ZEFSAII (Michael W. Deem and Ramdas Pophale) SiO2 
 PCOD9402801
Probable space group: P M M A
;
_chemical_formula_sum "Si O2"
_cell_formula_units_Z 64
_cell_length_a 18.935357
_cell_length_b 9.284644
_cell_length_c 21.964116
_cell_angle_alpha 90.000000
_cell_angle_beta 90.000000
_cell_angle_gamma 90.000000
_cell_volume 3861.468377
_symmetry_space_group_name_H-M "P M M A"
_symmetry_group_IT_number 51
_symmetry_cell_setting 'orthorhombic'
loop_
_space_group_symop_operation_xyz
x,y,z
1/2-x,-y,z
1/2+x,-y,-z
-x,y,-z
-x,-y,-z
1/2+x,y,-z
1/2-x,y,z
x,-y,z
loop_
_atom_site_type_symbol
_atom_site_label
_atom_site_fract_x
_atom_site_fract_y
_atom_site_fract_z
Si Si1 0.061709 0.669724 0.807907
Si Si2 0.334208 0.170293 0.039386
Si Si3 0.398932 0.329780 0.151612
Si Si4 0.474639 0.836494 0.691609
Si Si5 0.167408 0.827570 0.898322
Si Si6 0.034146 0.172874 0.434751
Si Si7 0.171839 0.671048 0.389676
Si Si8 0.639119 0.164696 0.731697
O O1 0.074675 0.500000 0.805523
O O2 0.064097 0.736651 0.740149
O O3 0.116745 0.746939 0.852063
O O4 0.982145 0.691411 0.834028
O O5 0.250000 0.191087 0.048340
O O6 0.377310 0.264396 0.087017
O O7 0.348781 0.000000 0.048600
O O8 0.349894 0.205945 0.968925
O O9 0.384410 0.500000 0.154801
O O10 0.356282 0.244502 0.203963
O O11 0.482565 0.787049 0.621658
O O12 0.555909 0.841284 0.714569
O O13 0.446667 0.000000 0.693341
O O14 0.250000 0.792031 0.888539
O O15 0.159967 0.000000 0.891182
O O16 0.107994 0.254367 0.425597
O O17 0.000000 0.201796 0.500000
O O18 0.046081 0.000000 0.428894
O O19 0.250000 0.693948 0.416677
O O20 0.159563 0.500000 0.384383
O O21 0.171443 0.743116 0.322870
O O22 0.664741 0.000000 0.733868
#
# Coordination Sequence:
#
# PCOD9402801 Si02
#       8
#     8   8   8   8   8   8   8   8
#     4  10  20  32  49  74 101 127 157 198 244 291
#     4   9  19  35  51  67  90 123 164 206 247 296
#     4  10  20  32  47  71 102 132 162 198 244 296
#     4   8  15  29  49  72  97 123 153 192 235 280
#     4   9  19  36  55  72  91 120 161 207 254 303
#     4   9  18  33  54  79 104 133 171 209 245 289
#     4  10  20  32  47  71 103 136 170 207 247 293
#     4   9  17  30  48  68  92 126 165 201 238 281
#
# _framework density 16.574007000000002
#
# number of rings (size 3 to 8) (size 9 to 14) (size 15 to 20)
#    0.000    2.750    0.000    3.000    0.000    7.750 
#    0.000    3.750    0.000    0.750    0.000    1.750 
#    0.000    0.000    0.000    0.000    0.000    0.000 
#
# Total GULP energy -356746.338611 kJ/mol
# GULP energy per Si atom -5574.161541 kJ/mol
# Density = 1.653628 g / cm^3
# Si number density = 16.574007 Si / 1000 Ang^3
#
#
#
# Elastic Constant Matrix: (Units=GPa)
#
#
# Indices 1 2 3 4 5 6 
#
# 1 56.8553 55.7994 62.8541 0.0000 0.0000 0.0000
# 2 55.7994 85.0632 78.8090 0.0000 0.0000 0.0000
# 3 62.8541 78.8090 144.0235 0.0000 0.0000 0.0000
# 4 0.0000 0.0000 0.0000 10.9374 0.0000 0.0000
# 5 0.0000 0.0000 0.0000 0.0000 10.7265 0.0000
# 6 0.0000 0.0000 0.0000 0.0000 0.0000 24.3079
#
#
#
# Elastic Compliance Matrix: (Units=1/GPa)
#
#
# Indices 1 2 3 4 5 6 
#
# 1 0.054056 -0.027590 -0.008494 0.000000 0.000000 0.000000
# 2 -0.027590 0.037926 -0.008712 0.000000 0.000000 0.000000
# 3 -0.008494 -0.008712 0.015417 0.000000 0.000000 0.000000
# 4 0.000000 0.000000 0.000000 0.091429 0.000000 0.000000
# 5 0.000000 0.000000 0.000000 0.000000 0.093227 0.000000
# 6 0.000000 0.000000 0.000000 0.000000 0.000000 0.041139
#
#
# Mechanical properties :
#
#
# Convention : Reuss Voigt Hill
#
# Bulk Modulus (GPa) = 56.15659 75.65186 65.90422
# Shear Modulus (GPa) = 11.66253 15.09300 13.37776
#
# Velocity S-wave (km/s) = 2.65554 3.02096 2.84413
# Velocity P-wave (km/s) = 6.58471 7.61001 7.11585
#
# Compressibility (1/GPa) = 0.01780735
#
# Stress axis : x y z
#
# Youngs Moduli (GPa) = 18.49924 26.36696 64.86216
#
# Poissons Ratio (x) = 0.72748 0.55091
# Poissons Ratio (y) = 0.51040 0.56509
# Poissons Ratio (z) = 0.15713 0.22971
#
# Static dielectric constant tensor:
#      x y z
#    x 1.552220 0.000000 0.000000 
#    y 0.000000 1.552060 0.000000 
#    z 0.000000 0.000000 1.549760 
# 
# From -- ./inp_files/33817.got.cif
#   From: 2010.05.17/outbox.cif.g08.bks.cpg/sg51_17_cif.got.tgz:33817.got - 2010.06.03 11:52:47.
