data_PCOD9402988
_publ_section_title
;
Structure prediction by ZEFSAII (Michael W. Deem and Ramdas Pophale) SiO2 
 PCOD9402988
Probable space group: P M M A
;
_chemical_formula_sum "Si O2"
_cell_formula_units_Z 36
_cell_length_a 7.721160
_cell_length_b 16.298911
_cell_length_c 14.712296
_cell_angle_alpha 90.000000
_cell_angle_beta 90.000000
_cell_angle_gamma 90.000000
_cell_volume 1851.490954
_symmetry_space_group_name_H-M "P M M A"
_symmetry_group_IT_number 51
_symmetry_cell_setting 'orthorhombic'
loop_
_space_group_symop_operation_xyz
x,y,z
1/2-x,-y,z
1/2+x,-y,-z
-x,y,-z
-x,-y,-z
1/2+x,y,-z
1/2-x,y,z
x,-y,z
loop_
_atom_site_type_symbol
_atom_site_label
_atom_site_fract_x
_atom_site_fract_y
_atom_site_fract_z
Si Si1 0.458757 0.591326 0.105672
Si Si2 0.958961 0.821733 0.605734
Si Si3 0.542789 0.000000 0.607116
Si Si4 0.956604 0.091167 0.107050
Si Si5 0.544264 0.254619 0.782687
O O1 0.250000 0.590133 0.113517
O O2 0.522389 0.500000 0.131031
O O3 0.528316 0.667131 0.164171
O O4 0.500000 0.604847 0.000000
O O5 0.750000 0.824406 0.610437
O O6 0.023867 0.758147 0.680497
O O7 0.000000 0.807754 0.500000
O O8 0.024906 0.911877 0.637728
O O9 0.500000 0.000000 0.500000
O O10 0.750000 0.000000 0.620122
O O11 0.750000 0.090503 0.116040
O O12 0.022413 0.169664 0.162112
O O13 0.022386 0.000000 0.136066
O O14 0.000000 0.100162 0.000000
O O15 0.750000 0.268112 0.775312
#
# Coordination Sequence:
#
# PCOD9402988 Si02
#       5
#     8   8   4   8   8
#     4   9  18  33  52  75 101 127 158 199 247 298
#     4   9  18  31  47  68  94 126 164 204 247 288
#     4   8  14  26  42  60  83 114 151 194 235 274
#     4  10  21  35  49  69  99 134 167 200 240 290
#     4  10  20  32  51  75  98 129 166 205 249 296
#
# _framework density 19.443788000000001
#
# number of rings (size 3 to 8) (size 9 to 14) (size 15 to 20)
#    0.000    2.667    0.000    1.333    1.556    4.889 
#    0.000    0.000    0.000    0.667    0.000    0.000 
#    0.000    0.000    0.000    0.000    0.000    0.000 
#
# Total GULP energy -200704.974757 kJ/mol
# GULP energy per Si atom -5575.138188 kJ/mol
# Density = 1.939953 g / cm^3
# Si number density = 19.443788 Si / 1000 Ang^3
#
#
#
# Elastic Constant Matrix: (Units=GPa)
#
#
# Indices 1 2 3 4 5 6 
#
# 1 35.1647 5.1925 -2.0497 0.0000 0.0000 0.0000
# 2 5.1925 165.5255 104.8952 0.0000 0.0000 0.0000
# 3 -2.0497 104.8952 111.5779 0.0000 0.0000 0.0000
# 4 0.0000 0.0000 0.0000 27.1491 0.0000 0.0000
# 5 0.0000 0.0000 0.0000 0.0000 17.5375 0.0000
# 6 0.0000 0.0000 0.0000 0.0000 0.0000 -0.5267
#
#
#
# Elastic Compliance Matrix: (Units=1/GPa)
#
#
# Indices 1 2 3 4 5 6 
#
# 1 0.029095 -0.003096 0.003445 0.000000 0.000000 0.000000
# 2 -0.003096 0.015274 -0.014416 0.000000 0.000000 0.000000
# 3 0.003445 -0.014416 0.022578 0.000000 0.000000 0.000000
# 4 0.000000 0.000000 0.000000 0.036834 0.000000 0.000000
# 5 0.000000 0.000000 0.000000 0.000000 0.057021 0.000000
# 6 0.000000 0.000000 0.000000 0.000000 0.000000 -1.898744
#
#
# Mechanical properties :
#
#
# Convention : Reuss Voigt Hill
#
# Bulk Modulus (GPa) = 25.76404 58.70491 42.23448
# Shear Modulus (GPa) = -2.94660 22.44732 9.75036
#
# Velocity S-wave (km/s) = -1.23237 3.40144 2.24177
# Velocity P-wave (km/s) = 3.35474 6.75900 5.33565
#
# Compressibility (1/GPa) = 0.03881379
#
# Stress axis : x y z
#
# Youngs Moduli (GPa) = 34.36958 65.46973 44.28993
#
# Poissons Ratio (x) = 0.20268 -0.15257
# Poissons Ratio (y) = 0.10640 0.63850
# Poissons Ratio (z) = -0.11840 0.94383
#
# Static dielectric constant tensor:
#      x y z
#    x 1.721870 0.000000 0.000000 
#    y 0.000000 1.717480 0.000000 
#    z 0.000000 0.000000 1.675980 
# 
# From -- ./inp_files/20312.got.cif
#   From: 2010.05.17/outbox.cif.g08.bks.cpg/sg51_11_cif.got.tgz:20312.got - 2010.06.03 11:52:47.
