data_PCOD9402904
_publ_section_title
;
Structure prediction by ZEFSAII (Michael W. Deem and Ramdas Pophale) SiO2 
 PCOD9402904
Probable space group: P M M A
;
_chemical_formula_sum "Si O2"
_cell_formula_units_Z 64
_cell_length_a 9.070485
_cell_length_b 28.685982
_cell_length_c 14.478662
_cell_angle_alpha 90.000000
_cell_angle_beta 90.000000
_cell_angle_gamma 90.000000
_cell_volume 3767.286600
_symmetry_space_group_name_H-M "P M M A"
_symmetry_group_IT_number 51
_symmetry_cell_setting 'orthorhombic'
loop_
_space_group_symop_operation_xyz
x,y,z
1/2-x,-y,z
1/2+x,-y,-z
-x,y,-z
-x,-y,-z
1/2+x,y,-z
1/2-x,y,z
x,-y,z
loop_
_atom_site_type_symbol
_atom_site_label
_atom_site_fract_x
_atom_site_fract_y
_atom_site_fract_z
Si Si1 0.073014 0.626933 0.774172
Si Si2 0.925629 0.284898 0.098338
Si Si3 0.571854 0.310165 0.399125
Si Si4 0.423760 0.444269 0.097132
Si Si5 0.927185 0.052733 0.900398
Si Si6 0.573229 0.122119 0.739082
Si Si7 0.923471 0.947363 0.400893
Si Si8 0.072425 0.222438 0.729486
O O1 0.250000 0.620129 0.772923
O O2 0.038577 0.667033 0.849409
O O3 0.031132 0.648802 0.674331
O O4 0.993720 0.581733 0.814970
O O5 0.750000 0.283633 0.086577
O O6 0.965952 0.244997 0.171502
O O7 0.000000 0.280719 0.000000
O O8 0.500000 0.314432 0.500000
O O9 0.750000 0.311050 0.407358
O O10 0.532827 0.261020 0.348538
O O11 0.250000 0.434035 0.091298
O O12 0.443265 0.500000 0.105738
O O13 0.500000 0.429912 0.000000
O O14 0.750000 0.053968 0.908857
O O15 0.970924 0.094765 0.832881
O O16 0.965677 0.000000 0.866496
O O17 0.000000 0.058311 0.000000
O O18 0.750000 0.124355 0.735999
O O19 0.509409 0.089046 0.660479
O O20 0.505984 0.173046 0.724532
O O21 0.750000 0.936324 0.407868
O O22 0.000000 0.947315 0.500000
O O23 0.936597 0.000000 0.363052
O O24 0.250000 0.216943 0.725165
#
# Coordination Sequence:
#
# PCOD9402904 Si02
#       8
#     8   8   8   8   8   8   8   8
#     4   9  18  33  52  76 104 135 174 217 261 307
#     4   9  18  32  50  71  98 132 168 209 254 300
#     4   9  19  36  57  78 101 131 169 216 265 310
#     4  10  20  32  48  75 111 148 182 216 257 305
#     4   9  19  35  53  73  98 129 166 207 248 292
#     4  11  22  35  53  77 104 133 165 204 250 298
#     4  10  21  37  57  79 101 127 159 195 239 293
#     4   9  20  37  51  69 101 135 166 203 250 304
#
# _framework density 16.988354000000001
#
# number of rings (size 3 to 8) (size 9 to 14) (size 15 to 20)
#    0.000    2.500    0.000    3.375    0.000    7.000 
#    0.000    7.500    0.000    0.375    0.000    0.000 
#    0.000    0.000    0.000    0.000    0.000    0.000 
#
# Total GULP energy -356814.474301 kJ/mol
# GULP energy per Si atom -5575.226161 kJ/mol
# Density = 1.694969 g / cm^3
# Si number density = 16.988354 Si / 1000 Ang^3
#
#
#
# Elastic Constant Matrix: (Units=GPa)
#
#
# Indices 1 2 3 4 5 6 
#
# 1 38.6832 47.5062 48.8853 0.0000 0.0000 0.0000
# 2 47.5062 84.8287 60.8768 0.0000 0.0000 0.0000
# 3 48.8853 60.8768 138.6218 0.0000 0.0000 0.0000
# 4 0.0000 0.0000 0.0000 24.4973 0.0000 0.0000
# 5 0.0000 0.0000 0.0000 0.0000 34.2274 0.0000
# 6 0.0000 0.0000 0.0000 0.0000 0.0000 30.8401
#
#
#
# Elastic Compliance Matrix: (Units=1/GPa)
#
#
# Indices 1 2 3 4 5 6 
#
# 1 0.102317 -0.045858 -0.015943 0.000000 0.000000 0.000000
# 2 -0.045858 0.037767 -0.000414 0.000000 0.000000 0.000000
# 3 -0.015943 -0.000414 0.013018 0.000000 0.000000 0.000000
# 4 0.000000 0.000000 0.000000 0.040821 0.000000 0.000000
# 5 0.000000 0.000000 0.000000 0.000000 0.029216 0.000000
# 6 0.000000 0.000000 0.000000 0.000000 0.000000 0.032425
#
#
# Mechanical properties :
#
#
# Convention : Reuss Voigt Hill
#
# Bulk Modulus (GPa) = 34.87796 64.07447 49.47622
# Shear Modulus (GPa) = 12.83524 24.90398 18.86961
#
# Velocity S-wave (km/s) = 2.75168 3.83292 3.33639
# Velocity P-wave (km/s) = 5.53811 7.57542 6.63542
#
# Compressibility (1/GPa) = 0.02867140
#
# Stress axis : x y z
#
# Youngs Moduli (GPa) = 9.77355 26.47801 76.81694
#
# Poissons Ratio (x) = 1.21424 1.22471
# Poissons Ratio (y) = 0.44820 0.03178
# Poissons Ratio (z) = 0.15582 0.01095
#
# Static dielectric constant tensor:
#      x y z
#    x 1.567030 0.000000 0.000000 
#    y 0.000000 1.583200 0.000000 
#    z 0.000000 0.000000 1.554100 
# 
# From -- ./inp_files/22353.got.cif
#   From: 2010.05.17/outbox.cif.g08.bks.cpg/sg51_12_cif.got.tgz:22353.got - 2010.06.03 11:52:47.
