data_PCOD9402526
_publ_section_title
;
Structure prediction by ZEFSAII (Michael W. Deem and Ramdas Pophale) SiO2 
 PCOD9402526
Probable space group: P M M A
;
_chemical_formula_sum "Si O2"
_cell_formula_units_Z 38
_cell_length_a 15.545228
_cell_length_b 11.489645
_cell_length_c 11.816557
_cell_angle_alpha 90.000000
_cell_angle_beta 90.000000
_cell_angle_gamma 90.000000
_cell_volume 2110.545215
_symmetry_space_group_name_H-M "P M M A"
_symmetry_group_IT_number 51
_symmetry_cell_setting 'orthorhombic'
loop_
_space_group_symop_operation_xyz
x,y,z
1/2-x,-y,z
1/2+x,-y,-z
-x,y,-z
-x,-y,-z
1/2+x,y,-z
1/2-x,y,z
x,-y,z
loop_
_atom_site_type_symbol
_atom_site_label
_atom_site_fract_x
_atom_site_fract_y
_atom_site_fract_z
Si Si1 0.651212 0.000000 0.199918
Si Si2 0.750000 0.744659 0.889253
Si Si3 0.089581 0.749487 0.731184
Si Si4 0.853316 0.366090 0.488971
Si Si5 0.250000 0.362061 0.860785
Si Si6 0.750000 0.000000 0.975345
Si Si7 0.907356 0.638026 0.750239
O O1 0.603538 0.884197 0.239397
O O2 0.750000 0.000000 0.246915
O O3 0.669693 0.000000 0.064384
O O4 0.833150 0.696780 0.824133
O O5 0.750000 0.883757 0.902013
O O6 0.750000 0.695236 0.016180
O O7 0.102294 0.720345 0.598769
O O8 0.166438 0.681520 0.793857
O O9 0.998305 0.699617 0.769438
O O10 0.750000 0.353679 0.482837
O O11 0.874744 0.500000 0.455724
O O12 0.882602 0.349971 0.617785
O O13 0.250000 0.500000 0.869057
O O14 0.911999 0.500000 0.774882
#
# Coordination Sequence:
#
# PCOD9402526 Si02
#       7
#     4   4   8   8   4   2   8
#     4  10  20  45  64  87 126 169 211 267 317 361
#     4  12  24  45  64  86 131 174 215 256 320 381
#     4  12  22  39  67  96 125 166 217 261 314 379
#     4  10  19  37  65  94 131 171 204 254 324 386
#     4  12  22  37  62  92 121 155 209 271 316 371
#     4  10  22  48  68  82 120 178 224 256 310 378
#     4  11  24  41  63  98 136 169 205 265 330 381
#
# _framework density 18.004826999999999
#
# number of rings (size 3 to 8) (size 9 to 14) (size 15 to 20)
#    0.316    0.632    5.263    3.474    0.000    3.368 
#    0.000    6.316    0.000    0.000    0.000    0.000 
#    0.000    0.000    0.000    0.000    0.000    0.000 
#
# Total GULP energy -212370.698425 kJ/mol
# GULP energy per Si atom -5588.702590 kJ/mol
# Density = 1.796385 g / cm^3
# Si number density = 18.004827 Si / 1000 Ang^3
#
#
#
# Elastic Constant Matrix: (Units=GPa)
#
#
# Indices 1 2 3 4 5 6 
#
# 1 117.6981 60.5233 35.9878 0.0000 0.0000 0.0000
# 2 60.5233 165.6148 44.5504 0.0000 0.0000 0.0000
# 3 35.9878 44.5504 72.0900 0.0000 0.0000 0.0000
# 4 0.0000 0.0000 0.0000 169.9956 0.0000 0.0000
# 5 0.0000 0.0000 0.0000 0.0000 -7.7729 0.0000
# 6 0.0000 0.0000 0.0000 0.0000 0.0000 29.3712
#
#
#
# Elastic Compliance Matrix: (Units=1/GPa)
#
#
# Indices 1 2 3 4 5 6 
#
# 1 0.011221 -0.003111 -0.003679 0.000000 0.000000 0.000000
# 2 -0.003111 0.008105 -0.003455 0.000000 0.000000 0.000000
# 3 -0.003679 -0.003455 0.017844 0.000000 0.000000 0.000000
# 4 0.000000 0.000000 0.000000 0.005883 0.000000 0.000000
# 5 0.000000 0.000000 0.000000 0.000000 -0.128652 0.000000
# 6 0.000000 0.000000 0.000000 0.000000 0.000000 0.034047
#
#
# Mechanical properties :
#
#
# Convention : Reuss Voigt Hill
#
# Bulk Modulus (GPa) = 59.95884 70.83621 65.39752
# Shear Modulus (GPa) = -196.05193 52.60821 -71.72186
#
# Velocity S-wave (km/s) = -10.44629 5.41132 -6.31833
# Velocity P-wave (km/s) = 10.58896 8.85841 4.10211
#
# Compressibility (1/GPa) = 0.01667811
#
# Stress axis : x y z
#
# Youngs Moduli (GPa) = 89.11868 123.38796 56.04270
#
# Poissons Ratio (x) = 0.38386 0.20618
# Poissons Ratio (y) = 0.27725 0.19365
# Poissons Ratio (z) = 0.32787 0.42636
#
# Static dielectric constant tensor:
#      x y z
#    x 1.607390 0.000000 0.000000 
#    y 0.000000 1.597780 0.000000 
#    z 0.000000 0.000000 1.611000 
# 
# From -- ./inp_files/16260.got.cif
#   From: 2010.05.17/outbox.cif.g08.bks.cpg/sg51_9_cif.got.tgz:16260.got - 2010.06.03 11:52:47.
