data_PCOD9402616
_publ_section_title
;
Structure prediction by ZEFSAII (Michael W. Deem and Ramdas Pophale) SiO2 
 PCOD9402616
Probable space group: P M M A
;
_chemical_formula_sum "Si O2"
_cell_formula_units_Z 48
_cell_length_a 17.750561
_cell_length_b 13.520031
_cell_length_c 11.353714
_cell_angle_alpha 90.000000
_cell_angle_beta 90.000000
_cell_angle_gamma 90.000000
_cell_volume 2724.756648
_symmetry_space_group_name_H-M "P M M A"
_symmetry_group_IT_number 51
_symmetry_cell_setting 'orthorhombic'
loop_
_space_group_symop_operation_xyz
x,y,z
1/2-x,-y,z
1/2+x,-y,-z
-x,y,-z
-x,-y,-z
1/2+x,y,-z
1/2-x,y,z
x,-y,z
loop_
_atom_site_type_symbol
_atom_site_label
_atom_site_fract_x
_atom_site_fract_y
_atom_site_fract_z
Si Si1 0.838849 0.618183 0.730165
Si Si2 0.431086 0.734558 0.073059
Si Si3 0.664457 0.111703 0.074958
Si Si4 0.865356 0.109695 0.346462
Si Si5 0.911566 0.246477 0.537688
Si Si6 0.036977 0.891387 0.268589
O O1 0.750000 0.644821 0.733897
O O2 0.845147 0.500000 0.729993
O O3 0.882167 0.662965 0.843912
O O4 0.877166 0.663806 0.612611
O O5 0.466158 0.815711 0.161682
O O6 0.500000 0.687351 0.000000
O O7 0.380202 0.800340 0.986186
O O8 0.750000 0.111991 0.030265
O O9 0.666267 0.125211 0.215958
O O10 0.632366 0.000000 0.055831
O O11 0.860550 0.204144 0.431570
O O12 0.954922 0.101960 0.325495
O O13 0.840295 0.000000 0.389397
O O14 0.912293 0.155670 0.630298
O O15 0.000000 0.264979 0.500000
O O16 0.061992 0.000000 0.231477
#
# Coordination Sequence:
#
# PCOD9402616 Si02
#       6
#     8   8   8   8   8   8
#     4  10  23  42  60  77 101 136 177 227 286 331
#     4  11  20  33  56  79 103 136 180 224 265 312
#     4  10  20  31  46  75 114 149 176 206 251 310
#     4   9  16  28  47  75 111 144 171 200 242 303
#     4   9  18  32  55  82 106 135 176 219 259 307
#     4   9  16  27  47  78 110 139 173 209 248 299
#
# _framework density 17.616251999999999
#
# number of rings (size 3 to 8) (size 9 to 14) (size 15 to 20)
#    0.000    2.333    1.667    1.500    0.000    4.000 
#    0.000    0.000    0.000    9.500    0.000    2.333 
#    0.000    0.000    0.000    0.000    0.000    0.000 
#
# Total GULP energy -267270.656875 kJ/mol
# GULP energy per Si atom -5568.138685 kJ/mol
# Density = 1.757616 g / cm^3
# Si number density = 17.616252 Si / 1000 Ang^3
#
#
#
# Elastic Constant Matrix: (Units=GPa)
#
#
# Indices 1 2 3 4 5 6 
#
# 1 68.0454 47.0375 33.6528 0.0000 0.0000 0.0000
# 2 47.0375 88.0294 44.4614 0.0000 0.0000 0.0000
# 3 33.6528 44.4614 83.0985 0.0000 0.0000 0.0000
# 4 0.0000 0.0000 0.0000 17.0884 0.0000 0.0000
# 5 0.0000 0.0000 0.0000 0.0000 -9.5258 0.0000
# 6 0.0000 0.0000 0.0000 0.0000 0.0000 1.3955
#
#
#
# Elastic Compliance Matrix: (Units=1/GPa)
#
#
# Indices 1 2 3 4 5 6 
#
# 1 0.024215 -0.010943 -0.003951 0.000000 0.000000 0.000000
# 2 -0.010943 0.020512 -0.006543 0.000000 0.000000 0.000000
# 3 -0.003951 -0.006543 0.017135 0.000000 0.000000 0.000000
# 4 0.000000 0.000000 0.000000 0.058519 0.000000 0.000000
# 5 0.000000 0.000000 0.000000 0.000000 -0.104978 0.000000
# 6 0.000000 0.000000 0.000000 0.000000 0.000000 0.716576
#
#
# Mechanical properties :
#
#
# Convention : Reuss Voigt Hill
#
# Bulk Modulus (GPa) = 52.66885 54.38630 53.52758
# Shear Modulus (GPa) = 6.40055 9.39308 7.89682
#
# Velocity S-wave (km/s) = 1.90820 2.31163 2.11953
# Velocity P-wave (km/s) = 5.90065 6.16966 6.03665
#
# Compressibility (1/GPa) = 0.01898655
#
# Stress axis : x y z
#
# Youngs Moduli (GPa) = 41.29679 48.75192 58.36035
#
# Poissons Ratio (x) = 0.53351 0.23060
# Poissons Ratio (y) = 0.45192 0.38186
# Poissons Ratio (z) = 0.16318 0.31899
#
# Static dielectric constant tensor:
#      x y z
#    x 1.635250 0.000000 0.000000 
#    y 0.000000 1.593790 0.000000 
#    z 0.000000 0.000000 1.630650 
# 
# From -- ./inp_files/17278.got.cif
#   From: 2010.05.17/outbox.cif.g08.bks.cpg/sg51_9_cif.got.tgz:17278.got - 2010.06.03 11:52:47.
