data_PCOD9402502
_publ_section_title
;
Structure prediction by ZEFSAII (Michael W. Deem and Ramdas Pophale) SiO2 
 PCOD9402502
Probable space group: P M M A
;
_chemical_formula_sum "Si O2"
_cell_formula_units_Z 48
_cell_length_a 19.608690
_cell_length_b 8.691387
_cell_length_c 15.386625
_cell_angle_alpha 90.000000
_cell_angle_beta 90.000000
_cell_angle_gamma 90.000000
_cell_volume 2622.291928
_symmetry_space_group_name_H-M "P M M A"
_symmetry_group_IT_number 51
_symmetry_cell_setting 'orthorhombic'
loop_
_space_group_symop_operation_xyz
x,y,z
1/2-x,-y,z
1/2+x,-y,-z
-x,y,-z
-x,-y,-z
1/2+x,y,-z
1/2-x,y,z
x,-y,z
loop_
_atom_site_type_symbol
_atom_site_label
_atom_site_fract_x
_atom_site_fract_y
_atom_site_fract_z
Si Si1 0.572271 0.814626 0.045970
Si Si2 0.436136 0.316874 0.761946
Si Si3 0.085012 0.184995 0.276045
Si Si4 0.170511 0.815835 0.625256
Si Si5 0.170331 0.315779 0.435115
Si Si6 0.828000 0.187381 0.892813
O O1 0.576378 0.737286 0.139409
O O2 0.575193 0.000000 0.057461
O O3 0.500000 0.780065 0.000000
O O4 0.631779 0.766703 0.979651
O O5 0.436558 0.500000 0.757160
O O6 0.509580 0.252211 0.732990
O O7 0.378417 0.250357 0.698689
O O8 0.122883 0.242042 0.362171
O O9 0.129531 0.234479 0.192141
O O10 0.081120 0.000000 0.275726
O O11 0.250000 0.778041 0.642878
O O12 0.153245 0.746113 0.530970
O O13 0.164092 0.000000 0.621594
O O14 0.250000 0.275785 0.418146
O O15 0.164024 0.500000 0.433499
O O16 0.750000 0.240895 0.890209
O O17 0.827202 0.000000 0.892355
#
# Coordination Sequence:
#
# PCOD9402502 Si02
#       6
#     8   8   8   8   8   8
#     4  10  19  37  60  83 114 154 199 244 293 351
#     4  12  25  39  59  88 122 157 196 244 306 364
#     4  11  21  37  60  87 119 157 205 249 291 350
#     4  10  22  42  66  89 114 152 203 250 292 349
#     4  10  21  38  60  89 126 161 192 239 304 360
#     4   9  18  33  57  87 115 148 196 251 296 339
#
# _framework density 18.304597999999999
#
# number of rings (size 3 to 8) (size 9 to 14) (size 15 to 20)
#    0.000    1.667    1.667    3.500    0.000    4.333 
#    0.000    5.000    0.000    2.000    0.000    0.000 
#    0.000    0.000    0.000    0.000    0.000    0.000 
#
# Total GULP energy -268251.774293 kJ/mol
# GULP energy per Si atom -5588.578631 kJ/mol
# Density = 1.826294 g / cm^3
# Si number density = 18.304598 Si / 1000 Ang^3
#
#
#
# Elastic Constant Matrix: (Units=GPa)
#
#
# Indices 1 2 3 4 5 6 
#
# 1 136.9585 48.5642 106.5062 0.0000 0.0000 0.0000
# 2 48.5642 59.3061 56.3754 0.0000 0.0000 0.0000
# 3 106.5062 56.3754 173.9544 0.0000 0.0000 0.0000
# 4 0.0000 0.0000 0.0000 -47.0022 0.0000 0.0000
# 5 0.0000 0.0000 0.0000 0.0000 38.4501 0.0000
# 6 0.0000 0.0000 0.0000 0.0000 0.0000 20.4458
#
#
#
# Elastic Compliance Matrix: (Units=1/GPa)
#
#
# Indices 1 2 3 4 5 6 
#
# 1 0.014939 -0.005114 -0.007489 0.000000 0.000000 0.000000
# 2 -0.005114 0.026120 -0.005334 0.000000 0.000000 0.000000
# 3 -0.007489 -0.005334 0.012063 0.000000 0.000000 0.000000
# 4 0.000000 0.000000 0.000000 -0.021276 0.000000 0.000000
# 5 0.000000 0.000000 0.000000 0.000000 0.026008 0.000000
# 6 0.000000 0.000000 0.000000 0.000000 0.000000 0.048910
#
#
# Mechanical properties :
#
#
# Convention : Reuss Voigt Hill
#
# Bulk Modulus (GPa) = 57.98055 88.12338 73.05197
# Shear Modulus (GPa) = 33.69599 12.96363 23.32981
#
# Velocity S-wave (km/s) = 4.29517 2.66412 3.57393
# Velocity P-wave (km/s) = 7.50614 7.59675 7.55158
#
# Compressibility (1/GPa) = 0.01724716
#
# Stress axis : x y z
#
# Youngs Moduli (GPa) = 66.93969 38.28554 82.90093
#
# Poissons Ratio (x) = 0.19579 0.62086
# Poissons Ratio (y) = 0.34232 0.44218
# Poissons Ratio (z) = 0.50132 0.20421
#
# Static dielectric constant tensor:
#      x y z
#    x 1.611170 0.000000 0.000000 
#    y 0.000000 1.613270 0.000000 
#    z 0.000000 0.000000 1.592920 
# 
# From -- ./inp_files/24683.got.cif
#   From: 2010.05.17/outbox.cif.g08.bks.cpg/sg51_13_cif.got.tgz:24683.got - 2010.06.03 11:52:47.
