data_PCOD9402305
_publ_section_title
;
Structure prediction by ZEFSAII (Michael W. Deem and Ramdas Pophale) SiO2 
 PCOD9402305
Probable space group: P M M A
;
_chemical_formula_sum "Si O2"
_cell_formula_units_Z 48
_cell_length_a 18.563820
_cell_length_b 8.195257
_cell_length_c 16.423098
_cell_angle_alpha 90.000000
_cell_angle_beta 90.000000
_cell_angle_gamma 90.000000
_cell_volume 2498.532544
_symmetry_space_group_name_H-M "P M M A"
_symmetry_group_IT_number 51
_symmetry_cell_setting 'orthorhombic'
loop_
_space_group_symop_operation_xyz
x,y,z
1/2-x,-y,z
1/2+x,-y,-z
-x,y,-z
-x,-y,-z
1/2+x,y,-z
1/2-x,y,z
x,-y,z
loop_
_atom_site_type_symbol
_atom_site_label
_atom_site_fract_x
_atom_site_fract_y
_atom_site_fract_z
Si Si1 0.750000 0.812600 0.204714
Si Si2 0.967807 0.196304 0.630192
Si Si3 0.750000 0.314455 0.381335
Si Si4 0.539773 0.696063 0.815435
Si Si5 0.389564 0.197519 0.529860
Si Si6 0.388778 0.304498 0.890302
Si Si7 0.333237 0.300171 0.067078
O O1 0.750000 0.797184 0.301677
O O2 0.822453 0.733477 0.169246
O O3 0.750000 0.000000 0.179406
O O4 0.958663 0.262903 0.720256
O O5 0.909531 0.246662 0.562204
O O6 0.044209 0.240958 0.589462
O O7 0.966027 0.000000 0.634622
O O8 0.750000 0.500000 0.351772
O O9 0.680932 0.278603 0.435584
O O10 0.538630 0.500000 0.823254
O O11 0.465271 0.758537 0.856387
O O12 0.611056 0.753555 0.863138
O O13 0.382712 0.000000 0.531304
O O14 0.395572 0.500000 0.896028
O O15 0.365759 0.246500 0.980093
O O16 0.250000 0.247398 0.076281
O O17 0.332011 0.500000 0.066813
#
# Coordination Sequence:
#
# PCOD9402305 Si02
#       7
#     4   8   4   8   8   8   8
#     4  12  24  36  54  81 114 147 180 225 280 335
#     4   9  19  37  59  80 106 146 186 222 272 328
#     4  12  24  36  54  85 114 141 178 223 276 327
#     4  10  20  32  54  86 112 141 186 233 273 324
#     4   9  19  38  60  79 107 146 185 223 270 330
#     4  10  19  35  57  81 109 144 187 232 276 322
#     4   9  17  33  56  79 109 149 185 225 275 324
#
# _framework density 19.211276999999999
#
# number of rings (size 3 to 8) (size 9 to 14) (size 15 to 20)
#    0.000    2.167    0.833    4.000    0.000    6.667 
#    1.500    2.500    0.000    2.000    0.000    0.000 
#    0.000    0.000    0.000    0.000    0.000    0.000 
#
# Total GULP energy -267935.101259 kJ/mol
# GULP energy per Si atom -5581.981276 kJ/mol
# Density = 1.916755 g / cm^3
# Si number density = 19.211277 Si / 1000 Ang^3
#
#
#
# Elastic Constant Matrix: (Units=GPa)
#
#
# Indices 1 2 3 4 5 6 
#
# 1 124.3274 6.5013 109.3092 0.0000 0.0000 0.0000
# 2 6.5013 6.3019 9.5590 0.0000 0.0000 0.0000
# 3 109.3092 9.5590 150.9274 0.0000 0.0000 0.0000
# 4 0.0000 0.0000 0.0000 47.2092 0.0000 0.0000
# 5 0.0000 0.0000 0.0000 0.0000 20.4513 0.0000
# 6 0.0000 0.0000 0.0000 0.0000 0.0000 10.7929
#
#
#
# Elastic Compliance Matrix: (Units=1/GPa)
#
#
# Indices 1 2 3 4 5 6 
#
# 1 0.022159 0.001641 -0.016152 0.000000 0.000000 0.000000
# 2 0.001641 0.175669 -0.012315 0.000000 0.000000 0.000000
# 3 -0.016152 -0.012315 0.019104 0.000000 0.000000 0.000000
# 4 0.000000 0.000000 0.000000 0.021182 0.000000 0.000000
# 5 0.000000 0.000000 0.000000 0.000000 0.048897 0.000000
# 6 0.000000 0.000000 0.000000 0.000000 0.000000 0.092653
#
#
# Mechanical properties :
#
#
# Convention : Reuss Voigt Hill
#
# Bulk Modulus (GPa) = 6.12446 59.14396 32.63421
# Shear Modulus (GPa) = 10.25132 26.10317 18.17724
#
# Velocity S-wave (km/s) = 2.31250 3.69011 3.07933
# Velocity P-wave (km/s) = 3.21327 7.00063 5.44674
#
# Compressibility (1/GPa) = 0.16327977
#
# Stress axis : x y z
#
# Youngs Moduli (GPa) = 45.12892 5.69253 52.34495
#
# Poissons Ratio (x) = -0.00934 0.84550
# Poissons Ratio (y) = -0.07406 0.64460
# Poissons Ratio (z) = 0.72894 0.07010
#
# Static dielectric constant tensor:
#      x y z
#    x 1.668070 0.000000 0.000000 
#    y 0.000000 1.682440 0.000000 
#    z 0.000000 0.000000 1.643990 
# 
# From -- ./inp_files/24897.got.cif
#   From: 2010.05.17/outbox.cif.g08.bks.cpg/sg51_13_cif.got.tgz:24897.got - 2010.06.03 11:52:47.
