data_PCOD9402159
_publ_section_title
;
Structure prediction by ZEFSAII (Michael W. Deem and Ramdas Pophale) SiO2 
 PCOD9402159
Probable space group: P M M A
;
_chemical_formula_sum "Si O2"
_cell_formula_units_Z 64
_cell_length_a 16.153723
_cell_length_b 7.645477
_cell_length_c 24.412003
_cell_angle_alpha 90.000000
_cell_angle_beta 90.000000
_cell_angle_gamma 90.000000
_cell_volume 3014.953596
_symmetry_space_group_name_H-M "P M M A"
_symmetry_group_IT_number 51
_symmetry_cell_setting 'orthorhombic'
loop_
_space_group_symop_operation_xyz
x,y,z
1/2-x,-y,z
1/2+x,-y,-z
-x,y,-z
-x,-y,-z
1/2+x,y,-z
1/2-x,y,z
x,-y,z
loop_
_atom_site_type_symbol
_atom_site_label
_atom_site_fract_x
_atom_site_fract_y
_atom_site_fract_z
Si Si1 0.003690 0.290782 0.311559
Si Si2 0.404466 0.788619 0.501295
Si Si3 0.340818 0.707754 0.118268
Si Si4 0.840927 0.707246 0.120605
Si Si5 0.341208 0.291697 0.381638
Si Si6 0.404738 0.790381 0.998875
Si Si7 0.500954 0.715249 0.813704
Si Si8 0.658631 0.789204 0.381005
O O1 0.013232 0.500000 0.308981
O O2 0.003161 0.227438 0.249191
O O3 0.917129 0.257383 0.341797
O O4 0.081152 0.220650 0.346956
O O5 0.500000 0.729096 0.500000
O O6 0.359513 0.734735 0.445789
O O7 0.362014 0.727488 0.557320
O O8 0.404878 0.000000 0.502321
O O9 0.250000 0.780651 0.131568
O O10 0.338009 0.500000 0.128551
O O11 0.418043 0.775937 0.153253
O O12 0.359849 0.733095 0.054192
O O13 0.750000 0.781352 0.132961
O O14 0.837681 0.500000 0.131598
O O15 0.861139 0.729744 0.056530
O O16 0.917975 0.776585 0.155570
O O17 0.250000 0.220531 0.367874
O O18 0.338667 0.500000 0.372029
O O19 0.405859 0.000000 0.998111
O O20 0.500000 0.726891 0.000000
O O21 0.500620 0.500000 0.814999
O O22 0.750000 0.727005 0.363942
O O23 0.661072 0.000000 0.382914
#
# Coordination Sequence:
#
# PCOD9402159 Si02
#       8
#     8   8   8   8   8   8   8   8
#     4  10  21  37  57  80 108 145 185 224 268 318
#     4  10  19  34  58  82 106 140 181 224 269 322
#     4  10  20  35  58  84 107 138 179 219 264 317
#     4  10  20  35  57  81 105 138 178 219 264 314
#     4  10  21  35  53  81 115 146 177 219 272 326
#     4  11  22  35  54  81 112 144 174 212 267 323
#     4   9  19  36  56  79 107 139 178 225 264 304
#     4  10  21  37  56  80 110 142 178 224 276 325
#
# _framework density 21.227523000000001
#
# number of rings (size 3 to 8) (size 9 to 14) (size 15 to 20)
#    0.000    2.000    2.500    1.125    0.000    5.250 
#    0.000    5.000    0.000    0.000    0.000    1.750 
#    0.000    0.000    0.000    0.000    0.000    0.000 
#
# Total GULP energy -357576.327961 kJ/mol
# GULP energy per Si atom -5587.130124 kJ/mol
# Density = 2.117921 g / cm^3
# Si number density = 21.227523 Si / 1000 Ang^3
#
#
#
# Elastic Constant Matrix: (Units=GPa)
#
#
# Indices 1 2 3 4 5 6 
#
# 1 228.2868 8.8928 100.6626 0.0000 0.0000 0.0000
# 2 8.8928 39.9216 -4.7390 0.0000 0.0000 0.0000
# 3 100.6626 -4.7390 159.9673 0.0000 0.0000 0.0000
# 4 0.0000 0.0000 0.0000 55.5464 0.0000 0.0000
# 5 0.0000 0.0000 0.0000 0.0000 -0.2400 0.0000
# 6 0.0000 0.0000 0.0000 0.0000 0.0000 51.3676
#
#
#
# Elastic Compliance Matrix: (Units=1/GPa)
#
#
# Indices 1 2 3 4 5 6 
#
# 1 0.006196 -0.001849 -0.003954 0.000000 0.000000 0.000000
# 2 -0.001849 0.025690 0.001925 0.000000 0.000000 0.000000
# 3 -0.003954 0.001925 0.008796 0.000000 0.000000 0.000000
# 4 0.000000 0.000000 0.000000 0.018003 0.000000 0.000000
# 5 0.000000 0.000000 0.000000 0.000000 -4.166969 0.000000
# 6 0.000000 0.000000 0.000000 0.000000 0.000000 0.019468
#
#
# Mechanical properties :
#
#
# Convention : Reuss Voigt Hill
#
# Bulk Modulus (GPa) = 30.37197 70.86761 50.61979
# Shear Modulus (GPa) = -1.22848 42.89208 20.83180
#
# Velocity S-wave (km/s) = -0.76156 4.49997 3.13606
# Velocity P-wave (km/s) = 3.68315 7.77540 6.08369
#
# Compressibility (1/GPa) = 0.03292510
#
# Stress axis : x y z
#
# Youngs Moduli (GPa) = 161.39809 38.92631 113.68514
#
# Poissons Ratio (x) = 0.07199 0.44947
# Poissons Ratio (y) = 0.29850 -0.21883
# Poissons Ratio (z) = 0.63811 -0.07493
#
# Static dielectric constant tensor:
#      x y z
#    x 1.782390 0.000000 0.000000 
#    y 0.000000 1.786420 0.000000 
#    z 0.000000 0.000000 1.710810 
# 
# From -- ./inp_files/35855.got.cif
#   From: 2010.05.17/outbox.cif.g08.bks.cpg/sg51_18_cif.got.tgz:35855.got - 2010.06.03 11:52:47.
