data_PCOD9402601
_publ_section_title
;
Structure prediction by ZEFSAII (Michael W. Deem and Ramdas Pophale) SiO2 
 PCOD9402601
Probable space group: P M M A
;
_chemical_formula_sum "Si O2"
_cell_formula_units_Z 64
_cell_length_a 19.257846
_cell_length_b 9.258010
_cell_length_c 21.567189
_cell_angle_alpha 90.000000
_cell_angle_beta 90.000000
_cell_angle_gamma 90.000000
_cell_volume 3845.199695
_symmetry_space_group_name_H-M "P M M A"
_symmetry_group_IT_number 51
_symmetry_cell_setting 'orthorhombic'
loop_
_space_group_symop_operation_xyz
x,y,z
1/2-x,-y,z
1/2+x,-y,-z
-x,y,-z
-x,-y,-z
1/2+x,y,-z
1/2-x,y,z
x,-y,z
loop_
_atom_site_type_symbol
_atom_site_label
_atom_site_fract_x
_atom_site_fract_y
_atom_site_fract_z
Si Si1 0.905369 0.829229 0.350789
Si Si2 0.636284 0.336957 0.234601
Si Si3 0.832071 0.671666 0.605238
Si Si4 0.532583 0.170384 0.067867
Si Si5 0.437534 0.828073 0.304226
Si Si6 0.477774 0.665251 0.184790
Si Si7 0.668961 0.672908 0.461117
Si Si8 0.826455 0.326410 0.098154
O O1 0.860925 0.765772 0.293460
O O2 0.880472 0.752578 0.413150
O O3 0.986270 0.800463 0.334491
O O4 0.896093 0.000000 0.355351
O O5 0.657600 0.500000 0.251681
O O6 0.555973 0.341186 0.212526
O O7 0.674081 0.291801 0.171702
O O8 0.750000 0.696282 0.615709
O O9 0.844990 0.500000 0.613592
O O10 0.879658 0.762299 0.651000
O O11 0.846534 0.706878 0.533042
O O12 0.486710 0.250891 0.120123
O O13 0.609070 0.241464 0.069674
O O14 0.537147 0.000000 0.082869
O O15 0.500000 0.186958 0.000000
O O16 0.435631 0.750869 0.237195
O O17 0.430340 0.000000 0.297154
O O18 0.453981 0.500000 0.176335
O O19 0.750000 0.710275 0.449545
O O20 0.662465 0.500000 0.453793
O O21 0.750000 0.294486 0.072082
O O22 0.838551 0.500000 0.093893
#
# Coordination Sequence:
#
# PCOD9402601 Si02
#       8
#     8   8   8   8   8   8   8   8
#     4  10  20  31  45  70 101 130 162 200 243 294
#     4   8  15  28  45  66  93 125 159 194 235 282
#     4   9  19  36  55  73  93 122 165 211 254 305
#     4  10  20  33  51  77 108 140 171 204 248 301
#     4  10  20  33  51  76 104 130 158 200 253 303
#     4   9  17  31  52  75  98 126 162 202 239 280
#     4   9  19  35  51  66  89 125 167 209 251 297
#     4   9  18  32  50  73 100 132 173 215 249 289
#
# _framework density 16.644129
#
# number of rings (size 3 to 8) (size 9 to 14) (size 15 to 20)
#    0.000    2.750    0.000    3.000    0.000    7.750 
#    0.000    5.000    0.000    0.750    0.000    3.500 
#    0.000    0.000    0.000    0.000    0.000    0.000 
#
# Total GULP energy -356724.959315 kJ/mol
# GULP energy per Si atom -5573.827489 kJ/mol
# Density = 1.660625 g / cm^3
# Si number density = 16.644129 Si / 1000 Ang^3
#
#
#
# Elastic Constant Matrix: (Units=GPa)
#
#
# Indices 1 2 3 4 5 6 
#
# 1 56.9299 53.8024 51.0137 0.0000 0.0000 0.0000
# 2 53.8024 93.6795 77.8267 0.0000 0.0000 0.0000
# 3 51.0137 77.8267 106.0378 0.0000 0.0000 0.0000
# 4 0.0000 0.0000 0.0000 23.3771 0.0000 0.0000
# 5 0.0000 0.0000 0.0000 0.0000 14.5303 0.0000
# 6 0.0000 0.0000 0.0000 0.0000 0.0000 18.9137
#
#
#
# Elastic Compliance Matrix: (Units=1/GPa)
#
#
# Indices 1 2 3 4 5 6 
#
# 1 0.039895 -0.017854 -0.006089 0.000000 0.000000 0.000000
# 2 -0.017854 0.035343 -0.017351 0.000000 0.000000 0.000000
# 3 -0.006089 -0.017351 0.025095 0.000000 0.000000 0.000000
# 4 0.000000 0.000000 0.000000 0.042777 0.000000 0.000000
# 5 0.000000 0.000000 0.000000 0.000000 0.068821 0.000000
# 6 0.000000 0.000000 0.000000 0.000000 0.000000 0.052872
#
#
# Mechanical properties :
#
#
# Convention : Reuss Voigt Hill
#
# Bulk Modulus (GPa) = 56.35383 69.10363 62.72873
# Shear Modulus (GPa) = 14.15203 16.29785 15.22494
#
# Velocity S-wave (km/s) = 2.91910 3.13260 3.02774
# Velocity P-wave (km/s) = 6.73002 7.39545 7.07057
#
# Compressibility (1/GPa) = 0.01774502
#
# Stress axis : x y z
#
# Youngs Moduli (GPa) = 25.06597 28.29381 39.84877
#
# Poissons Ratio (x) = 0.50515 0.24264
# Poissons Ratio (y) = 0.44752 0.69142
# Poissons Ratio (z) = 0.15263 0.49093
#
# Static dielectric constant tensor:
#      x y z
#    x 1.565640 0.000000 0.000000 
#    y 0.000000 1.558160 0.000000 
#    z 0.000000 0.000000 1.543170 
# 
# From -- ./inp_files/30634.got.cif
#   From: 2010.05.17/outbox.cif.g08.bks.cpg/sg51_16_cif.got.tgz:30634.got - 2010.06.03 11:52:47.
