data_PCOD9402448
_publ_section_title
;
Structure prediction by ZEFSAII (Michael W. Deem and Ramdas Pophale) SiO2 
 PCOD9402448
Probable space group: P M M A
;
_chemical_formula_sum "Si O2"
_cell_formula_units_Z 44
_cell_length_a 10.518763
_cell_length_b 7.779981
_cell_length_c 28.530851
_cell_angle_alpha 90.000000
_cell_angle_beta 90.000000
_cell_angle_gamma 90.000000
_cell_volume 2334.844340
_symmetry_space_group_name_H-M "P M M A"
_symmetry_group_IT_number 51
_symmetry_cell_setting 'orthorhombic'
loop_
_space_group_symop_operation_xyz
x,y,z
1/2-x,-y,z
1/2+x,-y,-z
-x,y,-z
-x,-y,-z
1/2+x,y,-z
1/2-x,y,z
x,-y,z
loop_
_atom_site_type_symbol
_atom_site_label
_atom_site_fract_x
_atom_site_fract_y
_atom_site_fract_z
Si Si1 0.602937 0.291546 0.307931
Si Si2 0.750000 0.697298 0.056185
Si Si3 0.995910 0.290987 0.894808
Si Si4 0.750000 0.805885 0.952699
Si Si5 0.397855 0.500000 0.458757
Si Si6 0.104284 0.803844 0.384603
Si Si7 0.896000 0.709110 0.201591
O O1 0.750000 0.241971 0.318168
O O2 0.598647 0.500000 0.309329
O O3 0.500129 0.223663 0.344402
O O4 0.573355 0.236014 0.254485
O O5 0.750000 0.500000 0.073212
O O6 0.620381 0.770921 0.077000
O O7 0.750000 0.697540 0.000233
O O8 0.990553 0.500000 0.895962
O O9 0.872159 0.226889 0.920946
O O10 0.014085 0.236309 0.840837
O O11 0.750000 0.000000 0.969978
O O12 0.250000 0.500000 0.475097
O O13 0.500000 0.500000 0.500000
O O14 0.416181 0.333740 0.425668
O O15 0.250000 0.776782 0.367145
O O16 0.095685 0.000000 0.401706
O O17 0.750000 0.760084 0.191248
O O18 0.896937 0.500000 0.202008
#
# Coordination Sequence:
#
# PCOD9402448 Si02
#       7
#     8   4   8   4   4   8   8
#     4   9  17  31  56  87 116 147 188 236 288 345
#     4  10  20  36  62  84  96 126 176 230 276 331
#     4  10  19  36  60  81 103 131 174 228 280 330
#     4  12  26  38  48  72 110 144 176 216 270 337
#     4  10  22  40  62  88 122 160 202 252 297 346
#     4  10  21  38  59  85 121 163 203 243 291 349
#     4   8  14  29  55  85 109 134 175 229 283 336
#
# _framework density 18.844940999999999
#
# number of rings (size 3 to 8) (size 9 to 14) (size 15 to 20)
#    0.000    2.364    1.818    2.455    0.000    4.364 
#    1.636    0.909    0.000    1.091    0.000    0.000 
#    0.000    0.000    0.000    0.000    0.000    0.000 
#
# Total GULP energy -245480.806978 kJ/mol
# GULP energy per Si atom -5579.109250 kJ/mol
# Density = 1.880205 g / cm^3
# Si number density = 18.844941 Si / 1000 Ang^3
#
#
#
# Elastic Constant Matrix: (Units=GPa)
#
#
# Indices 1 2 3 4 5 6 
#
# 1 144.8970 27.3590 89.6564 0.0000 0.0000 0.0000
# 2 27.3590 58.3045 25.1270 0.0000 0.0000 0.0000
# 3 89.6564 25.1270 116.2251 0.0000 0.0000 0.0000
# 4 0.0000 0.0000 0.0000 -15.9472 0.0000 0.0000
# 5 0.0000 0.0000 0.0000 0.0000 31.6533 0.0000
# 6 0.0000 0.0000 0.0000 0.0000 0.0000 311.4263
#
#
#
# Elastic Compliance Matrix: (Units=1/GPa)
#
#
# Indices 1 2 3 4 5 6 
#
# 1 0.013417 -0.002024 -0.009912 0.000000 0.000000 0.000000
# 2 -0.002024 0.019219 -0.002594 0.000000 0.000000 0.000000
# 3 -0.009912 -0.002594 0.016811 0.000000 0.000000 0.000000
# 4 0.000000 0.000000 0.000000 -0.062707 0.000000 0.000000
# 5 0.000000 0.000000 0.000000 0.000000 0.031592 0.000000
# 6 0.000000 0.000000 0.000000 0.000000 0.000000 0.003211
#
#
# Mechanical properties :
#
#
# Convention : Reuss Voigt Hill
#
# Bulk Modulus (GPa) = 49.05086 67.07903 58.06494
# Shear Modulus (GPa) = 87.10965 77.24541 82.17753
#
# Velocity S-wave (km/s) = 6.80623 6.40929 6.61074
# Velocity P-wave (km/s) = 9.37291 9.51023 9.44182
#
# Compressibility (1/GPa) = 0.02038700
#
# Stress axis : x y z
#
# Youngs Moduli (GPa) = 74.53258 52.03223 59.48447
#
# Poissons Ratio (x) = 0.10531 0.58963
# Poissons Ratio (y) = 0.15085 0.15428
# Poissons Ratio (z) = 0.73879 0.13495
#
# Static dielectric constant tensor:
#      x y z
#    x 1.634160 0.000000 0.000000 
#    y 0.000000 1.694220 0.000000 
#    z 0.000000 0.000000 1.624870 
# 
# From -- ./inp_files/36839.got.cif
#   From: 2010.05.17/outbox.cif.g08.bks.cpg/sg51_19_cif.got.tgz:36839.got - 2010.06.03 11:52:47.
