data_PCOD9402815
_publ_section_title
;
Structure prediction by ZEFSAII (Michael W. Deem and Ramdas Pophale) SiO2 
 PCOD9402815
Probable space group: P M M A
;
_chemical_formula_sum "Si O2"
_cell_formula_units_Z 56
_cell_length_a 8.894647
_cell_length_b 20.560319
_cell_length_c 15.832234
_cell_angle_alpha 90.000000
_cell_angle_beta 90.000000
_cell_angle_gamma 90.000000
_cell_volume 2895.347970
_symmetry_space_group_name_H-M "P M M A"
_symmetry_group_IT_number 51
_symmetry_cell_setting 'orthorhombic'
loop_
_space_group_symop_operation_xyz
x,y,z
1/2-x,-y,z
1/2+x,-y,-z
-x,y,-z
-x,-y,-z
1/2+x,y,-z
1/2-x,y,z
x,-y,z
loop_
_atom_site_type_symbol
_atom_site_label
_atom_site_fract_x
_atom_site_fract_y
_atom_site_fract_z
Si Si1 0.927289 0.703973 0.676252
Si Si2 0.569623 0.176367 0.410810
Si Si3 0.070604 0.572584 0.733014
Si Si4 0.066894 0.072893 0.730844
Si Si5 0.578203 0.251282 0.869447
Si Si6 0.572573 0.120730 0.086553
Si Si7 0.925915 0.599302 0.913390
O O1 0.750000 0.701637 0.657992
O O2 0.945699 0.735183 0.769977
O O3 0.011886 0.751868 0.613152
O O4 0.993646 0.631535 0.682915
O O5 0.500000 0.156540 0.500000
O O6 0.750000 0.175834 0.414897
O O7 0.519481 0.126913 0.336696
O O8 0.250000 0.582036 0.733954
O O9 0.037545 0.500000 0.700147
O O10 0.009534 0.576162 0.829128
O O11 0.250000 0.074784 0.732408
O O12 0.016218 0.088885 0.826138
O O13 0.020961 0.000000 0.706888
O O14 0.750000 0.228042 0.882262
O O15 0.466032 0.197193 0.903216
O O16 0.563930 0.322019 0.910848
O O17 0.750000 0.111188 0.081696
O O18 0.500000 0.096489 0.000000
O O19 0.750000 0.582121 0.908843
O O20 0.000000 0.576225 0.000000
#
# Coordination Sequence:
#
# PCOD9402815 Si02
#       7
#     8   8   8   8   8   8   8
#     4  10  20  36  60  87 117 151 191 242 293 348
#     4  11  22  39  65  95 123 155 194 241 296 357
#     4  10  21  36  55  80 111 151 196 240 292 356
#     4   9  20  39  60  84 119 161 201 243 296 355
#     4   9  18  32  51  76 107 143 188 242 294 344
#     4  11  21  33  53  80 111 154 201 246 295 346
#     4  10  20  32  47  71 104 147 194 248 302 354
#
# _framework density 19.341370000000001
#
# number of rings (size 3 to 8) (size 9 to 14) (size 15 to 20)
#    0.000    2.000    1.429    3.429    0.000    6.000 
#    0.000    0.000    0.000    6.429    0.000    0.000 
#    0.000    0.000    0.000    0.000    0.000    0.000 
#
# Total GULP energy -312761.015863 kJ/mol
# GULP energy per Si atom -5585.018140 kJ/mol
# Density = 1.929735 g / cm^3
# Si number density = 19.341370 Si / 1000 Ang^3
#
#
#
# Elastic Constant Matrix: (Units=GPa)
#
#
# Indices 1 2 3 4 5 6 
#
# 1 62.5956 29.4843 38.7742 0.0000 0.0000 0.0000
# 2 29.4843 108.5043 46.0477 0.0000 0.0000 0.0000
# 3 38.7742 46.0477 98.8645 0.0000 0.0000 0.0000
# 4 0.0000 0.0000 0.0000 -11.5817 0.0000 0.0000
# 5 0.0000 0.0000 0.0000 0.0000 30.1739 0.0000
# 6 0.0000 0.0000 0.0000 0.0000 0.0000 9.2309
#
#
#
# Elastic Compliance Matrix: (Units=1/GPa)
#
#
# Indices 1 2 3 4 5 6 
#
# 1 0.021792 -0.002860 -0.007215 0.000000 0.000000 0.000000
# 2 -0.002860 0.011862 -0.004403 0.000000 0.000000 0.000000
# 3 -0.007215 -0.004403 0.014995 0.000000 0.000000 0.000000
# 4 0.000000 0.000000 0.000000 -0.086343 0.000000 0.000000
# 5 0.000000 0.000000 0.000000 0.000000 0.033141 0.000000
# 6 0.000000 0.000000 0.000000 0.000000 0.000000 0.108332
#
#
# Mechanical properties :
#
#
# Convention : Reuss Voigt Hill
#
# Bulk Modulus (GPa) = 50.77803 55.39744 53.08774
# Shear Modulus (GPa) = 35.89415 15.94184 25.91799
#
# Velocity S-wave (km/s) = 4.31260 2.87406 3.66461
# Velocity P-wave (km/s) = 7.14903 6.30220 6.73893
#
# Compressibility (1/GPa) = 0.01969356
#
# Stress axis : x y z
#
# Youngs Moduli (GPa) = 45.88928 84.30263 66.68755
#
# Poissons Ratio (x) = 0.24108 0.48112
# Poissons Ratio (y) = 0.13123 0.29365
# Poissons Ratio (z) = 0.33107 0.37121
#
# Static dielectric constant tensor:
#      x y z
#    x 1.651880 0.000000 0.000000 
#    y 0.000000 1.683080 0.000000 
#    z 0.000000 0.000000 1.672400 
# 
# From -- ./inp_files/21861.got.cif
#   From: 2010.05.17/outbox.cif.g08.bks.cpg/sg51_11_cif.got.tgz:21861.got - 2010.06.03 11:52:47.
