data_PCOD9402857
_publ_section_title
;
Structure prediction by ZEFSAII (Michael W. Deem and Ramdas Pophale) SiO2 
 PCOD9402857
Probable space group: P M M A
;
_chemical_formula_sum "Si O2"
_cell_formula_units_Z 48
_cell_length_a 9.449909
_cell_length_b 7.330151
_cell_length_c 31.876867
_cell_angle_alpha 90.000000
_cell_angle_beta 90.000000
_cell_angle_gamma 90.000000
_cell_volume 2208.086985
_symmetry_space_group_name_H-M "P M M A"
_symmetry_group_IT_number 51
_symmetry_cell_setting 'orthorhombic'
loop_
_space_group_symop_operation_xyz
x,y,z
1/2-x,-y,z
1/2+x,-y,-z
-x,y,-z
-x,-y,-z
1/2+x,y,-z
1/2-x,y,z
x,-y,z
loop_
_atom_site_type_symbol
_atom_site_label
_atom_site_fract_x
_atom_site_fract_y
_atom_site_fract_z
Si Si1 0.087383 0.277291 0.877048
Si Si2 0.086793 0.277773 0.297890
Si Si3 0.586793 0.721997 0.796477
Si Si4 0.913196 0.277463 0.958938
Si Si5 0.590048 0.281474 0.377265
Si Si6 0.910182 0.782758 0.539305
O O1 0.250000 0.219669 0.880637
O O2 0.087220 0.500000 0.877005
O O3 0.014979 0.217909 0.833691
O O4 0.994009 0.220417 0.916820
O O5 0.250000 0.223978 0.305451
O O6 0.085076 0.500000 0.298131
O O7 0.046555 0.221137 0.250693
O O8 0.985642 0.214005 0.334985
O O9 0.750000 0.775984 0.804077
O O10 0.585365 0.500000 0.796653
O O11 0.750000 0.219005 0.959875
O O12 0.912136 0.500000 0.958993
O O13 0.000000 0.220364 0.000000
O O14 0.750000 0.212664 0.382527
O O15 0.598282 0.500000 0.373364
O O16 0.494173 0.245246 0.417667
O O17 0.750000 0.710760 0.541128
O O18 0.000000 0.710229 0.500000
O O19 0.899184 0.000000 0.533367
#
# Coordination Sequence:
#
# PCOD9402857 Si02
#       6
#     8   8   8   8   8   8
#     4   9  15  20  26  37  52  71  98 133 175 225
#     4   8  14  25  40  57  79 107 136 167 205 248
#     4   8  13  21  32  45  62  86 115 146 184 231
#     4   9  15  21  27  33  43  61  88 126 173 224
#     4  10  20  32  48  72  99 125 153 185 223 267
#     4  10  21  37  56  75  95 122 155 189 226 267
#
# _framework density 21.738274000000001
#
# number of rings (size 3 to 8) (size 9 to 14) (size 15 to 20)
#    0.000    3.000    0.000    3.000    0.000    7.000 
#    0.000    3.333    0.000    0.000    0.000    0.000 
#    0.000    0.000    0.000    0.000    0.000    0.000 
#
# Total GULP energy -268152.164147 kJ/mol
# GULP energy per Si atom -5586.503420 kJ/mol
# Density = 2.168880 g / cm^3
# Si number density = 21.738274 Si / 1000 Ang^3
#
#
#
# Elastic Constant Matrix: (Units=GPa)
#
#
# Indices 1 2 3 4 5 6 
#
# 1 233.5748 7.8138 166.6047 0.0000 0.0000 0.0000
# 2 7.8138 85.7101 3.0605 0.0000 0.0000 0.0000
# 3 166.6047 3.0605 226.3934 0.0000 0.0000 0.0000
# 4 0.0000 0.0000 0.0000 30.6759 0.0000 0.0000
# 5 0.0000 0.0000 0.0000 0.0000 47.5171 0.0000
# 6 0.0000 0.0000 0.0000 0.0000 0.0000 -6.3368
#
#
#
# Elastic Compliance Matrix: (Units=1/GPa)
#
#
# Indices 1 2 3 4 5 6 
#
# 1 0.009041 -0.000587 -0.006645 0.000000 0.000000 0.000000
# 2 -0.000587 0.011711 0.000274 0.000000 0.000000 0.000000
# 3 -0.006645 0.000274 0.009304 0.000000 0.000000 0.000000
# 4 0.000000 0.000000 0.000000 0.032599 0.000000 0.000000
# 5 0.000000 0.000000 0.000000 0.000000 0.021045 0.000000
# 6 0.000000 0.000000 0.000000 0.000000 0.000000 -0.157809
#
#
# Mechanical properties :
#
#
# Convention : Reuss Voigt Hill
#
# Bulk Modulus (GPa) = 61.96432 100.07069 81.01750
# Shear Modulus (GPa) = -91.22053 38.91785 -26.15134
#
# Velocity S-wave (km/s) = -6.48492 4.23577 -3.47220
# Velocity P-wave (km/s) = 5.24458 8.36998 4.61254
#
# Compressibility (1/GPa) = 0.01613832
#
# Stress axis : x y z
#
# Youngs Moduli (GPa) = 110.60803 85.38997 107.48337
#
# Poissons Ratio (x) = 0.05012 0.71427
# Poissons Ratio (y) = 0.06492 -0.02941
# Poissons Ratio (z) = 0.73503 -0.02336
#
# Static dielectric constant tensor:
#      x y z
#    x 1.742350 0.000000 0.000000 
#    y 0.000000 1.878770 0.000000 
#    z 0.000000 0.000000 1.738220 
# 
# From -- ./inp_files/37059.got.cif
#   From: 2010.05.17/outbox.cif.g08.bks.cpg/sg51_19_cif.got.tgz:37059.got - 2010.06.03 11:52:47.
