data_PCOD9402665
_publ_section_title
;
Structure prediction by ZEFSAII (Michael W. Deem and Ramdas Pophale) SiO2 
 PCOD9402665
Probable space group: P M M A
;
_chemical_formula_sum "Si O2"
_cell_formula_units_Z 56
_cell_length_a 8.721384
_cell_length_b 16.826080
_cell_length_c 23.857640
_cell_angle_alpha 90.000000
_cell_angle_beta 90.000000
_cell_angle_gamma 90.000000
_cell_volume 3501.030057
_symmetry_space_group_name_H-M "P M M A"
_symmetry_group_IT_number 51
_symmetry_cell_setting 'orthorhombic'
loop_
_space_group_symop_operation_xyz
x,y,z
1/2-x,-y,z
1/2+x,-y,-z
-x,y,-z
-x,-y,-z
1/2+x,y,-z
1/2-x,y,z
x,-y,z
loop_
_atom_site_type_symbol
_atom_site_label
_atom_site_fract_x
_atom_site_fract_y
_atom_site_fract_z
Si Si1 0.566952 0.741672 0.232524
Si Si2 0.066383 0.092589 0.560983
Si Si3 0.065391 0.409083 0.173455
Si Si4 0.933897 0.168925 0.118083
Si Si5 0.066849 0.678637 0.059272
Si Si6 0.935921 0.000000 0.738896
Si Si7 0.566145 0.842963 0.672062
Si Si8 0.565758 0.000000 0.868621
O O1 0.750000 0.744624 0.236731
O O2 0.512214 0.654587 0.214167
O O3 0.520276 0.800235 0.180740
O O4 0.492455 0.770794 0.290090
O O5 0.250000 0.096338 0.559906
O O6 0.000000 0.112879 0.500000
O O7 0.001081 0.147403 0.610143
O O8 0.021290 0.000000 0.572396
O O9 0.250000 0.403385 0.179443
O O10 0.019300 0.500000 0.182802
O O11 0.028005 0.380831 0.110185
O O12 0.750000 0.166790 0.115585
O O13 0.997296 0.235994 0.076440
O O14 0.001793 0.082063 0.106766
O O15 0.250000 0.685058 0.056023
O O16 0.000000 0.652614 0.000000
O O17 0.986161 0.921726 0.706087
O O18 0.985428 0.000000 0.803232
O O19 0.750000 0.000000 0.739189
O O20 0.750000 0.842406 0.669436
O O21 0.750000 0.000000 0.871079
#
# Coordination Sequence:
#
# PCOD9402665 Si02
#       8
#     8   8   8   8   8   4   8   4
#     4  10  20  32  48  73 101 128 159 199 246 292
#     4  10  20  32  45  64  93 133 177 220 259 294
#     4   9  19  36  56  77 101 129 158 189 234 294
#     4  10  20  33  48  69  96 126 160 200 243 287
#     4  10  20  35  54  74  97 126 158 195 236 285
#     4   9  18  27  42  67  94 125 164 205 243 287
#     4  11  19  31  48  69  97 132 172 211 249 293
#     4  11  19  31  48  69  94 125 163 203 246 290
#
# _framework density 15.995291999999999
#
# number of rings (size 3 to 8) (size 9 to 14) (size 15 to 20)
#    0.000    2.000    2.143    2.357    0.000    2.857 
#    0.000    0.357    0.000    0.000    0.000    0.000 
#    0.000    0.571    0.000    2.143    0.000    3.286 
#
# Total GULP energy -312574.093179 kJ/mol
# GULP energy per Si atom -5581.680235 kJ/mol
# Density = 1.595889 g / cm^3
# Si number density = 15.995292 Si / 1000 Ang^3
#
#
#
# Elastic Constant Matrix: (Units=GPa)
#
#
# Indices 1 2 3 4 5 6 
#
# 1 49.5930 31.2944 32.0468 0.0000 0.0000 0.0000
# 2 31.2944 97.2837 31.6399 0.0000 0.0000 0.0000
# 3 32.0468 31.6399 89.5774 0.0000 0.0000 0.0000
# 4 0.0000 0.0000 0.0000 13.7425 0.0000 0.0000
# 5 0.0000 0.0000 0.0000 0.0000 26.7077 0.0000
# 6 0.0000 0.0000 0.0000 0.0000 0.0000 20.4433
#
#
#
# Elastic Compliance Matrix: (Units=1/GPa)
#
#
# Indices 1 2 3 4 5 6 
#
# 1 0.029856 -0.006926 -0.008235 0.000000 0.000000 0.000000
# 2 -0.006926 0.013220 -0.002192 0.000000 0.000000 0.000000
# 3 -0.008235 -0.002192 0.014884 0.000000 0.000000 0.000000
# 4 0.000000 0.000000 0.000000 0.072767 0.000000 0.000000
# 5 0.000000 0.000000 0.000000 0.000000 0.037442 0.000000
# 6 0.000000 0.000000 0.000000 0.000000 0.000000 0.048916
#
#
# Mechanical properties :
#
#
# Convention : Reuss Voigt Hill
#
# Bulk Modulus (GPa) = 43.00188 47.37960 45.19074
# Shear Modulus (GPa) = 19.26481 21.61023 20.43752
#
# Velocity S-wave (km/s) = 3.47422 3.67963 3.57840
# Velocity P-wave (km/s) = 6.56019 6.90928 6.73700
#
# Compressibility (1/GPa) = 0.02325480
#
# Stress axis : x y z
#
# Youngs Moduli (GPa) = 33.49439 75.64322 67.18767
#
# Poissons Ratio (x) = 0.52389 0.55327
# Poissons Ratio (y) = 0.23198 0.14726
# Poissons Ratio (z) = 0.27582 0.16579
#
# Static dielectric constant tensor:
#      x y z
#    x 1.529710 0.000000 0.000000 
#    y 0.000000 1.521550 0.000000 
#    z 0.000000 0.000000 1.529940 
# 
# From -- ./inp_files/32070.got.cif
#   From: 2010.05.17/outbox.cif.g08.bks.cpg/sg51_17_cif.got.tgz:32070.got - 2010.06.03 11:52:47.
