data_PCOD9402121
_publ_section_title
;
Structure prediction by ZEFSAII (Michael W. Deem and Ramdas Pophale) SiO2 
 PCOD9402121
Probable space group: P M M A
;
_chemical_formula_sum "Si O2"
_cell_formula_units_Z 64
_cell_length_a 23.952083
_cell_length_b 7.502549
_cell_length_c 15.196327
_cell_angle_alpha 90.000000
_cell_angle_beta 90.000000
_cell_angle_gamma 90.000000
_cell_volume 2730.805436
_symmetry_space_group_name_H-M "P M M A"
_symmetry_group_IT_number 51
_symmetry_cell_setting 'orthorhombic'
loop_
_space_group_symop_operation_xyz
x,y,z
1/2-x,-y,z
1/2+x,-y,-z
-x,y,-z
-x,-y,-z
1/2+x,y,-z
1/2-x,y,z
x,-y,z
loop_
_atom_site_type_symbol
_atom_site_label
_atom_site_fract_x
_atom_site_fract_y
_atom_site_fract_z
Si Si1 0.368796 0.707721 0.053825
Si Si2 0.982872 0.784026 0.287574
Si Si3 0.688514 0.793670 0.499874
Si Si4 0.143704 0.291228 0.685752
Si Si5 0.185466 0.282143 0.875467
Si Si6 0.099100 0.782243 0.363694
Si Si7 0.189699 0.214414 0.222678
Si Si8 0.511559 0.797689 0.904671
O O1 0.383224 0.500000 0.045581
O O2 0.318855 0.726312 0.122750
O O3 0.421542 0.802082 0.097870
O O4 0.351514 0.777426 0.958239
O O5 0.035924 0.722590 0.345011
O O6 0.989231 0.718367 0.186250
O O7 0.922625 0.732971 0.323473
O O8 0.985434 0.000000 0.284049
O O9 0.750000 0.714359 0.516949
O O10 0.675720 0.789875 0.396547
O O11 0.634547 0.720704 0.551629
O O12 0.692002 0.000000 0.528451
O O13 0.157219 0.500000 0.684422
O O14 0.162112 0.221843 0.781440
O O15 0.250000 0.229749 0.885876
O O16 0.183908 0.500000 0.876942
O O17 0.138351 0.726171 0.282396
O O18 0.096011 0.000000 0.366092
O O19 0.250000 0.273791 0.256787
O O20 0.189019 0.000000 0.224331
O O21 0.489047 0.000000 0.908987
O O22 0.500000 0.712482 0.000000
#
# Coordination Sequence:
#
# PCOD9402121 Si02
#       8
#     8   8   8   8   8   8   8   8
#     4  11  21  33  53  81 114 149 188 235 285 344
#     4  10  20  37  59  83 116 154 192 235 283 342
#     4  10  21  39  64  91 114 142 188 240 289 346
#     4  11  23  39  60  84 114 152 194 241 292 345
#     4   9  19  36  55  76 108 152 195 233 282 344
#     4   9  18  36  61  86 114 150 190 231 282 343
#     4  10  19  34  57  83 113 149 190 233 280 338
#     4  10  20  35  56  81 113 153 197 243 285 331
#
# _framework density 23.436311
#
# number of rings (size 3 to 8) (size 9 to 14) (size 15 to 20)
#    0.000    2.000    1.250    2.625    0.000    4.250 
#    0.000    5.625    0.000    6.000    0.000    0.000 
#    0.000    0.000    0.000    0.000    0.000    0.000 
#
# Total GULP energy -357634.663122 kJ/mol
# GULP energy per Si atom -5588.041611 kJ/mol
# Density = 2.338297 g / cm^3
# Si number density = 23.436311 Si / 1000 Ang^3
#
#
#
# Elastic Constant Matrix: (Units=GPa)
#
#
# Indices 1 2 3 4 5 6 
#
# 1 78.2270 -6.6473 5.8671 0.0000 0.0000 0.0000
# 2 -6.6473 65.9483 -4.8263 0.0000 0.0000 0.0000
# 3 5.8671 -4.8263 95.4073 0.0000 0.0000 0.0000
# 4 0.0000 0.0000 0.0000 17.2396 0.0000 0.0000
# 5 0.0000 0.0000 0.0000 0.0000 26.2286 0.0000
# 6 0.0000 0.0000 0.0000 0.0000 0.0000-2414.8219
#
#
#
# Elastic Compliance Matrix: (Units=1/GPa)
#
#
# Indices 1 2 3 4 5 6 
#
# 1 0.012945 0.001251 -0.000733 0.000000 0.000000 0.000000
# 2 0.001251 0.015341 0.000699 0.000000 0.000000 0.000000
# 3 -0.000733 0.000699 0.010562 0.000000 0.000000 0.000000
# 4 0.000000 0.000000 0.000000 0.058006 0.000000 0.000000
# 5 0.000000 0.000000 0.000000 0.000000 0.038126 0.000000
# 6 0.000000 0.000000 0.000000 0.000000 0.000000 -0.000414
#
#
# Mechanical properties :
#
#
# Convention : Reuss Voigt Hill
#
# Bulk Modulus (GPa) = 24.22362 25.37439 24.79901
# Shear Modulus (GPa) = 34.27218 -457.92480 -211.82631
#
# Velocity S-wave (km/s) = 3.82822 -13.99340 -9.51735
# Velocity P-wave (km/s) = 5.46798 15.81887 10.49614
#
# Compressibility (1/GPa) = 0.04128202
#
# Stress axis : x y z
#
# Youngs Moduli (GPa) = 77.25245 65.18624 94.68079
#
# Poissons Ratio (x) = -0.08156 0.06938
# Poissons Ratio (y) = -0.09665 -0.06619
# Poissons Ratio (z) = 0.05661 -0.04557
#
# Static dielectric constant tensor:
#      x y z
#    x 1.923420 0.000000 0.000000 
#    y 0.000000 1.943320 0.000000 
#    z 0.000000 0.000000 1.875580 
# 
# From -- ./inp_files/26269.got.cif
#   From: 2010.05.17/outbox.cif.g08.bks.cpg/sg51_14_cif.got.tgz:26269.got - 2010.06.03 11:52:47.
