data_PCOD9402610
_publ_section_title
;
Structure prediction by ZEFSAII (Michael W. Deem and Ramdas Pophale) SiO2 
 PCOD9402610
Probable space group: P M M A
;
_chemical_formula_sum "Si O2"
_cell_formula_units_Z 48
_cell_length_a 13.322288
_cell_length_b 17.805823
_cell_length_c 6.867689
_cell_angle_alpha 90.000000
_cell_angle_beta 90.000000
_cell_angle_gamma 90.000000
_cell_volume 1629.114053
_symmetry_space_group_name_H-M "P M M A"
_symmetry_group_IT_number 51
_symmetry_cell_setting 'orthorhombic'
loop_
_space_group_symop_operation_xyz
x,y,z
1/2-x,-y,z
1/2+x,-y,-z
-x,y,-z
-x,-y,-z
1/2+x,y,-z
1/2-x,y,z
x,-y,z
loop_
_atom_site_type_symbol
_atom_site_label
_atom_site_fract_x
_atom_site_fract_y
_atom_site_fract_z
Si Si1 0.406317 0.582067 0.275840
Si Si2 0.607324 0.085159 0.604196
Si Si3 0.368357 0.922533 0.930238
Si Si4 0.636333 0.394929 0.186061
Si Si5 0.632373 0.233944 0.059367
Si Si6 0.099617 0.745345 0.377488
O O1 0.372736 0.500000 0.348109
O O2 0.375572 0.587242 0.046449
O O3 0.363513 0.657409 0.379181
O O4 0.529328 0.581792 0.277924
O O5 0.500000 0.085989 0.500000
O O6 0.614277 0.081825 0.839049
O O7 0.646883 0.172103 0.571742
O O8 0.647626 0.000000 0.550225
O O9 0.250000 0.926058 0.891797
O O10 0.403261 0.843795 0.849958
O O11 0.414000 0.000000 0.858531
O O12 0.750000 0.418695 0.241900
O O13 0.634276 0.304718 0.196052
O O14 0.750000 0.223267 0.000512
O O15 0.579183 0.249793 0.855563
O O16 0.000000 0.743885 0.500000
#
# Coordination Sequence:
#
# PCOD9402610 Si02
#       6
#     8   8   8   8   8   8
#     4  10  20  31  46  69  90 113 148 181 215 263
#     4   8  13  22  38  58  78 105 141 175 207 244
#     4   8  12  18  31  54  82 106 131 169 213 254
#     4   9  17  31  50  68  87 111 143 187 227 254
#     4   8  14  25  42  62  82 109 145 180 216 257
#     4   9  17  29  43  61  89 118 141 173 215 257
#
# _framework density 29.463864999999998
#
# number of rings (size 3 to 8) (size 9 to 14) (size 15 to 20)
#    0.000    3.333    0.000    1.000    0.000    1.667 
#    0.000    0.833    0.000    2.000    0.000    9.333 
#    0.000    0.000    0.000    0.000    0.000    0.000 
#
# Total GULP energy -268122.290566 kJ/mol
# GULP energy per Si atom -5585.881053 kJ/mol
# Density = 2.939680 g / cm^3
# Si number density = 29.463865 Si / 1000 Ang^3
#
#
#
# Elastic Constant Matrix: (Units=GPa)
#
#
# Indices 1 2 3 4 5 6 
#
# 1 178.7391 55.2734 29.7066 0.0000 0.0000 0.0000
# 2 55.2734 375.5469 18.5767 0.0000 0.0000 0.0000
# 3 29.7066 18.5767 139.8264 0.0000 0.0000 0.0000
# 4 0.0000 0.0000 0.0000 14.0563 0.0000 0.0000
# 5 0.0000 0.0000 0.0000 0.0000 -39.0540 0.0000
# 6 0.0000 0.0000 0.0000 0.0000 0.0000 -13.0058
#
#
#
# Elastic Compliance Matrix: (Units=1/GPa)
#
#
# Indices 1 2 3 4 5 6 
#
# 1 0.006047 -0.000832 -0.001174 0.000000 0.000000 0.000000
# 2 -0.000832 0.002795 -0.000195 0.000000 0.000000 0.000000
# 3 -0.001174 -0.000195 0.007427 0.000000 0.000000 0.000000
# 4 0.000000 0.000000 0.000000 0.071143 0.000000 0.000000
# 5 0.000000 0.000000 0.000000 0.000000 -0.025606 0.000000
# 6 0.000000 0.000000 0.000000 0.000000 0.000000 -0.076889
#
#
# Mechanical properties :
#
#
# Convention : Reuss Voigt Hill
#
# Bulk Modulus (GPa) = 84.26287 100.13620 92.19954
# Shear Modulus (GPa) = -743.44035 31.76968 -355.83534
#
# Velocity S-wave (km/s) = -15.90190 3.28725 -11.00147
# Velocity P-wave (km/s) = 17.56417 6.96189 11.40246
#
# Compressibility (1/GPa) = 0.01186762
#
# Stress axis : x y z
#
# Youngs Moduli (GPa) = 165.36653 357.80047 134.64313
#
# Poissons Ratio (x) = 0.29767 0.15810
# Poissons Ratio (y) = 0.13758 0.02620
# Poissons Ratio (z) = 0.19418 0.06961
#
# Static dielectric constant tensor:
#      x y z
#    x 2.252400 0.000000 0.000000 
#    y 0.000000 2.321320 0.000000 
#    z 0.000000 0.000000 2.233940 
# 
# From -- ./inp_files/16712.got.cif
#   From: 2010.05.17/outbox.cif.g08.bks.cpg/sg51_9_cif.got.tgz:16712.got - 2010.06.03 11:52:47.
