data_PCOD9402760
_publ_section_title
;
Structure prediction by ZEFSAII (Michael W. Deem and Ramdas Pophale) SiO2 
 PCOD9402760
Probable space group: P M M A
;
_chemical_formula_sum "Si O2"
_cell_formula_units_Z 48
_cell_length_a 8.941780
_cell_length_b 14.034553
_cell_length_c 24.215358
_cell_angle_alpha 90.000000
_cell_angle_beta 90.000000
_cell_angle_gamma 90.000000
_cell_volume 3038.879360
_symmetry_space_group_name_H-M "P M M A"
_symmetry_group_IT_number 51
_symmetry_cell_setting 'orthorhombic'
loop_
_space_group_symop_operation_xyz
x,y,z
1/2-x,-y,z
1/2+x,-y,-z
-x,y,-z
-x,-y,-z
1/2+x,y,-z
1/2-x,y,z
x,-y,z
loop_
_atom_site_type_symbol
_atom_site_label
_atom_site_fract_x
_atom_site_fract_y
_atom_site_fract_z
Si Si1 0.428423 0.388703 0.941590
Si Si2 0.928292 0.708090 0.836891
Si Si3 0.929127 0.890562 0.768594
Si Si4 0.571676 0.211603 0.335690
Si Si5 0.928290 0.112464 0.559503
Si Si6 0.929443 0.610167 0.720763
O O1 0.250000 0.382895 0.945341
O O2 0.469937 0.500000 0.931973
O O3 0.487663 0.326990 0.890827
O O4 0.500000 0.359981 0.000000
O O5 0.750000 0.702242 0.846406
O O6 0.965213 0.815055 0.816677
O O7 0.963491 0.641839 0.783765
O O8 0.750000 0.882060 0.758323
O O9 0.013021 0.856604 0.713600
O O10 0.962536 0.000000 0.781868
O O11 0.750000 0.209820 0.338187
O O12 0.501386 0.174516 0.392449
O O13 0.512659 0.316279 0.319049
O O14 0.750000 0.126743 0.557863
O O15 0.000000 0.133688 0.500000
O O16 0.955906 0.000000 0.571046
O O17 0.750000 0.621678 0.713888
O O18 0.967983 0.500000 0.712013
#
# Coordination Sequence:
#
# PCOD9402760 Si02
#       6
#     8   8   8   8   8   8
#     4  10  20  32  47  68  94 124 156 191 233 281
#     4   9  17  30  49  72  96 122 154 194 239 283
#     4   9  18  33  51  70  95 129 165 198 235 281
#     4  11  21  31  47  73 103 131 160 197 240 285
#     4  10  20  34  52  73  98 128 162 200 241 286
#     4   9  18  33  52  72  96 129 165 198 236 284
#
# _framework density 15.795296
#
# number of rings (size 3 to 8) (size 9 to 14) (size 15 to 20)
#    0.000    2.333    0.000    4.500    0.000    8.000 
#    0.000    0.000    0.000    1.000    0.000    0.000 
#    0.000    0.000    0.000    0.000    0.000    0.000 
#
# Total GULP energy -267831.609580 kJ/mol
# GULP energy per Si atom -5579.825200 kJ/mol
# Density = 1.575935 g / cm^3
# Si number density = 15.795296 Si / 1000 Ang^3
#
#
#
# Elastic Constant Matrix: (Units=GPa)
#
#
# Indices 1 2 3 4 5 6 
#
# 1 68.1924 61.9716 72.3240 0.0000 0.0000 0.0000
# 2 61.9716 126.3227 86.3673 0.0000 0.0000 0.0000
# 3 72.3240 86.3673 142.6928 0.0000 0.0000 0.0000
# 4 0.0000 0.0000 0.0000 20.5130 0.0000 0.0000
# 5 0.0000 0.0000 0.0000 0.0000 31.9286 0.0000
# 6 0.0000 0.0000 0.0000 0.0000 0.0000 17.1921
#
#
#
# Elastic Compliance Matrix: (Units=1/GPa)
#
#
# Indices 1 2 3 4 5 6 
#
# 1 0.036950 -0.009080 -0.013232 0.000000 0.000000 0.000000
# 2 -0.009080 0.015736 -0.004922 0.000000 0.000000 0.000000
# 3 -0.013232 -0.004922 0.016694 0.000000 0.000000 0.000000
# 4 0.000000 0.000000 0.000000 0.048750 0.000000 0.000000
# 5 0.000000 0.000000 0.000000 0.000000 0.031320 0.000000
# 6 0.000000 0.000000 0.000000 0.000000 0.000000 0.058166
#
#
# Mechanical properties :
#
#
# Convention : Reuss Voigt Hill
#
# Bulk Modulus (GPa) = 67.06441 86.50374 76.78408
# Shear Modulus (GPa) = 18.72262 21.69639 20.20950
#
# Velocity S-wave (km/s) = 3.44660 3.71023 3.58084
# Velocity P-wave (km/s) = 7.64129 8.55797 8.11259
#
# Compressibility (1/GPa) = 0.01491104
#
# Stress axis : x y z
#
# Youngs Moduli (GPa) = 27.06338 63.54779 59.90089
#
# Poissons Ratio (x) = 0.57702 0.79263
# Poissons Ratio (y) = 0.24574 0.29485
# Poissons Ratio (z) = 0.35811 0.31280
#
# Static dielectric constant tensor:
#      x y z
#    x 1.524590 0.000000 0.000000 
#    y 0.000000 1.526030 0.000000 
#    z 0.000000 0.000000 1.494330 
# 
# From -- ./inp_files/31586.got.cif
#   From: 2010.05.17/outbox.cif.g08.bks.cpg/sg51_16_cif.got.tgz:31586.got - 2010.06.03 11:52:47.
