data_PCOD9402446
_publ_section_title
;
Structure prediction by ZEFSAII (Michael W. Deem and Ramdas Pophale) SiO2 
 PCOD9402446
Probable space group: P M M A
;
_chemical_formula_sum "Si O2"
_cell_formula_units_Z 56
_cell_length_a 22.506127
_cell_length_b 8.561296
_cell_length_c 14.984925
_cell_angle_alpha 90.000000
_cell_angle_beta 90.000000
_cell_angle_gamma 90.000000
_cell_volume 2887.319551
_symmetry_space_group_name_H-M "P M M A"
_symmetry_group_IT_number 51
_symmetry_cell_setting 'orthorhombic'
loop_
_space_group_symop_operation_xyz
x,y,z
1/2-x,-y,z
1/2+x,-y,-z
-x,y,-z
-x,-y,-z
1/2+x,y,-z
1/2-x,y,z
x,-y,z
loop_
_atom_site_type_symbol
_atom_site_label
_atom_site_fract_x
_atom_site_fract_y
_atom_site_fract_z
Si Si1 0.083232 0.312497 0.769346
Si Si2 0.458233 0.688667 0.309022
Si Si3 0.250000 0.677595 0.168622
Si Si4 0.250000 0.323201 0.380493
Si Si5 0.371025 0.813929 0.455360
Si Si6 0.377855 0.313144 0.141301
Si Si7 0.067690 0.177681 0.967060
Si Si8 0.319549 0.188892 0.642997
O O1 0.083762 0.500000 0.771231
O O2 0.073209 0.249738 0.869090
O O3 0.144471 0.250794 0.727759
O O4 0.026165 0.261845 0.709320
O O5 0.457264 0.500000 0.310343
O O6 0.425744 0.745307 0.398841
O O7 0.419564 0.743175 0.222647
O O8 0.250000 0.500000 0.129979
O O9 0.250000 0.663506 0.274722
O O10 0.188142 0.755797 0.145140
O O11 0.250000 0.500000 0.418121
O O12 0.190424 0.234908 0.407915
O O13 0.358295 0.760042 0.556713
O O14 0.377205 0.000000 0.455776
O O15 0.373840 0.500000 0.155016
O O16 0.401634 0.277958 0.043781
O O17 0.090758 0.000000 0.965854
O O18 0.000000 0.172428 0.000000
O O19 0.250000 0.238624 0.636800
O O20 0.319037 0.000000 0.643785
#
# Coordination Sequence:
#
# PCOD9402446 Si02
#       8
#     8   8   4   4   8   8   8   8
#     4  11  24  42  65  92 120 155 206 257 304 360
#     4  10  21  37  60  92 127 160 196 248 306 359
#     4   9  18  33  55  84 117 156 195 239 294 356
#     4  11  19  33  57  86 121 162 205 247 298 354
#     4  11  22  37  60  91 124 160 204 246 299 365
#     4  10  19  36  59  85 121 160 200 245 300 360
#     4  11  23  39  62  90 118 155 202 247 304 369
#     4  10  23  45  66  86 121 164 206 252 303 360
#
# _framework density 19.395150999999998
#
# number of rings (size 3 to 8) (size 9 to 14) (size 15 to 20)
#    0.000    1.571    3.571    1.500    0.000    4.286 
#    1.286    3.214    0.000    0.000    0.000    0.000 
#    0.000    0.000    0.000    0.000    0.000    0.000 
#
# Total GULP energy -312441.476108 kJ/mol
# GULP energy per Si atom -5579.312073 kJ/mol
# Density = 1.935101 g / cm^3
# Si number density = 19.395151 Si / 1000 Ang^3
#
#
#
# Elastic Constant Matrix: (Units=GPa)
#
#
# Indices 1 2 3 4 5 6 
#
# 1 88.3024 13.7526 46.1880 0.0000 0.0000 0.0000
# 2 13.7526 11.4103 12.5793 0.0000 0.0000 0.0000
# 3 46.1880 12.5793 109.7111 0.0000 0.0000 0.0000
# 4 0.0000 0.0000 0.0000 26.2804 0.0000 0.0000
# 5 0.0000 0.0000 0.0000 0.0000 124.9717 0.0000
# 6 0.0000 0.0000 0.0000 0.0000 0.0000 37.6279
#
#
#
# Elastic Compliance Matrix: (Units=1/GPa)
#
#
# Indices 1 2 3 4 5 6 
#
# 1 0.016212 -0.013754 -0.005248 0.000000 0.000000 0.000000
# 2 -0.013754 0.111990 -0.007050 0.000000 0.000000 0.000000
# 3 -0.005248 -0.007050 0.012133 0.000000 0.000000 0.000000
# 4 0.000000 0.000000 0.000000 0.038051 0.000000 0.000000
# 5 0.000000 0.000000 0.000000 0.000000 0.008002 0.000000
# 6 0.000000 0.000000 0.000000 0.000000 0.000000 0.026576
#
#
# Mechanical properties :
#
#
# Convention : Reuss Voigt Hill
#
# Bulk Modulus (GPa) = 11.33403 39.38483 25.35943
# Shear Modulus (GPa) = 16.97917 46.90292 31.94105
#
# Velocity S-wave (km/s) = 2.96198 4.92294 4.06255
# Velocity P-wave (km/s) = 4.18978 7.25702 5.92531
#
# Compressibility (1/GPa) = 0.08822985
#
# Stress axis : x y z
#
# Youngs Moduli (GPa) = 61.68278 8.92936 82.42212
#
# Poissons Ratio (x) = 0.12282 0.43256
# Poissons Ratio (y) = 0.84839 0.58109
# Poissons Ratio (z) = 0.32372 0.06295
#
# Static dielectric constant tensor:
#      x y z
#    x 1.694010 0.000000 0.000000 
#    y 0.000000 1.681600 0.000000 
#    z 0.000000 0.000000 1.663930 
# 
# From -- ./inp_files/25920.got.cif
#   From: 2010.05.17/outbox.cif.g08.bks.cpg/sg51_13_cif.got.tgz:25920.got - 2010.06.03 11:52:47.
