data_PCOD9402662
_publ_section_title
;
Structure prediction by ZEFSAII (Michael W. Deem and Ramdas Pophale) SiO2 
 PCOD9402662
Probable space group: P M M A
;
_chemical_formula_sum "Si O2"
_cell_formula_units_Z 56
_cell_length_a 9.057619
_cell_length_b 15.885287
_cell_length_c 25.238832
_cell_angle_alpha 90.000000
_cell_angle_beta 90.000000
_cell_angle_gamma 90.000000
_cell_volume 3631.435769
_symmetry_space_group_name_H-M "P M M A"
_symmetry_group_IT_number 51
_symmetry_cell_setting 'orthorhombic'
loop_
_space_group_symop_operation_xyz
x,y,z
1/2-x,-y,z
1/2+x,-y,-z
-x,y,-z
-x,-y,-z
1/2+x,y,-z
1/2-x,y,z
x,-y,z
loop_
_atom_site_type_symbol
_atom_site_label
_atom_site_fract_x
_atom_site_fract_y
_atom_site_fract_z
Si Si1 0.075522 0.274606 0.133831
Si Si2 0.426579 0.599259 0.664167
Si Si3 0.426373 0.906873 0.743078
Si Si4 0.925725 0.597847 0.055797
Si Si5 0.419728 0.602254 0.446455
Si Si6 0.574655 0.909147 0.857910
Si Si7 0.425881 0.265675 0.260372
O O1 0.250000 0.290233 0.126183
O O2 0.041518 0.179195 0.114278
O O3 0.046630 0.275445 0.197096
O O4 0.984124 0.342796 0.102081
O O5 0.250000 0.608476 0.664223
O O6 0.460520 0.500000 0.673012
O O7 0.492039 0.623657 0.606775
O O8 0.499765 0.658352 0.708014
O O9 0.250000 0.896576 0.740753
O O10 0.480843 0.910019 0.804077
O O11 0.506288 0.823881 0.721228
O O12 0.463512 0.000000 0.720449
O O13 0.750000 0.604164 0.050988
O O14 0.964042 0.500000 0.066429
O O15 0.000000 0.621474 0.000000
O O16 0.500000 0.631551 0.500000
O O17 0.250000 0.630671 0.443952
O O18 0.417666 0.500000 0.448665
O O19 0.750000 0.904411 0.843607
O O20 0.551555 0.000000 0.884980
O O21 0.250000 0.265436 0.268087
#
# Coordination Sequence:
#
# PCOD9402662 Si02
#       7
#     8   8   8   8   8   8   8
#     4   9  18  31  48  70  93 118 147 180 220 265
#     4  10  20  32  45  63  91 126 160 195 234 273
#     4   9  16  26  42  64  89 117 150 189 229 267
#     4  10  21  36  53  70  87 110 143 185 229 268
#     4   9  16  27  44  64  86 115 154 196 234 273
#     4   8  14  26  44  66  92 120 147 174 210 260
#     4  10  20  32  46  66  94 127 158 187 224 273
#
# _framework density 15.420897
#
# number of rings (size 3 to 8) (size 9 to 14) (size 15 to 20)
#    0.000    2.714    0.000    3.000    0.000    7.714 
#    0.000    2.857    0.000    0.429    0.000    0.000 
#    0.000    0.571    0.000    2.143    0.000    3.429 
#
# Total GULP energy -311788.908671 kJ/mol
# GULP energy per Si atom -5567.659083 kJ/mol
# Density = 1.538580 g / cm^3
# Si number density = 15.420897 Si / 1000 Ang^3
#
#
#
# Elastic Constant Matrix: (Units=GPa)
#
#
# Indices 1 2 3 4 5 6 
#
# 1 72.3048 58.8395 41.7255 0.0000 0.0000 0.0000
# 2 58.8395 101.5596 53.4478 0.0000 0.0000 0.0000
# 3 41.7255 53.4478 53.9206 0.0000 0.0000 0.0000
# 4 0.0000 0.0000 0.0000 -2.6466 0.0000 0.0000
# 5 0.0000 0.0000 0.0000 0.0000 26.2667 0.0000
# 6 0.0000 0.0000 0.0000 0.0000 0.0000 25.6602
#
#
#
# Elastic Compliance Matrix: (Units=1/GPa)
#
#
# Indices 1 2 3 4 5 6 
#
# 1 0.029650 -0.010668 -0.012369 0.000000 0.000000 0.000000
# 2 -0.010668 0.024423 -0.015953 0.000000 0.000000 0.000000
# 3 -0.012369 -0.015953 0.043931 0.000000 0.000000 0.000000
# 4 0.000000 0.000000 0.000000 -0.377847 0.000000 0.000000
# 5 0.000000 0.000000 0.000000 0.000000 0.038071 0.000000
# 6 0.000000 0.000000 0.000000 0.000000 0.000000 0.038971
#
#
# Mechanical properties :
#
#
# Convention : Reuss Voigt Hill
#
# Bulk Modulus (GPa) = 49.94509 59.53452 54.73980
# Shear Modulus (GPa) = -42.32076 14.77423 -13.77327
#
# Velocity S-wave (km/s) = -5.24436 3.09862 -2.99181
# Velocity P-wave (km/s) = 2.05253 7.17580 4.86206
#
# Compressibility (1/GPa) = 0.02002199
#
# Stress axis : x y z
#
# Youngs Moduli (GPa) = 33.72681 40.94506 22.76309
#
# Poissons Ratio (x) = 0.43682 0.28156
# Poissons Ratio (y) = 0.35981 0.36314
# Poissons Ratio (z) = 0.41717 0.65320
#
# Static dielectric constant tensor:
#      x y z
#    x 1.514160 0.000000 0.000000 
#    y 0.000000 1.543490 0.000000 
#    z 0.000000 0.000000 1.483890 
# 
# From -- ./inp_files/31994.got.cif
#   From: 2010.05.17/outbox.cif.g08.bks.cpg/sg51_16_cif.got.tgz:31994.got - 2010.06.03 11:52:47.
