data_PCOD9402805
_publ_section_title
;
Structure prediction by ZEFSAII (Michael W. Deem and Ramdas Pophale) SiO2 
 PCOD9402805
Probable space group: P M M A
;
_chemical_formula_sum "Si O2"
_cell_formula_units_Z 48
_cell_length_a 9.294451
_cell_length_b 8.979390
_cell_length_c 32.075613
_cell_angle_alpha 90.000000
_cell_angle_beta 90.000000
_cell_angle_gamma 90.000000
_cell_volume 2676.982559
_symmetry_space_group_name_H-M "P M M A"
_symmetry_group_IT_number 51
_symmetry_cell_setting 'orthorhombic'
loop_
_space_group_symop_operation_xyz
x,y,z
1/2-x,-y,z
1/2+x,-y,-z
-x,y,-z
-x,-y,-z
1/2+x,y,-z
1/2-x,y,z
x,-y,z
loop_
_atom_site_type_symbol
_atom_site_label
_atom_site_fract_x
_atom_site_fract_y
_atom_site_fract_z
Si Si1 0.915852 0.818330 0.958570
Si Si2 0.582065 0.179643 0.125110
Si Si3 0.075112 0.328230 0.295004
Si Si4 0.581638 0.680037 0.797523
Si Si5 0.580520 0.177275 0.619457
Si Si6 0.917547 0.320487 0.457942
O O1 0.750000 0.770012 0.958824
O O2 0.997079 0.772495 0.916474
O O3 0.916040 0.000000 0.959000
O O4 0.000000 0.769646 0.000000
O O5 0.750000 0.218473 0.121729
O O6 0.510885 0.250583 0.165781
O O7 0.571436 0.000000 0.127866
O O8 0.250000 0.327670 0.293754
O O9 0.029776 0.500000 0.300416
O O10 0.030922 0.274503 0.248997
O O11 0.031304 0.234450 0.335126
O O12 0.750000 0.722153 0.802565
O O13 0.574997 0.500000 0.798709
O O14 0.750000 0.217448 0.614911
O O15 0.491738 0.251225 0.582455
O O16 0.568659 0.000000 0.617479
O O17 0.750000 0.279238 0.460451
O O18 0.926965 0.500000 0.455143
O O19 0.000000 0.273965 0.500000
#
# Coordination Sequence:
#
# PCOD9402805 Si02
#       6
#     8   8   8   8   8   8
#     4   9  16  27  45  69  97 129 165 206 251 298
#     4  10  20  32  47  71 102 134 169 208 250 298
#     4   8  15  30  52  75  99 130 169 210 249 294
#     4   9  18  33  53  76 100 129 168 211 254 301
#     4  10  20  33  52  80 110 138 168 205 253 305
#     4  10  21  37  57  79 102 133 174 215 254 298
#
# _framework density 17.930636
#
# number of rings (size 3 to 8) (size 9 to 14) (size 15 to 20)
#    0.000    2.667    0.000    3.000    0.000    6.333 
#    0.000    2.500    0.000    1.500    0.000    0.000 
#    0.000    0.000    0.000    0.000    0.000    0.000 
#
# Total GULP energy -267727.956973 kJ/mol
# GULP energy per Si atom -5577.665770 kJ/mol
# Density = 1.788983 g / cm^3
# Si number density = 17.930636 Si / 1000 Ang^3
#
#
#
# Elastic Constant Matrix: (Units=GPa)
#
#
# Indices 1 2 3 4 5 6 
#
# 1 124.8175 36.6656 108.4733 0.0000 0.0000 0.0000
# 2 36.6656 12.4001 43.4050 0.0000 0.0000 0.0000
# 3 108.4733 43.4050 214.8444 0.0000 0.0000 0.0000
# 4 0.0000 0.0000 0.0000 30.8910 0.0000 0.0000
# 5 0.0000 0.0000 0.0000 0.0000 32.6407 0.0000
# 6 0.0000 0.0000 0.0000 0.0000 0.0000 20.8051
#
#
#
# Elastic Compliance Matrix: (Units=1/GPa)
#
#
# Indices 1 2 3 4 5 6 
#
# 1 0.098749 -0.401160 0.031188 0.000000 0.000000 0.000000
# 2 -0.401160 1.905077 -0.182340 0.000000 0.000000 0.000000
# 3 0.031188 -0.182340 0.025746 0.000000 0.000000 0.000000
# 4 0.000000 0.000000 0.000000 0.032372 0.000000 0.000000
# 5 0.000000 0.000000 0.000000 0.000000 0.030637 0.000000
# 6 0.000000 0.000000 0.000000 0.000000 0.000000 0.048065
#
#
# Mechanical properties :
#
#
# Convention : Reuss Voigt Hill
#
# Bulk Modulus (GPa) = 1.08114 81.01664 41.04889
# Shear Modulus (GPa) = 1.40703 27.76858 14.58780
#
# Velocity S-wave (km/s) = 0.88680 3.93958 2.85541
# Velocity P-wave (km/s) = 1.28562 8.12251 5.81498
#
# Compressibility (1/GPa) = 0.92494933
#
# Stress axis : x y z
#
# Youngs Moduli (GPa) = 10.12664 0.52491 38.84131
#
# Poissons Ratio (x) = 0.21057 -1.21140
# Poissons Ratio (y) = 4.06240 7.08231
# Poissons Ratio (z) = -0.31583 0.09571
#
# Static dielectric constant tensor:
#      x y z
#    x 1.602500 0.000000 0.000000 
#    y 0.000000 1.604400 0.000000 
#    z 0.000000 0.000000 1.599220 
# 
# From -- ./inp_files/36950.got.cif
#   From: 2010.05.17/outbox.cif.g08.bks.cpg/sg51_19_cif.got.tgz:36950.got - 2010.06.03 11:52:47.
