data_PCOD9402115
_publ_section_title
;
Structure prediction by ZEFSAII (Michael W. Deem and Ramdas Pophale) SiO2 
 PCOD9402115
Probable space group: P M M A
;
_chemical_formula_sum "Si O2"
_cell_formula_units_Z 40
_cell_length_a 26.603401
_cell_length_b 7.525747
_cell_length_c 9.190265
_cell_angle_alpha 90.000000
_cell_angle_beta 90.000000
_cell_angle_gamma 90.000000
_cell_volume 1839.987232
_symmetry_space_group_name_H-M "P M M A"
_symmetry_group_IT_number 51
_symmetry_cell_setting 'orthorhombic'
loop_
_space_group_symop_operation_xyz
x,y,z
1/2-x,-y,z
1/2+x,-y,-z
-x,y,-z
-x,-y,-z
1/2+x,y,-z
1/2-x,y,z
x,-y,z
loop_
_atom_site_type_symbol
_atom_site_label
_atom_site_fract_x
_atom_site_fract_y
_atom_site_fract_z
Si Si1 0.750000 0.281527 0.593961
Si Si2 0.653446 0.293439 0.417397
Si Si3 0.050845 0.207963 0.427273
Si Si4 0.852069 0.717693 0.088334
Si Si5 0.250000 0.716707 0.071055
Si Si6 0.549450 0.284890 0.913591
O O1 0.750000 0.500000 0.597754
O O2 0.700088 0.220193 0.509576
O O3 0.750000 0.225026 0.761623
O O4 0.666350 0.500000 0.395084
O O5 0.601829 0.285356 0.506541
O O6 0.646458 0.219695 0.255198
O O7 0.048856 0.229986 0.254183
O O8 0.000000 0.282474 0.500000
O O9 0.052835 0.000000 0.463256
O O10 0.853430 0.500000 0.087855
O O11 0.800380 0.772513 0.011826
O O12 0.900449 0.775752 0.996584
O O13 0.250000 0.500000 0.070618
O O14 0.549357 0.500000 0.914972
O O15 0.500000 0.224612 0.000000
#
# Coordination Sequence:
#
# PCOD9402115 Si02
#       6
#     4   8   8   8   4   8
#     4   9  17  29  52  85 114 141 174 218 270 321
#     4  10  19  34  57  83 110 141 179 221 268 321
#     4  11  24  39  54  76 108 145 183 224 272 323
#     4   9  17  29  49  78 108 136 169 214 263 312
#     4   9  15  25  43  73 112 141 164 204 260 315
#     4  10  20  35  56  81 106 135 176 224 271 319
#
# _framework density 21.739283
#
# number of rings (size 3 to 8) (size 9 to 14) (size 15 to 20)
#    0.000    2.200    0.000    3.600    0.000    9.200 
#    0.000    1.500    0.000    0.000    0.000    1.400 
#    0.000    0.000    0.000    0.000    0.000    0.000 
#
# Total GULP energy -223597.276904 kJ/mol
# GULP energy per Si atom -5589.931923 kJ/mol
# Density = 2.168980 g / cm^3
# Si number density = 21.739283 Si / 1000 Ang^3
#
#
#
# Elastic Constant Matrix: (Units=GPa)
#
#
# Indices 1 2 3 4 5 6 
#
# 1 209.9211 -11.8958 111.0164 0.0000 0.0000 0.0000
# 2 -11.8958 50.3648 -15.6880 0.0000 0.0000 0.0000
# 3 111.0164 -15.6880 204.9316 0.0000 0.0000 0.0000
# 4 0.0000 0.0000 0.0000 -16.0253 0.0000 0.0000
# 5 0.0000 0.0000 0.0000 0.0000 45.5546 0.0000
# 6 0.0000 0.0000 0.0000 0.0000 0.0000 -0.8431
#
#
#
# Elastic Compliance Matrix: (Units=1/GPa)
#
#
# Indices 1 2 3 4 5 6 
#
# 1 0.006687 0.000462 -0.003587 0.000000 0.000000 0.000000
# 2 0.000462 0.020372 0.001309 0.000000 0.000000 0.000000
# 3 -0.003587 0.001309 0.006923 0.000000 0.000000 0.000000
# 4 0.000000 0.000000 0.000000 -0.062401 0.000000 0.000000
# 5 0.000000 0.000000 0.000000 0.000000 0.021952 0.000000
# 6 0.000000 0.000000 0.000000 0.000000 0.000000 -1.186070
#
#
# Mechanical properties :
#
#
# Convention : Reuss Voigt Hill
#
# Bulk Modulus (GPa) = 32.94842 70.23142 51.58992
# Shear Modulus (GPa) = -4.24164 31.18957 13.47397
#
# Velocity S-wave (km/s) = -1.39835 3.79187 2.49228
# Velocity P-wave (km/s) = 3.54710 7.17965 5.66256
#
# Compressibility (1/GPa) = 0.03035047
#
# Stress axis : x y z
#
# Youngs Moduli (GPa) = 149.54605 49.08684 144.44368
#
# Poissons Ratio (x) = -0.02268 0.51813
# Poissons Ratio (y) = -0.06910 -0.18911
# Poissons Ratio (z) = 0.53643 -0.06427
#
# Static dielectric constant tensor:
#      x y z
#    x 1.745090 0.000000 0.000000 
#    y 0.000000 1.819890 0.000000 
#    z 0.000000 0.000000 1.732370 
# 
# From -- ./inp_files/12163.got.cif
#   From: 2010.05.17/outbox.cif.g08.bks.cpg/sg51_7_cif.got.tgz:12163.got - 2010.06.03 11:52:47.
