data_PCOD9402794
_publ_section_title
;
Structure prediction by ZEFSAII (Michael W. Deem and Ramdas Pophale) SiO2 
 PCOD9402794
Probable space group: P M M A
;
_chemical_formula_sum "Si O2"
_cell_formula_units_Z 48
_cell_length_a 9.537230
_cell_length_b 13.710725
_cell_length_c 20.101947
_cell_angle_alpha 90.000000
_cell_angle_beta 90.000000
_cell_angle_gamma 90.000000
_cell_volume 2628.577584
_symmetry_space_group_name_H-M "P M M A"
_symmetry_group_IT_number 51
_symmetry_cell_setting 'orthorhombic'
loop_
_space_group_symop_operation_xyz
x,y,z
1/2-x,-y,z
1/2+x,-y,-z
-x,y,-z
-x,-y,-z
1/2+x,y,-z
1/2-x,y,z
x,-y,z
loop_
_atom_site_type_symbol
_atom_site_label
_atom_site_fract_x
_atom_site_fract_y
_atom_site_fract_z
Si Si1 0.092157 0.618412 0.563755
Si Si2 0.592690 0.616063 0.687101
Si Si3 0.415682 0.710754 0.796512
Si Si4 0.089772 0.118114 0.435261
Si Si5 0.085781 0.114156 0.698059
Si Si6 0.583797 0.387085 0.067438
O O1 0.250000 0.656680 0.561124
O O2 0.101554 0.500000 0.566186
O O3 0.000000 0.641120 0.500000
O O4 0.008260 0.650915 0.628371
O O5 0.750000 0.656672 0.683683
O O6 0.603201 0.500000 0.679338
O O7 0.515263 0.640068 0.754974
O O8 0.250000 0.687256 0.786851
O O9 0.439377 0.815734 0.761490
O O10 0.446393 0.689510 0.873639
O O11 0.250000 0.155430 0.436585
O O12 0.000000 0.148523 0.500000
O O13 0.010997 0.137545 0.365517
O O14 0.097327 0.000000 0.439111
O O15 0.250000 0.126093 0.678976
O O16 0.064460 0.000000 0.714788
O O17 0.750000 0.382885 0.054028
O O18 0.552799 0.500000 0.088547
O O19 0.500000 0.367830 0.000000
#
# Coordination Sequence:
#
# PCOD9402794 Si02
#       6
#     8   8   8   8   8   8
#     4   9  16  27  44  64  89 125 167 208 249 294
#     4  10  20  32  47  70  99 129 162 202 249 300
#     4  10  20  34  53  76 102 133 168 206 250 300
#     4   9  16  27  46  71  98 130 169 215 267 317
#     4   9  18  33  52  74 101 134 173 216 261 308
#     4   9  18  33  54  80 108 136 166 201 244 297
#
# _framework density 18.260828
#
# number of rings (size 3 to 8) (size 9 to 14) (size 15 to 20)
#    0.000    2.667    0.000    2.000    0.000    7.000 
#    0.000    2.500    0.000    4.500    0.000    0.000 
#    0.000    0.000    0.000    0.000    0.000    0.000 
#
# Total GULP energy -267810.196013 kJ/mol
# GULP energy per Si atom -5579.379084 kJ/mol
# Density = 1.821927 g / cm^3
# Si number density = 18.260828 Si / 1000 Ang^3
#
#
#
# Elastic Constant Matrix: (Units=GPa)
#
#
# Indices 1 2 3 4 5 6 
#
# 1 118.7162 40.3448 87.8390 0.0000 0.0000 0.0000
# 2 40.3448 72.6950 40.4557 0.0000 0.0000 0.0000
# 3 87.8390 40.4557 149.4939 0.0000 0.0000 0.0000
# 4 0.0000 0.0000 0.0000 32.6098 0.0000 0.0000
# 5 0.0000 0.0000 0.0000 0.0000 24.6370 0.0000
# 6 0.0000 0.0000 0.0000 0.0000 0.0000 25.6061
#
#
#
# Elastic Compliance Matrix: (Units=1/GPa)
#
#
# Indices 1 2 3 4 5 6 
#
# 1 0.015960 -0.004284 -0.008219 0.000000 0.000000 0.000000
# 2 -0.004284 0.017345 -0.002177 0.000000 0.000000 0.000000
# 3 -0.008219 -0.002177 0.012107 0.000000 0.000000 0.000000
# 4 0.000000 0.000000 0.000000 0.030666 0.000000 0.000000
# 5 0.000000 0.000000 0.000000 0.000000 0.040589 0.000000
# 6 0.000000 0.000000 0.000000 0.000000 0.000000 0.039053
#
#
# Mechanical properties :
#
#
# Convention : Reuss Voigt Hill
#
# Bulk Modulus (GPa) = 62.28930 75.35378 68.82154
# Shear Modulus (GPa) = 26.25625 28.05495 27.15560
#
# Velocity S-wave (km/s) = 3.79601 3.92388 3.86047
# Velocity P-wave (km/s) = 7.30738 7.86663 7.59216
#
# Compressibility (1/GPa) = 0.01605412
#
# Stress axis : x y z
#
# Youngs Moduli (GPa) = 62.65526 57.65335 82.59466
#
# Poissons Ratio (x) = 0.24699 0.67881
# Poissons Ratio (y) = 0.26842 0.17978
# Poissons Ratio (z) = 0.51494 0.12549
#
# Static dielectric constant tensor:
#      x y z
#    x 1.624240 0.000000 0.000000 
#    y 0.000000 1.683610 0.000000 
#    z 0.000000 0.000000 1.685940 
# 
# From -- ./inp_files/27510.got.cif
#   From: 2010.05.17/outbox.cif.g08.bks.cpg/sg51_14_cif.got.tgz:27510.got - 2010.06.03 11:52:47.
