data_PCOD9402639
_publ_section_title
;
Structure prediction by ZEFSAII (Michael W. Deem and Ramdas Pophale) SiO2 
 PCOD9402639
Probable space group: P M M A
;
_chemical_formula_sum "Si O2"
_cell_formula_units_Z 56
_cell_length_a 9.132743
_cell_length_b 13.639557
_cell_length_c 31.023001
_cell_angle_alpha 90.000000
_cell_angle_beta 90.000000
_cell_angle_gamma 90.000000
_cell_volume 3864.428786
_symmetry_space_group_name_H-M "P M M A"
_symmetry_group_IT_number 51
_symmetry_cell_setting 'orthorhombic'
loop_
_space_group_symop_operation_xyz
x,y,z
1/2-x,-y,z
1/2+x,-y,-z
-x,y,-z
-x,-y,-z
1/2+x,y,-z
1/2-x,y,z
x,-y,z
loop_
_atom_site_type_symbol
_atom_site_label
_atom_site_fract_x
_atom_site_fract_y
_atom_site_fract_z
Si Si1 0.574950 0.717524 0.113622
Si Si2 0.424630 0.886241 0.953670
Si Si3 0.919280 0.619578 0.631177
Si Si4 0.582453 0.381351 0.282223
Si Si5 0.419102 0.619460 0.543677
Si Si6 0.914363 0.384307 0.958771
Si Si7 0.925721 0.615982 0.807625
O O1 0.750000 0.716640 0.118668
O O2 0.532434 0.814657 0.085860
O O3 0.515873 0.633498 0.081937
O O4 0.497648 0.690598 0.158383
O O5 0.250000 0.873446 0.959515
O O6 0.453434 0.000000 0.942479
O O7 0.500000 0.868367 0.000000
O O8 0.750000 0.649752 0.632309
O O9 0.920855 0.500000 0.631420
O O10 0.005646 0.652648 0.673768
O O11 0.997608 0.650609 0.587008
O O12 0.750000 0.346552 0.278466
O O13 0.587840 0.500000 0.284877
O O14 0.488276 0.360203 0.239708
O O15 0.500000 0.651035 0.500000
O O16 0.250000 0.650009 0.544089
O O17 0.420527 0.500000 0.543602
O O18 0.750000 0.343030 0.953838
O O19 0.898747 0.500000 0.964930
O O20 0.000000 0.344194 0.000000
O O21 0.750000 0.623059 0.808876
O O22 0.962680 0.500000 0.816831
#
# Coordination Sequence:
#
# PCOD9402639 Si02
#       7
#     8   8   8   8   8   8   8
#     4  11  21  31  46  65  83 104 128 155 187 222
#     4   9  19  35  52  69  87 105 126 153 186 224
#     4   9  15  22  32  45  61  83 112 146 186 231
#     4   9  16  26  39  53  69  91 121 155 188 224
#     4   9  15  21  28  39  56  78 106 143 188 235
#     4  10  20  32  44  59  81 107 131 154 180 213
#     4  10  20  32  44  59  81 107 132 159 191 227
#
# _framework density 14.491144999999999
#
# number of rings (size 3 to 8) (size 9 to 14) (size 15 to 20)
#    0.000    2.429    0.000    3.429    0.000   10.857 
#    0.000    0.000    0.000    0.000    0.000    0.000 
#    0.000    0.000    0.000    0.000    0.000    0.000 
#
# Total GULP energy -311883.839672 kJ/mol
# GULP energy per Si atom -5569.354280 kJ/mol
# Density = 1.445816 g / cm^3
# Si number density = 14.491145 Si / 1000 Ang^3
#
#
#
# Elastic Constant Matrix: (Units=GPa)
#
#
# Indices 1 2 3 4 5 6 
#
# 1 98.0653 26.8474 66.1556 0.0000 0.0000 0.0000
# 2 26.8474 38.9002 27.7205 0.0000 0.0000 0.0000
# 3 66.1556 27.7205 140.7257 0.0000 0.0000 0.0000
# 4 0.0000 0.0000 0.0000 4.3477 0.0000 0.0000
# 5 0.0000 0.0000 0.0000 0.0000 29.5882 0.0000
# 6 0.0000 0.0000 0.0000 0.0000 0.0000 101.1972
#
#
#
# Elastic Compliance Matrix: (Units=1/GPa)
#
#
# Indices 1 2 3 4 5 6 
#
# 1 0.016325 -0.006745 -0.006346 0.000000 0.000000 0.000000
# 2 -0.006745 0.032691 -0.003269 0.000000 0.000000 0.000000
# 3 -0.006346 -0.003269 0.010733 0.000000 0.000000 0.000000
# 4 0.000000 0.000000 0.000000 0.230007 0.000000 0.000000
# 5 0.000000 0.000000 0.000000 0.000000 0.033797 0.000000
# 6 0.000000 0.000000 0.000000 0.000000 0.000000 0.009882
#
#
# Mechanical properties :
#
#
# Convention : Reuss Voigt Hill
#
# Bulk Modulus (GPa) = 36.99546 57.68203 47.33874
# Shear Modulus (GPa) = 13.32754 37.49114 25.40934
#
# Velocity S-wave (km/s) = 3.03595 5.09195 4.19195
# Velocity P-wave (km/s) = 6.15422 8.62914 7.49455
#
# Compressibility (1/GPa) = 0.02703035
#
# Stress axis : x y z
#
# Youngs Moduli (GPa) = 61.25718 30.58937 93.16999
#
# Poissons Ratio (x) = 0.20631 0.59123
# Poissons Ratio (y) = 0.41316 0.30457
# Poissons Ratio (z) = 0.38872 0.09999
#
# Static dielectric constant tensor:
#      x y z
#    x 1.499050 0.000000 0.000000 
#    y 0.000000 1.468430 0.000000 
#    z 0.000000 0.000000 1.292050 
# 
# From -- ./inp_files/37454.got.cif
#   From: 2010.05.17/outbox.cif.g08.bks.cpg/sg51_19_cif.got.tgz:37454.got - 2010.06.03 11:52:47.
