data_PCOD9402921
_publ_section_title
;
Structure prediction by ZEFSAII (Michael W. Deem and Ramdas Pophale) SiO2 
 PCOD9402921
Probable space group: P M M A
;
_chemical_formula_sum "Si O2"
_cell_formula_units_Z 48
_cell_length_a 8.812264
_cell_length_b 19.284440
_cell_length_c 16.290300
_cell_angle_alpha 90.000000
_cell_angle_beta 90.000000
_cell_angle_gamma 90.000000
_cell_volume 2768.366681
_symmetry_space_group_name_H-M "P M M A"
_symmetry_group_IT_number 51
_symmetry_cell_setting 'orthorhombic'
loop_
_space_group_symop_operation_xyz
x,y,z
1/2-x,-y,z
1/2+x,-y,-z
-x,y,-z
-x,-y,-z
1/2+x,y,-z
1/2-x,y,z
x,-y,z
loop_
_atom_site_type_symbol
_atom_site_label
_atom_site_fract_x
_atom_site_fract_y
_atom_site_fract_z
Si Si1 0.932956 0.580358 0.412952
Si Si2 0.568911 0.081576 0.412987
Si Si3 0.068869 0.675236 0.918281
Si Si4 0.068433 0.831664 0.264513
Si Si5 0.932993 0.677399 0.262836
Si Si6 0.931663 0.830812 0.917706
O O1 0.750000 0.582500 0.417421
O O2 0.978357 0.500000 0.400584
O O3 0.980942 0.627916 0.336964
O O4 0.000000 0.603868 0.500000
O O5 0.500000 0.105247 0.500000
O O6 0.750000 0.088645 0.415723
O O7 0.503220 0.123699 0.336800
O O8 0.531000 0.000000 0.403791
O O9 0.250000 0.679283 0.927262
O O10 0.033061 0.646353 0.827732
O O11 0.000077 0.752982 0.915627
O O12 0.000000 0.641067 0.000000
O O13 0.250000 0.831290 0.271807
O O14 0.030774 0.859856 0.172654
O O15 0.007948 0.752895 0.269914
O O16 0.750000 0.686198 0.266567
O O17 0.750000 0.827092 0.925468
O O18 0.000000 0.864628 0.000000
#
# Coordination Sequence:
#
# PCOD9402921 Si02
#       6
#     8   8   8   8   8   8
#     4   9  18  33  51  69  90 120 158 196 236 284
#     4  10  21  37  56  75  96 126 162 198 238 286
#     4   9  15  24  40  62  89 121 154 189 231 277
#     4  10  20  32  49  75 103 129 159 198 241 283
#     4   9  18  31  47  69  97 127 158 195 239 284
#     4   9  16  26  42  66  95 126 158 192 232 277
#
# _framework density 17.338743000000001
#
# number of rings (size 3 to 8) (size 9 to 14) (size 15 to 20)
#    0.000    2.667    0.000    3.000    0.000    5.000 
#    0.000    1.667    0.000    1.000    0.000    0.000 
#    0.000    0.000    0.000    0.000    0.000    4.500 
#
# Total GULP energy -267371.047614 kJ/mol
# GULP energy per Si atom -5570.230159 kJ/mol
# Density = 1.729928 g / cm^3
# Si number density = 17.338743 Si / 1000 Ang^3
#
#
#
# Elastic Constant Matrix: (Units=GPa)
#
#
# Indices 1 2 3 4 5 6 
#
# 1 43.3975 21.6749 60.2258 0.0000 0.0000 0.0000
# 2 21.6749 33.9766 64.7918 0.0000 0.0000 0.0000
# 3 60.2258 64.7918 224.2171 0.0000 0.0000 0.0000
# 4 0.0000 0.0000 0.0000 -13.2117 0.0000 0.0000
# 5 0.0000 0.0000 0.0000 0.0000 34.0174 0.0000
# 6 0.0000 0.0000 0.0000 0.0000 0.0000 6.9780
#
#
#
# Elastic Compliance Matrix: (Units=1/GPa)
#
#
# Indices 1 2 3 4 5 6 
#
# 1 0.038425 -0.010760 -0.007212 0.000000 0.000000 0.000000
# 2 -0.010760 0.068571 -0.016925 0.000000 0.000000 0.000000
# 3 -0.007212 -0.016925 0.011288 0.000000 0.000000 0.000000
# 4 0.000000 0.000000 0.000000 -0.075691 0.000000 0.000000
# 5 0.000000 0.000000 0.000000 0.000000 0.029397 0.000000
# 6 0.000000 0.000000 0.000000 0.000000 0.000000 0.143308
#
#
# Mechanical properties :
#
#
# Convention : Reuss Voigt Hill
#
# Bulk Modulus (GPa) = 20.62254 66.10846 43.36550
# Shear Modulus (GPa) = 16.59723 15.88332 16.24027
#
# Velocity S-wave (km/s) = 3.09728 3.02993 3.06379
# Velocity P-wave (km/s) = 4.97097 7.10289 6.13032
#
# Compressibility (1/GPa) = 0.04849064
#
# Stress axis : x y z
#
# Youngs Moduli (GPa) = 26.02442 14.58344 88.59124
#
# Poissons Ratio (x) = 0.15692 0.63891
# Poissons Ratio (y) = 0.28003 1.49937
# Poissons Ratio (z) = 0.18768 0.24682
#
# Static dielectric constant tensor:
#      x y z
#    x 1.579910 0.000000 0.000000 
#    y 0.000000 1.555320 0.000000 
#    z 0.000000 0.000000 1.640590 
# 
# From -- ./inp_files/21386.got.cif
#   From: 2010.05.17/outbox.cif.g08.bks.cpg/sg51_11_cif.got.tgz:21386.got - 2010.06.03 11:52:47.
