data_PCOD9402146
_publ_section_title
;
Structure prediction by ZEFSAII (Michael W. Deem and Ramdas Pophale) SiO2 
 PCOD9402146
Probable space group: P M M A
;
_chemical_formula_sum "Si O2"
_cell_formula_units_Z 64
_cell_length_a 24.601434
_cell_length_b 14.263211
_cell_length_c 9.557846
_cell_angle_alpha 90.000000
_cell_angle_beta 90.000000
_cell_angle_gamma 90.000000
_cell_volume 3353.804616
_symmetry_space_group_name_H-M "P M M A"
_symmetry_group_IT_number 51
_symmetry_cell_setting 'orthorhombic'
loop_
_space_group_symop_operation_xyz
x,y,z
1/2-x,-y,z
1/2+x,-y,-z
-x,y,-z
-x,-y,-z
1/2+x,y,-z
1/2-x,y,z
x,-y,z
loop_
_atom_site_type_symbol
_atom_site_label
_atom_site_fract_x
_atom_site_fract_y
_atom_site_fract_z
Si Si1 0.907376 0.111729 0.138877
Si Si2 0.009286 0.790450 0.654623
Si Si3 0.812786 0.201525 0.639436
Si Si4 0.311309 0.606985 0.503456
Si Si5 0.404128 0.216428 0.152853
Si Si6 0.063597 0.392677 0.005958
Si Si7 0.187274 0.887232 0.656777
Si Si8 0.419837 0.393188 0.679641
O O1 0.952268 0.147356 0.247681
O O2 0.850751 0.140283 0.213957
O O3 0.908959 0.000000 0.125161
O O4 0.915388 0.158486 0.988204
O O5 0.038495 0.688778 0.638326
O O6 0.000000 0.829651 0.500000
O O7 0.952680 0.784726 0.735716
O O8 0.750000 0.174349 0.661625
O O9 0.815898 0.313166 0.612874
O O10 0.851113 0.178965 0.768536
O O11 0.830888 0.155814 0.491803
O O12 0.250000 0.617730 0.564817
O O13 0.315444 0.500000 0.451575
O O14 0.360943 0.621466 0.610214
O O15 0.402046 0.323734 0.101205
O O16 0.063711 0.500000 0.055655
O O17 0.084289 0.388743 0.847309
O O18 0.000000 0.361424 0.000000
O O19 0.250000 0.859085 0.677995
O O20 0.185035 0.000000 0.645044
O O21 0.438016 0.500000 0.644094
#
# Coordination Sequence:
#
# PCOD9402146 Si02
#       8
#     8   8   8   8   8   8   8   8
#     4  11  24  41  61  87 117 150 190 237 290 346
#     4  12  24  39  59  85 117 155 192 237 286 343
#     4  10  22  39  60  87 118 154 192 233 284 340
#     4   9  18  34  56  82 115 153 191 233 280 333
#     4  12  23  38  59  85 117 152 192 237 287 338
#     4  10  19  35  57  80 114 155 191 233 286 339
#     4   9  19  39  65  88 112 146 189 237 288 340
#     4  10  19  34  57  87 116 148 192 237 284 337
#
# _framework density 19.082805
#
# number of rings (size 3 to 8) (size 9 to 14) (size 15 to 20)
#    0.000    1.625    2.500    2.625    0.000    3.000 
#    0.000    0.625    0.000    0.750    0.000    0.000 
#    0.000    0.000    0.000    0.000    0.000    0.000 
#
# Total GULP energy -357267.958750 kJ/mol
# GULP energy per Si atom -5582.311855 kJ/mol
# Density = 1.903937 g / cm^3
# Si number density = 19.082805 Si / 1000 Ang^3
#
#
#
# Elastic Constant Matrix: (Units=GPa)
#
#
# Indices 1 2 3 4 5 6 
#
# 1 62.3593 16.0566 41.0342 0.0000 0.0000 0.0000
# 2 16.0566 46.4519 24.1099 0.0000 0.0000 0.0000
# 3 41.0342 24.1099 104.6907 0.0000 0.0000 0.0000
# 4 0.0000 0.0000 0.0000 5.9813 0.0000 0.0000
# 5 0.0000 0.0000 0.0000 0.0000 -0.6084 0.0000
# 6 0.0000 0.0000 0.0000 0.0000 0.0000 23.3679
#
#
#
# Elastic Compliance Matrix: (Units=1/GPa)
#
#
# Indices 1 2 3 4 5 6 
#
# 1 0.022120 -0.003573 -0.007847 0.000000 0.000000 0.000000
# 2 -0.003573 0.025027 -0.004363 0.000000 0.000000 0.000000
# 3 -0.007847 -0.004363 0.013632 0.000000 0.000000 0.000000
# 4 0.000000 0.000000 0.000000 0.167187 0.000000 0.000000
# 5 0.000000 0.000000 0.000000 0.000000 -1.643772 0.000000
# 6 0.000000 0.000000 0.000000 0.000000 0.000000 0.042794
#
#
# Mechanical properties :
#
#
# Convention : Reuss Voigt Hill
#
# Bulk Modulus (GPa) = 34.23157 41.76703 37.99930
# Shear Modulus (GPa) = -3.75458 14.56827 5.40685
#
# Velocity S-wave (km/s) = -1.40420 2.76601 1.68508
# Velocity P-wave (km/s) = 3.91769 5.66885 4.87259
#
# Compressibility (1/GPa) = 0.02921280
#
# Stress axis : x y z
#
# Youngs Moduli (GPa) = 45.20852 39.95631 73.35412
#
# Poissons Ratio (x) = 0.14277 0.57562
# Poissons Ratio (y) = 0.16153 0.32006
# Poissons Ratio (z) = 0.35476 0.17434
#
# Static dielectric constant tensor:
#      x y z
#    x 1.688870 0.000000 0.000000 
#    y 0.000000 1.691680 0.000000 
#    z 0.000000 0.000000 1.632710 
# 
# From -- ./inp_files/11880.got.cif
#   From: 2010.05.17/outbox.cif.g08.bks.cpg/sg51_6_cif.got.tgz:11880.got - 2010.06.03 11:52:47.
