data_PCOD9402162
_publ_section_title
;
Structure prediction by ZEFSAII (Michael W. Deem and Ramdas Pophale) SiO2 
 PCOD9402162
Probable space group: P M M A
;
_chemical_formula_sum "Si O2"
_cell_formula_units_Z 64
_cell_length_a 19.057401
_cell_length_b 7.880012
_cell_length_c 20.381340
_cell_angle_alpha 90.000000
_cell_angle_beta 90.000000
_cell_angle_gamma 90.000000
_cell_volume 3060.717771
_symmetry_space_group_name_H-M "P M M A"
_symmetry_group_IT_number 51
_symmetry_cell_setting 'orthorhombic'
loop_
_space_group_symop_operation_xyz
x,y,z
1/2-x,-y,z
1/2+x,-y,-z
-x,y,-z
-x,-y,-z
1/2+x,y,-z
1/2-x,y,z
x,-y,z
loop_
_atom_site_type_symbol
_atom_site_label
_atom_site_fract_x
_atom_site_fract_y
_atom_site_fract_z
Si Si1 0.582322 0.795379 0.178814
Si Si2 0.093424 0.302552 0.449974
Si Si3 0.442485 0.803986 0.591656
Si Si4 0.427030 0.203221 0.206529
Si Si5 0.828032 0.705109 0.675076
Si Si6 0.170352 0.207833 0.699063
Si Si7 0.575239 0.297840 0.027284
Si Si8 0.828788 0.202573 0.909898
O O1 0.506436 0.732187 0.204110
O O2 0.642181 0.738554 0.229361
O O3 0.587851 0.747407 0.102833
O O4 0.582546 0.000000 0.181664
O O5 0.106729 0.500000 0.464748
O O6 0.090034 0.206483 0.518722
O O7 0.149405 0.238196 0.397420
O O8 0.016983 0.288800 0.415409
O O9 0.386894 0.738326 0.644762
O O10 0.458333 0.000000 0.608087
O O11 0.385374 0.239646 0.272543
O O12 0.381153 0.271749 0.145747
O O13 0.431772 0.000000 0.199113
O O14 0.750000 0.764395 0.693144
O O15 0.827862 0.500000 0.674032
O O16 0.250000 0.264602 0.686654
O O17 0.171101 0.000000 0.697030
O O18 0.573476 0.500000 0.021642
O O19 0.500000 0.231200 0.000000
O O20 0.636353 0.232696 0.980109
O O21 0.750000 0.271879 0.904751
O O22 0.824646 0.000000 0.899868
#
# Coordination Sequence:
#
# PCOD9402162 Si02
#       8
#     8   8   8   8   8   8   8   8
#     4  10  20  36  61  84 108 145 186 229 275 329
#     4  10  20  35  55  79 110 145 184 227 272 327
#     4  10  19  34  58  83 108 140 182 231 276 324
#     4  10  20  35  57  83 109 140 184 233 275 323
#     4  10  22  37  52  75 110 149 183 219 270 330
#     4   9  19  35  55  83 115 144 180 228 282 333
#     4  11  23  38  57  83 115 148 184 228 278 332
#     4  10  21  37  58  83 111 145 185 229 279 334
#
# _framework density 20.910129000000001
#
# number of rings (size 3 to 8) (size 9 to 14) (size 15 to 20)
#    0.000    2.000    1.250    3.000    0.000    5.500 
#    0.000    2.500    0.000    2.625    0.000    0.000 
#    0.000    0.000    0.000    0.000    0.000    0.000 
#
# Total GULP energy -357489.049967 kJ/mol
# GULP energy per Si atom -5585.766406 kJ/mol
# Density = 2.086254 g / cm^3
# Si number density = 20.910129 Si / 1000 Ang^3
#
#
#
# Elastic Constant Matrix: (Units=GPa)
#
#
# Indices 1 2 3 4 5 6 
#
# 1 54.9897 0.3693 11.9566 0.0000 0.0000 0.0000
# 2 0.3693 21.1071 -9.8137 0.0000 0.0000 0.0000
# 3 11.9566 -9.8137 72.7857 0.0000 0.0000 0.0000
# 4 0.0000 0.0000 0.0000 18.9561 0.0000 0.0000
# 5 0.0000 0.0000 0.0000 0.0000 160.3644 0.0000
# 6 0.0000 0.0000 0.0000 0.0000 0.0000 -77.4517
#
#
#
# Elastic Compliance Matrix: (Units=1/GPa)
#
#
# Indices 1 2 3 4 5 6 
#
# 1 0.018930 -0.001896 -0.003365 0.000000 0.000000 0.000000
# 2 -0.001896 0.050736 0.007152 0.000000 0.000000 0.000000
# 3 -0.003365 0.007152 0.015256 0.000000 0.000000 0.000000
# 4 0.000000 0.000000 0.000000 0.052754 0.000000 0.000000
# 5 0.000000 0.000000 0.000000 0.000000 0.006236 0.000000
# 6 0.000000 0.000000 0.000000 0.000000 0.000000 -0.012911
#
#
# Mechanical properties :
#
#
# Convention : Reuss Voigt Hill
#
# Bulk Modulus (GPa) = 11.27344 17.10074 14.18709
# Shear Modulus (GPa) = 31.89072 30.13178 31.01125
#
# Velocity S-wave (km/s) = 3.90953 3.80019 3.85525
# Velocity P-wave (km/s) = 5.07763 5.23939 5.15914
#
# Compressibility (1/GPa) = 0.08870405
#
# Stress axis : x y z
#
# Youngs Moduli (GPa) = 52.82717 19.70989 65.54750
#
# Poissons Ratio (x) = 0.03737 0.22058
# Poissons Ratio (y) = 0.10015 -0.46881
# Poissons Ratio (z) = 0.17777 -0.14097
#
# Static dielectric constant tensor:
#      x y z
#    x 1.748770 0.000000 0.000000 
#    y 0.000000 1.753910 0.000000 
#    z 0.000000 0.000000 1.726890 
# 
# From -- ./inp_files/33968.got.cif
#   From: 2010.05.17/outbox.cif.g08.bks.cpg/sg51_17_cif.got.tgz:33968.got - 2010.06.03 11:52:47.
