data_PCOD9402719
_publ_section_title
;
Structure prediction by ZEFSAII (Michael W. Deem and Ramdas Pophale) SiO2 
 PCOD9402719
Probable space group: P M M A
;
_chemical_formula_sum "Si O2"
_cell_formula_units_Z 40
_cell_length_a 18.262489
_cell_length_b 9.351190
_cell_length_c 14.346264
_cell_angle_alpha 90.000000
_cell_angle_beta 90.000000
_cell_angle_gamma 90.000000
_cell_volume 2449.997646
_symmetry_space_group_name_H-M "P M M A"
_symmetry_group_IT_number 51
_symmetry_cell_setting 'orthorhombic'
loop_
_space_group_symop_operation_xyz
x,y,z
1/2-x,-y,z
1/2+x,-y,-z
-x,y,-z
-x,-y,-z
1/2+x,y,-z
1/2-x,y,z
x,-y,z
loop_
_atom_site_type_symbol
_atom_site_label
_atom_site_fract_x
_atom_site_fract_y
_atom_site_fract_z
Si Si1 0.831805 0.169223 0.316894
Si Si2 0.871560 0.663406 0.135233
Si Si3 0.584584 0.835797 0.962561
Si Si4 0.030367 0.671230 0.602538
Si Si5 0.039770 0.337493 0.208162
O O1 0.750000 0.189009 0.355747
O O2 0.834568 0.242490 0.215192
O O3 0.895137 0.244657 0.376262
O O4 0.846205 0.000000 0.308168
O O5 0.845001 0.500000 0.132576
O O6 0.957019 0.657979 0.166811
O O7 0.870519 0.740051 0.035545
O O8 0.583266 0.766729 0.860099
O O9 0.608772 0.000000 0.962169
O O10 0.500000 0.834916 0.000000
O O11 0.043797 0.500000 0.611681
O O12 0.000000 0.699995 0.500000
O O13 0.972590 0.707818 0.684817
O O14 0.068577 0.500000 0.204520
#
# Coordination Sequence:
#
# PCOD9402719 Si02
#       5
#     8   8   8   8   8
#     4  10  20  32  46  67  95 124 154 190 234 286
#     4   9  16  26  41  60  84 115 148 181 218 263
#     4   9  15  22  35  57  85 114 142 172 209 256
#     4   9  18  32  49  69  93 122 158 201 246 287
#     4   8  14  24  38  58  85 114 144 181 223 266
#
# _framework density 16.326546
#
# number of rings (size 3 to 8) (size 9 to 14) (size 15 to 20)
#    0.000    3.000    0.000    3.000    0.000    9.200 
#    0.000    0.000    0.000    0.000    0.000    1.400 
#    0.000    8.000    0.000    0.000    0.000    0.000 
#
# Total GULP energy -222751.574031 kJ/mol
# GULP energy per Si atom -5568.789351 kJ/mol
# Density = 1.628939 g / cm^3
# Si number density = 16.326546 Si / 1000 Ang^3
#
#
#
# Elastic Constant Matrix: (Units=GPa)
#
#
# Indices 1 2 3 4 5 6 
#
# 1 38.8561 38.6292 33.8337 0.0000 0.0000 0.0000
# 2 38.6292 102.0197 72.8840 0.0000 0.0000 0.0000
# 3 33.8337 72.8840 143.9063 0.0000 0.0000 0.0000
# 4 0.0000 0.0000 0.0000 14.9819 0.0000 0.0000
# 5 0.0000 0.0000 0.0000 0.0000 7.2645 0.0000
# 6 0.0000 0.0000 0.0000 0.0000 0.0000 6.2909
#
#
#
# Elastic Compliance Matrix: (Units=1/GPa)
#
#
# Indices 1 2 3 4 5 6 
#
# 1 0.042006 -0.013868 -0.002853 0.000000 0.000000 0.000000
# 2 -0.013868 0.019938 -0.006837 0.000000 0.000000 0.000000
# 3 -0.002853 -0.006837 0.011083 0.000000 0.000000 0.000000
# 4 0.000000 0.000000 0.000000 0.066747 0.000000 0.000000
# 5 0.000000 0.000000 0.000000 0.000000 0.137656 0.000000
# 6 0.000000 0.000000 0.000000 0.000000 0.000000 0.158959
#
#
# Mechanical properties :
#
#
# Convention : Reuss Voigt Hill
#
# Bulk Modulus (GPa) = 38.59288 63.94174 51.26731
# Shear Modulus (GPa) = 10.15968 15.00314 12.58141
#
# Velocity S-wave (km/s) = 2.49726 3.03469 2.77900
# Velocity P-wave (km/s) = 5.65725 7.17833 6.46270
#
# Compressibility (1/GPa) = 0.02591151
#
# Stress axis : x y z
#
# Youngs Moduli (GPa) = 23.80586 50.15648 90.23187
#
# Poissons Ratio (x) = 0.69555 0.25740
# Poissons Ratio (y) = 0.33013 0.61695
# Poissons Ratio (z) = 0.06791 0.34294
#
# Static dielectric constant tensor:
#      x y z
#    x 1.547130 0.000000 0.000000 
#    y 0.000000 1.550970 0.000000 
#    z 0.000000 0.000000 1.548560 
# 
# From -- ./inp_files/23724.got.cif
#   From: 2010.05.17/outbox.cif.g08.bks.cpg/sg51_12_cif.got.tgz:23724.got - 2010.06.03 11:52:47.
