data_PCOD9402318
_publ_section_title
;
Structure prediction by ZEFSAII (Michael W. Deem and Ramdas Pophale) SiO2 
 PCOD9402318
Probable space group: P M M A
;
_chemical_formula_sum "Si O2"
_cell_formula_units_Z 48
_cell_length_a 15.236124
_cell_length_b 28.845192
_cell_length_c 5.124167
_cell_angle_alpha 90.000000
_cell_angle_beta 90.000000
_cell_angle_gamma 90.000000
_cell_volume 2252.014632
_symmetry_space_group_name_H-M "P M M A"
_symmetry_group_IT_number 51
_symmetry_cell_setting 'orthorhombic'
loop_
_space_group_symop_operation_xyz
x,y,z
1/2-x,-y,z
1/2+x,-y,-z
-x,y,-z
-x,-y,-z
1/2+x,y,-z
1/2-x,y,z
x,-y,z
loop_
_atom_site_type_symbol
_atom_site_label
_atom_site_fract_x
_atom_site_fract_y
_atom_site_fract_z
Si Si1 0.849955 0.297859 0.381567
Si Si2 0.062560 0.949303 0.249220
Si Si3 0.142202 0.200409 0.842286
Si Si4 0.598529 0.351683 0.888662
Si Si5 0.145089 0.147922 0.342537
Si Si6 0.936921 0.551007 0.748610
O O1 0.750000 0.288412 0.468320
O O2 0.887461 0.250158 0.263981
O O3 0.895983 0.319046 0.635159
O O4 0.848866 0.332770 0.136356
O O5 0.121977 0.904112 0.264674
O O6 0.000000 0.948522 0.500000
O O7 0.107882 0.000000 0.242291
O O8 0.000000 0.946202 0.000000
O O9 0.250000 0.202276 0.852509
O O10 0.114350 0.162200 0.629860
O O11 0.111648 0.184309 0.126144
O O12 0.621890 0.403726 0.795323
O O13 0.500000 0.352725 0.000000
O O14 0.250000 0.152201 0.346726
O O15 0.894841 0.500000 0.715647
O O16 0.000000 0.559359 0.500000
O O17 0.000000 0.548180 0.000000
#
# Coordination Sequence:
#
# PCOD9402318 Si02
#       6
#     8   8   8   8   8   8
#     4  11  22  38  58  79 111 154 189 217 275 352
#     4  10  21  37  55  77 109 143 170 205 264 328
#     4   9  19  35  55  78 105 141 180 218 261 317
#     4  11  21  36  57  84 113 140 183 242 281 314
#     4  10  19  35  58  80 102 133 181 228 257 296
#     4   9  17  31  53  79 106 140 180 222 273 329
#
# _framework density 21.314247000000002
#
# number of rings (size 3 to 8) (size 9 to 14) (size 15 to 20)
#    0.000    2.000    0.000    5.000    0.000    3.000 
#    0.000    8.333    0.000    9.000    0.000    0.000 
#    0.000    0.000    0.000    0.000    0.000    0.000 
#
# Total GULP energy -267991.598898 kJ/mol
# GULP energy per Si atom -5583.158310 kJ/mol
# Density = 2.126573 g / cm^3
# Si number density = 21.314247 Si / 1000 Ang^3
#
#
#
# Elastic Constant Matrix: (Units=GPa)
#
#
# Indices 1 2 3 4 5 6 
#
# 1 16.6458 4.0128 2.8710 0.0000 0.0000 0.0000
# 2 4.0128 101.5493 8.6828 0.0000 0.0000 0.0000
# 3 2.8710 8.6828 129.5565 0.0000 0.0000 0.0000
# 4 0.0000 0.0000 0.0000 35.4474 0.0000 0.0000
# 5 0.0000 0.0000 0.0000 0.0000 20.6300 0.0000
# 6 0.0000 0.0000 0.0000 0.0000 0.0000 33.9340
#
#
#
# Elastic Compliance Matrix: (Units=1/GPa)
#
#
# Indices 1 2 3 4 5 6 
#
# 1 0.060836 -0.002302 -0.001194 0.000000 0.000000 0.000000
# 2 -0.002302 0.009991 -0.000619 0.000000 0.000000 0.000000
# 3 -0.001194 -0.000619 0.007787 0.000000 0.000000 0.000000
# 4 0.000000 0.000000 0.000000 0.028211 0.000000 0.000000
# 5 0.000000 0.000000 0.000000 0.000000 0.048473 0.000000
# 6 0.000000 0.000000 0.000000 0.000000 0.000000 0.029469
#
#
# Mechanical properties :
#
#
# Convention : Reuss Voigt Hill
#
# Bulk Modulus (GPa) = 14.20752 30.98722 22.59737
# Shear Modulus (GPa) = 23.09922 33.48127 28.29025
#
# Velocity S-wave (km/s) = 3.29560 3.96768 3.64716
# Velocity P-wave (km/s) = 4.60017 5.96321 5.32547
#
# Compressibility (1/GPa) = 0.07038527
#
# Stress axis : x y z
#
# Youngs Moduli (GPa) = 16.43757 100.08722 128.42652
#
# Poissons Ratio (x) = 0.23039 0.15333
# Poissons Ratio (y) = 0.03784 0.07944
# Poissons Ratio (z) = 0.01962 0.06191
#
# Static dielectric constant tensor:
#      x y z
#    x 1.789180 0.000000 0.000000 
#    y 0.000000 1.825150 0.000000 
#    z 0.000000 0.000000 1.737380 
# 
# From -- ./inp_files/1447.got.cif
#   From: 2010.05.17/outbox.cif.g08.bks.cpg/sg51_1_cif.got.tgz:1447.got - 2010.06.03 11:52:47.
