data_PCOD9402896
_publ_section_title
;
Structure prediction by ZEFSAII (Michael W. Deem and Ramdas Pophale) SiO2 
 PCOD9402896
Probable space group: P M M A
;
_chemical_formula_sum "Si O2"
_cell_formula_units_Z 64
_cell_length_a 19.069157
_cell_length_b 9.296935
_cell_length_c 20.740029
_cell_angle_alpha 90.000000
_cell_angle_beta 90.000000
_cell_angle_gamma 90.000000
_cell_volume 3676.890092
_symmetry_space_group_name_H-M "P M M A"
_symmetry_group_IT_number 51
_symmetry_cell_setting 'orthorhombic'
loop_
_space_group_symop_operation_xyz
x,y,z
1/2-x,-y,z
1/2+x,-y,-z
-x,y,-z
-x,-y,-z
1/2+x,y,-z
1/2-x,y,z
x,-y,z
loop_
_atom_site_type_symbol
_atom_site_label
_atom_site_fract_x
_atom_site_fract_y
_atom_site_fract_z
Si Si1 0.832859 0.671172 0.713008
Si Si2 0.405997 0.328897 0.793863
Si Si3 0.924730 0.171092 0.966807
Si Si4 0.933394 0.328752 0.830932
Si Si5 0.164524 0.834252 0.416853
Si Si6 0.835399 0.665637 0.455463
Si Si7 0.666011 0.829555 0.324708
Si Si8 0.166729 0.330568 0.929464
O O1 0.750000 0.697821 0.723488
O O2 0.841398 0.500000 0.701306
O O3 0.877414 0.709652 0.775890
O O4 0.856077 0.757474 0.649632
O O5 0.395348 0.500000 0.782464
O O6 0.488430 0.302864 0.804125
O O7 0.373989 0.240231 0.735195
O O8 0.367430 0.291383 0.860845
O O9 0.922662 0.243212 0.896803
O O10 0.916477 0.000000 0.961681
O O11 0.866905 0.238800 0.013672
O O12 0.000000 0.201274 0.000000
O O13 0.927302 0.500000 0.844043
O O14 0.250000 0.833042 0.417829
O O15 0.141033 0.746330 0.479729
O O16 0.142060 0.000000 0.419341
O O17 0.750000 0.664889 0.456965
O O18 0.858569 0.500000 0.453709
O O19 0.855294 0.751275 0.391065
O O20 0.750000 0.807820 0.316326
O O21 0.653575 0.000000 0.329071
O O22 0.250000 0.312515 0.926307
O O23 0.151274 0.500000 0.940537
#
# Coordination Sequence:
#
# PCOD9402896 Si02
#       8
#     8   8   8   8   8   8   8   8
#     4   9  18  33  53  79 108 136 172 218 266 316
#     4  10  20  35  55  77 104 140 182 223 264 316
#     4  11  23  38  57  81 110 143 178 219 271 328
#     4  10  21  37  59  81 105 142 183 222 264 317
#     4   9  16  27  46  73 105 139 174 215 265 318
#     4   9  16  27  46  72 102 138 179 221 264 312
#     4  10  20  32  48  74 108 142 176 219 270 321
#     4  10  21  37  59  84 108 140 183 227 270 319
#
# _framework density 17.406013999999999
#
# number of rings (size 3 to 8) (size 9 to 14) (size 15 to 20)
#    0.000    2.250    1.250    1.875    0.000    7.000 
#    0.000    1.250    0.000    0.750    0.000    5.250 
#    0.000    0.000    0.000    0.000    0.000    0.000 
#
# Total GULP energy -357194.832494 kJ/mol
# GULP energy per Si atom -5581.169258 kJ/mol
# Density = 1.736640 g / cm^3
# Si number density = 17.406014 Si / 1000 Ang^3
#
#
#
# Elastic Constant Matrix: (Units=GPa)
#
#
# Indices 1 2 3 4 5 6 
#
# 1 47.8518 49.6374 63.9145 0.0000 0.0000 0.0000
# 2 49.6374 101.1091 111.1394 0.0000 0.0000 0.0000
# 3 63.9145 111.1394 198.7273 0.0000 0.0000 0.0000
# 4 0.0000 0.0000 0.0000 1.8078 0.0000 0.0000
# 5 0.0000 0.0000 0.0000 0.0000 1.4323 0.0000
# 6 0.0000 0.0000 0.0000 0.0000 0.0000 18.3364
#
#
#
# Elastic Compliance Matrix: (Units=1/GPa)
#
#
# Indices 1 2 3 4 5 6 
#
# 1 0.044761 -0.015964 -0.005468 0.000000 0.000000 0.000000
# 2 -0.015964 0.031365 -0.012407 0.000000 0.000000 0.000000
# 3 -0.005468 -0.012407 0.013729 0.000000 0.000000 0.000000
# 4 0.000000 0.000000 0.000000 0.553171 0.000000 0.000000
# 5 0.000000 0.000000 0.000000 0.000000 0.698192 0.000000
# 6 0.000000 0.000000 0.000000 0.000000 0.000000 0.054536
#
#
# Mechanical properties :
#
#
# Convention : Reuss Voigt Hill
#
# Bulk Modulus (GPa) = 45.09031 88.56343 66.82687
# Shear Modulus (GPa) = 3.39945 12.51508 7.95727
#
# Velocity S-wave (km/s) = 1.39903 2.68434 2.14044
# Velocity P-wave (km/s) = 5.34518 7.78454 6.67720
#
# Compressibility (1/GPa) = 0.02217772
#
# Stress axis : x y z
#
# Youngs Moduli (GPa) = 22.34076 31.88267 72.83755
#
# Poissons Ratio (x) = 0.50898 0.39828
# Poissons Ratio (y) = 0.35665 0.90367
# Poissons Ratio (z) = 0.12216 0.39556
#
# Static dielectric constant tensor:
#      x y z
#    x 1.578740 0.000000 0.000000 
#    y 0.000000 1.581810 0.000000 
#    z 0.000000 0.000000 1.558250 
# 
# From -- ./inp_files/33800.got.cif
#   From: 2010.05.17/outbox.cif.g08.bks.cpg/sg51_17_cif.got.tgz:33800.got - 2010.06.03 11:52:47.
