data_PCOD9402558
_publ_section_title
;
Structure prediction by ZEFSAII (Michael W. Deem and Ramdas Pophale) SiO2 
 PCOD9402558
Probable space group: P M M A
;
_chemical_formula_sum "Si O2"
_cell_formula_units_Z 64
_cell_length_a 9.405186
_cell_length_b 17.669479
_cell_length_c 28.643521
_cell_angle_alpha 90.000000
_cell_angle_beta 90.000000
_cell_angle_gamma 90.000000
_cell_volume 4760.115990
_symmetry_space_group_name_H-M "P M M A"
_symmetry_group_IT_number 51
_symmetry_cell_setting 'orthorhombic'
loop_
_space_group_symop_operation_xyz
x,y,z
1/2-x,-y,z
1/2+x,-y,-z
-x,y,-z
-x,-y,-z
1/2+x,y,-z
1/2-x,y,z
x,-y,z
loop_
_atom_site_type_symbol
_atom_site_label
_atom_site_fract_x
_atom_site_fract_y
_atom_site_fract_z
Si Si1 0.913156 0.408544 0.362210
Si Si2 0.088650 0.415374 0.098815
Si Si3 0.084740 0.296867 0.183738
Si Si4 0.414751 0.407734 0.453572
Si Si5 0.593058 0.686831 0.040968
Si Si6 0.421359 0.411433 0.266431
Si Si7 0.587295 0.811934 0.121754
Si Si8 0.415447 0.090984 0.048324
O O1 0.750000 0.381074 0.361620
O O2 0.906714 0.500000 0.365917
O O3 0.001663 0.382167 0.407291
O O4 0.997312 0.393751 0.314404
O O5 0.250000 0.412441 0.080914
O O6 0.059247 0.500000 0.115305
O O7 0.081147 0.357323 0.141483
O O8 0.981350 0.388481 0.059500
O O9 0.250000 0.273437 0.189791
O O10 0.040446 0.347734 0.228184
O O11 0.989557 0.226149 0.166593
O O12 0.500000 0.384858 0.500000
O O13 0.250000 0.383615 0.454109
O O14 0.413553 0.500000 0.453062
O O15 0.750000 0.672576 0.023798
O O16 0.596992 0.744283 0.083914
O O17 0.500000 0.720571 0.000000
O O18 0.250000 0.408676 0.272719
O O19 0.454090 0.500000 0.253209
O O20 0.750000 0.837033 0.131333
O O21 0.493303 0.872873 0.093342
O O22 0.250000 0.116604 0.045063
O O23 0.415583 0.000000 0.052994
O O24 0.500000 0.107642 0.000000
#
# Coordination Sequence:
#
# PCOD9402558 Si02
#       8
#     8   8   8   8   8   8   8   8
#     4   9  16  24  33  47  67  90 117 151 192 235
#     4   9  17  29  43  56  69  87 113 145 179 214
#     4   9  17  29  44  59  75  96 122 152 186 222
#     4   9  15  22  32  45  62  85 113 146 186 234
#     4  10  20  31  42  56  72  92 116 140 169 204
#     4   9  16  26  40  56  73  95 125 161 200 238
#     4  10  20  32  46  63  82 102 123 146 172 207
#     4  10  20  33  50  71  91 108 124 142 168 205
#
# _framework density 13.445050999999999
#
# number of rings (size 3 to 8) (size 9 to 14) (size 15 to 20)
#    0.000    2.625    0.000    2.625    0.000    8.750 
#    0.000    0.000    0.000    2.250    0.000    0.000 
#    0.000    0.000    0.000    0.000    0.000    0.000 
#
# Total GULP energy -356299.680970 kJ/mol
# GULP energy per Si atom -5567.182515 kJ/mol
# Density = 1.341445 g / cm^3
# Si number density = 13.445051 Si / 1000 Ang^3
#
#
#
# Elastic Constant Matrix: (Units=GPa)
#
#
# Indices 1 2 3 4 5 6 
#
# 1 102.8335 27.4273 53.8259 0.0000 0.0000 0.0000
# 2 27.4273 30.7216 17.8473 0.0000 0.0000 0.0000
# 3 53.8259 17.8473 85.9005 0.0000 0.0000 0.0000
# 4 0.0000 0.0000 0.0000 3.7075 0.0000 0.0000
# 5 0.0000 0.0000 0.0000 0.0000 20.5383 0.0000
# 6 0.0000 0.0000 0.0000 0.0000 0.0000 4.6498
#
#
#
# Elastic Compliance Matrix: (Units=1/GPa)
#
#
# Indices 1 2 3 4 5 6 
#
# 1 0.016853 -0.010134 -0.008454 0.000000 0.000000 0.000000
# 2 -0.010134 0.043112 -0.002607 0.000000 0.000000 0.000000
# 3 -0.008454 -0.002607 0.017481 0.000000 0.000000 0.000000
# 4 0.000000 0.000000 0.000000 0.269725 0.000000 0.000000
# 5 0.000000 0.000000 0.000000 0.000000 0.048689 0.000000
# 6 0.000000 0.000000 0.000000 0.000000 0.000000 0.215062
#
#
# Mechanical properties :
#
#
# Convention : Reuss Voigt Hill
#
# Bulk Modulus (GPa) = 28.52726 46.40631 37.46679
# Shear Modulus (GPa) = 7.51882 13.80279 10.66080
#
# Velocity S-wave (km/s) = 2.36736 3.20755 2.81893
# Velocity P-wave (km/s) = 5.36062 6.95042 6.20663
#
# Compressibility (1/GPa) = 0.03505419
#
# Stress axis : x y z
#
# Youngs Moduli (GPa) = 59.33770 23.19516 57.20584
#
# Poissons Ratio (x) = 0.23506 0.48365
# Poissons Ratio (y) = 0.60133 0.14915
# Poissons Ratio (z) = 0.50167 0.06048
#
# Static dielectric constant tensor:
#      x y z
#    x 1.663850 0.000000 0.000000 
#    y 0.000000 1.426680 0.000000 
#    z 0.000000 0.000000 1.439610 
# 
# From -- ./inp_files/36469.got.cif
#   From: 2010.05.17/outbox.cif.g08.bks.cpg/sg51_19_cif.got.tgz:36469.got - 2010.06.03 11:52:47.
