data_PCOD9402171
_publ_section_title
;
Structure prediction by ZEFSAII (Michael W. Deem and Ramdas Pophale) SiO2 
 PCOD9402171
Probable space group: P M M A
;
_chemical_formula_sum "Si O2"
_cell_formula_units_Z 64
_cell_length_a 18.713488
_cell_length_b 20.736638
_cell_length_c 9.372913
_cell_angle_alpha 90.000000
_cell_angle_beta 90.000000
_cell_angle_gamma 90.000000
_cell_volume 3637.204127
_symmetry_space_group_name_H-M "P M M A"
_symmetry_group_IT_number 51
_symmetry_cell_setting 'orthorhombic'
loop_
_space_group_symop_operation_xyz
x,y,z
1/2-x,-y,z
1/2+x,-y,-z
-x,y,-z
-x,-y,-z
1/2+x,y,-z
1/2-x,y,z
x,-y,z
loop_
_atom_site_type_symbol
_atom_site_label
_atom_site_fract_x
_atom_site_fract_y
_atom_site_fract_z
Si Si1 0.334875 0.927174 0.185270
Si Si2 0.335747 0.425597 0.677383
Si Si3 0.834856 0.424737 0.657573
Si Si4 0.914475 0.314700 0.823502
Si Si5 0.571222 0.925142 0.088498
Si Si6 0.586224 0.687990 0.157509
Si Si7 0.592406 0.811756 0.646256
Si Si8 0.420741 0.817601 0.679884
O O1 0.250000 0.919505 0.188930
O O2 0.373012 0.872764 0.277044
O O3 0.352917 0.000000 0.235158
O O4 0.365031 0.922077 0.025219
O O5 0.250000 0.420687 0.693961
O O6 0.355760 0.500000 0.710498
O O7 0.351907 0.413881 0.509831
O O8 0.374851 0.372924 0.772644
O O9 0.750000 0.413398 0.675766
O O10 0.848475 0.500000 0.688149
O O11 0.879742 0.378145 0.757078
O O12 0.888250 0.254157 0.728563
O O13 0.000728 0.319128 0.820152
O O14 0.896682 0.306684 0.990083
O O15 0.589005 0.880684 0.222823
O O16 0.558738 0.000000 0.129144
O O17 0.500000 0.903140 0.000000
O O18 0.605357 0.754791 0.235078
O O19 0.506594 0.814340 0.660907
O O20 0.610810 0.815045 0.479002
#
# Coordination Sequence:
#
# PCOD9402171 Si02
#       8
#     8   8   8   8   8   8   8   8
#     4  10  21  37  56  80 113 149 182 222 277 334
#     4   9  19  37  58  79 107 142 181 226 274 327
#     4   9  19  36  56  77 103 138 179 223 271 325
#     4  10  21  35  54  78 110 143 179 224 271 321
#     4  10  19  34  58  84 110 144 185 227 272 325
#     4  10  21  35  53  80 110 144 179 223 275 323
#     4  10  20  35  55  81 107 142 182 225 274 324
#     4  10  20  34  57  82 109 138 183 234 271 318
#
# _framework density 17.595934
#
# number of rings (size 3 to 8) (size 9 to 14) (size 15 to 20)
#    0.000    2.250    1.250    2.250    1.750    4.000 
#    0.000    8.125    0.000    1.500    0.000    0.000 
#    0.000    0.000    0.000    0.000    0.000    0.000 
#
# Total GULP energy -357005.235673 kJ/mol
# GULP energy per Si atom -5578.206807 kJ/mol
# Density = 1.755589 g / cm^3
# Si number density = 17.595934 Si / 1000 Ang^3
#
#
#
# Elastic Constant Matrix: (Units=GPa)
#
#
# Indices 1 2 3 4 5 6 
#
# 1 21.0765 36.4445 36.9043 0.0000 0.0000 0.0000
# 2 36.4445 124.0479 102.2597 0.0000 0.0000 0.0000
# 3 36.9043 102.2597 145.5396 0.0000 0.0000 0.0000
# 4 0.0000 0.0000 0.0000 40.7959 0.0000 0.0000
# 5 0.0000 0.0000 0.0000 0.0000 24.1095 0.0000
# 6 0.0000 0.0000 0.0000 0.0000 0.0000 16.8814
#
#
#
# Elastic Compliance Matrix: (Units=1/GPa)
#
#
# Indices 1 2 3 4 5 6 
#
# 1 0.104160 -0.020982 -0.011669 0.000000 0.000000 0.000000
# 2 -0.020982 0.023384 -0.011110 0.000000 0.000000 0.000000
# 3 -0.011669 -0.011110 0.017636 0.000000 0.000000 0.000000
# 4 0.000000 0.000000 0.000000 0.024512 0.000000 0.000000
# 5 0.000000 0.000000 0.000000 0.000000 0.041477 0.000000
# 6 0.000000 0.000000 0.000000 0.000000 0.000000 0.059237
#
#
# Mechanical properties :
#
#
# Convention : Reuss Voigt Hill
#
# Bulk Modulus (GPa) = 17.34371 71.32010 44.33191
# Shear Modulus (GPa) = 13.25737 24.02771 18.64254
#
# Velocity S-wave (km/s) = 2.74785 3.69931 3.25850
# Velocity P-wave (km/s) = 4.46605 7.67246 6.27743
#
# Compressibility (1/GPa) = 0.05765780
#
# Stress axis : x y z
#
# Youngs Moduli (GPa) = 9.60065 42.76343 56.70135
#
# Poissons Ratio (x) = 0.89725 0.66167
# Poissons Ratio (y) = 0.20144 0.62996
# Poissons Ratio (z) = 0.11203 0.47511
#
# Static dielectric constant tensor:
#      x y z
#    x 1.585360 0.000000 0.000000 
#    y 0.000000 1.590160 0.000000 
#    z 0.000000 0.000000 1.588990 
# 
# From -- ./inp_files/10029.got.cif
#   From: 2010.05.17/outbox.cif.g08.bks.cpg/sg51_6_cif.got.tgz:10029.got - 2010.06.03 11:52:47.
