data_PCOD9402136
_publ_section_title
;
Structure prediction by ZEFSAII (Michael W. Deem and Ramdas Pophale) SiO2 
 PCOD9402136
Probable space group: P M M A
;
_chemical_formula_sum "Si O2"
_cell_formula_units_Z 34
_cell_length_a 22.871270
_cell_length_b 7.719114
_cell_length_c 10.888058
_cell_angle_alpha 90.000000
_cell_angle_beta 90.000000
_cell_angle_gamma 90.000000
_cell_volume 1922.242439
_symmetry_space_group_name_H-M "P M M A"
_symmetry_group_IT_number 51
_symmetry_cell_setting 'orthorhombic'
loop_
_space_group_symop_operation_xyz
x,y,z
1/2-x,-y,z
1/2+x,-y,-z
-x,y,-z
-x,-y,-z
1/2+x,y,-z
1/2-x,y,z
x,-y,z
loop_
_atom_site_type_symbol
_atom_site_label
_atom_site_fract_x
_atom_site_fract_y
_atom_site_fract_z
Si Si1 0.131053 0.792619 0.411491
Si Si2 0.615966 0.199808 0.304344
Si Si3 0.993618 0.296092 0.639894
Si Si4 0.250000 0.790466 0.271816
Si Si5 0.250000 0.500000 0.068674
Si Si6 0.183633 0.500000 0.829112
O O1 0.126712 0.737552 0.554348
O O2 0.074745 0.729410 0.334925
O O3 0.192159 0.745801 0.349938
O O4 0.127397 0.000000 0.414073
O O5 0.545797 0.209875 0.284923
O O6 0.649642 0.330694 0.216531
O O7 0.635102 0.000000 0.293335
O O8 0.006323 0.500000 0.640011
O O9 0.000000 0.227776 0.500000
O O10 0.250000 0.671208 0.151778
O O11 0.250000 0.000000 0.249015
O O12 0.195118 0.500000 0.975023
O O13 0.250000 0.500000 0.776194
#
# Coordination Sequence:
#
# PCOD9402136 Si02
#       6
#     8   8   8   4   2   4
#     4   9  19  32  53  87 116 144 179 212 267 335
#     4  10  19  34  57  84 118 146 169 216 274 325
#     4   9  16  28  49  82 119 150 173 203 259 331
#     4  10  22  39  57  79 107 140 187 232 268 320
#     4  10  26  42  56  72 102 146 192 230 282 310
#     4  10  24  39  52  80 107 135 194 226 259 336
#
# _framework density 17.687676
#
# number of rings (size 3 to 8) (size 9 to 14) (size 15 to 20)
#    0.353    2.118    1.176    0.706    4.941    4.235 
#    0.000    0.000    0.000    2.824    0.000    4.941 
#    0.000    0.000    0.000    0.000    0.000    0.000 
#
# Total GULP energy -189373.426534 kJ/mol
# GULP energy per Si atom -5569.806663 kJ/mol
# Density = 1.764742 g / cm^3
# Si number density = 17.687676 Si / 1000 Ang^3
#
#
#
# Elastic Constant Matrix: (Units=GPa)
#
#
# Indices 1 2 3 4 5 6 
#
# 1 138.7052 41.8040 42.6580 0.0000 0.0000 0.0000
# 2 41.8040 77.1795 34.4637 0.0000 0.0000 0.0000
# 3 42.6580 34.4637 66.5394 0.0000 0.0000 0.0000
# 4 0.0000 0.0000 0.0000 23.1941 0.0000 0.0000
# 5 0.0000 0.0000 0.0000 0.0000 -4.9340 0.0000
# 6 0.0000 0.0000 0.0000 0.0000 0.0000 27.1431
#
#
#
# Elastic Compliance Matrix: (Units=1/GPa)
#
#
# Indices 1 2 3 4 5 6 
#
# 1 0.009541 -0.003170 -0.004475 0.000000 0.000000 0.000000
# 2 -0.003170 0.017908 -0.007243 0.000000 0.000000 0.000000
# 3 -0.004475 -0.007243 0.021649 0.000000 0.000000 0.000000
# 4 0.000000 0.000000 0.000000 0.043114 0.000000 0.000000
# 5 0.000000 0.000000 0.000000 0.000000 -0.202674 0.000000
# 6 0.000000 0.000000 0.000000 0.000000 0.000000 0.036842
#
#
# Mechanical properties :
#
#
# Convention : Reuss Voigt Hill
#
# Bulk Modulus (GPa) = 51.75346 57.80839 54.78092
# Shear Modulus (GPa) = -133.68190 19.98053 -56.85068
#
# Velocity S-wave (km/s) = -8.70306 3.36464 -5.67549
# Velocity P-wave (km/s) = 8.46568 6.91724 3.45105
#
# Compressibility (1/GPa) = 0.01932238
#
# Stress axis : x y z
#
# Youngs Moduli (GPa) = 104.80984 55.84076 46.19091
#
# Poissons Ratio (x) = 0.17699 0.20671
# Poissons Ratio (y) = 0.33221 0.33458
# Poissons Ratio (z) = 0.46903 0.40448
#
# Static dielectric constant tensor:
#      x y z
#    x 1.648560 0.000000 0.000000 
#    y 0.000000 1.613520 0.000000 
#    z 0.000000 0.000000 1.579040 
# 
# From -- ./inp_files/10433.got.cif
#   From: 2010.05.17/outbox.cif.g08.bks.cpg/sg51_6_cif.got.tgz:10433.got - 2010.06.03 11:52:47.
