data_PCOD9402138
_publ_section_title
;
Structure prediction by ZEFSAII (Michael W. Deem and Ramdas Pophale) SiO2 
 PCOD9402138
Probable space group: P M M A
;
_chemical_formula_sum "Si O2"
_cell_formula_units_Z 48
_cell_length_a 14.645124
_cell_length_b 27.600211
_cell_length_c 5.248329
_cell_angle_alpha 90.000000
_cell_angle_beta 90.000000
_cell_angle_gamma 90.000000
_cell_volume 2121.419258
_symmetry_space_group_name_H-M "P M M A"
_symmetry_group_IT_number 51
_symmetry_cell_setting 'orthorhombic'
loop_
_space_group_symop_operation_xyz
x,y,z
1/2-x,-y,z
1/2+x,-y,-z
-x,y,-z
-x,-y,-z
1/2+x,y,-z
1/2-x,y,z
x,-y,z
loop_
_atom_site_type_symbol
_atom_site_label
_atom_site_fract_x
_atom_site_fract_y
_atom_site_fract_z
Si Si1 0.858453 0.707596 0.134770
Si Si2 0.436709 0.395044 0.750317
Si Si3 0.108184 0.055312 0.447792
Si Si4 0.750000 0.892104 0.224911
Si Si5 0.861321 0.759750 0.630856
Si Si6 0.398216 0.142536 0.090480
Si Si7 0.064269 0.500000 0.749309
O O1 0.750000 0.714370 0.126667
O O2 0.877156 0.652734 0.217518
O O3 0.895505 0.742472 0.356760
O O4 0.891766 0.722429 0.854047
O O5 0.500000 0.391041 0.500000
O O6 0.387084 0.447659 0.743303
O O7 0.500000 0.395814 0.000000
O O8 0.169460 0.069567 0.687055
O O9 0.137454 0.094843 0.238716
O O10 0.000000 0.061150 0.500000
O O11 0.123627 0.000000 0.368244
O O12 0.829305 0.852573 0.141999
O O13 0.750000 0.760451 0.624867
O O14 0.892393 0.812362 0.721459
O O15 0.500000 0.134899 0.000000
O O16 0.000000 0.500000 0.500000
O O17 0.000000 0.500000 0.000000
#
# Coordination Sequence:
#
# PCOD9402138 Si02
#       7
#     8   8   8   4   8   8   4
#     4  10  22  39  60  89 126 164 206 261 323 381
#     4  10  19  34  57  84 119 159 211 260 314 375
#     4  11  26  46  70 101 134 172 219 271 330 406
#     4  12  25  46  72  98 136 172 214 271 344 382
#     4  10  23  40  64  91 127 171 210 261 326 390
#     4  12  26  44  72 100 130 173 222 275 332 410
#     4   8  16  30  51  80 113 158 204 258 312 372
#
# _framework density 22.626362
#
# number of rings (size 3 to 8) (size 9 to 14) (size 15 to 20)
#    0.000    1.500    2.500    1.750    2.333    3.667 
#    0.000    0.417    0.000    0.000    0.000   10.500 
#    0.000    0.000    0.000    0.000    0.000    0.000 
#
# Total GULP energy -267397.323497 kJ/mol
# GULP energy per Si atom -5570.777573 kJ/mol
# Density = 2.257486 g / cm^3
# Si number density = 22.626362 Si / 1000 Ang^3
#
#
#
# Elastic Constant Matrix: (Units=GPa)
#
#
# Indices 1 2 3 4 5 6 
#
# 1 87.5283 10.9077 4.9035 0.0000 0.0000 0.0000
# 2 10.9077 130.5981 23.4261 0.0000 0.0000 0.0000
# 3 4.9035 23.4261 80.4344 0.0000 0.0000 0.0000
# 4 0.0000 0.0000 0.0000 33.1340 0.0000 0.0000
# 5 0.0000 0.0000 0.0000 0.0000 46.4800 0.0000
# 6 0.0000 0.0000 0.0000 0.0000 0.0000 218.4698
#
#
#
# Elastic Compliance Matrix: (Units=1/GPa)
#
#
# Indices 1 2 3 4 5 6 
#
# 1 0.011560 -0.000885 -0.000447 0.000000 0.000000 0.000000
# 2 -0.000885 0.008147 -0.002319 0.000000 0.000000 0.000000
# 3 -0.000447 -0.002319 0.013135 0.000000 0.000000 0.000000
# 4 0.000000 0.000000 0.000000 0.030180 0.000000 0.000000
# 5 0.000000 0.000000 0.000000 0.000000 0.021515 0.000000
# 6 0.000000 0.000000 0.000000 0.000000 0.000000 0.004577
#
#
# Mechanical properties :
#
#
# Convention : Reuss Voigt Hill
#
# Bulk Modulus (GPa) = 39.15397 41.89283 40.52340
# Shear Modulus (GPa) = 47.65072 76.90497 62.27784
#
# Velocity S-wave (km/s) = 4.59408 5.83634 5.25207
# Velocity P-wave (km/s) = 6.74410 7.99828 7.39781
#
# Compressibility (1/GPa) = 0.02554020
#
# Stress axis : x y z
#
# Youngs Moduli (GPa) = 86.50335 122.74516 76.13203
#
# Poissons Ratio (x) = 0.10867 0.03402
# Poissons Ratio (y) = 0.07659 0.17653
# Poissons Ratio (z) = 0.03866 0.28462
#
# Static dielectric constant tensor:
#      x y z
#    x 1.806030 0.000000 0.000000 
#    y 0.000000 1.856500 0.000000 
#    z 0.000000 0.000000 2.014730 
# 
# From -- ./inp_files/1466.got.cif
#   From: 2010.05.17/outbox.cif.g08.bks.cpg/sg51_1_cif.got.tgz:1466.got - 2010.06.03 11:52:47.
