data_PCOD9402164
_publ_section_title
;
Structure prediction by ZEFSAII (Michael W. Deem and Ramdas Pophale) SiO2 
 PCOD9402164
Probable space group: P M M A
;
_chemical_formula_sum "Si O2"
_cell_formula_units_Z 56
_cell_length_a 8.299426
_cell_length_b 21.935390
_cell_length_c 15.892998
_cell_angle_alpha 90.000000
_cell_angle_beta 90.000000
_cell_angle_gamma 90.000000
_cell_volume 2893.338501
_symmetry_space_group_name_H-M "P M M A"
_symmetry_group_IT_number 51
_symmetry_cell_setting 'orthorhombic'
loop_
_space_group_symop_operation_xyz
x,y,z
1/2-x,-y,z
1/2+x,-y,-z
-x,y,-z
-x,-y,-z
1/2+x,y,-z
1/2-x,y,z
x,-y,z
loop_
_atom_site_type_symbol
_atom_site_label
_atom_site_fract_x
_atom_site_fract_y
_atom_site_fract_z
Si Si1 0.942640 0.631278 0.408161
Si Si2 0.944801 0.289268 0.748973
Si Si3 0.944801 0.500000 0.847642
Si Si4 0.944750 0.500000 0.345534
Si Si5 0.055404 0.850271 0.250590
Si Si6 0.557149 0.929967 0.406831
Si Si7 0.944501 0.929836 0.907366
Si Si8 0.444375 0.631619 0.091495
O O1 0.750000 0.630556 0.406765
O O2 0.001877 0.562214 0.389374
O O3 0.000000 0.650946 0.500000
O O4 0.002410 0.674738 0.333924
O O5 0.750000 0.288874 0.750668
O O6 0.001790 0.219495 0.748720
O O7 0.000290 0.325770 0.831907
O O8 0.750000 0.500000 0.849047
O O9 0.001407 0.437709 0.891291
O O10 0.999274 0.500000 0.750945
O O11 0.750000 0.500000 0.346940
O O12 0.250000 0.849219 0.247353
O O13 0.998041 0.886921 0.168101
O O14 0.005786 0.886299 0.334047
O O15 0.500000 0.911667 0.500000
O O16 0.750000 0.929792 0.405507
O O17 0.500804 0.000000 0.392514
O O18 0.750000 0.929945 0.906392
O O19 0.998998 0.000000 0.894563
O O20 0.000000 0.910126 0.000000
O O21 0.250000 0.631154 0.092898
O O22 0.500000 0.652355 0.000000
#
# Coordination Sequence:
#
# PCOD9402164 Si02
#       8
#     8   8   4   4   8   8   8   8
#     4  11  23  39  60  85 112 145 184 229 282 337
#     4  10  22  40  58  80 112 150 192 234 275 327
#     4  10  19  34  58  83 111 147 183 229 285 334
#     4  10  21  36  58  87 113 139 179 231 283 336
#     4  10  21  37  58  82 112 151 191 231 277 328
#     4  10  21  37  59  87 116 146 183 229 279 332
#     4   9  18  33  54  81 112 145 182 226 275 325
#     4  10  21  36  56  82 111 147 188 231 282 335
#
# _framework density 19.354803
#
# number of rings (size 3 to 8) (size 9 to 14) (size 15 to 20)
#    0.000    2.000    1.429    1.714    0.000    5.429 
#    0.000    1.429    0.000    0.000    0.000    0.000 
#    0.000    0.000    0.000    0.000    0.000    0.000 
#
# Total GULP energy -312813.197390 kJ/mol
# GULP energy per Si atom -5585.949953 kJ/mol
# Density = 1.931075 g / cm^3
# Si number density = 19.354803 Si / 1000 Ang^3
#
#
#
# Elastic Constant Matrix: (Units=GPa)
#
#
# Indices 1 2 3 4 5 6 
#
# 1 7.0530 21.2055 13.7710 0.0000 0.0000 0.0000
# 2 21.2055 153.3615 118.3591 0.0000 0.0000 0.0000
# 3 13.7710 118.3591 203.1830 0.0000 0.0000 0.0000
# 4 0.0000 0.0000 0.0000 -4.7847 0.0000 0.0000
# 5 0.0000 0.0000 0.0000 0.0000 36.1051 0.0000
# 6 0.0000 0.0000 0.0000 0.0000 0.0000 15.9230
#
#
#
# Elastic Compliance Matrix: (Units=1/GPa)
#
#
# Indices 1 2 3 4 5 6 
#
# 1 0.246264 -0.038461 0.005713 0.000000 0.000000 0.000000
# 2 -0.038461 0.017853 -0.007793 0.000000 0.000000 0.000000
# 3 0.005713 -0.007793 0.009074 0.000000 0.000000 0.000000
# 4 0.000000 0.000000 0.000000 -0.208998 0.000000 0.000000
# 5 0.000000 0.000000 0.000000 0.000000 0.027697 0.000000
# 6 0.000000 0.000000 0.000000 0.000000 0.000000 0.062802
#
#
# Mechanical properties :
#
#
# Convention : Reuss Voigt Hill
#
# Bulk Modulus (GPa) = 5.20534 74.47429 39.83981
# Shear Modulus (GPa) = 16.67722 23.46614 20.07168
#
# Velocity S-wave (km/s) = 2.93859 3.48576 3.22380
# Velocity P-wave (km/s) = 3.76948 7.40018 5.87246
#
# Compressibility (1/GPa) = 0.19211057
#
# Stress axis : x y z
#
# Youngs Moduli (GPa) = 4.06068 56.01314 110.20392
#
# Poissons Ratio (x) = 2.15430 -0.62964
# Poissons Ratio (y) = 0.15618 0.85883
# Poissons Ratio (z) = -0.02320 0.43651
#
# Static dielectric constant tensor:
#      x y z
#    x 1.673840 0.000000 0.000000 
#    y 0.000000 1.679720 0.000000 
#    z 0.000000 0.000000 1.636860 
# 
# From -- ./inp_files/21902.got.cif
#   From: 2010.05.17/outbox.cif.g08.bks.cpg/sg51_11_cif.got.tgz:21902.got - 2010.06.03 11:52:47.
