data_PCOD9402571
_publ_section_title
;
Structure prediction by ZEFSAII (Michael W. Deem and Ramdas Pophale) SiO2 
 PCOD9402571
Probable space group: P M M A
;
_chemical_formula_sum "Si O2"
_cell_formula_units_Z 48
_cell_length_a 28.820890
_cell_length_b 7.411420
_cell_length_c 11.609171
_cell_angle_alpha 90.000000
_cell_angle_beta 90.000000
_cell_angle_gamma 90.000000
_cell_volume 2479.762118
_symmetry_space_group_name_H-M "P M M A"
_symmetry_group_IT_number 51
_symmetry_cell_setting 'orthorhombic'
loop_
_space_group_symop_operation_xyz
x,y,z
1/2-x,-y,z
1/2+x,-y,-z
-x,y,-z
-x,-y,-z
1/2+x,y,-z
1/2-x,y,z
x,-y,z
loop_
_atom_site_type_symbol
_atom_site_label
_atom_site_fract_x
_atom_site_fract_y
_atom_site_fract_z
Si Si1 0.546782 0.791979 0.940245
Si Si2 0.147233 0.211809 0.987285
Si Si3 0.470285 0.718163 0.323279
Si Si4 0.849374 0.718130 0.284282
Si Si5 0.750000 0.718344 0.269053
Si Si6 0.432744 0.719888 0.560521
Si Si7 0.250000 0.791645 0.000989
O O1 0.597849 0.712697 0.968236
O O2 0.539894 0.787947 0.803246
O O3 0.549010 0.000000 0.981629
O O4 0.500000 0.713695 0.000000
O O5 0.198132 0.285456 0.027978
O O6 0.148411 0.000000 0.018339
O O7 0.144972 0.226756 0.848566
O O8 0.469315 0.500000 0.315897
O O9 0.436488 0.775283 0.427391
O O10 0.521019 0.771313 0.369864
O O11 0.851431 0.500000 0.284331
O O12 0.798192 0.774483 0.324043
O O13 0.888923 0.784727 0.368542
O O14 0.750000 0.500000 0.261547
O O15 0.750000 0.787597 0.138214
O O16 0.432542 0.500000 0.559142
O O17 0.250000 0.000000 0.039844
#
# Coordination Sequence:
#
# PCOD9402571 Si02
#       7
#     8   8   8   8   4   8   4
#     4  10  20  31  42  61  90 114 132 165 212 252
#     4   9  17  28  42  61  85 111 138 169 204 242
#     4   9  17  30  46  62  80 107 143 172 197 237
#     4   9  15  25  42  63  85 107 133 166 206 246
#     4   8  14  22  36  61  86 104 126 163 207 246
#     4   8  15  28  45  62  81 106 136 171 203 236
#     4   8  14  26  42  57  76 108 144 169 195 236
#
# _framework density 19.356695999999999
#
# number of rings (size 3 to 8) (size 9 to 14) (size 15 to 20)
#    0.000    3.167    0.000    2.000    0.000    1.000 
#    0.000    2.500    0.000    1.000    0.000    1.167 
#    0.000    0.000    0.000    0.000    0.000    0.000 
#
# Total GULP energy -267240.926702 kJ/mol
# GULP energy per Si atom -5567.519306 kJ/mol
# Density = 1.931264 g / cm^3
# Si number density = 19.356696 Si / 1000 Ang^3
#
#
#
# Elastic Constant Matrix: (Units=GPa)
#
#
# Indices 1 2 3 4 5 6 
#
# 1 181.1929 8.2452 74.5569 0.0000 0.0000 0.0000
# 2 8.2452 62.7770 -8.6747 0.0000 0.0000 0.0000
# 3 74.5569 -8.6747 90.3467 0.0000 0.0000 0.0000
# 4 0.0000 0.0000 0.0000 17.5540 0.0000 0.0000
# 5 0.0000 0.0000 0.0000 0.0000 28.9123 0.0000
# 6 0.0000 0.0000 0.0000 0.0000 0.0000 1.6966
#
#
#
# Elastic Compliance Matrix: (Units=1/GPa)
#
#
# Indices 1 2 3 4 5 6 
#
# 1 0.008633 -0.002147 -0.007330 0.000000 0.000000 0.000000
# 2 -0.002147 0.016677 0.003373 0.000000 0.000000 0.000000
# 3 -0.007330 0.003373 0.017441 0.000000 0.000000 0.000000
# 4 0.000000 0.000000 0.000000 0.056967 0.000000 0.000000
# 5 0.000000 0.000000 0.000000 0.000000 0.034587 0.000000
# 6 0.000000 0.000000 0.000000 0.000000 0.000000 0.589424
#
#
# Mechanical properties :
#
#
# Convention : Reuss Voigt Hill
#
# Bulk Modulus (GPa) = 32.74021 53.61903 43.17962
# Shear Modulus (GPa) = 6.70134 26.97854 16.83994
#
# Velocity S-wave (km/s) = 1.86267 3.73736 2.95274
# Velocity P-wave (km/s) = 4.64510 6.81061 5.82929
#
# Compressibility (1/GPa) = 0.03054348
#
# Stress axis : x y z
#
# Youngs Moduli (GPa) = 115.83581 59.96131 57.33462
#
# Poissons Ratio (x) = 0.12872 0.42028
# Poissons Ratio (y) = 0.24867 -0.19338
# Poissons Ratio (z) = 0.84911 -0.20224
#
# Static dielectric constant tensor:
#      x y z
#    x 1.749070 0.000000 0.000000 
#    y 0.000000 1.718440 0.000000 
#    z 0.000000 0.000000 1.610620 
# 
# From -- ./inp_files/12895.got.cif
#   From: 2010.05.17/outbox.cif.g08.bks.cpg/sg51_7_cif.got.tgz:12895.got - 2010.06.03 11:52:47.
