data_PCOD9402236
_publ_section_title
;
Structure prediction by ZEFSAII (Michael W. Deem and Ramdas Pophale) SiO2 
 PCOD9402236
Probable space group: P M M A
;
_chemical_formula_sum "Si O2"
_cell_formula_units_Z 64
_cell_length_a 18.334147
_cell_length_b 18.617708
_cell_length_c 9.620951
_cell_angle_alpha 90.000000
_cell_angle_beta 90.000000
_cell_angle_gamma 90.000000
_cell_volume 3284.013445
_symmetry_space_group_name_H-M "P M M A"
_symmetry_group_IT_number 51
_symmetry_cell_setting 'orthorhombic'
loop_
_space_group_symop_operation_xyz
x,y,z
1/2-x,-y,z
1/2+x,-y,-z
-x,y,-z
-x,-y,-z
1/2+x,y,-z
1/2-x,y,z
x,-y,z
loop_
_atom_site_type_symbol
_atom_site_label
_atom_site_fract_x
_atom_site_fract_y
_atom_site_fract_z
Si Si1 0.668974 0.337783 0.005971
Si Si2 0.328903 0.806608 0.813043
Si Si3 0.334315 0.638606 0.440504
Si Si4 0.937101 0.080459 0.616000
Si Si5 0.491641 0.177596 0.835764
Si Si6 0.955065 0.661767 0.772370
Si Si7 0.827902 0.198633 0.510182
Si Si8 0.110064 0.415271 0.738752
O O1 0.750000 0.345034 0.939790
O O2 0.667166 0.260969 0.083998
O O3 0.659413 0.395063 0.128942
O O4 0.599892 0.341273 0.903822
O O5 0.250000 0.843285 0.837756
O O6 0.406616 0.843916 0.821465
O O7 0.328555 0.782728 0.652698
O O8 0.250000 0.613854 0.413068
O O9 0.404337 0.622606 0.344250
O O10 0.334161 0.724740 0.418391
O O11 0.355720 0.617124 0.597364
O O12 0.964216 0.114614 0.760593
O O13 0.884968 0.140141 0.552128
O O14 0.000000 0.076015 0.500000
O O15 0.907307 0.000000 0.634453
O O16 0.516969 0.253959 0.764708
O O17 0.500000 0.186989 0.000000
O O18 0.031172 0.619239 0.772789
O O19 0.750000 0.166462 0.545362
O O20 0.103812 0.500000 0.721621
#
# Coordination Sequence:
#
# PCOD9402236 Si02
#       8
#     8   8   8   8   8   8   8   8
#     4  11  22  39  62  92 126 159 207 263 318 376
#     4  10  19  34  60  92 123 154 205 263 309 362
#     4  11  23  40  64  94 121 158 210 259 315 377
#     4  11  24  39  60  92 128 165 206 252 310 376
#     4  12  21  38  64  93 124 169 210 257 310 363
#     4  12  23  39  64  95 124 161 208 268 314 370
#     4  10  19  36  64  93 121 161 209 260 310 363
#     4  12  26  43  63  88 123 168 215 260 318 388
#
# _framework density 19.488347999999998
#
# number of rings (size 3 to 8) (size 9 to 14) (size 15 to 20)
#    0.000    0.875    6.250    1.500    0.000    3.500 
#    0.000    0.625    0.000    2.625    0.000    0.000 
#    0.000    0.000    0.000    0.000    0.000    0.000 
#
# Total GULP energy -356447.257830 kJ/mol
# GULP energy per Si atom -5569.488404 kJ/mol
# Density = 1.944399 g / cm^3
# Si number density = 19.488348 Si / 1000 Ang^3
#
#
#
# Elastic Constant Matrix: (Units=GPa)
#
#
# Indices 1 2 3 4 5 6 
#
# 1 95.8673 -6.1579 17.2047 0.0000 0.0000 0.0000
# 2 -6.1579 57.1654 7.1745 0.0000 0.0000 0.0000
# 3 17.2047 7.1745 38.1421 0.0000 0.0000 0.0000
# 4 0.0000 0.0000 0.0000 -215.4061 0.0000 0.0000
# 5 0.0000 0.0000 0.0000 0.0000 26.3029 0.0000
# 6 0.0000 0.0000 0.0000 0.0000 0.0000 17.8288
#
#
#
# Elastic Compliance Matrix: (Units=1/GPa)
#
#
# Indices 1 2 3 4 5 6 
#
# 1 0.011557 0.001945 -0.005579 0.000000 0.000000 0.000000
# 2 0.001945 0.018243 -0.004309 0.000000 0.000000 0.000000
# 3 -0.005579 -0.004309 0.029545 0.000000 0.000000 0.000000
# 4 0.000000 0.000000 0.000000 -0.004642 0.000000 0.000000
# 5 0.000000 0.000000 0.000000 0.000000 0.038019 0.000000
# 6 0.000000 0.000000 0.000000 0.000000 0.000000 0.056089
#
#
# Mechanical properties :
#
#
# Convention : Reuss Voigt Hill
#
# Bulk Modulus (GPa) = 23.00977 25.29082 24.15030
# Shear Modulus (GPa) = 27.90445 -22.72464 2.58991
#
# Velocity S-wave (km/s) = 3.78809 -3.41847 1.15405
# Velocity P-wave (km/s) = 5.56466 1.60489 3.76761
#
# Compressibility (1/GPa) = 0.04345980
#
# Stress axis : x y z
#
# Youngs Moduli (GPa) = 86.52572 54.81421 33.84697
#
# Poissons Ratio (x) = -0.10662 0.18883
# Poissons Ratio (y) = -0.16831 0.14585
# Poissons Ratio (z) = 0.48273 0.23619
#
# Static dielectric constant tensor:
#      x y z
#    x 1.747390 0.000000 0.000000 
#    y 0.000000 1.652930 0.000000 
#    z 0.000000 0.000000 1.744860 
# 
# From -- ./inp_files/10072.got.cif
#   From: 2010.05.17/outbox.cif.g08.bks.cpg/sg51_6_cif.got.tgz:10072.got - 2010.06.03 11:52:47.
