data_PCOD9402174
_publ_section_title
;
Structure prediction by ZEFSAII (Michael W. Deem and Ramdas Pophale) SiO2 
 PCOD9402174
Probable space group: P M M A
;
_chemical_formula_sum "Si O2"
_cell_formula_units_Z 56
_cell_length_a 19.107088
_cell_length_b 7.921641
_cell_length_c 16.853775
_cell_angle_alpha 90.000000
_cell_angle_beta 90.000000
_cell_angle_gamma 90.000000
_cell_volume 2550.978817
_symmetry_space_group_name_H-M "P M M A"
_symmetry_group_IT_number 51
_symmetry_cell_setting 'orthorhombic'
loop_
_space_group_symop_operation_xyz
x,y,z
1/2-x,-y,z
1/2+x,-y,-z
-x,y,-z
-x,-y,-z
1/2+x,y,-z
1/2-x,y,z
x,-y,z
loop_
_atom_site_type_symbol
_atom_site_label
_atom_site_fract_x
_atom_site_fract_y
_atom_site_fract_z
Si Si1 0.581404 0.206867 0.502671
Si Si2 0.404076 0.194203 0.325357
Si Si3 0.830574 0.303058 0.007048
Si Si4 0.330492 0.796012 0.651447
Si Si5 0.166921 0.799634 0.168721
Si Si6 0.540286 0.307167 0.256026
Si Si7 0.534463 0.806622 0.079880
O O1 0.500000 0.259386 0.500000
O O2 0.610469 0.265814 0.587948
O O3 0.628473 0.260464 0.428360
O O4 0.581414 0.000000 0.503241
O O5 0.369928 0.272000 0.246889
O O6 0.487229 0.198106 0.309030
O O7 0.379598 0.000000 0.326855
O O8 0.750000 0.247125 0.012812
O O9 0.834769 0.500000 0.028536
O O10 0.852319 0.282114 0.914992
O O11 0.883231 0.200913 0.061308
O O12 0.250000 0.737356 0.654922
O O13 0.380057 0.739614 0.723679
O O14 0.329325 0.000000 0.650667
O O15 0.250000 0.781094 0.178561
O O16 0.151099 0.000000 0.161403
O O17 0.528082 0.500000 0.277776
O O18 0.522622 0.279651 0.163849
O O19 0.510028 0.000000 0.087001
O O20 0.500000 0.731572 0.000000
#
# Coordination Sequence:
#
# PCOD9402174 Si02
#       7
#     8   8   8   8   8   8   8
#     4   9  16  31  58  86 113 146 187 239 290 335
#     4  10  19  34  58  84 116 153 193 237 285 341
#     4  10  21  37  57  81 112 150 188 229 282 343
#     4  10  21  39  63  89 117 154 201 247 294 349
#     4   9  18  32  52  81 115 150 188 233 285 339
#     4  12  25  39  58  84 117 155 193 237 290 348
#     4  11  24  41  62  87 114 146 191 243 293 344
#
# _framework density 21.952359999999999
#
# number of rings (size 3 to 8) (size 9 to 14) (size 15 to 20)
#    0.000    1.857    1.429    3.000    0.000    7.429 
#    0.000    4.286    0.000    0.000    0.000    2.000 
#    0.000    0.000    0.000    0.000    0.000    0.000 
#
# Total GULP energy -312863.403885 kJ/mol
# GULP energy per Si atom -5586.846498 kJ/mol
# Density = 2.190240 g / cm^3
# Si number density = 21.952360 Si / 1000 Ang^3
#
#
#
# Elastic Constant Matrix: (Units=GPa)
#
#
# Indices 1 2 3 4 5 6 
#
# 1 70.5460 0.3710 24.4526 0.0000 0.0000 0.0000
# 2 0.3710 31.7621 4.3479 0.0000 0.0000 0.0000
# 3 24.4526 4.3479 91.7407 0.0000 0.0000 0.0000
# 4 0.0000 0.0000 0.0000 51.5258 0.0000 0.0000
# 5 0.0000 0.0000 0.0000 0.0000 38.1501 0.0000
# 6 0.0000 0.0000 0.0000 0.0000 0.0000 4.3627
#
#
#
# Elastic Compliance Matrix: (Units=1/GPa)
#
#
# Indices 1 2 3 4 5 6 
#
# 1 0.015623 0.000390 -0.004183 0.000000 0.000000 0.000000
# 2 0.000390 0.031699 -0.001606 0.000000 0.000000 0.000000
# 3 -0.004183 -0.001606 0.012091 0.000000 0.000000 0.000000
# 4 0.000000 0.000000 0.000000 0.019408 0.000000 0.000000
# 5 0.000000 0.000000 0.000000 0.000000 0.026212 0.000000
# 6 0.000000 0.000000 0.000000 0.000000 0.000000 0.229217
#
#
# Mechanical properties :
#
#
# Convention : Reuss Voigt Hill
#
# Bulk Modulus (GPa) = 20.56944 28.04355 24.30650
# Shear Modulus (GPa) = 13.84069 29.79954 21.82011
#
# Velocity S-wave (km/s) = 2.51368 3.68838 3.15616
# Velocity P-wave (km/s) = 4.22080 5.56249 4.93743
#
# Compressibility (1/GPa) = 0.04861581
#
# Stress axis : x y z
#
# Youngs Moduli (GPa) = 64.00875 31.54633 82.70444
#
# Poissons Ratio (x) = -0.01231 0.34592
# Poissons Ratio (y) = -0.02497 0.13285
# Poissons Ratio (z) = 0.26772 0.05067
#
# Static dielectric constant tensor:
#      x y z
#    x 1.815110 0.000000 0.000000 
#    y 0.000000 1.797140 0.000000 
#    z 0.000000 0.000000 1.800340 
# 
# From -- ./inp_files/25738.got.cif
#   From: 2010.05.17/outbox.cif.g08.bks.cpg/sg51_13_cif.got.tgz:25738.got - 2010.06.03 11:52:47.
