data_PCOD9402603
_publ_section_title
;
Structure prediction by ZEFSAII (Michael W. Deem and Ramdas Pophale) SiO2 
 PCOD9402603
Probable space group: P M M A
;
_chemical_formula_sum "Si O2"
_cell_formula_units_Z 56
_cell_length_a 14.796559
_cell_length_b 10.081152
_cell_length_c 18.263348
_cell_angle_alpha 90.000000
_cell_angle_beta 90.000000
_cell_angle_gamma 90.000000
_cell_volume 2724.277149
_symmetry_space_group_name_H-M "P M M A"
_symmetry_group_IT_number 51
_symmetry_cell_setting 'orthorhombic'
loop_
_space_group_symop_operation_xyz
x,y,z
1/2-x,-y,z
1/2+x,-y,-z
-x,y,-z
-x,-y,-z
1/2+x,y,-z
1/2-x,y,z
x,-y,z
loop_
_atom_site_type_symbol
_atom_site_label
_atom_site_fract_x
_atom_site_fract_y
_atom_site_fract_z
Si Si1 0.882079 0.349997 0.068510
Si Si2 0.139557 0.153010 0.389172
Si Si3 0.145426 0.148522 0.803554
Si Si4 0.860720 0.348713 0.317339
Si Si5 0.139795 0.348492 0.515686
Si Si6 0.358982 0.847507 0.225103
Si Si7 0.903611 0.648494 0.904002
O O1 0.849801 0.500000 0.086740
O O2 0.853235 0.233678 0.122327
O O3 0.989886 0.355122 0.079355
O O4 0.860624 0.321836 0.983550
O O5 0.250000 0.154785 0.390719
O O6 0.107293 0.248316 0.453699
O O7 0.112406 0.194788 0.307039
O O8 0.112290 0.000000 0.400258
O O9 0.250000 0.132940 0.782099
O O10 0.103975 0.242362 0.740917
O O11 0.106907 0.000000 0.810837
O O12 0.750000 0.350369 0.314698
O O13 0.889344 0.500000 0.300093
O O14 0.886354 0.315996 0.400839
O O15 0.250000 0.345827 0.514772
O O16 0.112823 0.500000 0.499960
O O17 0.250000 0.847696 0.225561
O O18 0.387784 0.752950 0.159592
O O19 0.388071 0.000000 0.213778
O O20 0.874472 0.500000 0.881924
#
# Coordination Sequence:
#
# PCOD9402603 Si02
#       7
#     8   8   8   8   8   8   8
#     4   9  19  36  53  68  90 119 152 191 234 279
#     4   8  14  24  37  56  86 122 153 180 217 265
#     4  10  20  31  45  70  99 123 153 191 227 270
#     4   8  14  25  40  59  87 122 154 185 226 270
#     4   8  13  21  35  57  84 115 152 189 222 259
#     4   9  18  31  46  68  99 129 154 185 229 277
#     4   9  19  35  53  71  89 115 155 196 230 272
#
# _framework density 20.555911999999999
#
# number of rings (size 3 to 8) (size 9 to 14) (size 15 to 20)
#    0.000    3.286    0.000    3.000    0.000    4.000 
#    0.000    8.571    0.000    0.000    0.000    1.000 
#    0.000    8.000    0.000    0.000    0.000    0.000 
#
# Total GULP energy -312273.427084 kJ/mol
# GULP energy per Si atom -5576.311198 kJ/mol
# Density = 2.050913 g / cm^3
# Si number density = 20.555912 Si / 1000 Ang^3
#
#
#
# Elastic Constant Matrix: (Units=GPa)
#
#
# Indices 1 2 3 4 5 6 
#
# 1 40.4948 1.1985 -0.0891 0.0000 0.0000 0.0000
# 2 1.1985 163.1918 140.7406 0.0000 0.0000 0.0000
# 3 -0.0891 140.7406 168.1367 0.0000 0.0000 0.0000
# 4 0.0000 0.0000 0.0000 56.4577 0.0000 0.0000
# 5 0.0000 0.0000 0.0000 0.0000 41.7150 0.0000
# 6 0.0000 0.0000 0.0000 0.0000 0.0000 25.6060
#
#
#
# Elastic Compliance Matrix: (Units=1/GPa)
#
#
# Indices 1 2 3 4 5 6 
#
# 1 0.024716 -0.000693 0.000593 0.000000 0.000000 0.000000
# 2 -0.000693 0.022054 -0.018461 0.000000 0.000000 0.000000
# 3 0.000593 -0.018461 0.021401 0.000000 0.000000 0.000000
# 4 0.000000 0.000000 0.000000 0.017712 0.000000 0.000000
# 5 0.000000 0.000000 0.000000 0.000000 0.023972 0.000000
# 6 0.000000 0.000000 0.000000 0.000000 0.000000 0.039053
#
#
# Mechanical properties :
#
#
# Convention : Reuss Voigt Hill
#
# Bulk Modulus (GPa) = 32.20658 72.83593 52.52126
# Shear Modulus (GPa) = 25.46081 40.08727 32.77404
#
# Velocity S-wave (km/s) = 3.52321 4.42085 3.99731
# Velocity P-wave (km/s) = 5.67913 7.84656 6.84913
#
# Compressibility (1/GPa) = 0.03104955
#
# Stress axis : x y z
#
# Youngs Moduli (GPa) = 40.45903 45.34339 46.72745
#
# Poissons Ratio (x) = 0.03144 -0.02773
# Poissons Ratio (y) = 0.02805 0.86263
# Poissons Ratio (z) = -0.02401 0.83708
#
# Static dielectric constant tensor:
#      x y z
#    x 1.802290 0.000000 0.000000 
#    y 0.000000 1.716280 0.000000 
#    z 0.000000 0.000000 1.716920 
# 
# From -- ./inp_files/30417.got.cif
#   From: 2010.05.17/outbox.cif.g08.bks.cpg/sg51_16_cif.got.tgz:30417.got - 2010.06.03 11:52:47.
