data_PCOD9402580
_publ_section_title
;
Structure prediction by ZEFSAII (Michael W. Deem and Ramdas Pophale) SiO2 
 PCOD9402580
Probable space group: P M M A
;
_chemical_formula_sum "Si O2"
_cell_formula_units_Z 56
_cell_length_a 29.599856
_cell_length_b 8.015188
_cell_length_c 13.883095
_cell_angle_alpha 90.000000
_cell_angle_beta 90.000000
_cell_angle_gamma 90.000000
_cell_volume 3293.742223
_symmetry_space_group_name_H-M "P M M A"
_symmetry_group_IT_number 51
_symmetry_cell_setting 'orthorhombic'
loop_
_space_group_symop_operation_xyz
x,y,z
1/2-x,-y,z
1/2+x,-y,-z
-x,y,-z
-x,-y,-z
1/2+x,y,-z
1/2-x,y,z
x,-y,z
loop_
_atom_site_type_symbol
_atom_site_label
_atom_site_fract_x
_atom_site_fract_y
_atom_site_fract_z
Si Si1 0.982817 0.203465 0.603210
Si Si2 0.531742 0.202535 0.201116
Si Si3 0.299858 0.803219 0.240030
Si Si4 0.387431 0.808213 0.916084
Si Si5 0.604837 0.796834 0.710018
Si Si6 0.800673 0.304191 0.976673
Si Si7 0.556261 0.305926 0.906537
O O1 0.931314 0.251501 0.628705
O O2 0.000000 0.263057 0.500000
O O3 0.013778 0.256130 0.694005
O O4 0.984142 0.000000 0.602111
O O5 0.581428 0.261707 0.169949
O O6 0.494677 0.260346 0.122950
O O7 0.531723 0.000000 0.199502
O O8 0.250000 0.729485 0.258243
O O9 0.343534 0.737501 0.296412
O O10 0.297316 0.000000 0.260881
O O11 0.309209 0.785042 0.125543
O O12 0.340509 0.727290 0.948042
O O13 0.377374 0.000000 0.894669
O O14 0.420646 0.796461 0.008415
O O15 0.584631 0.729539 0.809857
O O16 0.604661 0.000000 0.715725
O O17 0.750000 0.255992 0.009560
O O18 0.800414 0.500000 0.954479
O O19 0.559168 0.500000 0.932568
#
# Coordination Sequence:
#
# PCOD9402580 Si02
#       7
#     8   8   8   8   8   8   8
#     4   8  14  27  47  67  85 108 143 184 224 267
#     4   9  19  32  45  63  86 114 148 182 217 264
#     4   9  16  26  41  60  84 116 149 177 211 259
#     4  11  20  30  44  61  86 120 153 182 213 255
#     4   9  16  27  43  63  87 116 147 180 218 265
#     4  10  20  31  43  62  88 117 151 187 219 252
#     4  11  20  28  41  62  89 119 148 180 217 255
#
# _framework density 17.001937999999999
#
# number of rings (size 3 to 8) (size 9 to 14) (size 15 to 20)
#    0.000    2.429    1.429    3.429    0.000    3.714 
#    0.000    0.000    0.000    6.857    0.000    1.000 
#    0.000    5.714    0.000    3.857    0.000    3.714 
#
# Total GULP energy -312068.876722 kJ/mol
# GULP energy per Si atom -5572.658513 kJ/mol
# Density = 1.696324 g / cm^3
# Si number density = 17.001938 Si / 1000 Ang^3
#
#
#
# Elastic Constant Matrix: (Units=GPa)
#
#
# Indices 1 2 3 4 5 6 
#
# 1 150.2003 4.0029 54.7026 0.0000 0.0000 0.0000
# 2 4.0029 18.9267 -1.9097 0.0000 0.0000 0.0000
# 3 54.7026 -1.9097 61.1385 0.0000 0.0000 0.0000
# 4 0.0000 0.0000 0.0000 -12.8069 0.0000 0.0000
# 5 0.0000 0.0000 0.0000 0.0000 18.7195 0.0000
# 6 0.0000 0.0000 0.0000 0.0000 0.0000 9.0487
#
#
#
# Elastic Compliance Matrix: (Units=1/GPa)
#
#
# Indices 1 2 3 4 5 6 
#
# 1 0.010048 -0.003042 -0.009085 0.000000 0.000000 0.000000
# 2 -0.003042 0.053923 0.004406 0.000000 0.000000 0.000000
# 3 -0.009085 0.004406 0.024622 0.000000 0.000000 0.000000
# 4 0.000000 0.000000 0.000000 -0.078083 0.000000 0.000000
# 5 0.000000 0.000000 0.000000 0.000000 0.053420 0.000000
# 6 0.000000 0.000000 0.000000 0.000000 0.000000 0.110514
#
#
# Mechanical properties :
#
#
# Convention : Reuss Voigt Hill
#
# Bulk Modulus (GPa) = 13.67021 38.20635 25.93828
# Shear Modulus (GPa) = 23.33506 14.55689 18.94597
#
# Velocity S-wave (km/s) = 3.70874 2.92925 3.34180
# Velocity P-wave (km/s) = 5.13785 5.82762 5.49357
#
# Compressibility (1/GPa) = 0.07315175
#
# Stress axis : x y z
#
# Youngs Moduli (GPa) = 99.52716 18.54486 40.61344
#
# Poissons Ratio (x) = 0.05641 0.36897
# Poissons Ratio (y) = 0.30273 -0.17893
# Poissons Ratio (z) = 0.90419 -0.08170
#
# Static dielectric constant tensor:
#      x y z
#    x 1.633810 0.000000 0.000000 
#    y 0.000000 1.587830 0.000000 
#    z 0.000000 0.000000 1.551210 
# 
# From -- ./inp_files/26544.got.cif
#   From: 2010.05.17/outbox.cif.g08.bks.cpg/sg51_14_cif.got.tgz:26544.got - 2010.06.03 11:52:47.
