data_PCOD9402362
_publ_section_title
;
Structure prediction by ZEFSAII (Michael W. Deem and Ramdas Pophale) SiO2 
 PCOD9402362
Probable space group: P M M A
;
_chemical_formula_sum "Si O2"
_cell_formula_units_Z 52
_cell_length_a 7.910055
_cell_length_b 15.611012
_cell_length_c 21.000853
_cell_angle_alpha 90.000000
_cell_angle_beta 90.000000
_cell_angle_gamma 90.000000
_cell_volume 2593.268566
_symmetry_space_group_name_H-M "P M M A"
_symmetry_group_IT_number 51
_symmetry_cell_setting 'orthorhombic'
loop_
_space_group_symop_operation_xyz
x,y,z
1/2-x,-y,z
1/2+x,-y,-z
-x,y,-z
-x,-y,-z
1/2+x,y,-z
1/2-x,y,z
x,-y,z
loop_
_atom_site_type_symbol
_atom_site_label
_atom_site_fract_x
_atom_site_fract_y
_atom_site_fract_z
Si Si1 0.054633 0.335508 0.645550
Si Si2 0.547958 0.219531 0.184276
Si Si3 0.452835 0.500000 0.427518
Si Si4 0.946373 0.402238 0.781663
Si Si5 0.046092 0.902499 0.927802
Si Si6 0.543846 0.906264 0.294955
Si Si7 0.453212 0.166012 0.573608
O O1 0.250000 0.315574 0.662651
O O2 0.988076 0.257107 0.602978
O O3 0.038501 0.417557 0.602113
O O4 0.966196 0.365964 0.710018
O O5 0.750000 0.210640 0.185823
O O6 0.514172 0.320781 0.179223
O O7 0.482859 0.164372 0.124678
O O8 0.486723 0.171682 0.249333
O O9 0.250000 0.500000 0.416398
O O10 0.500000 0.500000 0.500000
O O11 0.750000 0.409640 0.796607
O O12 0.019049 0.500000 0.786141
O O13 0.250000 0.904316 0.923527
O O14 0.985477 0.000000 0.915963
O O15 0.000000 0.879214 0.000000
O O16 0.750000 0.904394 0.294672
O O17 0.491826 0.896499 0.368931
O O18 0.492420 0.000000 0.270304
O O19 0.500000 0.150877 0.500000
O O20 0.250000 0.166628 0.573321
#
# Coordination Sequence:
#
# PCOD9402362 Si02
#       7
#     8   8   4   8   8   8   8
#     4  11  21  36  55  74  98 134 181 230 282 342
#     4  10  19  35  59  85 112 148 191 229 270 326
#     4  12  24  36  50  74 102 134 175 224 289 354
#     4  11  23  37  55  81 111 143 180 229 288 341
#     4   9  18  33  57  91 127 160 191 225 269 325
#     4   9  17  32  54  78 104 137 181 229 273 324
#     4  10  21  35  51  73  98 134 179 225 278 331
#
# _framework density 20.051914
#
# number of rings (size 3 to 8) (size 9 to 14) (size 15 to 20)
#    0.000    1.846    2.308    2.538    0.000    6.154 
#    0.000    0.000    0.000    2.769    0.000    0.000 
#    0.000    0.000    0.000    0.000    0.000    0.000 
#
# Total GULP energy -289859.621348 kJ/mol
# GULP energy per Si atom -5574.223487 kJ/mol
# Density = 2.000627 g / cm^3
# Si number density = 20.051914 Si / 1000 Ang^3
#
#
#
# Elastic Constant Matrix: (Units=GPa)
#
#
# Indices 1 2 3 4 5 6 
#
# 1 24.4854 7.4460 5.6674 0.0000 0.0000 0.0000
# 2 7.4460 148.9392 67.7363 0.0000 0.0000 0.0000
# 3 5.6674 67.7363 119.6412 0.0000 0.0000 0.0000
# 4 0.0000 0.0000 0.0000 33.0977 0.0000 0.0000
# 5 0.0000 0.0000 0.0000 0.0000 23.4865 0.0000
# 6 0.0000 0.0000 0.0000 0.0000 0.0000 120.5017
#
#
#
# Elastic Compliance Matrix: (Units=1/GPa)
#
#
# Indices 1 2 3 4 5 6 
#
# 1 0.041572 -0.001593 -0.001067 0.000000 0.000000 0.000000
# 2 -0.001593 0.009103 -0.005079 0.000000 0.000000 0.000000
# 3 -0.001067 -0.005079 0.011284 0.000000 0.000000 0.000000
# 4 0.000000 0.000000 0.000000 0.030214 0.000000 0.000000
# 5 0.000000 0.000000 0.000000 0.000000 0.042578 0.000000
# 6 0.000000 0.000000 0.000000 0.000000 0.000000 0.008299
#
#
# Mechanical properties :
#
#
# Convention : Reuss Voigt Hill
#
# Bulk Modulus (GPa) = 21.51372 50.52945 36.02158
# Shear Modulus (GPa) = 28.73209 49.56493 39.14851
#
# Velocity S-wave (km/s) = 3.78945 4.97714 4.42334
# Velocity P-wave (km/s) = 5.46799 7.63435 6.64011
#
# Compressibility (1/GPa) = 0.04648197
#
# Stress axis : x y z
#
# Youngs Moduli (GPa) = 24.05461 109.84816 88.61959
#
# Poissons Ratio (x) = 0.17497 0.09460
# Poissons Ratio (y) = 0.03832 0.45006
# Poissons Ratio (z) = 0.02568 0.55787
#
# Static dielectric constant tensor:
#      x y z
#    x 1.751770 0.000000 0.000000 
#    y 0.000000 1.754580 0.000000 
#    z 0.000000 0.000000 1.693430 
# 
# From -- ./inp_files/31798.got.cif
#   From: 2010.05.17/outbox.cif.g08.bks.cpg/sg51_16_cif.got.tgz:31798.got - 2010.06.03 11:52:47.
