data_PCOD9402020
_publ_section_title
;
Structure prediction by ZEFSAII (Michael W. Deem and Ramdas Pophale) SiO2 
 PCOD9402020
Probable space group: P M M A
;
_chemical_formula_sum "Si O2"
_cell_formula_units_Z 48
_cell_length_a 21.062998
_cell_length_b 7.738788
_cell_length_c 14.660164
_cell_angle_alpha 90.000000
_cell_angle_beta 90.000000
_cell_angle_gamma 90.000000
_cell_volume 2389.637169
_symmetry_space_group_name_H-M "P M M A"
_symmetry_group_IT_number 51
_symmetry_cell_setting 'orthorhombic'
loop_
_space_group_symop_operation_xyz
x,y,z
1/2-x,-y,z
1/2+x,-y,-z
-x,y,-z
-x,-y,-z
1/2+x,y,-z
1/2-x,y,z
x,-y,z
loop_
_atom_site_type_symbol
_atom_site_label
_atom_site_fract_x
_atom_site_fract_y
_atom_site_fract_z
Si Si1 0.876004 0.792494 0.714102
Si Si2 0.750000 0.207948 0.398655
Si Si3 0.822406 0.292490 0.903592
Si Si4 0.878728 0.296494 0.293674
Si Si5 0.323713 0.289057 0.892587
Si Si6 0.495731 0.797087 0.398068
Si Si7 0.750000 0.211350 0.609564
O O1 0.867900 0.752955 0.820622
O O2 0.813072 0.729057 0.661687
O O3 0.939057 0.724694 0.664506
O O4 0.875880 0.000000 0.707111
O O5 0.813162 0.270679 0.348068
O O6 0.750000 0.264046 0.504108
O O7 0.750000 0.000000 0.396610
O O8 0.750000 0.229456 0.885004
O O9 0.819165 0.500000 0.907729
O O10 0.841349 0.232769 0.005121
O O11 0.891898 0.500000 0.287726
O O12 0.866396 0.228123 0.191292
O O13 0.937348 0.216129 0.347168
O O14 0.250000 0.239639 0.877089
O O15 0.324987 0.500000 0.890754
O O16 0.500000 0.721042 0.500000
O O17 0.480614 0.000000 0.409914
O O18 0.750000 0.000000 0.610896
#
# Coordination Sequence:
#
# PCOD9402020 Si02
#       7
#     8   4   8   8   8   8   4
#     4  10  19  34  56  79 105 139 181 228 272 316
#     4  11  21  35  56  81 110 144 183 225 274 337
#     4   9  17  31  54  81 108 141 176 216 269 331
#     4  11  21  36  58  83 110 142 183 234 277 315
#     4   8  15  31  54  78 108 143 176 214 270 330
#     4  10  22  40  58  76 107 153 191 221 272 339
#     4   9  18  33  54  77 102 138 181 221 266 325
#
# _framework density 20.086731
#
# number of rings (size 3 to 8) (size 9 to 14) (size 15 to 20)
#    0.000    2.333    1.667    2.750    0.000    3.667 
#    0.000    5.833    0.000    5.000    0.000    0.000 
#    0.000    0.000    0.000    0.000    0.000    0.000 
#
# Total GULP energy -267909.627119 kJ/mol
# GULP energy per Si atom -5581.450565 kJ/mol
# Density = 2.004101 g / cm^3
# Si number density = 20.086731 Si / 1000 Ang^3
#
#
#
# Elastic Constant Matrix: (Units=GPa)
#
#
# Indices 1 2 3 4 5 6 
#
# 1 113.8801 -11.0993 84.1560 0.0000 0.0000 0.0000
# 2 -11.0993 29.3858 -1.8217 0.0000 0.0000 0.0000
# 3 84.1560 -1.8217 201.5583 0.0000 0.0000 0.0000
# 4 0.0000 0.0000 0.0000 22.8537 0.0000 0.0000
# 5 0.0000 0.0000 0.0000 0.0000 27.6938 0.0000
# 6 0.0000 0.0000 0.0000 0.0000 0.0000 8.2896
#
#
#
# Elastic Compliance Matrix: (Units=1/GPa)
#
#
# Indices 1 2 3 4 5 6 
#
# 1 0.013315 0.004687 -0.005517 0.000000 0.000000 0.000000
# 2 0.004687 0.035699 -0.001634 0.000000 0.000000 0.000000
# 3 -0.005517 -0.001634 0.007250 0.000000 0.000000 0.000000
# 4 0.000000 0.000000 0.000000 0.043757 0.000000 0.000000
# 5 0.000000 0.000000 0.000000 0.000000 0.036109 0.000000
# 6 0.000000 0.000000 0.000000 0.000000 0.000000 0.120632
#
#
# Mechanical properties :
#
#
# Convention : Reuss Voigt Hill
#
# Bulk Modulus (GPa) = 19.47959 54.14381 36.81170
# Shear Modulus (GPa) = 17.93383 30.00671 23.97027
#
# Velocity S-wave (km/s) = 2.99125 3.86924 3.45822
# Velocity P-wave (km/s) = 4.65284 6.85382 5.85763
#
# Compressibility (1/GPa) = 0.05133577
#
# Stress axis : x y z
#
# Youngs Moduli (GPa) = 75.10322 28.01192 137.92969
#
# Poissons Ratio (x) = -0.13130 0.76096
# Poissons Ratio (y) = -0.35202 0.22543
# Poissons Ratio (z) = 0.41435 0.04578
#
# Static dielectric constant tensor:
#      x y z
#    x 1.691860 0.000000 0.000000 
#    y 0.000000 1.751860 0.000000 
#    z 0.000000 0.000000 1.725940 
# 
# From -- ./inp_files/24983.got.cif
#   From: 2010.05.17/outbox.cif.g08.bks.cpg/sg51_13_cif.got.tgz:24983.got - 2010.06.03 11:52:47.
