data_PCOD9402198
_publ_section_title
;
Structure prediction by ZEFSAII (Michael W. Deem and Ramdas Pophale) SiO2 
 PCOD9402198
Probable space group: P M M A
;
_chemical_formula_sum "Si O2"
_cell_formula_units_Z 64
_cell_length_a 29.512319
_cell_length_b 9.313525
_cell_length_c 12.182216
_cell_angle_alpha 90.000000
_cell_angle_beta 90.000000
_cell_angle_gamma 90.000000
_cell_volume 3348.449218
_symmetry_space_group_name_H-M "P M M A"
_symmetry_group_IT_number 51
_symmetry_cell_setting 'orthorhombic'
loop_
_space_group_symop_operation_xyz
x,y,z
1/2-x,-y,z
1/2+x,-y,-z
-x,y,-z
-x,-y,-z
1/2+x,y,-z
1/2-x,y,z
x,-y,z
loop_
_atom_site_type_symbol
_atom_site_label
_atom_site_fract_x
_atom_site_fract_y
_atom_site_fract_z
Si Si1 0.547249 0.667562 0.819382
Si Si2 0.201325 0.333678 0.232669
Si Si3 0.198785 0.223326 0.995762
Si Si4 0.059476 0.669945 0.786001
Si Si5 0.115425 0.672006 0.372091
Si Si6 0.096471 0.840164 0.990010
Si Si7 0.112643 0.171822 0.603839
Si Si8 0.300774 0.170175 0.754577
O O1 0.555952 0.500000 0.849697
O O2 0.493616 0.688759 0.812355
O O3 0.570918 0.692028 0.702273
O O4 0.570820 0.768327 0.908396
O O5 0.250000 0.265120 0.261713
O O6 0.203181 0.500000 0.263371
O O7 0.197482 0.327897 0.100552
O O8 0.157816 0.276878 0.296755
O O9 0.250000 0.157695 0.004212
O O10 0.150217 0.149076 0.011211
O O11 0.196594 0.262384 0.866591
O O12 0.068534 0.500000 0.776684
O O13 0.074082 0.752186 0.676272
O O14 0.087386 0.740712 0.885114
O O15 0.119316 0.500000 0.393489
O O16 0.114167 0.758888 0.484189
O O17 0.078923 0.000000 0.967710
O O18 0.159798 0.200889 0.668893
O O19 0.106527 0.000000 0.599661
O O20 0.250000 0.186630 0.708666
O O21 0.305628 0.000000 0.787524
#
# Coordination Sequence:
#
# PCOD9402198 Si02
#       8
#     8   8   8   8   8   8   8   8
#     4  10  23  43  64  87 117 158 202 243 294 362
#     4   9  18  34  58  87 120 158 198 244 293 344
#     4  10  19  34  58  89 123 158 193 230 287 356
#     4  11  24  42  64  87 116 157 202 244 296 362
#     4  10  21  40  62  84 115 156 201 246 295 352
#     4  12  23  37  62  95 127 156 191 243 299 350
#     4  11  23  40  61  88 119 152 198 252 303 350
#     4   9  18  35  57  81 116 158 193 231 286 353
#
# _framework density 19.113325
#
# number of rings (size 3 to 8) (size 9 to 14) (size 15 to 20)
#    0.000    1.750    2.500    1.875    0.000    5.250 
#    0.000    2.500    0.000    1.125    0.000    0.000 
#    0.000    0.000    0.000    0.000    0.000    0.000 
#
# Total GULP energy -356594.293004 kJ/mol
# GULP energy per Si atom -5571.785828 kJ/mol
# Density = 1.906982 g / cm^3
# Si number density = 19.113325 Si / 1000 Ang^3
#
#
#
# Elastic Constant Matrix: (Units=GPa)
#
#
# Indices 1 2 3 4 5 6 
#
# 1 107.8175 48.6352 33.6424 0.0000 0.0000 0.0000
# 2 48.6352 69.6593 47.7339 0.0000 0.0000 0.0000
# 3 33.6424 47.7339 96.5693 0.0000 0.0000 0.0000
# 4 0.0000 0.0000 0.0000 94.5604 0.0000 0.0000
# 5 0.0000 0.0000 0.0000 0.0000 12.9826 0.0000
# 6 0.0000 0.0000 0.0000 0.0000 0.0000 9.7141
#
#
#
# Elastic Compliance Matrix: (Units=1/GPa)
#
#
# Indices 1 2 3 4 5 6 
#
# 1 0.013539 -0.009407 -0.000067 0.000000 0.000000 0.000000
# 2 -0.009407 0.028245 -0.010684 0.000000 0.000000 0.000000
# 3 -0.000067 -0.010684 0.015660 0.000000 0.000000 0.000000
# 4 0.000000 0.000000 0.000000 0.010575 0.000000 0.000000
# 5 0.000000 0.000000 0.000000 0.000000 0.077026 0.000000
# 6 0.000000 0.000000 0.000000 0.000000 0.000000 0.102943
#
#
# Mechanical properties :
#
#
# Convention : Reuss Voigt Hill
#
# Bulk Modulus (GPa) = 58.38538 59.34102 58.86320
# Shear Modulus (GPa) = 17.00602 33.05373 25.02987
#
# Velocity S-wave (km/s) = 2.98610 4.16306 3.62270
# Velocity P-wave (km/s) = 6.51938 7.36359 6.95431
#
# Compressibility (1/GPa) = 0.01712757
#
# Stress axis : x y z
#
# Youngs Moduli (GPa) = 73.85946 35.40477 63.85842
#
# Poissons Ratio (x) = 0.33306 0.00427
# Poissons Ratio (y) = 0.69481 0.68227
# Poissons Ratio (z) = 0.00494 0.37827
#
# Static dielectric constant tensor:
#      x y z
#    x 1.691330 0.000000 0.000000 
#    y 0.000000 1.657050 0.000000 
#    z 0.000000 0.000000 1.638150 
# 
# From -- ./inp_files/19529.got.cif
#   From: 2010.05.17/outbox.cif.g08.bks.cpg/sg51_10_cif.got.tgz:19529.got - 2010.06.03 11:52:47.
