data_PCOD9402908
_publ_section_title
;
Structure prediction by ZEFSAII (Michael W. Deem and Ramdas Pophale) SiO2 
 PCOD9402908
Probable space group: P M M A
;
_chemical_formula_sum "Si O2"
_cell_formula_units_Z 36
_cell_length_a 7.562583
_cell_length_b 16.668223
_cell_length_c 14.093033
_cell_angle_alpha 90.000000
_cell_angle_beta 90.000000
_cell_angle_gamma 90.000000
_cell_volume 1776.494737
_symmetry_space_group_name_H-M "P M M A"
_symmetry_group_IT_number 51
_symmetry_cell_setting 'orthorhombic'
loop_
_space_group_symop_operation_xyz
x,y,z
1/2-x,-y,z
1/2+x,-y,-z
-x,y,-z
-x,-y,-z
1/2+x,y,-z
1/2-x,y,z
x,-y,z
loop_
_atom_site_type_symbol
_atom_site_label
_atom_site_fract_x
_atom_site_fract_y
_atom_site_fract_z
Si Si1 0.539524 0.325664 0.888979
Si Si2 0.961499 0.500000 0.887152
Si Si3 0.456271 0.249390 0.705029
Si Si4 0.037560 0.911480 0.611520
Si Si5 0.037762 0.412310 0.612374
O O1 0.750000 0.327321 0.879571
O O2 0.468072 0.413486 0.855616
O O3 0.468496 0.259359 0.817854
O O4 0.500000 0.314639 0.000000
O O5 0.750000 0.500000 0.873710
O O6 0.000000 0.500000 0.000000
O O7 0.250000 0.249201 0.677090
O O8 0.532627 0.166179 0.666701
O O9 0.533904 0.331539 0.660835
O O10 0.250000 0.913671 0.624027
O O11 0.000000 0.901066 0.500000
O O12 0.969557 0.000000 0.639546
O O13 0.250000 0.413638 0.625121
O O14 0.969808 0.500000 0.646281
O O15 0.000000 0.407636 0.500000
#
# Coordination Sequence:
#
# PCOD9402908 Si02
#       5
#     8   4   8   8   8
#     4  10  20  34  51  72  99 131 168 209 251 294
#     4   8  16  30  46  66  91 122 161 202 243 284
#     4  10  20  32  49  73 100 131 166 205 249 297
#     4   9  18  33  53  77 104 132 164 205 252 299
#     4   9  18  31  45  65  95 130 164 198 237 285
#
# _framework density 20.264626
#
# number of rings (size 3 to 8) (size 9 to 14) (size 15 to 20)
#    0.000    2.667    0.000    1.333    1.556    2.667 
#    0.000    0.000    0.000    0.667    0.000    0.000 
#    0.000    0.000    0.000    0.000    0.000    0.000 
#
# Total GULP energy -200821.662213 kJ/mol
# GULP energy per Si atom -5578.379506 kJ/mol
# Density = 2.021850 g / cm^3
# Si number density = 20.264626 Si / 1000 Ang^3
#
#
#
# Elastic Constant Matrix: (Units=GPa)
#
#
# Indices 1 2 3 4 5 6 
#
# 1 57.9653 12.4983 -10.8458 0.0000 0.0000 0.0000
# 2 12.4983 210.5195 91.2659 0.0000 0.0000 0.0000
# 3 -10.8458 91.2659 78.4848 0.0000 0.0000 0.0000
# 4 0.0000 0.0000 0.0000 45.4870 0.0000 0.0000
# 5 0.0000 0.0000 0.0000 0.0000 22.5533 0.0000
# 6 0.0000 0.0000 0.0000 0.0000 0.0000 -0.1278
#
#
#
# Elastic Compliance Matrix: (Units=1/GPa)
#
#
# Indices 1 2 3 4 5 6 
#
# 1 0.019831 -0.004770 0.008287 0.000000 0.000000 0.000000
# 2 -0.004770 0.010727 -0.013133 0.000000 0.000000 0.000000
# 3 0.008287 -0.013133 0.029158 0.000000 0.000000 0.000000
# 4 0.000000 0.000000 0.000000 0.021984 0.000000 0.000000
# 5 0.000000 0.000000 0.000000 0.000000 0.044339 0.000000
# 6 0.000000 0.000000 0.000000 0.000000 0.000000 -7.822731
#
#
# Mechanical properties :
#
#
# Convention : Reuss Voigt Hill
#
# Bulk Modulus (GPa) = 24.70080 59.20070 41.95075
# Shear Modulus (GPa) = -0.65240 30.51923 14.93341
#
# Velocity S-wave (km/s) = -0.56802 3.88498 2.71757
# Velocity P-wave (km/s) = 3.43299 7.02861 5.53112
#
# Compressibility (1/GPa) = 0.04048452
#
# Stress axis : x y z
#
# Youngs Moduli (GPa) = 50.42642 93.22473 34.29592
#
# Poissons Ratio (x) = 0.44469 -0.28422
# Poissons Ratio (y) = 0.24054 0.45040
# Poissons Ratio (z) = -0.41790 1.22430
#
# Static dielectric constant tensor:
#      x y z
#    x 1.741320 0.000000 0.000000 
#    y 0.000000 1.774130 0.000000 
#    z 0.000000 0.000000 1.701070 
# 
# From -- ./inp_files/20303.got.cif
#   From: 2010.05.17/outbox.cif.g08.bks.cpg/sg51_11_cif.got.tgz:20303.got - 2010.06.03 11:52:47.
