data_PCOD9402202
_publ_section_title
;
Structure prediction by ZEFSAII (Michael W. Deem and Ramdas Pophale) SiO2 
 PCOD9402202
Probable space group: P M M A
;
_chemical_formula_sum "Si O2"
_cell_formula_units_Z 64
_cell_length_a 25.945397
_cell_length_b 7.929144
_cell_length_c 14.834657
_cell_angle_alpha 90.000000
_cell_angle_beta 90.000000
_cell_angle_gamma 90.000000
_cell_volume 3051.856680
_symmetry_space_group_name_H-M "P M M A"
_symmetry_group_IT_number 51
_symmetry_cell_setting 'orthorhombic'
loop_
_space_group_symop_operation_xyz
x,y,z
1/2-x,-y,z
1/2+x,-y,-z
-x,y,-z
-x,-y,-z
1/2+x,y,-z
1/2-x,y,z
x,-y,z
loop_
_atom_site_type_symbol
_atom_site_label
_atom_site_fract_x
_atom_site_fract_y
_atom_site_fract_z
Si Si1 0.307551 0.204353 0.263722
Si Si2 0.360345 0.202638 0.082661
Si Si3 0.977586 0.792970 0.904012
Si Si4 0.097609 0.794209 0.578091
Si Si5 0.908508 0.305034 0.629038
Si Si6 0.808371 0.798632 0.301939
Si Si7 0.691073 0.700928 0.103158
Si Si8 0.488030 0.804611 0.716574
O O1 0.250000 0.262080 0.287761
O O2 0.322659 0.261073 0.162479
O O3 0.353005 0.261037 0.329508
O O4 0.307357 0.000000 0.264538
O O5 0.418242 0.262102 0.102438
O O6 0.361181 0.000000 0.086758
O O7 0.341860 0.249582 0.983282
O O8 0.009260 0.731523 0.817231
O O9 0.977981 0.000000 0.901751
O O10 0.000000 0.741075 0.000000
O O11 0.091330 0.730503 0.477130
O O12 0.151090 0.738225 0.624149
O O13 0.051644 0.733619 0.643629
O O14 0.096692 0.000000 0.573924
O O15 0.919666 0.500000 0.646162
O O16 0.954241 0.203393 0.677211
O O17 0.750000 0.729545 0.309640
O O18 0.827654 0.764816 0.200304
O O19 0.805332 0.000000 0.312354
O O20 0.750000 0.765371 0.091506
O O21 0.692758 0.500000 0.107851
O O22 0.472683 0.000000 0.726913
#
# Coordination Sequence:
#
# PCOD9402202 Si02
#       8
#     8   8   8   8   8   8   8   8
#     4  10  21  39  63  88 115 153 202 251 297 347
#     4  10  19  34  59  85 113 147 192 242 286 338
#     4   9  18  32  57  90 119 147 183 236 293 339
#     4  10  22  38  63  90 113 149 200 250 296 346
#     4  12  25  40  59  85 121 156 191 239 301 362
#     4   9  19  37  60  87 116 146 188 241 290 340
#     4  10  21  35  52  78 115 155 188 223 275 340
#     4  10  20  39  63  86 115 152 198 245 289 344
#
# _framework density 20.970839000000002
#
# number of rings (size 3 to 8) (size 9 to 14) (size 15 to 20)
#    0.000    2.000    1.250    2.250    1.750    5.000 
#    0.000    1.250    0.000    0.750    0.000    0.000 
#    0.000    0.000    0.000    0.000    0.000    0.000 
#
# Total GULP energy -357503.109648 kJ/mol
# GULP energy per Si atom -5585.986088 kJ/mol
# Density = 2.092311 g / cm^3
# Si number density = 20.970839 Si / 1000 Ang^3
#
#
#
# Elastic Constant Matrix: (Units=GPa)
#
#
# Indices 1 2 3 4 5 6 
#
# 1 61.7874 -4.7598 27.6661 0.0000 0.0000 0.0000
# 2 -4.7598 21.9754 -9.9411 0.0000 0.0000 0.0000
# 3 27.6661 -9.9411 129.4931 0.0000 0.0000 0.0000
# 4 0.0000 0.0000 0.0000 -59.2975 0.0000 0.0000
# 5 0.0000 0.0000 0.0000 0.0000 14.5192 0.0000
# 6 0.0000 0.0000 0.0000 0.0000 0.0000 -1.5170
#
#
#
# Elastic Compliance Matrix: (Units=1/GPa)
#
#
# Indices 1 2 3 4 5 6 
#
# 1 0.018002 0.002237 -0.003674 0.000000 0.000000 0.000000
# 2 0.002237 0.047421 0.003163 0.000000 0.000000 0.000000
# 3 -0.003674 0.003163 0.008750 0.000000 0.000000 0.000000
# 4 0.000000 0.000000 0.000000 -0.016864 0.000000 0.000000
# 5 0.000000 0.000000 0.000000 0.000000 0.068874 0.000000
# 6 0.000000 0.000000 0.000000 0.000000 0.000000 -0.659193
#
#
# Mechanical properties :
#
#
# Convention : Reuss Voigt Hill
#
# Bulk Modulus (GPa) = 12.88277 26.57628 19.72952
# Shear Modulus (GPa) = -9.79267 4.09366 -2.84950
#
# Velocity S-wave (km/s) = -2.16328 1.39868 -1.16694
# Velocity P-wave (km/s) = 0.28846 3.91266 2.75914
#
# Compressibility (1/GPa) = 0.07762307
#
# Stress axis : x y z
#
# Youngs Moduli (GPa) = 55.54904 21.08789 114.28256
#
# Poissons Ratio (x) = -0.04717 0.41992
# Poissons Ratio (y) = -0.12426 -0.36142
# Poissons Ratio (z) = 0.20411 -0.06669
#
# Static dielectric constant tensor:
#      x y z
#    x 1.753510 0.000000 0.000000 
#    y 0.000000 1.752790 0.000000 
#    z 0.000000 0.000000 1.724260 
# 
# From -- ./inp_files/26290.got.cif
#   From: 2010.05.17/outbox.cif.g08.bks.cpg/sg51_14_cif.got.tgz:26290.got - 2010.06.03 11:52:47.
