data_PCOD9402922
_publ_section_title
;
Structure prediction by ZEFSAII (Michael W. Deem and Ramdas Pophale) SiO2 
 PCOD9402922
Probable space group: P M M A
;
_chemical_formula_sum "Si O2"
_cell_formula_units_Z 56
_cell_length_a 8.751611
_cell_length_b 23.064637
_cell_length_c 15.073963
_cell_angle_alpha 90.000000
_cell_angle_beta 90.000000
_cell_angle_gamma 90.000000
_cell_volume 3042.720597
_symmetry_space_group_name_H-M "P M M A"
_symmetry_group_IT_number 51
_symmetry_cell_setting 'orthorhombic'
loop_
_space_group_symop_operation_xyz
x,y,z
1/2-x,-y,z
1/2+x,-y,-z
-x,y,-z
-x,-y,-z
1/2+x,y,-z
1/2-x,y,z
x,-y,z
loop_
_atom_site_type_symbol
_atom_site_label
_atom_site_fract_x
_atom_site_fract_y
_atom_site_fract_z
Si Si1 0.567273 0.841008 0.268867
Si Si2 0.067553 0.208848 0.097110
Si Si3 0.066680 0.564974 0.217343
Si Si4 0.432280 0.664844 0.903298
Si Si5 0.567076 0.260213 0.405798
Si Si6 0.431873 0.611686 0.407266
Si Si7 0.068814 0.068956 0.404159
O O1 0.750000 0.842696 0.258506
O O2 0.488614 0.834122 0.173721
O O3 0.527659 0.784374 0.328151
O O4 0.510015 0.895226 0.326106
O O5 0.250000 0.210968 0.092364
O O6 0.003179 0.272793 0.121203
O O7 0.000000 0.194905 0.000000
O O8 0.250000 0.571970 0.205426
O O9 0.024501 0.500000 0.188731
O O10 0.034633 0.573097 0.321712
O O11 0.981673 0.614895 0.163876
O O12 0.250000 0.670320 0.907598
O O13 0.500000 0.650444 0.000000
O O14 0.500000 0.239618 0.500000
O O15 0.750000 0.263978 0.412341
O O16 0.499905 0.324181 0.390544
O O17 0.500000 0.590064 0.500000
O O18 0.250000 0.616880 0.416702
O O19 0.250000 0.080171 0.404464
O O20 0.000000 0.085520 0.500000
O O21 0.044224 0.000000 0.393101
#
# Coordination Sequence:
#
# PCOD9402922 Si02
#       7
#     8   8   8   8   8   8   8
#     4  11  22  35  55  84 115 148 188 232 279 330
#     4  11  22  38  60  85 114 146 181 224 275 330
#     4  10  22  39  56  76 103 136 177 223 270 323
#     4  11  22  38  60  84 110 140 175 217 271 331
#     4  10  20  32  49  75 107 139 173 217 266 322
#     4  10  20  34  53  74 100 136 174 216 266 319
#     4  10  21  37  57  83 117 158 201 241 281 326
#
# _framework density 18.404582999999999
#
# number of rings (size 3 to 8) (size 9 to 14) (size 15 to 20)
#    0.000    1.571    0.000    7.286    0.000    8.571 
#    0.000    0.000    0.000    0.429    0.000    0.000 
#    0.000    0.000    0.000    0.000    0.000    0.000 
#
# Total GULP energy -313043.917364 kJ/mol
# GULP energy per Si atom -5590.069953 kJ/mol
# Density = 1.836269 g / cm^3
# Si number density = 18.404583 Si / 1000 Ang^3
#
#
#
# Elastic Constant Matrix: (Units=GPa)
#
#
# Indices 1 2 3 4 5 6 
#
# 1 103.8123 42.3283 61.1113 0.0000 0.0000 0.0000
# 2 42.3283 52.2583 56.8941 0.0000 0.0000 0.0000
# 3 61.1113 56.8941 109.9988 0.0000 0.0000 0.0000
# 4 0.0000 0.0000 0.0000 28.5173 0.0000 0.0000
# 5 0.0000 0.0000 0.0000 0.0000 31.9090 0.0000
# 6 0.0000 0.0000 0.0000 0.0000 0.0000 7.6562
#
#
#
# Elastic Compliance Matrix: (Units=1/GPa)
#
#
# Indices 1 2 3 4 5 6 
#
# 1 0.015425 -0.007243 -0.004824 0.000000 0.000000 0.000000
# 2 -0.007243 0.047200 -0.020389 0.000000 0.000000 0.000000
# 3 -0.004824 -0.020389 0.022317 0.000000 0.000000 0.000000
# 4 0.000000 0.000000 0.000000 0.035066 0.000000 0.000000
# 5 0.000000 0.000000 0.000000 0.000000 0.031339 0.000000
# 6 0.000000 0.000000 0.000000 0.000000 0.000000 0.130614
#
#
# Mechanical properties :
#
#
# Convention : Reuss Voigt Hill
#
# Bulk Modulus (GPa) = 49.92278 65.19299 57.55789
# Shear Modulus (GPa) = 14.14226 20.66556 17.40391
#
# Velocity S-wave (km/s) = 2.77503 3.35453 3.07844
# Velocity P-wave (km/s) = 6.11979 7.10654 6.63154
#
# Compressibility (1/GPa) = 0.02003093
#
# Stress axis : x y z
#
# Youngs Moduli (GPa) = 64.82776 21.18628 44.80937
#
# Poissons Ratio (x) = 0.15345 0.21615
# Poissons Ratio (y) = 0.46953 0.91363
# Poissons Ratio (z) = 0.31271 0.43197
#
# Static dielectric constant tensor:
#      x y z
#    x 1.614600 0.000000 0.000000 
#    y 0.000000 1.622380 0.000000 
#    z 0.000000 0.000000 1.632290 
# 
# From -- ./inp_files/21704.got.cif
#   From: 2010.05.17/outbox.cif.g08.bks.cpg/sg51_11_cif.got.tgz:21704.got - 2010.06.03 11:52:47.
