data_PCOD9402874
_publ_section_title
;
Structure prediction by ZEFSAII (Michael W. Deem and Ramdas Pophale) SiO2 
 PCOD9402874
Probable space group: P M M A
;
_chemical_formula_sum "Si O2"
_cell_formula_units_Z 48
_cell_length_a 9.750467
_cell_length_b 17.717485
_cell_length_c 14.719409
_cell_angle_alpha 90.000000
_cell_angle_beta 90.000000
_cell_angle_gamma 90.000000
_cell_volume 2542.833144
_symmetry_space_group_name_H-M "P M M A"
_symmetry_group_IT_number 51
_symmetry_cell_setting 'orthorhombic'
loop_
_space_group_symop_operation_xyz
x,y,z
1/2-x,-y,z
1/2+x,-y,-z
-x,y,-z
-x,-y,-z
1/2+x,y,-z
1/2-x,y,z
x,-y,z
loop_
_atom_site_type_symbol
_atom_site_label
_atom_site_fract_x
_atom_site_fract_y
_atom_site_fract_z
Si Si1 0.089288 0.794180 0.909478
Si Si2 0.590161 0.649871 0.219420
Si Si3 0.089223 0.588323 0.587797
Si Si4 0.901628 0.588199 0.922780
Si Si5 0.091179 0.909624 0.757687
Si Si6 0.408794 0.907895 0.413759
O O1 0.250000 0.792454 0.934317
O O2 0.069373 0.728554 0.833460
O O3 0.059469 0.870237 0.853023
O O4 0.000000 0.788194 0.000000
O O5 0.750000 0.627180 0.204301
O O6 0.565395 0.642931 0.326515
O O7 0.482572 0.595860 0.170315
O O8 0.250000 0.592534 0.564832
O O9 0.061397 0.500000 0.613641
O O10 0.000000 0.606543 0.500000
O O11 0.750000 0.622639 0.921827
O O12 0.886329 0.500000 0.943582
O O13 0.000000 0.621494 0.000000
O O14 0.250000 0.889776 0.733838
O O15 0.987551 0.885310 0.678220
O O16 0.084000 0.000000 0.764884
O O17 0.500000 0.883679 0.500000
O O18 0.250000 0.883128 0.417901
O O19 0.407042 0.000000 0.415176
#
# Coordination Sequence:
#
# PCOD9402874 Si02
#       6
#     8   8   8   8   8   8
#     4  10  22  38  55  76 103 136 175 220 271 326
#     4  10  20  35  54  75 103 138 173 211 258 312
#     4   9  18  33  54  79 106 137 172 210 252 298
#     4  10  20  32  48  73 103 134 170 211 252 297
#     4   9  18  34  54  75 102 137 177 223 275 328
#     4   9  16  27  47  76 106 134 165 204 253 310
#
# _framework density 18.876581999999999
#
# number of rings (size 3 to 8) (size 9 to 14) (size 15 to 20)
#    0.000    2.500    0.000    2.000    0.000    7.333 
#    0.000    2.500    0.000    2.000    0.000    0.000 
#    0.000    0.000    0.000    0.000    0.000    0.000 
#
# Total GULP energy -267567.160527 kJ/mol
# GULP energy per Si atom -5574.315844 kJ/mol
# Density = 1.883362 g / cm^3
# Si number density = 18.876582 Si / 1000 Ang^3
#
#
#
# Elastic Constant Matrix: (Units=GPa)
#
#
# Indices 1 2 3 4 5 6 
#
# 1 126.5277 35.3300 103.9267 0.0000 0.0000 0.0000
# 2 35.3300 25.2464 38.2945 0.0000 0.0000 0.0000
# 3 103.9267 38.2945 161.3858 0.0000 0.0000 0.0000
# 4 0.0000 0.0000 0.0000 22.0853 0.0000 0.0000
# 5 0.0000 0.0000 0.0000 0.0000 37.6553 0.0000
# 6 0.0000 0.0000 0.0000 0.0000 0.0000 -4.5791
#
#
#
# Elastic Compliance Matrix: (Units=1/GPa)
#
#
# Indices 1 2 3 4 5 6 
#
# 1 0.019027 -0.012563 -0.009272 0.000000 0.000000 0.000000
# 2 -0.012563 0.070177 -0.008562 0.000000 0.000000 0.000000
# 3 -0.009272 -0.008562 0.014199 0.000000 0.000000 0.000000
# 4 0.000000 0.000000 0.000000 0.045279 0.000000 0.000000
# 5 0.000000 0.000000 0.000000 0.000000 0.026557 0.000000
# 6 0.000000 0.000000 0.000000 0.000000 0.000000 -0.218383
#
#
# Mechanical properties :
#
#
# Convention : Reuss Voigt Hill
#
# Bulk Modulus (GPa) = 23.46876 74.25138 48.86007
# Shear Modulus (GPa) = 156.98000 20.07288 88.52644
#
# Velocity S-wave (km/s) = 9.12917 3.26448 6.85560
# Velocity P-wave (km/s) = 11.11675 7.32323 9.41307
#
# Compressibility (1/GPa) = 0.04260983
#
# Stress axis : x y z
#
# Youngs Moduli (GPa) = 52.55767 14.24959 70.42966
#
# Poissons Ratio (x) = 0.17901 0.65299
# Poissons Ratio (y) = 0.66027 0.60303
# Poissons Ratio (z) = 0.48729 0.12201
#
# Static dielectric constant tensor:
#      x y z
#    x 1.659740 0.000000 0.000000 
#    y 0.000000 1.703250 0.000000 
#    z 0.000000 0.000000 1.643000 
# 
# From -- ./inp_files/21105.got.cif
#   From: 2010.05.17/outbox.cif.g08.bks.cpg/sg51_11_cif.got.tgz:21105.got - 2010.06.03 11:52:47.
