data_PCOD9402554
_publ_section_title
;
Structure prediction by ZEFSAII (Michael W. Deem and Ramdas Pophale) SiO2 
 PCOD9402554
Probable space group: P M M A
;
_chemical_formula_sum "Si O2"
_cell_formula_units_Z 48
_cell_length_a 15.588026
_cell_length_b 12.789571
_cell_length_c 14.773536
_cell_angle_alpha 90.000000
_cell_angle_beta 90.000000
_cell_angle_gamma 90.000000
_cell_volume 2945.313673
_symmetry_space_group_name_H-M "P M M A"
_symmetry_group_IT_number 51
_symmetry_cell_setting 'orthorhombic'
loop_
_space_group_symop_operation_xyz
x,y,z
1/2-x,-y,z
1/2+x,-y,-z
-x,y,-z
-x,-y,-z
1/2+x,y,-z
1/2-x,y,z
x,-y,z
loop_
_atom_site_type_symbol
_atom_site_label
_atom_site_fract_x
_atom_site_fract_y
_atom_site_fract_z
Si Si1 0.750000 0.626584 0.392465
Si Si2 0.597654 0.623465 0.730850
Si Si3 0.413658 0.000000 0.938398
Si Si4 0.098395 0.624275 0.742222
Si Si5 0.353709 0.226606 0.110647
Si Si6 0.146194 0.781463 0.900583
Si Si7 0.750000 0.627303 0.598647
Si Si8 0.345889 0.000000 0.127659
O O1 0.750000 0.500000 0.397300
O O2 0.833185 0.655792 0.334082
O O3 0.750000 0.665433 0.495428
O O4 0.611935 0.500000 0.744859
O O5 0.498267 0.638365 0.706959
O O6 0.614910 0.683987 0.823548
O O7 0.665657 0.658935 0.655139
O O8 0.398180 0.893941 0.883772
O O9 0.500000 0.000000 0.000000
O O10 0.342032 0.000000 0.017944
O O11 0.110292 0.500000 0.762242
O O12 0.114658 0.693628 0.831225
O O13 0.250000 0.222558 0.113550
O O14 0.386135 0.113049 0.146253
O O15 0.377046 0.242647 0.005602
O O16 0.250000 0.789598 0.894252
O O17 0.750000 0.500000 0.595571
O O18 0.250000 0.000000 0.166287
#
# Coordination Sequence:
#
# PCOD9402554 Si02
#       8
#     4   8   4   8   8   8   4   4
#     4   9  18  36  55  72  97 130 169 218 263 309
#     4  10  20  32  48  75 105 131 165 207 254 314
#     4  10  20  30  48  74 100 131 179 220 246 287
#     4  10  21  34  50  75 106 136 174 212 253 315
#     4   9  17  30  49  69  99 135 168 207 244 296
#     4  10  20  34  51  71 103 144 177 212 254 294
#     4   9  18  34  55  74  97 128 165 212 271 317
#     4   8  16  30  44  62  90 127 166 204 240 276
#
# _framework density 16.297076000000001
#
# number of rings (size 3 to 8) (size 9 to 14) (size 15 to 20)
#    0.000    2.500    1.667    1.750    4.667    1.333 
#    0.000    6.667    0.000    0.000    0.000    2.333 
#    0.000    2.667    0.000    0.000    0.000    0.000 
#
# Total GULP energy -267324.560800 kJ/mol
# GULP energy per Si atom -5569.261683 kJ/mol
# Density = 1.625998 g / cm^3
# Si number density = 16.297076 Si / 1000 Ang^3
#
#
#
# Elastic Constant Matrix: (Units=GPa)
#
#
# Indices 1 2 3 4 5 6 
#
# 1 104.0747 48.5731 58.0119 0.0000 0.0000 0.0000
# 2 48.5731 64.7318 52.5701 0.0000 0.0000 0.0000
# 3 58.0119 52.5701 108.2447 0.0000 0.0000 0.0000
# 4 0.0000 0.0000 0.0000 -2.6280 0.0000 0.0000
# 5 0.0000 0.0000 0.0000 0.0000 9.0801 0.0000
# 6 0.0000 0.0000 0.0000 0.0000 0.0000 15.2406
#
#
#
# Elastic Compliance Matrix: (Units=1/GPa)
#
#
# Indices 1 2 3 4 5 6 
#
# 1 0.016034 -0.008343 -0.004541 0.000000 0.000000 0.000000
# 2 -0.008343 0.029852 -0.010026 0.000000 0.000000 0.000000
# 3 -0.004541 -0.010026 0.016541 0.000000 0.000000 0.000000
# 4 0.000000 0.000000 0.000000 -0.380511 0.000000 0.000000
# 5 0.000000 0.000000 0.000000 0.000000 0.110131 0.000000
# 6 0.000000 0.000000 0.000000 0.000000 0.000000 0.065614
#
#
# Mechanical properties :
#
#
# Convention : Reuss Voigt Hill
#
# Bulk Modulus (GPa) = 60.22132 66.15125 63.18629
# Shear Modulus (GPa) = -54.95531 12.19826 -21.37852
#
# Velocity S-wave (km/s) = -5.81327 2.73883 -3.62581
# Velocity P-wave (km/s) = 2.83310 7.11903 4.61812
#
# Compressibility (1/GPa) = 0.01660541
#
# Stress axis : x y z
#
# Youngs Moduli (GPa) = 62.36910 33.49905 60.45505
#
# Poissons Ratio (x) = 0.27950 0.27452
# Poissons Ratio (y) = 0.52038 0.60613
# Poissons Ratio (z) = 0.28321 0.33587
#
# Static dielectric constant tensor:
#      x y z
#    x 1.611630 0.000000 0.000000 
#    y 0.000000 1.574440 0.000000 
#    z 0.000000 0.000000 1.511120 
# 
# From -- ./inp_files/24130.got.cif
#   From: 2010.05.17/outbox.cif.g08.bks.cpg/sg51_13_cif.got.tgz:24130.got - 2010.06.03 11:52:47.
