data_PCOD9402771
_publ_section_title
;
Structure prediction by ZEFSAII (Michael W. Deem and Ramdas Pophale) SiO2 
 PCOD9402771
Probable space group: P M M A
;
_chemical_formula_sum "Si O2"
_cell_formula_units_Z 64
_cell_length_a 20.215525
_cell_length_b 9.106583
_cell_length_c 18.175525
_cell_angle_alpha 90.000000
_cell_angle_beta 90.000000
_cell_angle_gamma 90.000000
_cell_volume 3346.011575
_symmetry_space_group_name_H-M "P M M A"
_symmetry_group_IT_number 51
_symmetry_cell_setting 'orthorhombic'
loop_
_space_group_symop_operation_xyz
x,y,z
1/2-x,-y,z
1/2+x,-y,-z
-x,y,-z
-x,-y,-z
1/2+x,y,-z
1/2-x,y,z
x,-y,z
loop_
_atom_site_type_symbol
_atom_site_label
_atom_site_fract_x
_atom_site_fract_y
_atom_site_fract_z
Si Si1 0.011569 0.668462 0.883739
Si Si2 0.174478 0.676742 0.370505
Si Si3 0.322974 0.823427 0.760646
Si Si4 0.961707 0.320911 0.572479
Si Si5 0.171269 0.836544 0.221487
Si Si6 0.861456 0.331075 0.926966
Si Si7 0.958283 0.324866 0.282901
Si Si8 0.359313 0.827112 0.926425
O O1 0.037495 0.500000 0.891492
O O2 0.941532 0.673709 0.923734
O O3 0.005538 0.698265 0.795970
O O4 0.064106 0.782733 0.914609
O O5 0.250000 0.725328 0.387278
O O6 0.175654 0.500000 0.367285
O O7 0.115479 0.722669 0.424764
O O8 0.152668 0.736899 0.290828
O O9 0.250000 0.779556 0.733159
O O10 0.386285 0.749322 0.723271
O O11 0.326982 0.788455 0.848057
O O12 0.328879 0.000000 0.754603
O O13 0.962661 0.500000 0.572337
O O14 0.000000 0.270323 0.500000
O O15 0.999516 0.274086 0.646976
O O16 0.250000 0.850089 0.228128
O O17 0.158762 0.760535 0.144059
O O18 0.141549 0.000000 0.224853
O O19 0.840891 0.500000 0.919882
O O20 0.836113 0.261363 0.002447
O O21 0.949226 0.500000 0.289966
O O22 0.351142 0.000000 0.938974
#
# Coordination Sequence:
#
# PCOD9402771 Si02
#       8
#     8   8   8   8   8   8   8   8
#     4   9  18  32  48  67  94 128 166 209 258 309
#     4   9  17  32  55  79 104 140 183 217 249 302
#     4   9  19  36  54  70  94 132 175 219 268 317
#     4   9  17  31  53  83 117 145 169 207 258 304
#     4  10  21  35  50  70  97 129 166 210 258 305
#     4  11  21  32  48  70  98 132 168 209 260 315
#     4   9  17  31  52  76 101 131 169 213 258 305
#     4  10  20  32  47  69  96 128 169 215 263 313
#
# _framework density 19.127251000000001
#
# number of rings (size 3 to 8) (size 9 to 14) (size 15 to 20)
#    0.000    2.500    0.000    2.250    0.000    6.500 
#    0.000    5.000    0.000    3.750    0.000    1.750 
#    0.000    0.000    0.000    0.000    0.000    0.000 
#
# Total GULP energy -356948.308093 kJ/mol
# GULP energy per Si atom -5577.317314 kJ/mol
# Density = 1.908372 g / cm^3
# Si number density = 19.127251 Si / 1000 Ang^3
#
#
#
# Elastic Constant Matrix: (Units=GPa)
#
#
# Indices 1 2 3 4 5 6 
#
# 1 94.0476 20.8313 45.9087 0.0000 0.0000 0.0000
# 2 20.8313 23.2173 15.0080 0.0000 0.0000 0.0000
# 3 45.9087 15.0080 86.3190 0.0000 0.0000 0.0000
# 4 0.0000 0.0000 0.0000 59.5904 0.0000 0.0000
# 5 0.0000 0.0000 0.0000 0.0000 6.2994 0.0000
# 6 0.0000 0.0000 0.0000 0.0000 0.0000 17.3746
#
#
#
# Elastic Compliance Matrix: (Units=1/GPa)
#
#
# Indices 1 2 3 4 5 6 
#
# 1 0.016229 -0.010119 -0.006872 0.000000 0.000000 0.000000
# 2 -0.010119 0.054834 -0.004152 0.000000 0.000000 0.000000
# 3 -0.006872 -0.004152 0.015962 0.000000 0.000000 0.000000
# 4 0.000000 0.000000 0.000000 0.016781 0.000000 0.000000
# 5 0.000000 0.000000 0.000000 0.000000 0.158745 0.000000
# 6 0.000000 0.000000 0.000000 0.000000 0.000000 0.057555
#
#
# Mechanical properties :
#
#
# Convention : Reuss Voigt Hill
#
# Bulk Modulus (GPa) = 22.35196 40.78666 31.56931
# Shear Modulus (GPa) = 13.25189 24.77529 19.01359
#
# Velocity S-wave (km/s) = 2.63502 3.60291 3.15629
# Velocity P-wave (km/s) = 4.57920 6.21917 5.46110
#
# Compressibility (1/GPa) = 0.04473881
#
# Stress axis : x y z
#
# Youngs Moduli (GPa) = 61.61946 18.23682 62.65011
#
# Poissons Ratio (x) = 0.18453 0.43052
# Poissons Ratio (y) = 0.62351 0.26014
# Poissons Ratio (z) = 0.42344 0.07572
#
# Static dielectric constant tensor:
#      x y z
#    x 1.703240 0.000000 0.000000 
#    y 0.000000 1.660130 0.000000 
#    z 0.000000 0.000000 1.661000 
# 
# From -- ./inp_files/30541.got.cif
#   From: 2010.05.17/outbox.cif.g08.bks.cpg/sg51_16_cif.got.tgz:30541.got - 2010.06.03 11:52:47.
