data_PCOD9402997
_publ_section_title
;
Structure prediction by ZEFSAII (Michael W. Deem and Ramdas Pophale) SiO2 
 PCOD9402997
Probable space group: P M M A
;
_chemical_formula_sum "Si O2"
_cell_formula_units_Z 64
_cell_length_a 30.846731
_cell_length_b 15.827187
_cell_length_c 6.699092
_cell_angle_alpha 90.000000
_cell_angle_beta 90.000000
_cell_angle_gamma 90.000000
_cell_volume 3270.610464
_symmetry_space_group_name_H-M "P M M A"
_symmetry_group_IT_number 51
_symmetry_cell_setting 'orthorhombic'
loop_
_space_group_symop_operation_xyz
x,y,z
1/2-x,-y,z
1/2+x,-y,-z
-x,y,-z
-x,-y,-z
1/2+x,y,-z
1/2-x,y,z
x,-y,z
loop_
_atom_site_type_symbol
_atom_site_label
_atom_site_fract_x
_atom_site_fract_y
_atom_site_fract_z
Si Si1 0.368479 0.906998 0.227174
Si Si2 0.202005 0.242828 0.285643
Si Si3 0.403808 0.593764 0.346388
Si Si4 0.099670 0.817826 0.866229
Si Si5 0.546463 0.138185 0.521315
Si Si6 0.844105 0.687674 0.349785
Si Si7 0.824087 0.594901 0.959065
Si Si8 0.538932 0.282855 0.845096
O O1 0.335263 0.828819 0.261792
O O2 0.411557 0.900225 0.365592
O O3 0.349030 0.000000 0.258082
O O4 0.385065 0.895632 0.000139
O O5 0.250000 0.205575 0.271531
O O6 0.193602 0.286707 0.499401
O O7 0.198647 0.321642 0.131688
O O8 0.408167 0.500000 0.428301
O O9 0.383883 0.655337 0.512914
O O10 0.368675 0.592359 0.167569
O O11 0.447654 0.629754 0.255001
O O12 0.064870 0.839617 0.696904
O O13 0.139603 0.770539 0.764309
O O14 0.078858 0.752741 0.024165
O O15 0.500000 0.092330 0.500000
O O16 0.533923 0.217240 0.663872
O O17 0.832061 0.616522 0.190087
O O18 0.804813 0.500000 0.936247
O O19 0.500000 0.287580 0.000000
#
# Coordination Sequence:
#
# PCOD9402997 Si02
#       8
#     8   8   8   8   8   8   8   8
#     4  11  25  43  65  95 125 160 209 259 315 383
#     4  11  24  42  65  93 126 164 208 257 312 377
#     4  10  20  32  51  84 121 160 210 260 307 364
#     4  11  19  38  63  88 116 158 208 251 302 368
#     4  11  21  38  65  92 122 161 203 256 315 370
#     4  11  18  38  64  87 116 162 213 252 304 371
#     4  10  20  37  62  90 123 160 200 254 313 366
#     4  11  20  31  55  84 118 164 213 253 305 373
#
# _framework density 19.568213
#
# number of rings (size 3 to 8) (size 9 to 14) (size 15 to 20)
#    0.000    1.250    6.250    1.875    0.000    2.500 
#    0.000    0.625    0.000    1.125    0.000    0.000 
#    0.000    0.000    0.000    0.000    0.000    0.000 
#
# Total GULP energy -356834.851174 kJ/mol
# GULP energy per Si atom -5575.544550 kJ/mol
# Density = 1.952367 g / cm^3
# Si number density = 19.568213 Si / 1000 Ang^3
#
#
#
# Elastic Constant Matrix: (Units=GPa)
#
#
# Indices 1 2 3 4 5 6 
#
# 1 82.1903 37.0932 19.7763 0.0000 0.0000 0.0000
# 2 37.0932 100.0325 24.3515 0.0000 0.0000 0.0000
# 3 19.7763 24.3515 103.4837 0.0000 0.0000 0.0000
# 4 0.0000 0.0000 0.0000 1.1162 0.0000 0.0000
# 5 0.0000 0.0000 0.0000 0.0000 0.0027 0.0000
# 6 0.0000 0.0000 0.0000 0.0000 0.0000 -1.1224
#
#
#
# Elastic Compliance Matrix: (Units=1/GPa)
#
#
# Indices 1 2 3 4 5 6 
#
# 1 0.014869 -0.005115 -0.001638 0.000000 0.000000 0.000000
# 2 -0.005115 0.012364 -0.001932 0.000000 0.000000 0.000000
# 3 -0.001638 -0.001932 0.010431 0.000000 0.000000 0.000000
# 4 0.000000 0.000000 0.000000 0.895862 0.000000 0.000000
# 5 0.000000 0.000000 0.000000 0.000000370.958485 0.000000
# 6 0.000000 0.000000 0.000000 0.000000 0.000000 -0.890936
#
#
# Mechanical properties :
#
#
# Convention : Reuss Voigt Hill
#
# Bulk Modulus (GPa) = 49.27467 49.79429 49.53448
# Shear Modulus (GPa) = 0.01348 13.63167 6.82258
#
# Velocity S-wave (km/s) = 0.08308 2.64223 1.86926
# Velocity P-wave (km/s) = 5.02442 5.90002 5.47974
#
# Compressibility (1/GPa) = 0.02029440
#
# Stress axis : x y z
#
# Youngs Moduli (GPa) = 67.25195 80.88162 95.86812
#
# Poissons Ratio (x) = 0.41371 0.15703
# Poissons Ratio (y) = 0.34400 0.18521
# Poissons Ratio (z) = 0.11016 0.15625
#
# Static dielectric constant tensor:
#      x y z
#    x 1.700380 0.000000 0.000000 
#    y 0.000000 1.698300 0.000000 
#    z 0.000000 0.000000 1.686980 
# 
# From -- ./inp_files/4091.got.cif
#   From: 2010.05.17/outbox.cif.g08.bks.cpg/sg51_3_cif.got.tgz:4091.got - 2010.06.03 11:52:47.
