data_PCOD9402038
_publ_section_title
;
Structure prediction by ZEFSAII (Michael W. Deem and Ramdas Pophale) SiO2 
 PCOD9402038
Probable space group: P M M A
;
_chemical_formula_sum "Si O2"
_cell_formula_units_Z 44
_cell_length_a 8.288751
_cell_length_b 29.835326
_cell_length_c 9.519908
_cell_angle_alpha 90.000000
_cell_angle_beta 90.000000
_cell_angle_gamma 90.000000
_cell_volume 2354.250288
_symmetry_space_group_name_H-M "P M M A"
_symmetry_group_IT_number 51
_symmetry_cell_setting 'orthorhombic'
loop_
_space_group_symop_operation_xyz
x,y,z
1/2-x,-y,z
1/2+x,-y,-z
-x,y,-z
-x,-y,-z
1/2+x,y,-z
1/2-x,y,z
x,-y,z
loop_
_atom_site_type_symbol
_atom_site_label
_atom_site_fract_x
_atom_site_fract_y
_atom_site_fract_z
Si Si1 0.940910 0.500000 0.340218
Si Si2 0.554801 0.134704 0.659771
Si Si3 0.555107 0.949522 0.841050
Si Si4 0.445261 0.779995 0.161576
Si Si5 0.056656 0.415547 0.161524
Si Si6 0.055468 0.317694 0.161899
O O1 0.750000 0.500000 0.340211
O O2 0.000000 0.500000 0.500000
O O3 0.999056 0.456056 0.257192
O O4 0.500000 0.135999 0.500000
O O5 0.750000 0.134750 0.663503
O O6 0.498171 0.089492 0.737706
O O7 0.497876 0.178469 0.745252
O O8 0.750000 0.949521 0.839366
O O9 0.500240 0.000000 0.803548
O O10 0.500000 0.940253 0.000000
O O11 0.250000 0.780361 0.161729
O O12 0.499298 0.730852 0.217681
O O13 0.500000 0.784838 0.000000
O O14 0.250000 0.415665 0.160013
O O15 0.000230 0.366326 0.216308
O O16 0.000000 0.421047 0.000000
O O17 0.250000 0.317743 0.167798
O O18 0.000000 0.317509 0.000000
#
# Coordination Sequence:
#
# PCOD9402038 Si02
#       6
#     4   8   8   8   8   8
#     4  12  25  40  55  74 102 136 172 210 253 302
#     4  10  21  34  48  69 100 134 167 204 245 292
#     4   9  18  33  52  74  98 125 161 205 250 296
#     4   9  17  31  51  75 100 128 164 205 247 291
#     4  10  19  34  56  81 106 134 168 207 250 297
#     4   8  15  28  49  75 102 128 159 202 247 290
#
# _framework density 18.689603000000002
#
# number of rings (size 3 to 8) (size 9 to 14) (size 15 to 20)
#    0.000    2.545    0.000    2.182    0.000    2.545 
#    0.000    0.909    0.000    2.182    0.000    0.000 
#    0.000    0.000    0.000    0.000    0.000    0.000 
#
# Total GULP energy -245259.846207 kJ/mol
# GULP energy per Si atom -5574.087414 kJ/mol
# Density = 1.864706 g / cm^3
# Si number density = 18.689603 Si / 1000 Ang^3
#
#
#
# Elastic Constant Matrix: (Units=GPa)
#
#
# Indices 1 2 3 4 5 6 
#
# 1 22.3628 28.2713 14.2349 0.0000 0.0000 0.0000
# 2 28.2713 233.2816 116.1856 0.0000 0.0000 0.0000
# 3 14.2349 116.1856 104.1093 0.0000 0.0000 0.0000
# 4 0.0000 0.0000 0.0000 -4.6679 0.0000 0.0000
# 5 0.0000 0.0000 0.0000 0.0000 28.7649 0.0000
# 6 0.0000 0.0000 0.0000 0.0000 0.0000 6.2667
#
#
#
# Elastic Compliance Matrix: (Units=1/GPa)
#
#
# Indices 1 2 3 4 5 6 
#
# 1 0.052809 -0.006312 -0.000176 0.000000 0.000000 0.000000
# 2 -0.006312 0.010405 -0.010749 0.000000 0.000000 0.000000
# 3 -0.000176 -0.010749 0.021625 0.000000 0.000000 0.000000
# 4 0.000000 0.000000 0.000000 -0.214231 0.000000 0.000000
# 5 0.000000 0.000000 0.000000 0.000000 0.034765 0.000000
# 6 0.000000 0.000000 0.000000 0.000000 0.000000 0.159573
#
#
# Mechanical properties :
#
#
# Convention : Reuss Voigt Hill
#
# Bulk Modulus (GPa) = 19.85517 75.23746 47.54631
# Shear Modulus (GPa) = 43.02560 19.47688 31.25124
#
# Velocity S-wave (km/s) = 4.80324 3.23170 4.09359
# Velocity P-wave (km/s) = 6.43492 7.36674 6.91654
#
# Compressibility (1/GPa) = 0.05036471
#
# Stress axis : x y z
#
# Youngs Moduli (GPa) = 18.93609 96.10559 46.24190
#
# Poissons Ratio (x) = 0.60663 0.00815
# Poissons Ratio (y) = 0.11953 0.49706
# Poissons Ratio (z) = 0.00334 1.03305
#
# Static dielectric constant tensor:
#      x y z
#    x 1.642490 0.000000 0.000000 
#    y 0.000000 1.716480 0.000000 
#    z 0.000000 0.000000 1.576050 
# 
# From -- ./inp_files/5692.got.cif
#   From: 2010.05.17/outbox.cif.g08.bks.cpg/sg51_3_cif.got.tgz:5692.got - 2010.06.03 11:52:47.
