data_PCOD9402976
_publ_section_title
;
Structure prediction by ZEFSAII (Michael W. Deem and Ramdas Pophale) SiO2 
 PCOD9402976
Probable space group: P M M A
;
_chemical_formula_sum "Si O2"
_cell_formula_units_Z 64
_cell_length_a 18.828075
_cell_length_b 13.666262
_cell_length_c 15.605473
_cell_angle_alpha 90.000000
_cell_angle_beta 90.000000
_cell_angle_gamma 90.000000
_cell_volume 4015.434987
_symmetry_space_group_name_H-M "P M M A"
_symmetry_group_IT_number 51
_symmetry_cell_setting 'orthorhombic'
loop_
_space_group_symop_operation_xyz
x,y,z
1/2-x,-y,z
1/2+x,-y,-z
-x,y,-z
-x,-y,-z
1/2+x,y,-z
1/2-x,y,z
x,-y,z
loop_
_atom_site_type_symbol
_atom_site_label
_atom_site_fract_x
_atom_site_fract_y
_atom_site_fract_z
Si Si1 0.917018 0.209861 0.781304
Si Si2 0.164162 0.391469 0.950463
Si Si3 0.665036 0.813958 0.120285
Si Si4 0.423511 0.118372 0.534960
Si Si5 0.668339 0.881892 0.624295
Si Si6 0.423965 0.114890 0.036255
Si Si7 0.434814 0.882984 0.732060
Si Si8 0.833590 0.384399 0.847976
O O1 0.874146 0.160139 0.704322
O O2 0.902997 0.162801 0.874326
O O3 0.887426 0.319636 0.792585
O O4 0.998667 0.183246 0.761122
O O5 0.250000 0.394952 0.946299
O O6 0.137242 0.500000 0.927031
O O7 0.142335 0.299816 0.892853
O O8 0.148066 0.372613 0.050762
O O9 0.750000 0.819712 0.123887
O O10 0.628574 0.861557 0.202567
O O11 0.634444 0.867047 0.036258
O O12 0.500000 0.151423 0.500000
O O13 0.365398 0.150810 0.466079
O O14 0.414830 0.143271 0.634440
O O15 0.423656 0.000000 0.532644
O O16 0.750000 0.853339 0.629554
O O17 0.663562 0.000000 0.627579
O O18 0.433140 0.000000 0.051842
O O19 0.500000 0.152666 0.000000
O O20 0.453411 0.000000 0.735369
O O21 0.750000 0.354997 0.837035
O O22 0.838061 0.500000 0.829385
#
# Coordination Sequence:
#
# PCOD9402976 Si02
#       8
#     8   8   8   8   8   8   8   8
#     4  12  20  32  53  76 104 137 177 213 256 315
#     4   8  15  31  52  70  93 130 174 220 267 306
#     4  11  22  35  51  75 104 139 183 224 261 307
#     4   9  17  33  54  72  95 135 176 208 255 312
#     4  10  20  32  50  80 109 129 164 219 265 309
#     4  11  22  34  48  68 104 150 184 208 248 309
#     4  11  22  35  53  75 105 146 181 213 257 314
#     4   9  18  33  52  75 104 137 174 219 269 314
#
# _framework density 15.938497
#
# number of rings (size 3 to 8) (size 9 to 14) (size 15 to 20)
#    0.000    1.875    3.750    2.625    0.000    2.000 
#    0.000    1.875    0.000    2.250    0.000    2.625 
#    0.000    2.000    0.000    0.000    0.000    0.000 
#
# Total GULP energy -356704.755180 kJ/mol
# GULP energy per Si atom -5573.511800 kJ/mol
# Density = 1.590222 g / cm^3
# Si number density = 15.938497 Si / 1000 Ang^3
#
#
#
# Elastic Constant Matrix: (Units=GPa)
#
#
# Indices 1 2 3 4 5 6 
#
# 1 82.9613 19.5716 45.8064 0.0000 0.0000 0.0000
# 2 19.5716 46.1805 15.9436 0.0000 0.0000 0.0000
# 3 45.8064 15.9436 116.6542 0.0000 0.0000 0.0000
# 4 0.0000 0.0000 0.0000 2.6604 0.0000 0.0000
# 5 0.0000 0.0000 0.0000 0.0000 20.1113 0.0000
# 6 0.0000 0.0000 0.0000 0.0000 0.0000 19.8670
#
#
#
# Elastic Compliance Matrix: (Units=1/GPa)
#
#
# Indices 1 2 3 4 5 6 
#
# 1 0.016407 -0.004963 -0.005764 0.000000 0.000000 0.000000
# 2 -0.004963 0.024228 -0.001362 0.000000 0.000000 0.000000
# 3 -0.005764 -0.001362 0.011022 0.000000 0.000000 0.000000
# 4 0.000000 0.000000 0.000000 0.375889 0.000000 0.000000
# 5 0.000000 0.000000 0.000000 0.000000 0.049723 0.000000
# 6 0.000000 0.000000 0.000000 0.000000 0.000000 0.050335
#
#
# Mechanical properties :
#
#
# Convention : Reuss Voigt Hill
#
# Bulk Modulus (GPa) = 36.39375 45.38213 40.88794
# Shear Modulus (GPa) = 8.91354 19.49268 14.20311
#
# Velocity S-wave (km/s) = 2.36740 3.50093 2.98840
# Velocity P-wave (km/s) = 5.50965 6.69904 6.13324
#
# Compressibility (1/GPa) = 0.02747724
#
# Stress axis : x y z
#
# Youngs Moduli (GPa) = 60.94778 41.27449 90.72761
#
# Poissons Ratio (x) = 0.20487 0.52298
# Poissons Ratio (y) = 0.30251 0.12360
# Poissons Ratio (z) = 0.35132 0.05623
#
# Static dielectric constant tensor:
#      x y z
#    x 1.552910 0.000000 0.000000 
#    y 0.000000 1.549220 0.000000 
#    z 0.000000 0.000000 1.539120 
# 
# From -- ./inp_files/25389.got.cif
#   From: 2010.05.17/outbox.cif.g08.bks.cpg/sg51_13_cif.got.tgz:25389.got - 2010.06.03 11:52:47.
