data_PCOD9402173
_publ_section_title
;
Structure prediction by ZEFSAII (Michael W. Deem and Ramdas Pophale) SiO2 
 PCOD9402173
Probable space group: P M M A
;
_chemical_formula_sum "Si O2"
_cell_formula_units_Z 58
_cell_length_a 30.496594
_cell_length_b 7.743602
_cell_length_c 12.195133
_cell_angle_alpha 90.000000
_cell_angle_beta 90.000000
_cell_angle_gamma 90.000000
_cell_volume 2879.923174
_symmetry_space_group_name_H-M "P M M A"
_symmetry_group_IT_number 51
_symmetry_cell_setting 'orthorhombic'
loop_
_space_group_symop_operation_xyz
x,y,z
1/2-x,-y,z
1/2+x,-y,-z
-x,y,-z
-x,-y,-z
1/2+x,y,-z
1/2-x,y,z
x,-y,z
loop_
_atom_site_type_symbol
_atom_site_label
_atom_site_fract_x
_atom_site_fract_y
_atom_site_fract_z
Si Si1 0.420910 0.800050 0.702814
Si Si2 0.321171 0.708058 0.323090
Si Si3 0.373976 0.199998 0.915407
Si Si4 0.478446 0.296062 0.304782
Si Si5 0.044264 0.290195 0.064676
Si Si6 0.200790 0.295563 0.077336
Si Si7 0.750000 0.000000 0.618446
Si Si8 0.407514 0.295067 0.466096
O O1 0.391770 0.722079 0.801048
O O2 0.469411 0.721766 0.693376
O O3 0.399022 0.786280 0.584143
O O4 0.428526 0.000000 0.730421
O O5 0.309580 0.500000 0.332515
O O6 0.320860 0.755301 0.193423
O O7 0.368205 0.727625 0.380314
O O8 0.287856 0.844714 0.375879
O O9 0.365648 0.000000 0.894315
O O10 0.413562 0.222912 0.001358
O O11 0.330264 0.264498 0.974161
O O12 0.468550 0.500000 0.304030
O O13 0.460332 0.227528 0.189235
O O14 0.451933 0.226550 0.408928
O O15 0.046883 0.500000 0.064612
O O16 0.000000 0.242487 0.000000
O O17 0.250000 0.219691 0.069910
O O18 0.205331 0.500000 0.085044
O O19 0.412254 0.500000 0.487824
#
# Coordination Sequence:
#
# PCOD9402173 Si02
#       8
#     8   8   8   8   8   8   2   8
#     4  11  24  39  54  81 121 161 203 250 298 356
#     4  10  22  41  64  98 130 156 200 253 308 372
#     4  11  24  37  56  85 120 158 196 245 302 362
#     4  10  20  37  59  85 114 153 203 248 299 353
#     4  10  19  34  58  84 113 152 195 237 290 363
#     4  10  21  40  65  90 120 150 190 249 301 363
#     4  12  22  36  72  98 124 170 190 246 326 376
#     4  10  22  39  61  85 117 157 203 256 297 353
#
# _framework density 20.139426
#
# number of rings (size 3 to 8) (size 9 to 14) (size 15 to 20)
#    0.000    1.655    2.069    2.276    1.931    7.172 
#    0.000    0.000    1.517    0.000    0.000    0.000 
#    0.000    0.000    0.000    0.000    0.000    0.000 
#
# Total GULP energy -323179.116098 kJ/mol
# GULP energy per Si atom -5572.053726 kJ/mol
# Density = 2.009359 g / cm^3
# Si number density = 20.139426 Si / 1000 Ang^3
#
#
#
# Elastic Constant Matrix: (Units=GPa)
#
#
# Indices 1 2 3 4 5 6 
#
# 1 95.7617 3.8943 68.9117 0.0000 0.0000 0.0000
# 2 3.8943 39.2080 1.5296 0.0000 0.0000 0.0000
# 3 68.9117 1.5296 116.9469 0.0000 0.0000 0.0000
# 4 0.0000 0.0000 0.0000 36.1891 0.0000 0.0000
# 5 0.0000 0.0000 0.0000 0.0000 -0.9002 0.0000
# 6 0.0000 0.0000 0.0000 0.0000 0.0000 46.5455
#
#
#
# Elastic Compliance Matrix: (Units=1/GPa)
#
#
# Indices 1 2 3 4 5 6 
#
# 1 0.018206 -0.001391 -0.010710 0.000000 0.000000 0.000000
# 2 -0.001391 0.025624 0.000484 0.000000 0.000000 0.000000
# 3 -0.010710 0.000484 0.014855 0.000000 0.000000 0.000000
# 4 0.000000 0.000000 0.000000 0.027633 0.000000 0.000000
# 5 0.000000 0.000000 0.000000 0.000000 -1.110840 0.000000
# 6 0.000000 0.000000 0.000000 0.000000 0.000000 0.021484
#
#
# Mechanical properties :
#
#
# Convention : Reuss Voigt Hill
#
# Bulk Modulus (GPa) = 28.20601 44.50976 36.35788
# Shear Modulus (GPa) = -5.16536 28.20560 11.52012
#
# Velocity S-wave (km/s) = -1.60324 3.74641 2.39429
# Velocity P-wave (km/s) = 3.25709 6.39241 5.07304
#
# Compressibility (1/GPa) = 0.03545343
#
# Stress axis : x y z
#
# Youngs Moduli (GPa) = 54.92640 39.02557 67.31532
#
# Poissons Ratio (x) = 0.05427 0.72094
# Poissons Ratio (y) = 0.07638 -0.03260
# Poissons Ratio (z) = 0.58826 -0.01890
#
# Static dielectric constant tensor:
#      x y z
#    x 1.710880 0.000000 0.000000 
#    y 0.000000 1.749170 0.000000 
#    z 0.000000 0.000000 1.739840 
# 
# From -- ./inp_files/19368.got.cif
#   From: 2010.05.17/outbox.cif.g08.bks.cpg/sg51_10_cif.got.tgz:19368.got - 2010.06.03 11:52:47.
