data_PCOD9402358
_publ_section_title
;
Structure prediction by ZEFSAII (Michael W. Deem and Ramdas Pophale) SiO2 
 PCOD9402358
Probable space group: P M M A
;
_chemical_formula_sum "Si O2"
_cell_formula_units_Z 32
_cell_length_a 15.028856
_cell_length_b 8.720502
_cell_length_c 12.704527
_cell_angle_alpha 90.000000
_cell_angle_beta 90.000000
_cell_angle_gamma 90.000000
_cell_volume 1665.044749
_symmetry_space_group_name_H-M "P M M A"
_symmetry_group_IT_number 51
_symmetry_cell_setting 'orthorhombic'
loop_
_space_group_symop_operation_xyz
x,y,z
1/2-x,-y,z
1/2+x,-y,-z
-x,y,-z
-x,-y,-z
1/2+x,y,-z
1/2-x,y,z
x,-y,z
loop_
_atom_site_type_symbol
_atom_site_label
_atom_site_fract_x
_atom_site_fract_y
_atom_site_fract_z
Si Si1 0.405448 0.682917 0.275458
Si Si2 0.750000 0.313302 0.879721
Si Si3 0.102987 0.184480 0.726122
Si Si4 0.608164 0.176512 0.506421
Si Si5 0.250000 0.315756 0.878090
O O1 0.416251 0.500000 0.270233
O O2 0.336922 0.734283 0.185696
O O3 0.501501 0.760650 0.262489
O O4 0.368372 0.727510 0.390842
O O5 0.750000 0.500000 0.879477
O O6 0.750000 0.263584 0.000543
O O7 0.136547 0.232125 0.609026
O O8 0.164635 0.253711 0.815735
O O9 0.105955 0.000000 0.728088
O O10 0.500000 0.176513 0.500000
O O11 0.636397 0.000000 0.520861
O O12 0.250000 0.500000 0.876211
#
# Coordination Sequence:
#
# PCOD9402358 Si02
#       5
#     8   4   8   8   4
#     4  10  19  35  59  84 111 145 185 226 270 325
#     4   9  22  40  55  78 112 145 182 233 280 315
#     4  10  21  38  57  82 116 146 176 224 282 329
#     4   8  16  32  53  79 113 146 174 215 274 330
#     4  11  23  40  59  78 104 145 194 231 268 325
#
# _framework density 19.218702
#
# number of rings (size 3 to 8) (size 9 to 14) (size 15 to 20)
#    0.000    2.500    0.000    3.375    0.000    7.500 
#    0.000   15.000    0.000    0.000    0.000    0.000 
#    0.000    0.000    0.000    0.000    0.000    0.000 
#
# Total GULP energy -178621.844844 kJ/mol
# GULP energy per Si atom -5581.932651 kJ/mol
# Density = 1.917496 g / cm^3
# Si number density = 19.218702 Si / 1000 Ang^3
#
#
#
# Elastic Constant Matrix: (Units=GPa)
#
#
# Indices 1 2 3 4 5 6 
#
# 1 103.9686 28.9459 87.5274 0.0000 0.0000 0.0000
# 2 28.9459 51.1192 50.4409 0.0000 0.0000 0.0000
# 3 87.5274 50.4409 208.4647 0.0000 0.0000 0.0000
# 4 0.0000 0.0000 0.0000-1183.9018 0.0000 0.0000
# 5 0.0000 0.0000 0.0000 0.0000 34.6855 0.0000
# 6 0.0000 0.0000 0.0000 0.0000 0.0000 -485.0201
#
#
#
# Elastic Compliance Matrix: (Units=1/GPa)
#
#
# Indices 1 2 3 4 5 6 
#
# 1 0.015228 -0.003040 -0.005658 0.000000 0.000000 0.000000
# 2 -0.003040 0.026304 -0.005088 0.000000 0.000000 0.000000
# 3 -0.005658 -0.005088 0.008404 0.000000 0.000000 0.000000
# 4 0.000000 0.000000 0.000000 -0.000845 0.000000 0.000000
# 5 0.000000 0.000000 0.000000 0.000000 0.028831 0.000000
# 6 0.000000 0.000000 0.000000 0.000000 0.000000 -0.002062
#
#
# Mechanical properties :
#
#
# Convention : Reuss Voigt Hill
#
# Bulk Modulus (GPa) = 44.71563 77.48677 61.10120
# Shear Modulus (GPa) = 45.09084 -313.73806 -134.32361
#
# Velocity S-wave (km/s) = 4.84901 -12.79065 -8.36922
# Velocity P-wave (km/s) = 7.39377 13.33147 7.84412
#
# Compressibility (1/GPa) = 0.02236354
#
# Stress axis : x y z
#
# Youngs Moduli (GPa) = 65.66842 38.01678 118.99215
#
# Poissons Ratio (x) = 0.11555 0.67329
# Poissons Ratio (y) = 0.19960 0.60549
# Poissons Ratio (z) = 0.37157 0.19345
#
# Static dielectric constant tensor:
#      x y z
#    x 1.677790 0.000000 0.000000 
#    y 0.000000 1.644470 0.000000 
#    z 0.000000 0.000000 1.672280 
# 
# From -- ./inp_files/17016.got.cif
#   From: 2010.05.17/outbox.cif.g08.bks.cpg/sg51_9_cif.got.tgz:17016.got - 2010.06.03 11:52:47.
