data_PCOD9402957
_publ_section_title
;
Structure prediction by ZEFSAII (Michael W. Deem and Ramdas Pophale) SiO2 
 PCOD9402957
Probable space group: P M M A
;
_chemical_formula_sum "Si O2"
_cell_formula_units_Z 44
_cell_length_a 9.571963
_cell_length_b 7.718791
_cell_length_c 31.831857
_cell_angle_alpha 90.000000
_cell_angle_beta 90.000000
_cell_angle_gamma 90.000000
_cell_volume 2351.864345
_symmetry_space_group_name_H-M "P M M A"
_symmetry_group_IT_number 51
_symmetry_cell_setting 'orthorhombic'
loop_
_space_group_symop_operation_xyz
x,y,z
1/2-x,-y,z
1/2+x,-y,-z
-x,y,-z
-x,-y,-z
1/2+x,y,-z
1/2-x,y,z
x,-y,z
loop_
_atom_site_type_symbol
_atom_site_label
_atom_site_fract_x
_atom_site_fract_y
_atom_site_fract_z
Si Si1 0.579784 0.199388 0.608173
Si Si2 0.090360 0.208181 0.300415
Si Si3 0.081099 0.500000 0.456363
Si Si4 0.909396 0.208409 0.038958
Si Si5 0.909448 0.292263 0.790518
Si Si6 0.590523 0.291665 0.131650
O O1 0.750000 0.198103 0.610927
O O2 0.529482 0.260907 0.654437
O O3 0.543306 0.331677 0.571514
O O4 0.536122 0.000000 0.600696
O O5 0.250000 0.277212 0.298594
O O6 0.026706 0.254936 0.255484
O O7 0.097006 0.000000 0.302560
O O8 0.250000 0.500000 0.462434
O O9 0.000000 0.500000 0.500000
O O10 0.750000 0.274485 0.036895
O O11 0.966215 0.250439 0.085273
O O12 0.904201 0.000000 0.035801
O O13 0.000000 0.273946 0.000000
O O14 0.750000 0.223900 0.791670
O O15 0.901965 0.500000 0.794312
O O16 0.998747 0.225707 0.829652
O O17 0.750000 0.225453 0.133770
O O18 0.596031 0.500000 0.135024
#
# Coordination Sequence:
#
# PCOD9402957 Si02
#       6
#     8   8   4   8   8   8
#     4   8  15  28  46  70  98 126 160 202 243 286
#     4   8  14  25  42  66  93 117 146 187 229 266
#     4  10  20  32  50  74  98 128 166 202 243 292
#     4   9  18  32  48  65  84 108 141 180 220 261
#     4   9  17  27  42  66  91 113 141 180 221 257
#     4   9  18  32  46  61  87 120 148 173 211 266
#
# _framework density 18.708562000000001
#
# number of rings (size 3 to 8) (size 9 to 14) (size 15 to 20)
#    0.000    3.273    0.000    1.091    1.273    2.182 
#    0.000    0.000    0.000    1.091    0.000    2.545 
#    0.000    0.000    0.000    0.000    0.000    0.000 
#
# Total GULP energy -244992.292745 kJ/mol
# GULP energy per Si atom -5568.006653 kJ/mol
# Density = 1.866598 g / cm^3
# Si number density = 18.708562 Si / 1000 Ang^3
#
#
#
# Elastic Constant Matrix: (Units=GPa)
#
#
# Indices 1 2 3 4 5 6 
#
# 1 27.6621 13.9742 60.7461 0.0000 0.0000 0.0000
# 2 13.9742 48.3991 42.3683 0.0000 0.0000 0.0000
# 3 60.7461 42.3683 229.9156 0.0000 0.0000 0.0000
# 4 0.0000 0.0000 0.0000 31.9162 0.0000 0.0000
# 5 0.0000 0.0000 0.0000 0.0000 28.9390 0.0000
# 6 0.0000 0.0000 0.0000 0.0000 0.0000 1.1152
#
#
#
# Elastic Compliance Matrix: (Units=1/GPa)
#
#
# Indices 1 2 3 4 5 6 
#
# 1 0.087550 -0.005996 -0.022027 0.000000 0.000000 0.000000
# 2 -0.005996 0.025046 -0.003031 0.000000 0.000000 0.000000
# 3 -0.022027 -0.003031 0.010728 0.000000 0.000000 0.000000
# 4 0.000000 0.000000 0.000000 0.031332 0.000000 0.000000
# 5 0.000000 0.000000 0.000000 0.000000 0.034555 0.000000
# 6 0.000000 0.000000 0.000000 0.000000 0.000000 0.896739
#
#
# Mechanical properties :
#
#
# Convention : Reuss Voigt Hill
#
# Bulk Modulus (GPa) = 16.33556 60.01708 38.17632
# Shear Modulus (GPa) = 4.27912 24.98663 14.63287
#
# Velocity S-wave (km/s) = 1.51401 3.65851 2.79973
# Velocity P-wave (km/s) = 3.43611 7.07078 5.55890
#
# Compressibility (1/GPa) = 0.06121613
#
# Stress axis : x y z
#
# Youngs Moduli (GPa) = 11.42200 39.92600 93.21664
#
# Poissons Ratio (x) = 0.23940 2.05326
# Poissons Ratio (y) = 0.06849 0.28256
# Poissons Ratio (z) = 0.25159 0.12102
#
# Static dielectric constant tensor:
#      x y z
#    x 1.645660 0.000000 0.000000 
#    y 0.000000 1.669890 0.000000 
#    z 0.000000 0.000000 1.671300 
# 
# From -- ./inp_files/36815.got.cif
#   From: 2010.05.17/outbox.cif.g08.bks.cpg/sg51_19_cif.got.tgz:36815.got - 2010.06.03 11:52:47.
