data_PCOD9402733
_publ_section_title
;
Structure prediction by ZEFSAII (Michael W. Deem and Ramdas Pophale) SiO2 
 PCOD9402733
Probable space group: P M M A
;
_chemical_formula_sum "Si O2"
_cell_formula_units_Z 44
_cell_length_a 9.514866
_cell_length_b 7.460216
_cell_length_c 31.157086
_cell_angle_alpha 90.000000
_cell_angle_beta 90.000000
_cell_angle_gamma 90.000000
_cell_volume 2211.622051
_symmetry_space_group_name_H-M "P M M A"
_symmetry_group_IT_number 51
_symmetry_cell_setting 'orthorhombic'
loop_
_space_group_symop_operation_xyz
x,y,z
1/2-x,-y,z
1/2+x,-y,-z
-x,y,-z
-x,-y,-z
1/2+x,y,-z
1/2-x,y,z
x,-y,z
loop_
_atom_site_type_symbol
_atom_site_label
_atom_site_fract_x
_atom_site_fract_y
_atom_site_fract_z
Si Si1 0.411882 0.780841 0.541848
Si Si2 0.591355 0.212329 0.622689
Si Si3 0.418656 0.000000 0.044509
Si Si4 0.410807 0.715858 0.706015
Si Si5 0.417426 0.289923 0.115147
Si Si6 0.087417 0.717943 0.801743
O O1 0.500000 0.727249 0.500000
O O2 0.250000 0.722113 0.540465
O O3 0.492280 0.718064 0.584562
O O4 0.409194 0.000000 0.542212
O O5 0.750000 0.285647 0.622328
O O6 0.515391 0.234423 0.668214
O O7 0.602645 0.000000 0.614933
O O8 0.454743 0.171515 0.074007
O O9 0.250000 0.000000 0.037372
O O10 0.500000 0.000000 0.000000
O O11 0.250000 0.777637 0.697772
O O12 0.406062 0.500000 0.707236
O O13 0.454487 0.777156 0.753791
O O14 0.250000 0.274534 0.121510
O O15 0.451090 0.500000 0.108486
O O16 0.494322 0.224466 0.158219
O O17 0.250000 0.768648 0.807966
O O18 0.081443 0.500000 0.801456
#
# Coordination Sequence:
#
# PCOD9402733 Si02
#       6
#     8   8   4   8   8   8
#     4   9  16  27  45  67  91 122 160 204 253 303
#     4  10  20  32  46  69 100 130 164 206 249 299
#     4  10  22  38  54  78 110 140 176 222 263 312
#     4   9  18  33  52  73  99 132 168 206 251 304
#     4   9  18  34  55  77 104 139 175 214 264 315
#     4   8  15  30  52  76 100 128 167 210 248 295
#
# _framework density 19.894901999999998
#
# number of rings (size 3 to 8) (size 9 to 14) (size 15 to 20)
#    0.000    2.909    0.000    2.182    0.000    5.455 
#    1.636    1.818    0.000    0.545    0.000    0.000 
#    0.000    0.000    0.000    0.000    0.000    0.000 
#
# Total GULP energy -245549.501666 kJ/mol
# GULP energy per Si atom -5580.670492 kJ/mol
# Density = 1.984962 g / cm^3
# Si number density = 19.894902 Si / 1000 Ang^3
#
#
#
# Elastic Constant Matrix: (Units=GPa)
#
#
# Indices 1 2 3 4 5 6 
#
# 1 134.2890 27.6256 124.0473 0.0000 0.0000 0.0000
# 2 27.6256 65.5215 33.7670 0.0000 0.0000 0.0000
# 3 124.0473 33.7670 214.2005 0.0000 0.0000 0.0000
# 4 0.0000 0.0000 0.0000 24.6300 0.0000 0.0000
# 5 0.0000 0.0000 0.0000 0.0000 41.3840 0.0000
# 6 0.0000 0.0000 0.0000 0.0000 0.0000 8.8431
#
#
#
# Elastic Compliance Matrix: (Units=1/GPa)
#
#
# Indices 1 2 3 4 5 6 
#
# 1 0.016295 -0.002185 -0.009092 0.000000 0.000000 0.000000
# 2 -0.002185 0.016905 -0.001400 0.000000 0.000000 0.000000
# 3 -0.009092 -0.001400 0.010155 0.000000 0.000000 0.000000
# 4 0.000000 0.000000 0.000000 0.040601 0.000000 0.000000
# 5 0.000000 0.000000 0.000000 0.000000 0.024164 0.000000
# 6 0.000000 0.000000 0.000000 0.000000 0.000000 0.113082
#
#
# Mechanical properties :
#
#
# Convention : Reuss Voigt Hill
#
# Bulk Modulus (GPa) = 55.55257 87.21008 71.38132
# Shear Modulus (GPa) = 19.79767 30.20950 25.00358
#
# Velocity S-wave (km/s) = 3.15796 3.90096 3.54896
# Velocity P-wave (km/s) = 6.42500 8.01377 7.26296
#
# Compressibility (1/GPa) = 0.01800097
#
# Stress axis : x y z
#
# Youngs Moduli (GPa) = 61.36903 59.15548 98.47686
#
# Poissons Ratio (x) = 0.12923 0.89538
# Poissons Ratio (y) = 0.13407 0.13784
# Poissons Ratio (z) = 0.55798 0.08280
#
# Static dielectric constant tensor:
#      x y z
#    x 1.673520 0.000000 0.000000 
#    y 0.000000 1.782910 0.000000 
#    z 0.000000 0.000000 1.665710 
# 
# From -- ./inp_files/36758.got.cif
#   From: 2010.05.17/outbox.cif.g08.bks.cpg/sg51_19_cif.got.tgz:36758.got - 2010.06.03 11:52:47.
