data_PCOD9402589
_publ_section_title
;
Structure prediction by ZEFSAII (Michael W. Deem and Ramdas Pophale) SiO2 
 PCOD9402589
Probable space group: P M M A
;
_chemical_formula_sum "Si O2"
_cell_formula_units_Z 56
_cell_length_a 14.377212
_cell_length_b 8.059326
_cell_length_c 21.211507
_cell_angle_alpha 90.000000
_cell_angle_beta 90.000000
_cell_angle_gamma 90.000000
_cell_volume 2457.790859
_symmetry_space_group_name_H-M "P M M A"
_symmetry_group_IT_number 51
_symmetry_cell_setting 'orthorhombic'
loop_
_space_group_symop_operation_xyz
x,y,z
1/2-x,-y,z
1/2+x,-y,-z
-x,y,-z
-x,-y,-z
1/2+x,y,-z
1/2-x,y,z
x,-y,z
loop_
_atom_site_type_symbol
_atom_site_label
_atom_site_fract_x
_atom_site_fract_y
_atom_site_fract_z
Si Si1 0.104213 0.689456 0.921489
Si Si2 0.557811 0.301215 0.350289
Si Si3 0.559710 0.698305 0.213469
Si Si4 0.890729 0.309712 0.483549
Si Si5 0.097921 0.191986 0.052995
Si Si6 0.150871 0.197188 0.191742
Si Si7 0.350253 0.807112 0.382160
O O1 0.136374 0.500000 0.920216
O O2 0.108694 0.763539 0.850647
O O3 0.993440 0.697714 0.935360
O O4 0.142150 0.773965 0.984898
O O5 0.570311 0.500000 0.351324
O O6 0.589828 0.237465 0.282066
O O7 0.611071 0.238733 0.412725
O O8 0.446706 0.270889 0.358334
O O9 0.574330 0.500000 0.211950
O O10 0.448104 0.727612 0.210825
O O11 0.855759 0.500000 0.484750
O O12 0.850646 0.209811 0.541885
O O13 0.000000 0.319084 0.500000
O O14 0.155017 0.217169 0.116104
O O15 0.067272 0.000000 0.053987
O O16 0.250000 0.260153 0.217360
O O17 0.145543 0.000000 0.205155
O O18 0.250000 0.737286 0.361052
O O19 0.353660 0.000000 0.364508
#
# Coordination Sequence:
#
# PCOD9402589 Si02
#       7
#     8   8   8   8   8   8   8
#     4   9  15  24  39  58  79 100 126 164 207 243
#     4   9  18  32  47  64  88 117 148 179 213 257
#     4   9  18  30  43  61  85 112 139 169 207 249
#     4   8  15  29  48  66  84 110 145 182 216 252
#     4   9  15  24  39  56  75 101 134 170 204 237
#     4   9  18  30  41  56  82 114 144 174 207 244
#     4  10  20  31  44  66  93 117 143 177 216 256
#
# _framework density 22.784689
#
# number of rings (size 3 to 8) (size 9 to 14) (size 15 to 20)
#    0.000    3.000    0.000    3.000    0.000    6.286 
#    0.000    2.857    0.000    0.000    0.000    1.000 
#    0.000    5.714    0.000    0.000    0.000    0.000 
#
# Total GULP energy -311869.439987 kJ/mol
# GULP energy per Si atom -5569.097143 kJ/mol
# Density = 2.273283 g / cm^3
# Si number density = 22.784689 Si / 1000 Ang^3
#
#
#
# Elastic Constant Matrix: (Units=GPa)
#
#
# Indices 1 2 3 4 5 6 
#
# 1 36.0848 -1.7749 -2.6213 0.0000 0.0000 0.0000
# 2 -1.7749 25.3871 6.8012 0.0000 0.0000 0.0000
# 3 -2.6213 6.8012 211.1068 0.0000 0.0000 0.0000
# 4 0.0000 0.0000 0.0000 -47.2787 0.0000 0.0000
# 5 0.0000 0.0000 0.0000 0.0000 -49.0409 0.0000
# 6 0.0000 0.0000 0.0000 0.0000 0.0000 3.2643
#
#
#
# Elastic Compliance Matrix: (Units=1/GPa)
#
#
# Indices 1 2 3 4 5 6 
#
# 1 0.027825 0.001869 0.000285 0.000000 0.000000 0.000000
# 2 0.001869 0.039859 -0.001261 0.000000 0.000000 0.000000
# 3 0.000285 -0.001261 0.004781 0.000000 0.000000 0.000000
# 4 0.000000 0.000000 0.000000 -0.021151 0.000000 0.000000
# 5 0.000000 0.000000 0.000000 0.000000 -0.020391 0.000000
# 6 0.000000 0.000000 0.000000 0.000000 0.000000 0.306343
#
#
# Mechanical properties :
#
#
# Convention : Reuss Voigt Hill
#
# Bulk Modulus (GPa) = 13.46773 30.82094 22.14434
# Shear Modulus (GPa) = 13.88003 -0.59948 6.64027
#
# Velocity S-wave (km/s) = 2.47084 -0.51350 1.70900
# Velocity P-wave (km/s) = 3.75017 3.63385 3.69247
#
# Compressibility (1/GPa) = 0.07425157
#
# Stress axis : x y z
#
# Youngs Moduli (GPa) = 35.93868 25.08869 209.15674
#
# Poissons Ratio (x) = -0.04689 -0.05967
# Poissons Ratio (y) = -0.06717 0.26373
# Poissons Ratio (z) = -0.01025 0.03163
#
# Static dielectric constant tensor:
#      x y z
#    x 1.792090 0.000000 0.000000 
#    y 0.000000 1.793290 0.000000 
#    z 0.000000 0.000000 1.952340 
# 
# From -- ./inp_files/33723.got.cif
#   From: 2010.05.17/outbox.cif.g08.bks.cpg/sg51_17_cif.got.tgz:33723.got - 2010.06.03 11:52:47.
