data_PCOD9402097
_publ_section_title
;
Structure prediction by ZEFSAII (Michael W. Deem and Ramdas Pophale) SiO2 
 PCOD9402097
Probable space group: P M M A
;
_chemical_formula_sum "Si O2"
_cell_formula_units_Z 64
_cell_length_a 30.146820
_cell_length_b 17.077488
_cell_length_c 6.831768
_cell_angle_alpha 90.000000
_cell_angle_beta 90.000000
_cell_angle_gamma 90.000000
_cell_volume 3517.212488
_symmetry_space_group_name_H-M "P M M A"
_symmetry_group_IT_number 51
_symmetry_cell_setting 'orthorhombic'
loop_
_space_group_symop_operation_xyz
x,y,z
1/2-x,-y,z
1/2+x,-y,-z
-x,y,-z
-x,-y,-z
1/2+x,y,-z
1/2-x,y,z
x,-y,z
loop_
_atom_site_type_symbol
_atom_site_label
_atom_site_fract_x
_atom_site_fract_y
_atom_site_fract_z
Si Si1 0.201545 0.203468 0.793972
Si Si2 0.619461 0.909134 0.129962
Si Si3 0.957865 0.703961 0.113958
Si Si4 0.096958 0.800893 0.209932
Si Si5 0.377855 0.590622 0.813138
Si Si6 0.956086 0.156182 0.404949
Si Si7 0.173016 0.315015 0.139428
Si Si8 0.798669 0.643883 0.454529
O O1 0.250000 0.164617 0.790135
O O2 0.159931 0.145319 0.794696
O O3 0.198910 0.266038 0.619014
O O4 0.198317 0.258981 0.986469
O O5 0.575442 0.893012 0.259964
O O6 0.630707 0.000000 0.136067
O O7 0.610593 0.878610 0.909445
O O8 0.922042 0.643700 0.202070
O O9 0.970596 0.766865 0.280947
O O10 0.933328 0.754341 0.945912
O O11 0.000000 0.668146 0.000000
O O12 0.073616 0.818703 0.411791
O O13 0.138172 0.743544 0.240904
O O14 0.389363 0.500000 0.827202
O O15 0.341453 0.603434 0.642016
O O16 0.353085 0.622590 0.006779
O O17 0.000000 0.118217 0.500000
O O18 0.199124 0.356354 0.311942
O O19 0.750000 0.613732 0.388179
#
# Coordination Sequence:
#
# PCOD9402097 Si02
#       8
#     8   8   8   8   8   8   8   8
#     4   9  18  34  56  81 105 135 181 227 261 302
#     4  10  22  35  50  79 114 144 173 209 265 327
#     4  10  19  35  58  82 101 131 180 226 262 312
#     4   9  18  34  54  77 104 134 173 221 261 304
#     4  10  22  36  51  78 115 145 169 209 270 327
#     4  11  20  34  59  80 101 136 182 226 265 307
#     4   9  17  33  56  78 102 136 180 220 257 303
#     4  10  19  34  57  81 104 138 185 228 258 297
#
# _framework density 18.196225999999999
#
# number of rings (size 3 to 8) (size 9 to 14) (size 15 to 20)
#    0.000    2.250    1.250    4.125    0.000    2.500 
#    0.000    0.625    0.000    0.375    0.000    3.500 
#    0.000    0.000    0.000    0.000    0.000    0.000 
#
# Total GULP energy -356654.540814 kJ/mol
# GULP energy per Si atom -5572.727200 kJ/mol
# Density = 1.815481 g / cm^3
# Si number density = 18.196226 Si / 1000 Ang^3
#
#
#
# Elastic Constant Matrix: (Units=GPa)
#
#
# Indices 1 2 3 4 5 6 
#
# 1 77.3976 8.4033 2.3837 0.0000 0.0000 0.0000
# 2 8.4033 62.9072 -5.0210 0.0000 0.0000 0.0000
# 3 2.3837 -5.0210 54.3948 0.0000 0.0000 0.0000
# 4 0.0000 0.0000 0.0000 2.3289 0.0000 0.0000
# 5 0.0000 0.0000 0.0000 0.0000 17.6695 0.0000
# 6 0.0000 0.0000 0.0000 0.0000 0.0000 5.2994
#
#
#
# Elastic Compliance Matrix: (Units=1/GPa)
#
#
# Indices 1 2 3 4 5 6 
#
# 1 0.013140 -0.001815 -0.000743 0.000000 0.000000 0.000000
# 2 -0.001815 0.016265 0.001581 0.000000 0.000000 0.000000
# 3 -0.000743 0.001581 0.018563 0.000000 0.000000 0.000000
# 4 0.000000 0.000000 0.000000 0.429380 0.000000 0.000000
# 5 0.000000 0.000000 0.000000 0.000000 0.056595 0.000000
# 6 0.000000 0.000000 0.000000 0.000000 0.000000 0.188702
#
#
# Mechanical properties :
#
#
# Convention : Reuss Voigt Hill
#
# Bulk Modulus (GPa) = 21.73266 22.91462 22.32364
# Shear Modulus (GPa) = 6.75733 17.65513 12.20623
#
# Velocity S-wave (km/s) = 1.92916 3.11828 2.59281
# Velocity P-wave (km/s) = 4.11481 5.05819 4.61069
#
# Compressibility (1/GPa) = 0.04601369
#
# Stress axis : x y z
#
# Youngs Moduli (GPa) = 76.10224 61.48163 53.87177
#
# Poissons Ratio (x) = 0.11157 0.04004
# Poissons Ratio (y) = 0.13810 -0.08517
# Poissons Ratio (z) = 0.05657 -0.09720
#
# Static dielectric constant tensor:
#      x y z
#    x 1.707040 0.000000 0.000000 
#    y 0.000000 1.594250 0.000000 
#    z 0.000000 0.000000 1.622930 
# 
# From -- ./inp_files/4106.got.cif
#   From: 2010.05.17/outbox.cif.g08.bks.cpg/sg51_3_cif.got.tgz:4106.got - 2010.06.03 11:52:47.
