data_PCOD9402559
_publ_section_title
;
Structure prediction by ZEFSAII (Michael W. Deem and Ramdas Pophale) SiO2 
 PCOD9402559
Probable space group: P M M A
;
_chemical_formula_sum "Si O2"
_cell_formula_units_Z 56
_cell_length_a 9.438072
_cell_length_b 17.634071
_cell_length_c 23.286442
_cell_angle_alpha 90.000000
_cell_angle_beta 90.000000
_cell_angle_gamma 90.000000
_cell_volume 3875.600540
_symmetry_space_group_name_H-M "P M M A"
_symmetry_group_IT_number 51
_symmetry_cell_setting 'orthorhombic'
loop_
_space_group_symop_operation_xyz
x,y,z
1/2-x,-y,z
1/2+x,-y,-z
-x,y,-z
-x,-y,-z
1/2+x,y,-z
1/2-x,y,z
x,-y,z
loop_
_atom_site_type_symbol
_atom_site_label
_atom_site_fract_x
_atom_site_fract_y
_atom_site_fract_z
Si Si1 0.914558 0.296243 0.225623
Si Si2 0.914972 0.908826 0.059270
Si Si3 0.912306 0.187943 0.850524
Si Si4 0.420642 0.588645 0.672758
Si Si5 0.410470 0.415212 0.878698
Si Si6 0.593434 0.313618 0.949683
Si Si7 0.087533 0.591668 0.444759
O O1 0.750000 0.272361 0.233012
O O2 0.958234 0.347348 0.280274
O O3 0.917621 0.356777 0.173611
O O4 0.010670 0.225805 0.204658
O O5 0.750000 0.883041 0.055280
O O6 0.993254 0.872881 0.114597
O O7 0.914640 0.000000 0.064898
O O8 0.000000 0.892099 0.000000
O O9 0.750000 0.162773 0.838858
O O10 0.902552 0.255841 0.896967
O O11 0.250000 0.591532 0.664670
O O12 0.452814 0.500000 0.689374
O O13 0.502624 0.605894 0.613904
O O14 0.250000 0.412013 0.901148
O O15 0.438506 0.500000 0.858083
O O16 0.518871 0.388933 0.926750
O O17 0.750000 0.327844 0.970708
O O18 0.500000 0.280070 0.000000
O O19 0.250000 0.619225 0.443406
O O20 0.094300 0.500000 0.449778
O O21 0.000000 0.619689 0.500000
#
# Coordination Sequence:
#
# PCOD9402559 Si02
#       7
#     8   8   8   8   8   8   8
#     4   9  17  29  44  60  79 104 134 167 203 243
#     4  10  20  33  50  71  91 109 130 158 195 241
#     4  10  20  32  46  63  83 106 131 160 194 235
#     4   9  16  26  41  60  81 107 141 180 219 256
#     4   9  17  29  43  56  70  91 121 158 198 237
#     4  10  20  31  42  56  72  93 121 152 190 234
#     4   9  16  25  37  54  77 105 137 175 218 259
#
# _framework density 14.449374000000001
#
# number of rings (size 3 to 8) (size 9 to 14) (size 15 to 20)
#    0.000    2.571    0.000    2.571    0.000    8.286 
#    0.000    0.000    0.000    2.571    0.000    0.000 
#    0.000    0.000    0.000    0.000    0.000    0.714 
#
# Total GULP energy -311793.574677 kJ/mol
# GULP energy per Si atom -5567.742405 kJ/mol
# Density = 1.441649 g / cm^3
# Si number density = 14.449374 Si / 1000 Ang^3
#
#
#
# Elastic Constant Matrix: (Units=GPa)
#
#
# Indices 1 2 3 4 5 6 
#
# 1 102.6247 32.4084 49.9148 0.0000 0.0000 0.0000
# 2 32.4084 37.8995 20.2915 0.0000 0.0000 0.0000
# 3 49.9148 20.2915 79.6456 0.0000 0.0000 0.0000
# 4 0.0000 0.0000 0.0000 9.3060 0.0000 0.0000
# 5 0.0000 0.0000 0.0000 0.0000 20.6537 0.0000
# 6 0.0000 0.0000 0.0000 0.0000 0.0000 5.9749
#
#
#
# Elastic Compliance Matrix: (Units=1/GPa)
#
#
# Indices 1 2 3 4 5 6 
#
# 1 0.016808 -0.010112 -0.007957 0.000000 0.000000 0.000000
# 2 -0.010112 0.036637 -0.002997 0.000000 0.000000 0.000000
# 3 -0.007957 -0.002997 0.018306 0.000000 0.000000 0.000000
# 4 0.000000 0.000000 0.000000 0.107457 0.000000 0.000000
# 5 0.000000 0.000000 0.000000 0.000000 0.048417 0.000000
# 6 0.000000 0.000000 0.000000 0.000000 0.000000 0.167367
#
#
# Mechanical properties :
#
#
# Convention : Reuss Voigt Hill
#
# Bulk Modulus (GPa) = 33.76272 47.26656 40.51464
# Shear Modulus (GPa) = 11.18572 15.02394 13.10483
#
# Velocity S-wave (km/s) = 2.78534 3.22804 3.01482
# Velocity P-wave (km/s) = 5.81043 6.83202 6.34183
#
# Compressibility (1/GPa) = 0.02961847
#
# Stress axis : x y z
#
# Youngs Moduli (GPa) = 59.49546 27.29474 54.62666
#
# Poissons Ratio (x) = 0.27601 0.43469
# Poissons Ratio (y) = 0.60164 0.16370
# Poissons Ratio (z) = 0.47343 0.08179
#
# Static dielectric constant tensor:
#      x y z
#    x 1.644050 0.000000 0.000000 
#    y 0.000000 1.473510 0.000000 
#    z 0.000000 0.000000 1.473590 
# 
# From -- ./inp_files/32228.got.cif
#   From: 2010.05.17/outbox.cif.g08.bks.cpg/sg51_17_cif.got.tgz:32228.got - 2010.06.03 11:52:47.
