data_PCOD9402706
_publ_section_title
;
Structure prediction by ZEFSAII (Michael W. Deem and Ramdas Pophale) SiO2 
 PCOD9402706
Probable space group: P M M A
;
_chemical_formula_sum "Si O2"
_cell_formula_units_Z 56
_cell_length_a 25.516276
_cell_length_b 9.233816
_cell_length_c 15.352047
_cell_angle_alpha 90.000000
_cell_angle_beta 90.000000
_cell_angle_gamma 90.000000
_cell_volume 3617.135672
_symmetry_space_group_name_H-M "P M M A"
_symmetry_group_IT_number 51
_symmetry_cell_setting 'orthorhombic'
loop_
_space_group_symop_operation_xyz
x,y,z
1/2-x,-y,z
1/2+x,-y,-z
-x,y,-z
-x,-y,-z
1/2+x,y,-z
1/2-x,y,z
x,-y,z
loop_
_atom_site_type_symbol
_atom_site_label
_atom_site_fract_x
_atom_site_fract_y
_atom_site_fract_z
Si Si1 0.313739 0.334558 0.597674
Si Si2 0.686281 0.833429 0.572929
Si Si3 0.394487 0.671780 0.107696
Si Si4 0.391910 0.328199 0.899613
Si Si5 0.812581 0.828645 0.225581
Si Si6 0.311833 0.825836 0.229630
Si Si7 0.001299 0.833322 0.894272
O O1 0.250000 0.335431 0.595026
O O2 0.331191 0.500000 0.608483
O O3 0.331747 0.266335 0.506316
O O4 0.328009 0.237444 0.680659
O O5 0.750000 0.833566 0.571962
O O6 0.671953 0.788291 0.670962
O O7 0.669919 0.000000 0.558844
O O8 0.398089 0.500000 0.123041
O O9 0.347292 0.742426 0.161108
O O10 0.448701 0.750575 0.133250
O O11 0.386709 0.693393 0.003817
O O12 0.393643 0.500000 0.883359
O O13 0.344550 0.254083 0.848485
O O14 0.446100 0.252600 0.870530
O O15 0.750000 0.807308 0.215010
O O16 0.822973 0.000000 0.222809
O O17 0.250000 0.792940 0.219178
O O18 0.317614 0.000000 0.220367
O O19 0.002258 0.000000 0.864399
O O20 0.000000 0.835271 0.000000
#
# Coordination Sequence:
#
# PCOD9402706 Si02
#       7
#     8   8   8   8   8   8   8
#     4   9  16  26  42  64  89 117 149 187 230 272
#     4   8  14  26  43  62  86 117 152 189 227 266
#     4  10  20  32  47  68  94 123 154 191 234 275
#     4  10  20  33  48  67  93 122 153 192 235 275
#     4  10  20  32  46  66  93 125 159 191 225 272
#     4   9  18  31  46  66  94 127 160 192 227 271
#     4   9  17  31  51  70  87 112 151 195 233 271
#
# _framework density 15.481864
#
# number of rings (size 3 to 8) (size 9 to 14) (size 15 to 20)
#    0.000    2.714    0.000    3.000    0.000    7.429 
#    0.000    4.286    0.000    0.000    0.000    1.000 
#    0.000    8.000    0.000    0.000    0.000    0.000 
#
# Total GULP energy -312039.041156 kJ/mol
# GULP energy per Si atom -5572.125735 kJ/mol
# Density = 1.544663 g / cm^3
# Si number density = 15.481864 Si / 1000 Ang^3
#
#
#
# Elastic Constant Matrix: (Units=GPa)
#
#
# Indices 1 2 3 4 5 6 
#
# 1 64.5710 63.8056 49.2811 0.0000 0.0000 0.0000
# 2 63.8056 121.5155 72.8307 0.0000 0.0000 0.0000
# 3 49.2811 72.8307 75.9326 0.0000 0.0000 0.0000
# 4 0.0000 0.0000 0.0000 27.4188 0.0000 0.0000
# 5 0.0000 0.0000 0.0000 0.0000 -2.8414 0.0000
# 6 0.0000 0.0000 0.0000 0.0000 0.0000 25.2057
#
#
#
# Elastic Compliance Matrix: (Units=1/GPa)
#
#
# Indices 1 2 3 4 5 6 
#
# 1 0.036640 -0.011729 -0.012529 0.000000 0.000000 0.000000
# 2 -0.011729 0.023112 -0.014556 0.000000 0.000000 0.000000
# 3 -0.012529 -0.014556 0.035262 0.000000 0.000000 0.000000
# 4 0.000000 0.000000 0.000000 0.036471 0.000000 0.000000
# 5 0.000000 0.000000 0.000000 0.000000 -0.351938 0.000000
# 6 0.000000 0.000000 0.000000 0.000000 0.000000 0.039674
#
#
# Mechanical properties :
#
#
# Convention : Reuss Voigt Hill
#
# Bulk Modulus (GPa) = 57.51904 70.42820 63.97362
# Shear Modulus (GPa) = -51.35818 15.03006 -18.16406
#
# Velocity S-wave (km/s) = -5.76586 3.11917 -3.42899
# Velocity P-wave (km/s) = 2.66340 7.65257 5.07288
#
# Compressibility (1/GPa) = 0.01738555
#
# Stress axis : x y z
#
# Youngs Moduli (GPa) = 27.29285 43.26720 28.35901
#
# Poissons Ratio (x) = 0.50750 0.35532
# Poissons Ratio (y) = 0.32013 0.41278
# Poissons Ratio (z) = 0.34196 0.62978
#
# Static dielectric constant tensor:
#      x y z
#    x 1.492640 0.000000 0.000000 
#    y 0.000000 1.517170 0.000000 
#    z 0.000000 0.000000 1.508970 
# 
# From -- ./inp_files/25668.got.cif
#   From: 2010.05.17/outbox.cif.g08.bks.cpg/sg51_13_cif.got.tgz:25668.got - 2010.06.03 11:52:47.
