data_PCOD9402775
_publ_section_title
;
Structure prediction by ZEFSAII (Michael W. Deem and Ramdas Pophale) SiO2 
 PCOD9402775
Probable space group: P M M A
;
_chemical_formula_sum "Si O2"
_cell_formula_units_Z 44
_cell_length_a 9.697074
_cell_length_b 7.535489
_cell_length_c 31.321409
_cell_angle_alpha 90.000000
_cell_angle_beta 90.000000
_cell_angle_gamma 90.000000
_cell_volume 2288.724089
_symmetry_space_group_name_H-M "P M M A"
_symmetry_group_IT_number 51
_symmetry_cell_setting 'orthorhombic'
loop_
_space_group_symop_operation_xyz
x,y,z
1/2-x,-y,z
1/2+x,-y,-z
-x,y,-z
-x,-y,-z
1/2+x,y,-z
1/2-x,y,z
x,-y,z
loop_
_atom_site_type_symbol
_atom_site_label
_atom_site_fract_x
_atom_site_fract_y
_atom_site_fract_z
Si Si1 0.405419 0.788874 0.284220
Si Si2 0.417393 0.797941 0.888530
Si Si3 0.907603 0.713700 0.365232
Si Si4 0.083068 0.500000 0.956192
Si Si5 0.090505 0.283647 0.539489
Si Si6 0.591200 0.782998 0.206244
O O1 0.250000 0.717402 0.286497
O O2 0.489409 0.763334 0.327789
O O3 0.494277 0.719511 0.244336
O O4 0.395461 0.000000 0.277582
O O5 0.250000 0.801643 0.886798
O O6 0.454368 0.669444 0.926998
O O7 0.458282 0.732558 0.841241
O O8 0.465477 0.000000 0.894803
O O9 0.750000 0.775759 0.357135
O O10 0.902462 0.500000 0.366432
O O11 0.951302 0.773627 0.412753
O O12 0.250000 0.500000 0.962840
O O13 0.000000 0.500000 0.000000
O O14 0.250000 0.234475 0.533727
O O15 0.084424 0.500000 0.539269
O O16 0.000000 0.219925 0.500000
O O17 0.750000 0.725992 0.212649
O O18 0.593225 0.000000 0.206191
#
# Coordination Sequence:
#
# PCOD9402775 Si02
#       6
#     8   8   8   4   8   8
#     4  10  20  32  47  70 100 131 160 194 243 299
#     4   8  15  30  52  75  99 131 172 214 253 297
#     4   9  18  32  48  68  94 123 159 201 239 285
#     4  10  20  34  52  76 106 136 170 212 255 302
#     4   8  14  25  42  64  88 114 148 191 239 288
#     4   8  14  28  50  70  89 120 162 201 236 281
#
# _framework density 19.224685000000001
#
# number of rings (size 3 to 8) (size 9 to 14) (size 15 to 20)
#    0.000    3.273    0.000    2.727    0.000    2.545 
#    1.636    2.727    0.000    1.636    0.000    0.000 
#    0.000    0.000    0.000    0.000    0.000    0.000 
#
# Total GULP energy -245306.483126 kJ/mol
# GULP energy per Si atom -5575.147344 kJ/mol
# Density = 1.918093 g / cm^3
# Si number density = 19.224685 Si / 1000 Ang^3
#
#
#
# Elastic Constant Matrix: (Units=GPa)
#
#
# Indices 1 2 3 4 5 6 
#
# 1 94.1803 21.3593 110.7899 0.0000 0.0000 0.0000
# 2 21.3593 58.7073 38.4071 0.0000 0.0000 0.0000
# 3 110.7899 38.4071 225.1079 0.0000 0.0000 0.0000
# 4 0.0000 0.0000 0.0000 23.9181 0.0000 0.0000
# 5 0.0000 0.0000 0.0000 0.0000 35.8023 0.0000
# 6 0.0000 0.0000 0.0000 0.0000 0.0000 9.8631
#
#
#
# Elastic Compliance Matrix: (Units=1/GPa)
#
#
# Indices 1 2 3 4 5 6 
#
# 1 0.025292 -0.001191 -0.012245 0.000000 0.000000 0.000000
# 2 -0.001191 0.019230 -0.002695 0.000000 0.000000 0.000000
# 3 -0.012245 -0.002695 0.010928 0.000000 0.000000 0.000000
# 4 0.000000 0.000000 0.000000 0.041809 0.000000 0.000000
# 5 0.000000 0.000000 0.000000 0.000000 0.027931 0.000000
# 6 0.000000 0.000000 0.000000 0.000000 0.000000 0.101388
#
#
# Mechanical properties :
#
#
# Convention : Reuss Voigt Hill
#
# Bulk Modulus (GPa) = 43.12319 79.90090 61.51204
# Shear Modulus (GPa) = 18.75677 27.74597 23.25137
#
# Velocity S-wave (km/s) = 3.12695 3.80313 3.48149
# Velocity P-wave (km/s) = 5.95961 7.80621 6.94456
#
# Compressibility (1/GPa) = 0.02318938
#
# Stress axis : x y z
#
# Youngs Moduli (GPa) = 39.53780 52.00223 91.50437
#
# Poissons Ratio (x) = 0.06195 1.12044
# Poissons Ratio (y) = 0.04710 0.24657
# Poissons Ratio (z) = 0.48413 0.14013
#
# Static dielectric constant tensor:
#      x y z
#    x 1.650380 0.000000 0.000000 
#    y 0.000000 1.780230 0.000000 
#    z 0.000000 0.000000 1.659540 
# 
# From -- ./inp_files/36833.got.cif
#   From: 2010.05.17/outbox.cif.g08.bks.cpg/sg51_19_cif.got.tgz:36833.got - 2010.06.03 11:52:47.
