data_PCOD9402151
_publ_section_title
;
Structure prediction by ZEFSAII (Michael W. Deem and Ramdas Pophale) SiO2 
 PCOD9402151
Probable space group: P M M A
;
_chemical_formula_sum "Si O2"
_cell_formula_units_Z 64
_cell_length_a 19.669593
_cell_length_b 19.300122
_cell_length_c 9.539945
_cell_angle_alpha 90.000000
_cell_angle_beta 90.000000
_cell_angle_gamma 90.000000
_cell_volume 3621.606816
_symmetry_space_group_name_H-M "P M M A"
_symmetry_group_IT_number 51
_symmetry_cell_setting 'orthorhombic'
loop_
_space_group_symop_operation_xyz
x,y,z
1/2-x,-y,z
1/2+x,-y,-z
-x,y,-z
-x,-y,-z
1/2+x,y,-z
1/2-x,y,z
x,-y,z
loop_
_atom_site_type_symbol
_atom_site_label
_atom_site_fract_x
_atom_site_fract_y
_atom_site_fract_z
Si Si1 0.102002 0.703779 0.404395
Si Si2 0.829312 0.332050 0.857062
Si Si3 0.941349 0.082025 0.391793
Si Si4 0.075837 0.578907 0.938162
Si Si5 0.559702 0.827775 0.116154
Si Si6 0.329466 0.834265 0.100746
Si Si7 0.668462 0.144936 0.587810
Si Si8 0.049901 0.310325 0.711298
O O1 0.149127 0.657268 0.304728
O O2 0.138330 0.777791 0.421668
O O3 0.086282 0.682904 0.562317
O O4 0.029431 0.705301 0.323487
O O5 0.750000 0.345980 0.879216
O O6 0.840500 0.249098 0.880285
O O7 0.875601 0.377209 0.959392
O O8 0.953056 0.121323 0.246177
O O9 0.871224 0.101034 0.471525
O O10 0.000000 0.105026 0.500000
O O11 0.945885 0.000000 0.371407
O O12 0.100077 0.500000 0.922407
O O13 0.065769 0.620300 0.794878
O O14 0.000000 0.577384 0.000000
O O15 0.572638 0.753632 0.190255
O O16 0.500000 0.821349 0.000000
O O17 0.623890 0.854535 0.028121
O O18 0.250000 0.844546 0.073286
O O19 0.345991 0.872278 0.248016
O O20 0.750000 0.144285 0.569597
#
# Coordination Sequence:
#
# PCOD9402151 Si02
#       8
#     8   8   8   8   8   8   8   8
#     4  10  19  34  57  88 117 144 193 248 292 342
#     4  10  19  36  58  83 116 152 193 241 297 355
#     4  11  24  41  58  84 119 156 198 241 293 356
#     4  11  22  38  57  83 118 157 199 244 294 356
#     4  12  21  34  60  85 114 150 193 244 294 340
#     4   9  19  34  56  86 114 141 185 243 292 343
#     4  10  20  38  61  87 118 153 194 239 294 353
#     4  11  20  34  59  88 118 150 196 248 297 347
#
# _framework density 17.671714000000001
#
# number of rings (size 3 to 8) (size 9 to 14) (size 15 to 20)
#    0.000    1.500    3.750    4.500    0.000    1.250 
#    0.000    3.750    0.000    0.750    0.000    0.000 
#    0.000    0.000    0.000    0.000    0.000    0.000 
#
# Total GULP energy -356910.590687 kJ/mol
# GULP energy per Si atom -5576.727979 kJ/mol
# Density = 1.763149 g / cm^3
# Si number density = 17.671714 Si / 1000 Ang^3
#
#
#
# Elastic Constant Matrix: (Units=GPa)
#
#
# Indices 1 2 3 4 5 6 
#
# 1 55.1541 5.3120 37.7289 0.0000 0.0000 0.0000
# 2 5.3120 32.2331 26.3482 0.0000 0.0000 0.0000
# 3 37.7289 26.3482 121.4552 0.0000 0.0000 0.0000
# 4 0.0000 0.0000 0.0000 17.0632 0.0000 0.0000
# 5 0.0000 0.0000 0.0000 0.0000 32.1318 0.0000
# 6 0.0000 0.0000 0.0000 0.0000 0.0000 11.3743
#
#
#
# Elastic Compliance Matrix: (Units=1/GPa)
#
#
# Indices 1 2 3 4 5 6 
#
# 1 0.023190 0.002512 -0.007749 0.000000 0.000000 0.000000
# 2 0.002512 0.037984 -0.009020 0.000000 0.000000 0.000000
# 3 -0.007749 -0.009020 0.012597 0.000000 0.000000 0.000000
# 4 0.000000 0.000000 0.000000 0.058606 0.000000 0.000000
# 5 0.000000 0.000000 0.000000 0.000000 0.031122 0.000000
# 6 0.000000 0.000000 0.000000 0.000000 0.000000 0.087918
#
#
# Mechanical properties :
#
#
# Convention : Reuss Voigt Hill
#
# Bulk Modulus (GPa) = 22.09606 38.62451 30.36028
# Shear Modulus (GPa) = 16.94829 21.41075 19.17952
#
# Velocity S-wave (km/s) = 3.10023 3.48456 3.29800
# Velocity P-wave (km/s) = 5.03449 6.17200 5.63204
#
# Compressibility (1/GPa) = 0.04525694
#
# Stress axis : x y z
#
# Youngs Moduli (GPa) = 43.12278 26.32714 79.38140
#
# Poissons Ratio (x) = -0.06614 0.61510
# Poissons Ratio (y) = -0.10834 0.71606
# Poissons Ratio (z) = 0.33414 0.23748
#
# Static dielectric constant tensor:
#      x y z
#    x 1.622980 0.000000 0.000000 
#    y 0.000000 1.591350 0.000000 
#    z 0.000000 0.000000 1.644890 
# 
# From -- ./inp_files/11172.got.cif
#   From: 2010.05.17/outbox.cif.g08.bks.cpg/sg51_6_cif.got.tgz:11172.got - 2010.06.03 11:52:47.
