data_PCOD9402757
_publ_section_title
;
Structure prediction by ZEFSAII (Michael W. Deem and Ramdas Pophale) SiO2 
 PCOD9402757
Probable space group: P M M A
;
_chemical_formula_sum "Si O2"
_cell_formula_units_Z 40
_cell_length_a 9.418486
_cell_length_b 7.359619
_cell_length_c 26.759563
_cell_angle_alpha 90.000000
_cell_angle_beta 90.000000
_cell_angle_gamma 90.000000
_cell_volume 1854.878406
_symmetry_space_group_name_H-M "P M M A"
_symmetry_group_IT_number 51
_symmetry_cell_setting 'orthorhombic'
loop_
_space_group_symop_operation_xyz
x,y,z
1/2-x,-y,z
1/2+x,-y,-z
-x,y,-z
-x,-y,-z
1/2+x,y,-z
1/2-x,y,z
x,-y,z
loop_
_atom_site_type_symbol
_atom_site_label
_atom_site_fract_x
_atom_site_fract_y
_atom_site_fract_z
Si Si1 0.913917 0.778092 0.549302
Si Si2 0.589202 0.717610 0.745492
Si Si3 0.585410 0.721105 0.048088
Si Si4 0.914934 0.721531 0.158958
Si Si5 0.411275 0.216574 0.645582
O O1 0.750000 0.719798 0.548493
O O2 0.000000 0.723036 0.500000
O O3 0.996380 0.715867 0.598844
O O4 0.912267 0.000000 0.549679
O O5 0.750000 0.786296 0.739576
O O6 0.597692 0.500000 0.750308
O O7 0.511954 0.785120 0.795598
O O8 0.493623 0.753288 0.697141
O O9 0.750000 0.771938 0.043648
O O10 0.579448 0.500000 0.047740
O O11 0.536179 0.777738 0.103449
O O12 0.500000 0.785510 0.000000
O O13 0.750000 0.775323 0.165669
O O14 0.915709 0.500000 0.159461
O O15 0.250000 0.287627 0.646841
O O16 0.401124 0.000000 0.638855
#
# Coordination Sequence:
#
# PCOD9402757 Si02
#       5
#     8   8   8   8   8
#     4   9  16  27  45  69  96 123 151 186 227 270
#     4  10  20  32  47  68  93 123 158 193 231 276
#     4   8  13  20  31  49  74 105 140 178 221 266
#     4   8  14  25  39  55  79 113 150 185 223 269
#     4  10  20  33  50  72  96 123 156 192 230 272
#
# _framework density 21.564755000000002
#
# number of rings (size 3 to 8) (size 9 to 14) (size 15 to 20)
#    0.000    3.000    0.000    3.000    0.000    5.600 
#    0.000    4.000    0.000    0.600    0.000    0.000 
#    0.000    0.800    0.000    2.600    0.000    5.200 
#
# Total GULP energy -223372.560987 kJ/mol
# GULP energy per Si atom -5584.314025 kJ/mol
# Density = 2.151567 g / cm^3
# Si number density = 21.564755 Si / 1000 Ang^3
#
#
#
# Elastic Constant Matrix: (Units=GPa)
#
#
# Indices 1 2 3 4 5 6 
#
# 1 201.5520 6.9389 154.1070 0.0000 0.0000 0.0000
# 2 6.9389 79.5050 1.9842 0.0000 0.0000 0.0000
# 3 154.1070 1.9842 257.2159 0.0000 0.0000 0.0000
# 4 0.0000 0.0000 0.0000 13.1332 0.0000 0.0000
# 5 0.0000 0.0000 0.0000 0.0000 47.1929 0.0000
# 6 0.0000 0.0000 0.0000 0.0000 0.0000 -0.0615
#
#
#
# Elastic Compliance Matrix: (Units=1/GPa)
#
#
# Indices 1 2 3 4 5 6 
#
# 1 0.009191 -0.000665 -0.005501 0.000000 0.000000 0.000000
# 2 -0.000665 0.012628 0.000301 0.000000 0.000000 0.000000
# 3 -0.005501 0.000301 0.007182 0.000000 0.000000 0.000000
# 4 0.000000 0.000000 0.000000 0.076143 0.000000 0.000000
# 5 0.000000 0.000000 0.000000 0.000000 0.021190 0.000000
# 6 0.000000 0.000000 0.000000 0.000000 0.000000-16.261304
#
#
# Mechanical properties :
#
#
# Convention : Reuss Voigt Hill
#
# Bulk Modulus (GPa) = 57.90380 96.03703 76.97042
# Shear Modulus (GPa) = -0.31022 37.06909 18.37943
#
# Velocity S-wave (km/s) = -0.37970 4.15054 2.92257
# Velocity P-wave (km/s) = 5.16887 8.22194 6.86722
#
# Compressibility (1/GPa) = 0.01727002
#
# Stress axis : x y z
#
# Youngs Moduli (GPa) = 108.80516 79.18692 139.24627
#
# Poissons Ratio (x) = 0.05265 0.76604
# Poissons Ratio (y) = 0.07234 -0.04190
# Poissons Ratio (z) = 0.59858 -0.02383
#
# Static dielectric constant tensor:
#      x y z
#    x 1.741000 0.000000 0.000000 
#    y 0.000000 1.900580 0.000000 
#    z 0.000000 0.000000 1.743410 
# 
# From -- ./inp_files/31362.got.cif
#   From: 2010.05.17/outbox.cif.g08.bks.cpg/sg51_16_cif.got.tgz:31362.got - 2010.06.03 11:52:47.
