data_PCOD9402844
_publ_section_title
;
Structure prediction by ZEFSAII (Michael W. Deem and Ramdas Pophale) SiO2 
 PCOD9402844
Probable space group: P M M A
;
_chemical_formula_sum "Si O2"
_cell_formula_units_Z 44
_cell_length_a 9.322178
_cell_length_b 7.427782
_cell_length_c 31.102640
_cell_angle_alpha 90.000000
_cell_angle_beta 90.000000
_cell_angle_gamma 90.000000
_cell_volume 2153.643397
_symmetry_space_group_name_H-M "P M M A"
_symmetry_group_IT_number 51
_symmetry_cell_setting 'orthorhombic'
loop_
_space_group_symop_operation_xyz
x,y,z
1/2-x,-y,z
1/2+x,-y,-z
-x,y,-z
-x,-y,-z
1/2+x,y,-z
1/2-x,y,z
x,-y,z
loop_
_atom_site_type_symbol
_atom_site_label
_atom_site_fract_x
_atom_site_fract_y
_atom_site_fract_z
Si Si1 0.921437 0.000000 0.454755
Si Si2 0.912362 0.785488 0.211590
Si Si3 0.080265 0.713624 0.616886
Si Si4 0.084620 0.220170 0.128095
Si Si5 0.587339 0.715974 0.701854
Si Si6 0.415480 0.219781 0.957347
O O1 0.957565 0.172579 0.425214
O O2 0.000000 0.000000 0.500000
O O3 0.750000 0.000000 0.461630
O O4 0.750000 0.713927 0.212885
O O5 0.003831 0.717784 0.171103
O O6 0.994748 0.756725 0.256097
O O7 0.901978 0.000000 0.205597
O O8 0.250000 0.741442 0.625549
O O9 0.057777 0.500000 0.610433
O O10 0.990788 0.776263 0.658282
O O11 0.250000 0.277568 0.127190
O O12 0.998489 0.275913 0.085632
O O13 0.085501 0.000000 0.128306
O O14 0.750000 0.784363 0.705666
O O15 0.594011 0.500000 0.698887
O O16 0.250000 0.277482 0.957525
O O17 0.414805 0.000000 0.957455
O O18 0.500000 0.276935 0.000000
#
# Coordination Sequence:
#
# PCOD9402844 Si02
#       6
#     4   8   8   8   8   8
#     4  10  22  38  58  86 116 148 190 232 277 332
#     4  10  20  32  48  71  99 133 170 208 255 312
#     4   9  19  37  58  80 111 149 186 229 278 328
#     4   9  16  26  39  57  85 119 157 203 254 307
#     4  10  21  36  54  78 106 136 173 217 264 314
#     4   9  15  22  33  50  75 111 155 200 249 307
#
# _framework density 20.430495000000001
#
# number of rings (size 3 to 8) (size 9 to 14) (size 15 to 20)
#    0.000    2.545    0.000    2.182    1.273    7.636 
#    0.000    0.000    0.000    0.000    0.000    0.000 
#    0.000    0.727    0.000    2.727    0.000    6.000 
#
# Total GULP energy -245832.315994 kJ/mol
# GULP energy per Si atom -5587.098091 kJ/mol
# Density = 2.038399 g / cm^3
# Si number density = 20.430495 Si / 1000 Ang^3
#
#
#
# Elastic Constant Matrix: (Units=GPa)
#
#
# Indices 1 2 3 4 5 6 
#
# 1 200.9307 29.8531 144.6805 0.0000 0.0000 0.0000
# 2 29.8531 67.8716 29.0305 0.0000 0.0000 0.0000
# 3 144.6805 29.0305 237.0716 0.0000 0.0000 0.0000
# 4 0.0000 0.0000 0.0000 149.6229 0.0000 0.0000
# 5 0.0000 0.0000 0.0000 0.0000 46.2042 0.0000
# 6 0.0000 0.0000 0.0000 0.0000 0.0000 0.8482
#
#
#
# Elastic Compliance Matrix: (Units=1/GPa)
#
#
# Indices 1 2 3 4 5 6 
#
# 1 0.009063 -0.001710 -0.005321 0.000000 0.000000 0.000000
# 2 -0.001710 0.015871 -0.000900 0.000000 0.000000 0.000000
# 3 -0.005321 -0.000900 0.007576 0.000000 0.000000 0.000000
# 4 0.000000 0.000000 0.000000 0.006683 0.000000 0.000000
# 5 0.000000 0.000000 0.000000 0.000000 0.021643 0.000000
# 6 0.000000 0.000000 0.000000 0.000000 0.000000 1.178919
#
#
# Mechanical properties :
#
#
# Convention : Reuss Voigt Hill
#
# Bulk Modulus (GPa) = 60.07185 101.44467 80.75826
# Shear Modulus (GPa) = 3.96459 59.48905 31.72682
#
# Velocity S-wave (km/s) = 1.39454 5.40194 3.94498
# Velocity P-wave (km/s) = 5.66214 9.41644 7.76946
#
# Compressibility (1/GPa) = 0.01664673
#
# Stress axis : x y z
#
# Youngs Moduli (GPa) = 110.34467 63.00895 131.99919
#
# Poissons Ratio (x) = 0.10775 0.70240
# Poissons Ratio (y) = 0.18870 0.11878
# Poissons Ratio (z) = 0.58718 0.05670
#
# Static dielectric constant tensor:
#      x y z
#    x 1.703000 0.000000 0.000000 
#    y 0.000000 1.886340 0.000000 
#    z 0.000000 0.000000 1.663820 
# 
# From -- ./inp_files/36746.got.cif
#   From: 2010.05.17/outbox.cif.g08.bks.cpg/sg51_19_cif.got.tgz:36746.got - 2010.06.03 11:52:47.
