data_PCOD9402539
_publ_section_title
;
Structure prediction by ZEFSAII (Michael W. Deem and Ramdas Pophale) SiO2 
 PCOD9402539
Probable space group: P M M A
;
_chemical_formula_sum "Si O2"
_cell_formula_units_Z 44
_cell_length_a 25.376810
_cell_length_b 8.635897
_cell_length_c 6.964579
_cell_angle_alpha 90.000000
_cell_angle_beta 90.000000
_cell_angle_gamma 90.000000
_cell_volume 1526.298056
_symmetry_space_group_name_H-M "P M M A"
_symmetry_group_IT_number 51
_symmetry_cell_setting 'orthorhombic'
loop_
_space_group_symop_operation_xyz
x,y,z
1/2-x,-y,z
1/2+x,-y,-z
-x,y,-z
-x,-y,-z
1/2+x,y,-z
1/2-x,y,z
x,-y,z
loop_
_atom_site_type_symbol
_atom_site_label
_atom_site_fract_x
_atom_site_fract_y
_atom_site_fract_z
Si Si1 0.077169 0.171198 0.025795
Si Si2 0.313595 0.500000 0.874692
Si Si3 0.439514 0.500000 0.566502
Si Si4 0.060450 0.832814 0.565050
Si Si5 0.923366 0.500000 0.974490
Si Si6 0.307796 0.179570 0.210960
Si Si7 0.811233 0.823599 0.333622
O O1 0.067907 0.168072 0.795933
O O2 0.053728 0.335883 0.096616
O O3 0.137800 0.191298 0.092395
O O4 0.058394 0.000000 0.091823
O O5 0.250000 0.500000 0.900388
O O6 0.358586 0.500000 0.042642
O O7 0.326395 0.340267 0.762019
O O8 0.500000 0.500000 0.500000
O O9 0.417511 0.333799 0.499703
O O10 0.434428 0.500000 0.796929
O O11 0.000000 0.832747 0.500000
O O12 0.081486 0.000000 0.494961
O O13 0.250000 0.255097 0.161952
O O14 0.298757 0.000000 0.186339
O O15 0.315771 0.200834 0.438030
O O16 0.750000 0.835265 0.287019
O O17 0.831112 0.000000 0.282975
#
# Coordination Sequence:
#
# PCOD9402539 Si02
#       7
#     8   4   4   8   4   8   8
#     4   9  17  28  41  60  88 113 134 169 213 253
#     4  10  20  31  42  59  84 116 150 176 202 240
#     4   8  14  26  41  54  74 102 131 169 206 233
#     4   8  13  22  37  56  79 105 130 157 193 242
#     4  10  20  29  39  61  88 113 144 169 196 254
#     4   8  14  26  44  63  82 108 142 177 215 253
#     4   8  15  29  46  60  76 104 145 186 214 239
#
# _framework density 28.827923999999999
#
# number of rings (size 3 to 8) (size 9 to 14) (size 15 to 20)
#    0.000    3.455    0.000    1.091    0.000    2.182 
#    0.000    0.909    0.000    0.000    0.000    0.000 
#    0.000   46.545    0.000  146.364    0.000    0.000 
#
# Total GULP energy -245384.568346 kJ/mol
# GULP energy per Si atom -5576.922008 kJ/mol
# Density = 2.876231 g / cm^3
# Si number density = 28.827924 Si / 1000 Ang^3
#
#
#
# Elastic Constant Matrix: (Units=GPa)
#
#
# Indices 1 2 3 4 5 6 
#
# 1 131.7452 44.6413 -27.9342 0.0000 0.0000 0.0000
# 2 44.6413 345.6314 48.7537 0.0000 0.0000 0.0000
# 3 -27.9342 48.7537 149.6830 0.0000 0.0000 0.0000
# 4 0.0000 0.0000 0.0000 -29.4772 0.0000 0.0000
# 5 0.0000 0.0000 0.0000 0.0000 49.9366 0.0000
# 6 0.0000 0.0000 0.0000 0.0000 0.0000 7.2120
#
#
#
# Elastic Compliance Matrix: (Units=1/GPa)
#
#
# Indices 1 2 3 4 5 6 
#
# 1 0.008491 -0.001384 0.002035 0.000000 0.000000 0.000000
# 2 -0.001384 0.003258 -0.001319 0.000000 0.000000 0.000000
# 3 0.002035 -0.001319 0.007490 0.000000 0.000000 0.000000
# 4 0.000000 0.000000 0.000000 -0.033924 0.000000 0.000000
# 5 0.000000 0.000000 0.000000 0.000000 0.020025 0.000000
# 6 0.000000 0.000000 0.000000 0.000000 0.000000 0.138657
#
#
# Mechanical properties :
#
#
# Convention : Reuss Voigt Hill
#
# Bulk Modulus (GPa) = 55.85505 84.22014 70.03759
# Shear Modulus (GPa) = 33.04675 42.97421 38.01048
#
# Velocity S-wave (km/s) = 3.38944 3.86517 3.63510
# Velocity P-wave (km/s) = 5.89366 7.01410 6.47814
#
# Compressibility (1/GPa) = 0.01790348
#
# Stress axis : x y z
#
# Youngs Moduli (GPa) = 117.77402 306.92771 133.50466
#
# Poissons Ratio (x) = 0.42471 -0.27172
# Poissons Ratio (y) = 0.16297 0.17615
# Poissons Ratio (z) = -0.23970 0.40497
#
# Static dielectric constant tensor:
#      x y z
#    x 2.234220 0.000000 0.000000 
#    y 0.000000 2.468720 0.000000 
#    z 0.000000 0.000000 2.209020 
# 
# From -- ./inp_files/12690.got.cif
#   From: 2010.05.17/outbox.cif.g08.bks.cpg/sg51_7_cif.got.tgz:12690.got - 2010.06.03 11:52:47.
