data_PCOD9402420
_publ_section_title
;
Structure prediction by ZEFSAII (Michael W. Deem and Ramdas Pophale) SiO2 
 PCOD9402420
Probable space group: P M M A
;
_chemical_formula_sum "Si O2"
_cell_formula_units_Z 64
_cell_length_a 31.784462
_cell_length_b 8.821616
_cell_length_c 12.410889
_cell_angle_alpha 90.000000
_cell_angle_beta 90.000000
_cell_angle_gamma 90.000000
_cell_volume 3479.893120
_symmetry_space_group_name_H-M "P M M A"
_symmetry_group_IT_number 51
_symmetry_cell_setting 'orthorhombic'
loop_
_space_group_symop_operation_xyz
x,y,z
1/2-x,-y,z
1/2+x,-y,-z
-x,y,-z
-x,-y,-z
1/2+x,y,-z
1/2-x,y,z
x,-y,z
loop_
_atom_site_type_symbol
_atom_site_label
_atom_site_fract_x
_atom_site_fract_y
_atom_site_fract_z
Si Si1 0.549097 0.818156 0.014599
Si Si2 0.201941 0.317494 0.986371
Si Si3 0.122583 0.318927 0.128560
Si Si4 0.387910 0.177179 0.355646
Si Si5 0.488193 0.823891 0.377118
Si Si6 0.627418 0.817194 0.403371
Si Si7 0.701969 0.818949 0.245744
Si Si8 0.558210 0.678661 0.245815
O O1 0.563990 0.760207 0.131453
O O2 0.550526 0.000000 0.010395
O O3 0.500000 0.771740 0.000000
O O4 0.580992 0.753274 0.925539
O O5 0.250000 0.265312 0.011437
O O6 0.202567 0.500000 0.987918
O O7 0.164688 0.267231 0.065387
O O8 0.191483 0.262331 0.866092
O O9 0.119316 0.500000 0.118891
O O10 0.126032 0.270584 0.252448
O O11 0.438492 0.185092 0.363055
O O12 0.371667 0.230032 0.472152
O O13 0.376428 0.000000 0.341160
O O14 0.500000 0.783695 0.500000
O O15 0.512464 0.720767 0.292518
O O16 0.501306 0.000000 0.360259
O O17 0.669964 0.780525 0.340140
O O18 0.590133 0.741869 0.335518
O O19 0.620851 0.000000 0.402670
O O20 0.750000 0.780842 0.273730
O O21 0.699387 0.000000 0.227911
O O22 0.563385 0.500000 0.232303
#
# Coordination Sequence:
#
# PCOD9402420 Si02
#       8
#     8   8   8   8   8   8   8   8
#     4  11  24  41  59  79 109 152 193 226 274 342
#     4   9  19  37  59  82 111 147 183 221 277 347
#     4  11  23  38  58  84 114 146 186 240 291 330
#     4  10  21  37  57  79 108 150 191 225 268 330
#     4  10  19  36  57  76 105 147 192 227 265 328
#     4  10  20  37  57  78 109 148 185 220 267 332
#     4   9  18  33  57  87 112 135 172 227 280 323
#     4  12  24  35  54  84 114 140 179 234 283 320
#
# _framework density 18.391369999999998
#
# number of rings (size 3 to 8) (size 9 to 14) (size 15 to 20)
#    0.000    1.750    1.250    3.375    0.000    8.750 
#    0.000    0.625    0.000    0.750    0.000    0.000 
#    0.000    0.000    0.000    0.000    0.000    0.000 
#
# Total GULP energy -357508.759678 kJ/mol
# GULP energy per Si atom -5586.074370 kJ/mol
# Density = 1.834951 g / cm^3
# Si number density = 18.391370 Si / 1000 Ang^3
#
#
#
# Elastic Constant Matrix: (Units=GPa)
#
#
# Indices 1 2 3 4 5 6 
#
# 1 93.4770 31.2700 69.7669 0.0000 0.0000 0.0000
# 2 31.2700 34.6656 36.2351 0.0000 0.0000 0.0000
# 3 69.7669 36.2351 132.4396 0.0000 0.0000 0.0000
# 4 0.0000 0.0000 0.0000 42.6590 0.0000 0.0000
# 5 0.0000 0.0000 0.0000 0.0000 31.8695 0.0000
# 6 0.0000 0.0000 0.0000 0.0000 0.0000 13.9281
#
#
#
# Elastic Compliance Matrix: (Units=1/GPa)
#
#
# Indices 1 2 3 4 5 6 
#
# 1 0.019712 -0.009702 -0.007730 0.000000 0.000000 0.000000
# 2 -0.009702 0.045176 -0.007249 0.000000 0.000000 0.000000
# 3 -0.007730 -0.007249 0.013606 0.000000 0.000000 0.000000
# 4 0.000000 0.000000 0.000000 0.023442 0.000000 0.000000
# 5 0.000000 0.000000 0.000000 0.000000 0.031378 0.000000
# 6 0.000000 0.000000 0.000000 0.000000 0.000000 0.071797
#
#
# Mechanical properties :
#
#
# Convention : Reuss Voigt Hill
#
# Bulk Modulus (GPa) = 34.32576 59.45845 46.89211
# Shear Modulus (GPa) = 18.92621 25.91200 22.41911
#
# Velocity S-wave (km/s) = 3.21141 3.75763 3.49521
# Velocity P-wave (km/s) = 5.69697 7.15724 6.46845
#
# Compressibility (1/GPa) = 0.02913264
#
# Stress axis : x y z
#
# Youngs Moduli (GPa) = 50.72938 22.13561 73.49743
#
# Poissons Ratio (x) = 0.21476 0.56812
# Poissons Ratio (y) = 0.49217 0.53280
# Poissons Ratio (z) = 0.39213 0.16047
#
# Static dielectric constant tensor:
#      x y z
#    x 1.650160 0.000000 0.000000 
#    y 0.000000 1.626100 0.000000 
#    z 0.000000 0.000000 1.616720 
# 
# From -- ./inp_files/19549.got.cif
#   From: 2010.05.17/outbox.cif.g08.bks.cpg/sg51_10_cif.got.tgz:19549.got - 2010.06.03 11:52:47.
