data_PCOD9402256
_publ_section_title
;
Structure prediction by ZEFSAII (Michael W. Deem and Ramdas Pophale) SiO2 
 PCOD9402256
Probable space group: P M M A
;
_chemical_formula_sum "Si O2"
_cell_formula_units_Z 48
_cell_length_a 16.147833
_cell_length_b 17.128199
_cell_length_c 7.243880
_cell_angle_alpha 90.000000
_cell_angle_beta 90.000000
_cell_angle_gamma 90.000000
_cell_volume 2003.536214
_symmetry_space_group_name_H-M "P M M A"
_symmetry_group_IT_number 51
_symmetry_cell_setting 'orthorhombic'
loop_
_space_group_symop_operation_xyz
x,y,z
1/2-x,-y,z
1/2+x,-y,-z
-x,y,-z
-x,-y,-z
1/2+x,y,-z
1/2-x,y,z
x,-y,z
loop_
_atom_site_type_symbol
_atom_site_label
_atom_site_fract_x
_atom_site_fract_y
_atom_site_fract_z
Si Si1 0.846489 0.167872 0.084304
Si Si2 0.593115 0.000000 0.934161
Si Si3 0.344133 0.337461 0.829751
Si Si4 0.484745 0.588019 0.276820
Si Si5 0.164674 0.000000 0.430905
Si Si6 0.590355 0.855032 0.458650
Si Si7 0.155019 0.703199 0.384890
O O1 0.750000 0.161007 0.138835
O O2 0.850054 0.260848 0.036425
O O3 0.911192 0.173875 0.251430
O O4 0.867137 0.084911 0.986672
O O5 0.593122 0.000000 0.715202
O O6 0.500000 0.000000 0.000000
O O7 0.250000 0.371294 0.862813
O O8 0.431066 0.385369 0.829671
O O9 0.342414 0.316241 0.607524
O O10 0.500000 0.586421 0.500000
O O11 0.462957 0.500000 0.220974
O O12 0.406800 0.646536 0.276139
O O13 0.156168 0.923662 0.548011
O O14 0.250000 0.000000 0.322396
O O15 0.500000 0.883605 0.500000
O O16 0.618902 0.791061 0.606259
O O17 0.250000 0.701038 0.323924
#
# Coordination Sequence:
#
# PCOD9402256 Si02
#       7
#     8   4   8   8   4   8   8
#     4  10  19  35  55  72  97 140 183 213 254 318
#     4  12  25  38  51  74 104 136 172 218 273 322
#     4   8  15  27  45  67  90 124 172 215 248 297
#     4   9  16  25  39  63  97 131 159 198 256 311
#     4  12  24  36  50  76 108 132 166 222 280 322
#     4  11  20  34  55  77 101 135 179 225 263 309
#     4   9  16  27  43  65  94 130 171 210 248 298
#
# _framework density 23.957642
#
# number of rings (size 3 to 8) (size 9 to 14) (size 15 to 20)
#    0.000    2.167    0.000    7.500    0.000    0.667 
#    0.000    3.333    0.000    0.000    0.000    0.000 
#    0.000    6.000    0.000    9.333    0.000   16.833 
#
# Total GULP energy -267227.285803 kJ/mol
# GULP energy per Si atom -5567.235121 kJ/mol
# Density = 2.390311 g / cm^3
# Si number density = 23.957642 Si / 1000 Ang^3
#
#
#
# Elastic Constant Matrix: (Units=GPa)
#
#
# Indices 1 2 3 4 5 6 
#
# 1 156.0097 88.3594 17.3315 0.0000 0.0000 0.0000
# 2 88.3594 171.7925 24.6067 0.0000 0.0000 0.0000
# 3 17.3315 24.6067 39.9323 0.0000 0.0000 0.0000
# 4 0.0000 0.0000 0.0000 -0.9241 0.0000 0.0000
# 5 0.0000 0.0000 0.0000 0.0000 22.1868 0.0000
# 6 0.0000 0.0000 0.0000 0.0000 0.0000 55.1702
#
#
#
# Elastic Compliance Matrix: (Units=1/GPa)
#
#
# Indices 1 2 3 4 5 6 
#
# 1 0.009094 -0.004510 -0.001168 0.000000 0.000000 0.000000
# 2 -0.004510 0.008621 -0.003355 0.000000 0.000000 0.000000
# 3 -0.001168 -0.003355 0.027617 0.000000 0.000000 0.000000
# 4 0.000000 0.000000 0.000000 -1.082108 0.000000 0.000000
# 5 0.000000 0.000000 0.000000 0.000000 0.045072 0.000000
# 6 0.000000 0.000000 0.000000 0.000000 0.000000 0.018126
#
#
# Mechanical properties :
#
#
# Convention : Reuss Voigt Hill
#
# Bulk Modulus (GPa) = 36.67573 69.81440 53.24506
# Shear Modulus (GPa) = -5.28305 31.11571 12.91633
#
# Velocity S-wave (km/s) = -1.48659 3.60777 2.32444
# Velocity P-wave (km/s) = 3.52068 6.82339 5.42927
#
# Compressibility (1/GPa) = 0.02726599
#
# Stress axis : x y z
#
# Youngs Moduli (GPa) = 109.96275 115.99243 36.21006
#
# Poissons Ratio (x) = 0.52314 0.04229
# Poissons Ratio (y) = 0.49594 0.12149
# Poissons Ratio (z) = 0.12842 0.38916
#
# Static dielectric constant tensor:
#      x y z
#    x -7.901060 0.000000 0.000000 
#    y 0.000000 2.374600 0.000000 
#    z 0.000000 0.000000 2.032300 
# 
# From -- ./inp_files/8362.got.cif
#   From: 2010.05.17/outbox.cif.g08.bks.cpg/sg51_5_cif.got.tgz:8362.got - 2010.06.03 11:52:47.
