data_PCOD9402285
_publ_section_title
;
Structure prediction by ZEFSAII (Michael W. Deem and Ramdas Pophale) SiO2 
 PCOD9402285
Probable space group: P M M A
;
_chemical_formula_sum "Si O2"
_cell_formula_units_Z 38
_cell_length_a 25.073519
_cell_length_b 7.562577
_cell_length_c 11.388943
_cell_angle_alpha 90.000000
_cell_angle_beta 90.000000
_cell_angle_gamma 90.000000
_cell_volume 2159.576133
_symmetry_space_group_name_H-M "P M M A"
_symmetry_group_IT_number 51
_symmetry_cell_setting 'orthorhombic'
loop_
_space_group_symop_operation_xyz
x,y,z
1/2-x,-y,z
1/2+x,-y,-z
-x,y,-z
-x,-y,-z
1/2+x,y,-z
1/2-x,y,z
x,-y,z
loop_
_atom_site_type_symbol
_atom_site_label
_atom_site_fract_x
_atom_site_fract_y
_atom_site_fract_z
Si Si1 0.813162 0.790711 0.897156
Si Si2 0.361681 0.208618 0.356995
Si Si3 0.342657 0.500000 0.546301
Si Si4 0.437817 0.500000 0.730742
Si Si5 0.750000 0.500000 0.256841
Si Si6 0.349141 0.500000 0.927323
Si Si7 0.987371 0.791842 0.636940
O O1 0.750000 0.754734 0.907812
O O2 0.844538 0.670864 0.989183
O O3 0.821631 0.000000 0.918027
O O4 0.832078 0.751889 0.764811
O O5 0.341094 0.329662 0.462088
O O6 0.424865 0.242689 0.342598
O O7 0.354946 0.000000 0.383291
O O8 0.397523 0.500000 0.619875
O O9 0.296055 0.500000 0.640140
O O10 0.401575 0.500000 0.846530
O O11 0.475459 0.329653 0.716486
O O12 0.797335 0.500000 0.156168
O O13 0.000000 0.753130 0.500000
O O14 0.997624 0.000000 0.655927
#
# Coordination Sequence:
#
# PCOD9402285 Si02
#       7
#     8   8   4   4   2   4   8
#     4  10  21  39  62  82 106 147 193 237 280 328
#     4  10  21  36  59  89 114 143 188 233 280 336
#     4  11  21  35  54  83 119 146 175 228 285 334
#     4  11  22  34  57  84 112 152 191 222 269 343
#     4  10  24  38  54  82 116 150 182 230 284 336
#     4  11  22  42  59  79 114 150 196 232 275 337
#     4  10  19  35  56  82 118 153 183 225 281 337
#
# _framework density 17.596045
#
# number of rings (size 3 to 8) (size 9 to 14) (size 15 to 20)
#    0.000    1.684    3.158    1.579    1.474    0.842 
#    0.000    6.316    0.000    3.789    0.000    0.000 
#    0.000    0.000    0.000    0.000    0.000    0.000 
#
# Total GULP energy -211683.150007 kJ/mol
# GULP energy per Si atom -5570.609211 kJ/mol
# Density = 1.755600 g / cm^3
# Si number density = 17.596045 Si / 1000 Ang^3
#
#
#
# Elastic Constant Matrix: (Units=GPa)
#
#
# Indices 1 2 3 4 5 6 
#
# 1 19.8184 15.3216 6.6167 0.0000 0.0000 0.0000
# 2 15.3216 56.8622 44.7911 0.0000 0.0000 0.0000
# 3 6.6167 44.7911 93.7125 0.0000 0.0000 0.0000
# 4 0.0000 0.0000 0.0000 19.6990 0.0000 0.0000
# 5 0.0000 0.0000 0.0000 0.0000 32.2178 0.0000
# 6 0.0000 0.0000 0.0000 0.0000 0.0000 8.5523
#
#
#
# Elastic Compliance Matrix: (Units=1/GPa)
#
#
# Indices 1 2 3 4 5 6 
#
# 1 0.065871 -0.022591 0.006147 0.000000 0.000000 0.000000
# 2 -0.022591 0.035953 -0.015589 0.000000 0.000000 0.000000
# 3 0.006147 -0.015589 0.017688 0.000000 0.000000 0.000000
# 4 0.000000 0.000000 0.000000 0.050764 0.000000 0.000000
# 5 0.000000 0.000000 0.000000 0.000000 0.031039 0.000000
# 6 0.000000 0.000000 0.000000 0.000000 0.000000 0.116927
#
#
# Mechanical properties :
#
#
# Convention : Reuss Voigt Hill
#
# Bulk Modulus (GPa) = 18.03576 33.76132 25.89854
# Shear Modulus (GPa) = 12.47533 19.00475 15.74004
#
# Velocity S-wave (km/s) = 2.66557 3.28999 2.99410
# Velocity P-wave (km/s) = 4.44362 5.80177 5.16751
#
# Compressibility (1/GPa) = 0.05544540
#
# Stress axis : x y z
#
# Youngs Moduli (GPa) = 15.18122 27.81374 56.53522
#
# Poissons Ratio (x) = 0.62834 -0.34751
# Poissons Ratio (y) = 0.34296 0.88135
# Poissons Ratio (z) = -0.09331 0.43360
#
# Static dielectric constant tensor:
#      x y z
#    x 1.586050 0.000000 0.000000 
#    y 0.000000 1.609760 0.000000 
#    z 0.000000 0.000000 1.563110 
# 
# From -- ./inp_files/11485.got.cif
#   From: 2010.05.17/outbox.cif.g08.bks.cpg/sg51_6_cif.got.tgz:11485.got - 2010.06.03 11:52:47.
