data_PCOD9402409
_publ_section_title
;
Structure prediction by ZEFSAII (Michael W. Deem and Ramdas Pophale) SiO2 
 PCOD9402409
Probable space group: P M M A
;
_chemical_formula_sum "Si O2"
_cell_formula_units_Z 32
_cell_length_a 14.035202
_cell_length_b 7.895616
_cell_length_c 14.260600
_cell_angle_alpha 90.000000
_cell_angle_beta 90.000000
_cell_angle_gamma 90.000000
_cell_volume 1580.310714
_symmetry_space_group_name_H-M "P M M A"
_symmetry_group_IT_number 51
_symmetry_cell_setting 'orthorhombic'
loop_
_space_group_symop_operation_xyz
x,y,z
1/2-x,-y,z
1/2+x,-y,-z
-x,y,-z
-x,-y,-z
1/2+x,y,-z
1/2-x,y,z
x,-y,z
loop_
_atom_site_type_symbol
_atom_site_label
_atom_site_fract_x
_atom_site_fract_y
_atom_site_fract_z
Si Si1 0.361231 0.704060 0.248703
Si Si2 0.363601 0.500000 0.693591
Si Si3 0.977472 0.192088 0.390455
Si Si4 0.365780 0.809173 0.039210
Si Si5 0.866247 0.500000 0.090791
O O1 0.250000 0.751786 0.260740
O O2 0.366659 0.500000 0.251529
O O3 0.427605 0.779944 0.328790
O O4 0.393403 0.764928 0.145702
O O5 0.250000 0.500000 0.692023
O O6 0.404233 0.666345 0.643833
O O7 0.397561 0.500000 0.801832
O O8 0.000000 0.215280 0.500000
O O9 0.942770 0.000000 0.376138
O O10 0.250000 0.802908 0.039424
O O11 0.393479 0.000000 0.014133
O O12 0.396851 0.666826 0.965767
O O13 0.750000 0.500000 0.091449
#
# Coordination Sequence:
#
# PCOD9402409 Si02
#       5
#     8   4   8   8   4
#     4  10  19  35  64  96 125 158 200 254 317 378
#     4  11  25  44  66  90 125 168 213 256 298 357
#     4  11  25  45  66  91 125 161 205 260 316 371
#     4   9  16  29  53  86 123 159 197 245 303 363
#     4   9  18  34  55  84 119 160 204 246 292 353
#
# _framework density 20.249182999999999
#
# number of rings (size 3 to 8) (size 9 to 14) (size 15 to 20)
#    0.000    2.000    2.500    1.125    0.000    4.000 
#    0.000    7.500    0.000    3.000    0.000    0.000 
#    0.000    0.000    0.000    0.000    0.000    0.000 
#
# Total GULP energy -178967.553036 kJ/mol
# GULP energy per Si atom -5592.736032 kJ/mol
# Density = 2.020309 g / cm^3
# Si number density = 20.249183 Si / 1000 Ang^3
#
#
#
# Elastic Constant Matrix: (Units=GPa)
#
#
# Indices 1 2 3 4 5 6 
#
# 1 91.0877 40.9328 46.6245 0.0000 0.0000 0.0000
# 2 40.9328 189.2217 110.7619 0.0000 0.0000 0.0000
# 3 46.6245 110.7619 148.5001 0.0000 0.0000 0.0000
# 4 0.0000 0.0000 0.0000 -28.6693 0.0000 0.0000
# 5 0.0000 0.0000 0.0000 0.0000 30.3545 0.0000
# 6 0.0000 0.0000 0.0000 0.0000 0.0000 -24.9234
#
#
#
# Elastic Compliance Matrix: (Units=1/GPa)
#
#
# Indices 1 2 3 4 5 6 
#
# 1 0.013142 -0.000759 -0.003560 0.000000 0.000000 0.000000
# 2 -0.000759 0.009424 -0.006791 0.000000 0.000000 0.000000
# 3 -0.003560 -0.006791 0.012917 0.000000 0.000000 0.000000
# 4 0.000000 0.000000 0.000000 -0.034881 0.000000 0.000000
# 5 0.000000 0.000000 0.000000 0.000000 0.032944 0.000000
# 6 0.000000 0.000000 0.000000 0.000000 0.000000 -0.040123
#
#
# Mechanical properties :
#
#
# Convention : Reuss Voigt Hill
#
# Bulk Modulus (GPa) = 75.39784 91.71644 83.55714
# Shear Modulus (GPa) = 249.20527 10.71837 129.96182
#
# Velocity S-wave (km/s) = 11.10570 2.30320 8.02001
# Velocity P-wave (km/s) = 14.20438 7.24329 11.27452
#
# Compressibility (1/GPa) = 0.01326298
#
# Stress axis : x y z
#
# Youngs Moduli (GPa) = 76.09345 106.11165 77.41847
#
# Poissons Ratio (x) = 0.08054 0.27561
# Poissons Ratio (y) = 0.05775 0.52574
# Poissons Ratio (z) = 0.27089 0.72059
#
# Static dielectric constant tensor:
#      x y z
#    x 1.736810 0.000000 0.000000 
#    y 0.000000 1.703310 0.000000 
#    z 0.000000 0.000000 1.668130 
# 
# From -- ./inp_files/15949.got.cif
#   From: 2010.05.17/outbox.cif.g08.bks.cpg/sg51_8_cif.got.tgz:15949.got - 2010.06.03 11:52:47.
