data_PCOD9402179
_publ_section_title
;
Structure prediction by ZEFSAII (Michael W. Deem and Ramdas Pophale) SiO2 
 PCOD9402179
Probable space group: P M M A
;
_chemical_formula_sum "Si O2"
_cell_formula_units_Z 44
_cell_length_a 8.072991
_cell_length_b 14.140883
_cell_length_c 19.338733
_cell_angle_alpha 90.000000
_cell_angle_beta 90.000000
_cell_angle_gamma 90.000000
_cell_volume 2207.694698
_symmetry_space_group_name_H-M "P M M A"
_symmetry_group_IT_number 51
_symmetry_cell_setting 'orthorhombic'
loop_
_space_group_symop_operation_xyz
x,y,z
1/2-x,-y,z
1/2+x,-y,-z
-x,y,-z
-x,-y,-z
1/2+x,y,-z
1/2-x,y,z
x,-y,z
loop_
_atom_site_type_symbol
_atom_site_label
_atom_site_fract_x
_atom_site_fract_y
_atom_site_fract_z
Si Si1 0.951917 0.104652 0.829300
Si Si2 0.449909 0.500000 0.579489
Si Si3 0.949380 0.895200 0.669103
Si Si4 0.050634 0.606193 0.796563
Si Si5 0.050322 0.691853 0.656337
Si Si6 0.053706 0.276844 0.078761
O O1 0.750000 0.109356 0.827738
O O2 0.006522 0.112865 0.749425
O O3 0.015529 0.185482 0.880151
O O4 0.997840 0.000000 0.854053
O O5 0.250000 0.500000 0.586077
O O6 0.500000 0.500000 0.500000
O O7 0.507370 0.401131 0.614312
O O8 0.750000 0.897055 0.669237
O O9 0.000545 0.797152 0.633043
O O10 0.004990 0.000000 0.643796
O O11 0.250000 0.608407 0.795428
O O12 0.997369 0.500000 0.779861
O O13 0.989987 0.674427 0.735315
O O14 0.994196 0.636609 0.872038
O O15 0.250000 0.689535 0.656167
O O16 0.250000 0.268483 0.078587
O O17 0.000000 0.284409 0.000000
#
# Coordination Sequence:
#
# PCOD9402179 Si02
#       6
#     8   4   8   8   8   8
#     4   8  15  29  48  70  99 133 169 216 270 319
#     4  10  22  40  60  90 125 156 181 218 271 324
#     4   9  17  31  53  82 114 146 184 230 277 325
#     4  10  20  36  56  76 100 134 175 221 273 329
#     4  10  19  34  58  85 116 147 181 225 277 325
#     4  11  22  35  51  71  99 136 179 227 276 329
#
# _framework density 19.930289999999999
#
# number of rings (size 3 to 8) (size 9 to 14) (size 15 to 20)
#    0.000    2.364    2.727    1.636    0.000    2.182 
#    0.000    0.000    0.000    2.182    0.000    0.000 
#    0.000    0.000    0.000    0.000    0.000    0.000 
#
# Total GULP energy -245255.741204 kJ/mol
# GULP energy per Si atom -5573.994118 kJ/mol
# Density = 1.988493 g / cm^3
# Si number density = 19.930290 Si / 1000 Ang^3
#
#
#
# Elastic Constant Matrix: (Units=GPa)
#
#
# Indices 1 2 3 4 5 6 
#
# 1 12.5780 17.8703 3.3011 0.0000 0.0000 0.0000
# 2 17.8703 162.6289 39.9352 0.0000 0.0000 0.0000
# 3 3.3011 39.9352 55.6781 0.0000 0.0000 0.0000
# 4 0.0000 0.0000 0.0000 16.2769 0.0000 0.0000
# 5 0.0000 0.0000 0.0000 0.0000 14.1442 0.0000
# 6 0.0000 0.0000 0.0000 0.0000 0.0000 24.6303
#
#
#
# Elastic Compliance Matrix: (Units=1/GPa)
#
#
# Indices 1 2 3 4 5 6 
#
# 1 0.094442 -0.010927 0.002238 0.000000 0.000000 0.000000
# 2 -0.010927 0.008728 -0.005612 0.000000 0.000000 0.000000
# 3 0.002238 -0.005612 0.021853 0.000000 0.000000 0.000000
# 4 0.000000 0.000000 0.000000 0.061437 0.000000 0.000000
# 5 0.000000 0.000000 0.000000 0.000000 0.070700 0.000000
# 6 0.000000 0.000000 0.000000 0.000000 0.000000 0.040600
#
#
# Mechanical properties :
#
#
# Convention : Reuss Voigt Hill
#
# Bulk Modulus (GPa) = 10.37129 39.23314 24.80222
# Shear Modulus (GPa) = 13.94690 22.32881 18.13786
#
# Velocity S-wave (km/s) = 2.64821 3.35079 3.02000
# Velocity P-wave (km/s) = 3.81652 5.89053 4.96307
#
# Compressibility (1/GPa) = 0.09642000
#
# Stress axis : x y z
#
# Youngs Moduli (GPa) = 10.58856 114.57611 45.76020
#
# Poissons Ratio (x) = 1.25200 -0.10242
# Poissons Ratio (y) = 0.11570 0.25681
# Poissons Ratio (z) = -0.02370 0.64302
#
# Static dielectric constant tensor:
#      x y z
#    x 1.706010 0.000000 0.000000 
#    y 0.000000 1.757310 0.000000 
#    z 0.000000 0.000000 1.531740 
# 
# From -- ./inp_files/27415.got.cif
#   From: 2010.05.17/outbox.cif.g08.bks.cpg/sg51_14_cif.got.tgz:27415.got - 2010.06.03 11:52:47.
