data_PCOD9402626
_publ_section_title
;
Structure prediction by ZEFSAII (Michael W. Deem and Ramdas Pophale) SiO2 
 PCOD9402626
Probable space group: P M M A
;
_chemical_formula_sum "Si O2"
_cell_formula_units_Z 64
_cell_length_a 15.502025
_cell_length_b 18.153905
_cell_length_c 12.393881
_cell_angle_alpha 90.000000
_cell_angle_beta 90.000000
_cell_angle_gamma 90.000000
_cell_volume 3487.914363
_symmetry_space_group_name_H-M "P M M A"
_symmetry_group_IT_number 51
_symmetry_cell_setting 'orthorhombic'
loop_
_space_group_symop_operation_xyz
x,y,z
1/2-x,-y,z
1/2+x,-y,-z
-x,y,-z
-x,-y,-z
1/2+x,y,-z
1/2-x,y,z
x,-y,z
loop_
_atom_site_type_symbol
_atom_site_label
_atom_site_fract_x
_atom_site_fract_y
_atom_site_fract_z
Si Si1 0.945921 0.578801 0.107474
Si Si2 0.650163 0.827830 0.191191
Si Si3 0.000360 0.584806 0.336800
Si Si4 0.151851 0.711888 0.993359
Si Si5 0.085908 0.277110 0.432656
Si Si6 0.344589 0.304755 0.648976
Si Si7 0.644495 0.209184 0.793623
Si Si8 0.013832 0.913803 0.128770
O O1 0.898743 0.500000 0.125445
O O2 0.010103 0.586514 0.207947
O O3 0.890616 0.650570 0.082450
O O4 0.000000 0.572505 0.000000
O O5 0.750000 0.851553 0.211664
O O6 0.626797 0.764051 0.277532
O O7 0.575131 0.887875 0.186131
O O8 0.649548 0.786827 0.075577
O O9 0.001785 0.500000 0.372123
O O10 0.908646 0.626315 0.348361
O O11 0.066008 0.638813 0.396074
O O12 0.250000 0.688476 0.008983
O O13 0.117676 0.731614 0.112653
O O14 0.156290 0.277718 0.525867
O O15 0.111972 0.234292 0.324621
O O16 0.000000 0.252096 0.500000
O O17 0.250000 0.325979 0.687815
O O18 0.750000 0.202330 0.795813
O O19 0.592699 0.135894 0.828044
O O20 0.029746 0.000000 0.147020
O O21 0.000000 0.902698 0.000000
#
# Coordination Sequence:
#
# PCOD9402626 Si02
#       8
#     8   8   8   8   8   8   8   8
#     4  10  20  31  48  75 107 147 188 232 286 342
#     4  10  20  37  59  86 116 151 192 238 287 341
#     4  10  20  33  50  76 109 146 189 240 297 348
#     4  10  20  33  54  81 109 149 190 233 288 342
#     4  10  21  36  58  81 107 149 200 247 293 343
#     4  10  20  35  55  78 107 143 190 241 286 338
#     4  11  23  39  61  89 120 155 196 244 296 350
#     4  11  23  37  59  91 124 157 185 221 285 357
#
# _framework density 18.349074000000002
#
# number of rings (size 3 to 8) (size 9 to 14) (size 15 to 20)
#    0.000    1.750    2.500    2.625    1.750    3.250 
#    0.000    2.500    0.000    5.250    0.000    3.500 
#    0.000    0.000    0.000    0.000    0.000    0.000 
#
# Total GULP energy -356469.473854 kJ/mol
# GULP energy per Si atom -5569.835529 kJ/mol
# Density = 1.830731 g / cm^3
# Si number density = 18.349074 Si / 1000 Ang^3
#
#
#
# Elastic Constant Matrix: (Units=GPa)
#
#
# Indices 1 2 3 4 5 6 
#
# 1 67.1321 46.7751 18.5412 0.0000 0.0000 0.0000
# 2 46.7751 103.7116 35.4500 0.0000 0.0000 0.0000
# 3 18.5412 35.4500 128.6456 0.0000 0.0000 0.0000
# 4 0.0000 0.0000 0.0000 170.9951 0.0000 0.0000
# 5 0.0000 0.0000 0.0000 0.0000 23.4613 0.0000
# 6 0.0000 0.0000 0.0000 0.0000 0.0000 -74.2180
#
#
#
# Elastic Compliance Matrix: (Units=1/GPa)
#
#
# Indices 1 2 3 4 5 6 
#
# 1 0.021749 -0.009646 -0.000476 0.000000 0.000000 0.000000
# 2 -0.009646 0.014923 -0.002722 0.000000 0.000000 0.000000
# 3 -0.000476 -0.002722 0.008592 0.000000 0.000000 0.000000
# 4 0.000000 0.000000 0.000000 0.005848 0.000000 0.000000
# 5 0.000000 0.000000 0.000000 0.000000 0.042623 0.000000
# 6 0.000000 0.000000 0.000000 0.000000 0.000000 -0.013474
#
#
# Mechanical properties :
#
#
# Convention : Reuss Voigt Hill
#
# Bulk Modulus (GPa) = 51.08628 55.66909 53.37768
# Shear Modulus (GPa) = 44.45425 37.29587 40.87506
#
# Velocity S-wave (km/s) = 4.92743 4.51330 4.72490
# Velocity P-wave (km/s) = 7.76367 7.58713 7.67591
#
# Compressibility (1/GPa) = 0.01957473
#
# Stress axis : x y z
#
# Youngs Moduli (GPa) = 45.98001 67.01067 116.38674
#
# Poissons Ratio (x) = 0.64638 0.05545
# Poissons Ratio (y) = 0.44352 0.31680
# Poissons Ratio (z) = 0.02191 0.18240
#
# Static dielectric constant tensor:
#      x y z
#    x 1.690160 0.000000 0.000000 
#    y 0.000000 1.669320 0.000000 
#    z 0.000000 0.000000 1.690290 
# 
# From -- ./inp_files/17721.got.cif
#   From: 2010.05.17/outbox.cif.g08.bks.cpg/sg51_9_cif.got.tgz:17721.got - 2010.06.03 11:52:47.
