data_PCOD9402454
_publ_section_title
;
Structure prediction by ZEFSAII (Michael W. Deem and Ramdas Pophale) SiO2 
 PCOD9402454
Probable space group: P M M A
;
_chemical_formula_sum "Si O2"
_cell_formula_units_Z 48
_cell_length_a 19.170931
_cell_length_b 8.780058
_cell_length_c 15.165189
_cell_angle_alpha 90.000000
_cell_angle_beta 90.000000
_cell_angle_gamma 90.000000
_cell_volume 2552.633215
_symmetry_space_group_name_H-M "P M M A"
_symmetry_group_IT_number 51
_symmetry_cell_setting 'orthorhombic'
loop_
_space_group_symop_operation_xyz
x,y,z
1/2-x,-y,z
1/2+x,-y,-z
-x,y,-z
-x,-y,-z
1/2+x,y,-z
1/2-x,y,z
x,-y,z
loop_
_atom_site_type_symbol
_atom_site_label
_atom_site_fract_x
_atom_site_fract_y
_atom_site_fract_z
Si Si1 0.096245 0.180547 0.052968
Si Si2 0.670770 0.319285 0.789682
Si Si3 0.329954 0.817828 0.532309
Si Si4 0.422126 0.683404 0.677918
Si Si5 0.049880 0.682516 0.880118
Si Si6 0.423204 0.316286 0.376644
O O1 0.155569 0.230407 0.120786
O O2 0.024470 0.241612 0.097187
O O3 0.092725 0.000000 0.042656
O O4 0.100327 0.259578 0.957574
O O5 0.750000 0.295828 0.759283
O O6 0.660725 0.500000 0.806142
O O7 0.617202 0.273792 0.713164
O O8 0.250000 0.766883 0.517771
O O9 0.359626 0.760077 0.625397
O O10 0.381578 0.753039 0.457958
O O11 0.331448 0.000000 0.529370
O O12 0.416448 0.500000 0.670871
O O13 0.426594 0.721802 0.781436
O O14 0.496022 0.728403 0.633143
O O15 0.041675 0.500000 0.885156
O O16 0.421077 0.500000 0.384169
#
# Coordination Sequence:
#
# PCOD9402454 Si02
#       6
#     8   8   8   8   8   8
#     4  11  21  33  53  84 119 151 186 230 285 343
#     4  10  20  36  58  83 115 156 197 238 287 342
#     4  11  25  41  56  81 119 157 190 230 288 350
#     4  10  21  38  63  90 112 143 193 245 287 334
#     4  10  19  36  60  83 111 146 190 238 280 333
#     4  10  20  38  62  88 113 144 192 244 289 338
#
# _framework density 18.804112
#
# number of rings (size 3 to 8) (size 9 to 14) (size 15 to 20)
#    0.000    1.667    1.667    4.500    0.000    7.000 
#    0.000    0.833    0.000    1.000    0.000    0.000 
#    0.000    0.000    0.000    0.000    0.000    0.000 
#
# Total GULP energy -268155.263469 kJ/mol
# GULP energy per Si atom -5586.567989 kJ/mol
# Density = 1.876131 g / cm^3
# Si number density = 18.804112 Si / 1000 Ang^3
#
#
#
# Elastic Constant Matrix: (Units=GPa)
#
#
# Indices 1 2 3 4 5 6 
#
# 1 41.5170 10.7424 21.3119 0.0000 0.0000 0.0000
# 2 10.7424 34.9486 23.9440 0.0000 0.0000 0.0000
# 3 21.3119 23.9440 108.0329 0.0000 0.0000 0.0000
# 4 0.0000 0.0000 0.0000 -71.6061 0.0000 0.0000
# 5 0.0000 0.0000 0.0000 0.0000 20.0921 0.0000
# 6 0.0000 0.0000 0.0000 0.0000 0.0000 16.9883
#
#
#
# Elastic Compliance Matrix: (Units=1/GPa)
#
#
# Indices 1 2 3 4 5 6 
#
# 1 0.027708 -0.005626 -0.004219 0.000000 0.000000 0.000000
# 2 -0.005626 0.034879 -0.006620 0.000000 0.000000 0.000000
# 3 -0.004219 -0.006620 0.011556 0.000000 0.000000 0.000000
# 4 0.000000 0.000000 0.000000 -0.013965 0.000000 0.000000
# 5 0.000000 0.000000 0.000000 0.000000 0.049771 0.000000
# 6 0.000000 0.000000 0.000000 0.000000 0.000000 0.058864
#
#
# Mechanical properties :
#
#
# Convention : Reuss Voigt Hill
#
# Bulk Modulus (GPa) = 24.26522 32.94391 28.60456
# Shear Modulus (GPa) = 23.20392 1.66155 12.43273
#
# Velocity S-wave (km/s) = 3.51662 0.94102 2.57411
# Velocity P-wave (km/s) = 5.42412 4.32877 4.90710
#
# Compressibility (1/GPa) = 0.04121125
#
# Stress axis : x y z
#
# Youngs Moduli (GPa) = 36.09061 28.67086 86.53454
#
# Poissons Ratio (x) = 0.16131 0.36510
# Poissons Ratio (y) = 0.20305 0.57290
# Poissons Ratio (z) = 0.15227 0.18981
#
# Static dielectric constant tensor:
#      x y z
#    x 1.644830 0.000000 0.000000 
#    y 0.000000 1.631970 0.000000 
#    z 0.000000 0.000000 1.657000 
# 
# From -- ./inp_files/24755.got.cif
#   From: 2010.05.17/outbox.cif.g08.bks.cpg/sg51_13_cif.got.tgz:24755.got - 2010.06.03 11:52:47.
