data_PCOD9402913
_publ_section_title
;
Structure prediction by ZEFSAII (Michael W. Deem and Ramdas Pophale) SiO2 
 PCOD9402913
Probable space group: P M M A
;
_chemical_formula_sum "Si O2"
_cell_formula_units_Z 40
_cell_length_a 18.271504
_cell_length_b 8.755351
_cell_length_c 13.515852
_cell_angle_alpha 90.000000
_cell_angle_beta 90.000000
_cell_angle_gamma 90.000000
_cell_volume 2162.177215
_symmetry_space_group_name_H-M "P M M A"
_symmetry_group_IT_number 51
_symmetry_cell_setting 'orthorhombic'
loop_
_space_group_symop_operation_xyz
x,y,z
1/2-x,-y,z
1/2+x,-y,-z
-x,y,-z
-x,-y,-z
1/2+x,y,-z
1/2-x,y,z
x,-y,z
loop_
_atom_site_type_symbol
_atom_site_label
_atom_site_fract_x
_atom_site_fract_y
_atom_site_fract_z
Si Si1 0.910214 0.682863 0.090309
Si Si2 0.059307 0.184029 0.325465
Si Si3 0.896427 0.317345 0.307508
Si Si4 0.331785 0.184037 0.497287
Si Si5 0.425448 0.817924 0.107214
O O1 0.912487 0.500000 0.082950
O O2 0.873534 0.725361 0.194995
O O3 0.993003 0.746572 0.101480
O O4 0.882302 0.750451 0.986533
O O5 0.107901 0.235440 0.417775
O O6 0.098365 0.215161 0.219725
O O7 0.979566 0.259722 0.324405
O O8 0.049069 0.000000 0.331535
O O9 0.895083 0.500000 0.313659
O O10 0.848598 0.246940 0.394290
O O11 0.250000 0.227992 0.466107
O O12 0.335528 0.000000 0.500552
O O13 0.430459 0.000000 0.095498
#
# Coordination Sequence:
#
# PCOD9402913 Si02
#       5
#     8   8   8   8   8
#     4   9  16  26  41  65  97 126 151 186 233 280
#     4   9  18  32  50  73  99 126 158 198 241 284
#     4  10  20  32  49  74 100 127 160 198 238 281
#     4  10  21  36  52  69  93 127 163 199 242 289
#     4   9  15  24  42  68  95 122 153 191 233 277
#
# _framework density 18.499872
#
# number of rings (size 3 to 8) (size 9 to 14) (size 15 to 20)
#    0.000    2.600    0.000    3.600    0.000    6.800 
#    0.000    0.000    0.000    1.200    0.000    2.800 
#    0.000    0.000    0.000    0.000    0.000    0.000 
#
# Total GULP energy -222833.163805 kJ/mol
# GULP energy per Si atom -5570.829095 kJ/mol
# Density = 1.845777 g / cm^3
# Si number density = 18.499872 Si / 1000 Ang^3
#
#
#
# Elastic Constant Matrix: (Units=GPa)
#
#
# Indices 1 2 3 4 5 6 
#
# 1 13.7555 -0.8750 -6.8586 0.0000 0.0000 0.0000
# 2 -0.8750 24.0250 11.3263 0.0000 0.0000 0.0000
# 3 -6.8586 11.3263 77.1703 0.0000 0.0000 0.0000
# 4 0.0000 0.0000 0.0000 23.4489 0.0000 0.0000
# 5 0.0000 0.0000 0.0000 0.0000 0.0578 0.0000
# 6 0.0000 0.0000 0.0000 0.0000 0.0000 37.6966
#
#
#
# Elastic Compliance Matrix: (Units=1/GPa)
#
#
# Indices 1 2 3 4 5 6 
#
# 1 0.076074 -0.000448 0.006827 0.000000 0.000000 0.000000
# 2 -0.000448 0.044720 -0.006603 0.000000 0.000000 0.000000
# 3 0.006827 -0.006603 0.014534 0.000000 0.000000 0.000000
# 4 0.000000 0.000000 0.000000 0.042646 0.000000 0.000000
# 5 0.000000 0.000000 0.000000 0.000000 17.306107 0.000000
# 6 0.000000 0.000000 0.000000 0.000000 0.000000 0.026528
#
#
# Mechanical properties :
#
#
# Convention : Reuss Voigt Hill
#
# Bulk Modulus (GPa) = 7.41404 13.57070 10.49237
# Shear Modulus (GPa) = 0.28480 19.66452 9.97466
#
# Velocity S-wave (km/s) = 0.39279 3.26384 2.32453
# Velocity P-wave (km/s) = 2.05476 4.64273 3.59006
#
# Compressibility (1/GPa) = 0.13487931
#
# Stress axis : x y z
#
# Youngs Moduli (GPa) = 13.14516 22.36134 68.80284
#
# Poissons Ratio (x) = 0.01001 -0.46971
# Poissons Ratio (y) = 0.00589 0.45433
# Poissons Ratio (z) = -0.08974 0.14766
#
# Static dielectric constant tensor:
#      x y z
#    x 1.607330 0.000000 0.000000 
#    y 0.000000 1.621600 0.000000 
#    z 0.000000 0.000000 1.712640 
# 
# From -- ./inp_files/24532.got.cif
#   From: 2010.05.17/outbox.cif.g08.bks.cpg/sg51_13_cif.got.tgz:24532.got - 2010.06.03 11:52:47.
