data_PCOD9402769
_publ_section_title
;
Structure prediction by ZEFSAII (Michael W. Deem and Ramdas Pophale) SiO2 
 PCOD9402769
Probable space group: P M M A
;
_chemical_formula_sum "Si O2"
_cell_formula_units_Z 56
_cell_length_a 9.087639
_cell_length_b 19.213376
_cell_length_c 19.332587
_cell_angle_alpha 90.000000
_cell_angle_beta 90.000000
_cell_angle_gamma 90.000000
_cell_volume 3375.551372
_symmetry_space_group_name_H-M "P M M A"
_symmetry_group_IT_number 51
_symmetry_cell_setting 'orthorhombic'
loop_
_space_group_symop_operation_xyz
x,y,z
1/2-x,-y,z
1/2+x,-y,-z
-x,y,-z
-x,-y,-z
1/2+x,y,-z
1/2-x,y,z
x,-y,z
loop_
_atom_site_type_symbol
_atom_site_label
_atom_site_fract_x
_atom_site_fract_y
_atom_site_fract_z
Si Si1 0.073690 0.292164 0.211787
Si Si2 0.927408 0.844833 0.703891
Si Si3 0.428850 0.077840 0.154712
Si Si4 0.571890 0.419667 0.279124
Si Si5 0.074121 0.082210 0.574102
Si Si6 0.917572 0.584680 0.432239
Si Si7 0.573030 0.788730 0.927786
O O1 0.250000 0.300839 0.214794
O O2 0.035142 0.232562 0.268400
O O3 0.036965 0.261955 0.136177
O O4 0.993692 0.363897 0.227484
O O5 0.750000 0.848061 0.694786
O O6 0.967104 0.894973 0.768604
O O7 0.006737 0.870918 0.635058
O O8 0.250000 0.077413 0.152968
O O9 0.476034 0.134776 0.098582
O O10 0.482625 0.000000 0.142352
O O11 0.750000 0.417426 0.279783
O O12 0.529840 0.500000 0.265780
O O13 0.519583 0.399164 0.356725
O O14 0.250000 0.091187 0.569827
O O15 0.000000 0.097861 0.500000
O O16 0.044394 0.000000 0.588984
O O17 0.750000 0.608953 0.435031
O O18 0.915397 0.500000 0.434755
O O19 0.000000 0.610167 0.500000
O O20 0.750000 0.789177 0.934874
O O21 0.500000 0.770224 0.000000
#
# Coordination Sequence:
#
# PCOD9402769 Si02
#       7
#     8   8   8   8   8   8   8
#     4   9  19  34  51  73  98 124 158 197 236 286
#     4   9  17  31  50  69  92 125 164 202 241 287
#     4   8  14  26  46  70  95 125 158 191 230 276
#     4   9  18  32  50  73  99 126 159 200 244 288
#     4  10  20  32  47  69  96 127 166 211 254 292
#     4   8  14  25  41  63  91 119 147 180 218 264
#     4   9  18  32  49  71  98 126 157 190 226 275
#
# _framework density 16.589880999999998
#
# number of rings (size 3 to 8) (size 9 to 14) (size 15 to 20)
#    0.000    3.143    0.000    3.429    0.000    3.714 
#    0.000    4.286    0.000    3.000    0.000    0.000 
#    0.000    0.000    0.000    0.000    0.000    0.000 
#
# Total GULP energy -311886.618389 kJ/mol
# GULP energy per Si atom -5569.403900 kJ/mol
# Density = 1.655212 g / cm^3
# Si number density = 16.589881 Si / 1000 Ang^3
#
#
#
# Elastic Constant Matrix: (Units=GPa)
#
#
# Indices 1 2 3 4 5 6 
#
# 1 28.0581 35.4051 44.6267 0.0000 0.0000 0.0000
# 2 35.4051 100.4645 68.8328 0.0000 0.0000 0.0000
# 3 44.6267 68.8328 127.3942 0.0000 0.0000 0.0000
# 4 0.0000 0.0000 0.0000 11.8392 0.0000 0.0000
# 5 0.0000 0.0000 0.0000 0.0000 30.0592 0.0000
# 6 0.0000 0.0000 0.0000 0.0000 0.0000 19.9681
#
#
#
# Elastic Compliance Matrix: (Units=1/GPa)
#
#
# Indices 1 2 3 4 5 6 
#
# 1 0.096064 -0.017145 -0.024388 0.000000 0.000000 0.000000
# 2 -0.017145 0.018864 -0.004187 0.000000 0.000000 0.000000
# 3 -0.024388 -0.004187 0.018655 0.000000 0.000000 0.000000
# 4 0.000000 0.000000 0.000000 0.084465 0.000000 0.000000
# 5 0.000000 0.000000 0.000000 0.000000 0.033268 0.000000
# 6 0.000000 0.000000 0.000000 0.000000 0.000000 0.050080
#
#
# Mechanical properties :
#
#
# Convention : Reuss Voigt Hill
#
# Bulk Modulus (GPa) = 23.72807 61.51621 42.62214
# Shear Modulus (GPa) = 12.28850 19.51011 15.89931
#
# Velocity S-wave (km/s) = 2.72457 3.43304 3.09912
# Velocity P-wave (km/s) = 4.92255 7.27155 6.20914
#
# Compressibility (1/GPa) = 0.04214418
#
# Stress axis : x y z
#
# Youngs Moduli (GPa) = 10.40968 53.00974 53.60502
#
# Poissons Ratio (x) = 0.90886 1.30732
# Poissons Ratio (y) = 0.17848 0.22443
# Poissons Ratio (z) = 0.25387 0.22194
#
# Static dielectric constant tensor:
#      x y z
#    x 1.553880 0.000000 0.000000 
#    y 0.000000 1.560770 0.000000 
#    z 0.000000 0.000000 1.549850 
# 
# From -- ./inp_files/28187.got.cif
#   From: 2010.05.17/outbox.cif.g08.bks.cpg/sg51_15_cif.got.tgz:28187.got - 2010.06.03 11:52:47.
