data_PCOD9402530
_publ_section_title
;
Structure prediction by ZEFSAII (Michael W. Deem and Ramdas Pophale) SiO2 
 PCOD9402530
Probable space group: P M M A
;
_chemical_formula_sum "Si O2"
_cell_formula_units_Z 40
_cell_length_a 9.214627
_cell_length_b 16.193009
_cell_length_c 14.951910
_cell_angle_alpha 90.000000
_cell_angle_beta 90.000000
_cell_angle_gamma 90.000000
_cell_volume 2231.012438
_symmetry_space_group_name_H-M "P M M A"
_symmetry_group_IT_number 51
_symmetry_cell_setting 'orthorhombic'
loop_
_space_group_symop_operation_xyz
x,y,z
1/2-x,-y,z
1/2+x,-y,-z
-x,y,-z
-x,-y,-z
1/2+x,y,-z
1/2-x,y,z
x,-y,z
loop_
_atom_site_type_symbol
_atom_site_label
_atom_site_fract_x
_atom_site_fract_y
_atom_site_fract_z
Si Si1 0.914572 0.340836 0.422096
Si Si2 0.081357 0.901402 0.405116
Si Si3 0.083771 0.211144 0.735232
Si Si4 0.422269 0.500000 0.356384
Si Si5 0.076601 0.500000 0.833190
Si Si6 0.575608 0.316329 0.093403
O O1 0.750000 0.360881 0.448118
O O2 0.909446 0.288100 0.332681
O O3 0.000000 0.293953 0.500000
O O4 0.009419 0.420637 0.402693
O O5 0.250000 0.876246 0.414260
O O6 0.000000 0.887578 0.500000
O O7 0.009402 0.855103 0.320385
O O8 0.075626 0.000000 0.389413
O O9 0.250000 0.180812 0.747710
O O10 0.030383 0.252250 0.828011
O O11 0.250000 0.500000 0.359517
O O12 0.481968 0.500000 0.255801
O O13 0.250000 0.500000 0.811327
O O14 0.045403 0.587008 0.882460
O O15 0.750000 0.309997 0.086461
O O16 0.500000 0.296836 0.000000
#
# Coordination Sequence:
#
# PCOD9402530 Si02
#       6
#     8   8   8   4   4   8
#     4  11  22  37  53  73 106 144 183 226 274 326
#     4  10  21  37  59  88 120 151 183 222 270 327
#     4  10  21  37  58  82 111 146 183 227 278 329
#     4  12  23  34  51  75 102 141 189 229 272 325
#     4  10  19  38  58  75 108 147 186 237 286 331
#     4  10  21  37  58  83 111 146 186 233 287 333
#
# _framework density 17.929079999999999
#
# number of rings (size 3 to 8) (size 9 to 14) (size 15 to 20)
#    0.000    1.600    2.000    3.300    0.000    6.000 
#    0.000    0.000    0.000    0.600    0.000    0.000 
#    0.000    0.000    0.000    0.000    0.000    0.000 
#
# Total GULP energy -223193.228805 kJ/mol
# GULP energy per Si atom -5579.830720 kJ/mol
# Density = 1.788827 g / cm^3
# Si number density = 17.929080 Si / 1000 Ang^3
#
#
#
# Elastic Constant Matrix: (Units=GPa)
#
#
# Indices 1 2 3 4 5 6 
#
# 1 106.8321 47.9477 67.1500 0.0000 0.0000 0.0000
# 2 47.9477 83.3646 46.4225 0.0000 0.0000 0.0000
# 3 67.1500 46.4225 153.7278 0.0000 0.0000 0.0000
# 4 0.0000 0.0000 0.0000 13.2589 0.0000 0.0000
# 5 0.0000 0.0000 0.0000 0.0000 34.4383 0.0000
# 6 0.0000 0.0000 0.0000 0.0000 0.0000 20.8832
#
#
#
# Elastic Compliance Matrix: (Units=1/GPa)
#
#
# Indices 1 2 3 4 5 6 
#
# 1 0.015047 -0.006004 -0.004760 0.000000 0.000000 0.000000
# 2 -0.006004 0.016816 -0.002456 0.000000 0.000000 0.000000
# 3 -0.004760 -0.002456 0.009326 0.000000 0.000000 0.000000
# 4 0.000000 0.000000 0.000000 0.075421 0.000000 0.000000
# 5 0.000000 0.000000 0.000000 0.000000 0.029037 0.000000
# 6 0.000000 0.000000 0.000000 0.000000 0.000000 0.047885
#
#
# Mechanical properties :
#
#
# Convention : Reuss Voigt Hill
#
# Bulk Modulus (GPa) = 67.79443 74.10722 70.95082
# Shear Modulus (GPa) = 22.23344 25.87639 24.05491
#
# Velocity S-wave (km/s) = 3.52529 3.80315 3.66686
# Velocity P-wave (km/s) = 7.38003 7.79157 7.58859
#
# Compressibility (1/GPa) = 0.01475048
#
# Stress axis : x y z
#
# Youngs Moduli (GPa) = 66.45968 59.46704 107.23228
#
# Poissons Ratio (x) = 0.35703 0.51038
# Poissons Ratio (y) = 0.39901 0.26331
# Poissons Ratio (z) = 0.31632 0.14602
#
# Static dielectric constant tensor:
#      x y z
#    x 1.590830 0.000000 0.000000 
#    y 0.000000 1.640580 0.000000 
#    z 0.000000 0.000000 1.631640 
# 
# From -- ./inp_files/20529.got.cif
#   From: 2010.05.17/outbox.cif.g08.bks.cpg/sg51_11_cif.got.tgz:20529.got - 2010.06.03 11:52:47.
