data_PCOD9402208
_publ_section_title
;
Structure prediction by ZEFSAII (Michael W. Deem and Ramdas Pophale) SiO2 
 PCOD9402208
Probable space group: P M M A
;
_chemical_formula_sum "Si O2"
_cell_formula_units_Z 56
_cell_length_a 15.268364
_cell_length_b 8.582033
_cell_length_c 22.527253
_cell_angle_alpha 90.000000
_cell_angle_beta 90.000000
_cell_angle_gamma 90.000000
_cell_volume 2951.827142
_symmetry_space_group_name_H-M "P M M A"
_symmetry_group_IT_number 51
_symmetry_cell_setting 'orthorhombic'
loop_
_space_group_symop_operation_xyz
x,y,z
1/2-x,-y,z
1/2+x,-y,-z
-x,y,-z
-x,-y,-z
1/2+x,y,-z
1/2-x,y,z
x,-y,z
loop_
_atom_site_type_symbol
_atom_site_label
_atom_site_fract_x
_atom_site_fract_y
_atom_site_fract_z
Si Si1 0.250000 0.810704 0.885421
Si Si2 0.849356 0.184862 0.379653
Si Si3 0.750000 0.187120 0.976090
Si Si4 0.347043 0.687329 0.362912
Si Si5 0.439583 0.813442 0.839143
Si Si6 0.895914 0.181365 0.509874
Si Si7 0.939911 0.686860 0.943695
Si Si8 0.012068 0.314610 0.711157
O O1 0.340662 0.758855 0.855183
O O2 0.250000 0.000000 0.883468
O O3 0.250000 0.764303 0.954471
O O4 0.750000 0.199201 0.358407
O O5 0.855018 0.238089 0.448082
O O6 0.914691 0.276305 0.337785
O O7 0.873043 0.000000 0.379360
O O8 0.658809 0.247915 0.948603
O O9 0.750000 0.000000 0.973342
O O10 0.250000 0.745431 0.348432
O O11 0.347092 0.500000 0.359543
O O12 0.369648 0.732210 0.430421
O O13 0.421256 0.743544 0.317760
O O14 0.508674 0.742430 0.885410
O O15 0.464113 0.766086 0.772664
O O16 0.441303 0.000000 0.845210
O O17 0.000000 0.190158 0.500000
O O18 0.871049 0.000000 0.517331
O O19 0.935150 0.500000 0.944537
O O20 0.000000 0.737856 0.000000
O O21 0.006916 0.500000 0.720616
#
# Coordination Sequence:
#
# PCOD9402208 Si02
#       8
#     4   8   4   8   8   8   8   8
#     4   9  20  37  63  95 123 157 200 245 296 353
#     4  10  21  37  57  83 116 153 191 237 297 362
#     4  11  21  39  67  97 127 165 210 251 302 363
#     4  10  22  40  61  83 112 154 200 246 303 363
#     4  11  23  42  65  90 123 165 208 251 301 360
#     4  10  19  34  59  87 115 146 189 245 301 353
#     4  11  23  40  63  95 131 164 201 252 310 360
#     4  11  24  41  59  84 118 156 200 249 300 357
#
# _framework density 18.971299999999999
#
# number of rings (size 3 to 8) (size 9 to 14) (size 15 to 20)
#    0.000    1.571    2.857    1.929    1.000    3.143 
#    1.286    1.071    0.000    0.000    0.000    0.000 
#    0.000    0.000    0.000    0.000    0.000    0.000 
#
# Total GULP energy -312830.830873 kJ/mol
# GULP energy per Si atom -5586.264837 kJ/mol
# Density = 1.892812 g / cm^3
# Si number density = 18.971300 Si / 1000 Ang^3
#
#
#
# Elastic Constant Matrix: (Units=GPa)
#
#
# Indices 1 2 3 4 5 6 
#
# 1 163.1529 33.0800 79.5256 0.0000 0.0000 0.0000
# 2 33.0800 30.9569 16.9971 0.0000 0.0000 0.0000
# 3 79.5256 16.9971 117.3654 0.0000 0.0000 0.0000
# 4 0.0000 0.0000 0.0000 32.3869 0.0000 0.0000
# 5 0.0000 0.0000 0.0000 0.0000 -10.7392 0.0000
# 6 0.0000 0.0000 0.0000 0.0000 0.0000 65.5182
#
#
#
# Elastic Compliance Matrix: (Units=1/GPa)
#
#
# Indices 1 2 3 4 5 6 
#
# 1 0.010758 -0.008141 -0.006111 0.000000 0.000000 0.000000
# 2 -0.008141 0.041254 -0.000458 0.000000 0.000000 0.000000
# 3 -0.006111 -0.000458 0.012727 0.000000 0.000000 0.000000
# 4 0.000000 0.000000 0.000000 0.030877 0.000000 0.000000
# 5 0.000000 0.000000 0.000000 0.000000 -0.093117 0.000000
# 6 0.000000 0.000000 0.000000 0.000000 0.000000 0.015263
#
#
# Mechanical properties :
#
#
# Convention : Reuss Voigt Hill
#
# Bulk Modulus (GPa) = 28.31287 63.40895 45.86091
# Shear Modulus (GPa) = 84.80983 29.55804 57.18393
#
# Velocity S-wave (km/s) = 6.69338 3.95148 5.49616
# Velocity P-wave (km/s) = 8.64243 7.36988 8.03140
#
# Compressibility (1/GPa) = 0.03531963
#
# Stress axis : x y z
#
# Youngs Moduli (GPa) = 92.95023 24.24012 78.57089
#
# Poissons Ratio (x) = 0.19734 0.48013
# Poissons Ratio (y) = 0.75672 0.03600
# Poissons Ratio (z) = 0.56800 0.01111
#
# Static dielectric constant tensor:
#      x y z
#    x 1.671850 0.000000 0.000000 
#    y 0.000000 1.656390 0.000000 
#    z 0.000000 0.000000 1.624500 
# 
# From -- ./inp_files/33504.got.cif
#   From: 2010.05.17/outbox.cif.g08.bks.cpg/sg51_17_cif.got.tgz:33504.got - 2010.06.03 11:52:47.
