data_PCOD9402623
_publ_section_title
;
Structure prediction by ZEFSAII (Michael W. Deem and Ramdas Pophale) SiO2 
 PCOD9402623
Probable space group: P M M A
;
_chemical_formula_sum "Si O2"
_cell_formula_units_Z 48
_cell_length_a 7.701316
_cell_length_b 8.256081
_cell_length_c 34.902146
_cell_angle_alpha 90.000000
_cell_angle_beta 90.000000
_cell_angle_gamma 90.000000
_cell_volume 2219.172284
_symmetry_space_group_name_H-M "P M M A"
_symmetry_group_IT_number 51
_symmetry_cell_setting 'orthorhombic'
loop_
_space_group_symop_operation_xyz
x,y,z
1/2-x,-y,z
1/2+x,-y,-z
-x,y,-z
-x,-y,-z
1/2+x,y,-z
1/2-x,y,z
x,-y,z
loop_
_atom_site_type_symbol
_atom_site_label
_atom_site_fract_x
_atom_site_fract_y
_atom_site_fract_z
Si Si1 0.538906 0.315730 0.332397
Si Si2 0.450613 0.810791 0.747067
Si Si3 0.959767 0.000000 0.044753
Si Si4 0.037508 0.177684 0.588356
Si Si5 0.047977 0.683201 0.172350
Si Si6 0.548694 0.685191 0.088486
Si Si7 0.958651 0.500000 0.455301
O O1 0.750000 0.300952 0.330171
O O2 0.498771 0.500000 0.342916
O O3 0.471645 0.277785 0.289900
O O4 0.483678 0.203106 0.367373
O O5 0.250000 0.758691 0.750784
O O6 0.528226 0.781545 0.788745
O O7 0.455391 0.000000 0.737913
O O8 0.027783 0.833650 0.064179
O O9 0.750000 0.000000 0.050188
O O10 0.000000 0.000000 0.000000
O O11 0.250000 0.179692 0.587725
O O12 0.977628 0.333944 0.564481
O O13 0.982147 0.000000 0.574468
O O14 0.250000 0.679781 0.162412
O O15 0.988269 0.500000 0.181056
O O16 0.956835 0.735335 0.133294
O O17 0.750000 0.671547 0.077121
O O18 0.475356 0.500000 0.085470
O O19 0.750000 0.500000 0.450368
O O20 0.000000 0.500000 0.500000
#
# Coordination Sequence:
#
# PCOD9402623 Si02
#       7
#     8   8   4   8   8   8   4
#     4   9  15  26  46  72 101 132 170 215 261 307
#     4  10  20  31  47  75 107 138 173 216 264 314
#     4  10  22  38  58  86 114 142 180 224 274 332
#     4   9  16  28  48  74 103 133 168 213 262 311
#     4  10  21  36  53  75 104 140 182 224 270 321
#     4   9  19  37  59  81 109 145 183 226 272 319
#     4  10  20  34  52  76 104 134 170 214 264 316
#
# _framework density 21.629688000000002
#
# number of rings (size 3 to 8) (size 9 to 14) (size 15 to 20)
#    0.000    2.500    0.833    1.500    1.167    5.333 
#    0.000    0.000    0.000    1.000    0.000    0.000 
#    0.000    0.000    0.000    0.000    0.000    0.000 
#
# Total GULP energy -267742.088311 kJ/mol
# GULP energy per Si atom -5577.960173 kJ/mol
# Density = 2.158046 g / cm^3
# Si number density = 21.629688 Si / 1000 Ang^3
#
#
#
# Elastic Constant Matrix: (Units=GPa)
#
#
# Indices 1 2 3 4 5 6 
#
# 1 32.6619 12.4893 -2.4861 0.0000 0.0000 0.0000
# 2 12.4893 136.6104 85.0915 0.0000 0.0000 0.0000
# 3 -2.4861 85.0915 119.9423 0.0000 0.0000 0.0000
# 4 0.0000 0.0000 0.0000 23.8264 0.0000 0.0000
# 5 0.0000 0.0000 0.0000 0.0000 11.1721 0.0000
# 6 0.0000 0.0000 0.0000 0.0000 0.0000 0.8326
#
#
#
# Elastic Compliance Matrix: (Units=1/GPa)
#
#
# Indices 1 2 3 4 5 6 
#
# 1 0.033394 -0.006243 0.005121 0.000000 0.000000 0.000000
# 2 -0.006243 0.014283 -0.010262 0.000000 0.000000 0.000000
# 3 0.005121 -0.010262 0.015724 0.000000 0.000000 0.000000
# 4 0.000000 0.000000 0.000000 0.041970 0.000000 0.000000
# 5 0.000000 0.000000 0.000000 0.000000 0.089509 0.000000
# 6 0.000000 0.000000 0.000000 0.000000 0.000000 1.201090
#
#
# Mechanical properties :
#
#
# Convention : Reuss Voigt Hill
#
# Bulk Modulus (GPa) = 24.61084 53.26712 38.93898
# Shear Modulus (GPa) = 3.49093 20.10754 11.79924
#
# Velocity S-wave (km/s) = 1.27179 3.05229 2.33815
# Velocity P-wave (km/s) = 3.68233 6.09116 5.03298
#
# Compressibility (1/GPa) = 0.04063250
#
# Stress axis : x y z
#
# Youngs Moduli (GPa) = 29.94589 70.01374 63.59748
#
# Poissons Ratio (x) = 0.43707 -0.32568
# Poissons Ratio (y) = 0.18694 0.65265
# Poissons Ratio (z) = -0.15335 0.71850
#
# Static dielectric constant tensor:
#      x y z
#    x 1.870160 0.000000 0.000000 
#    y 0.000000 1.810820 0.000000 
#    z 0.000000 0.000000 1.758130 
# 
# From -- ./inp_files/37175.got.cif
#   From: 2010.05.17/outbox.cif.g08.bks.cpg/sg51_19_cif.got.tgz:37175.got - 2010.06.03 11:52:47.
