data_PCOD9402230
_publ_section_title
;
Structure prediction by ZEFSAII (Michael W. Deem and Ramdas Pophale) SiO2 
 PCOD9402230
Probable space group: P M M A
;
_chemical_formula_sum "Si O2"
_cell_formula_units_Z 64
_cell_length_a 15.272891
_cell_length_b 9.373491
_cell_length_c 24.448440
_cell_angle_alpha 90.000000
_cell_angle_beta 90.000000
_cell_angle_gamma 90.000000
_cell_volume 3500.046160
_symmetry_space_group_name_H-M "P M M A"
_symmetry_group_IT_number 51
_symmetry_cell_setting 'orthorhombic'
loop_
_space_group_symop_operation_xyz
x,y,z
1/2-x,-y,z
1/2+x,-y,-z
-x,y,-z
-x,-y,-z
1/2+x,y,-z
1/2-x,y,z
x,-y,z
loop_
_atom_site_type_symbol
_atom_site_label
_atom_site_fract_x
_atom_site_fract_y
_atom_site_fract_z
Si Si1 0.147793 0.830284 0.382886
Si Si2 0.648083 0.168291 0.872955
Si Si3 0.510276 0.170031 0.303413
Si Si4 0.394873 0.834968 0.003117
Si Si5 0.356601 0.336662 0.492182
Si Si6 0.646709 0.830756 0.399353
Si Si7 0.498767 0.671458 0.810086
Si Si8 0.846914 0.329802 0.105138
O O1 0.250000 0.796629 0.371078
O O2 0.118944 0.746431 0.437132
O O3 0.082048 0.799072 0.333459
O O4 0.142524 0.000000 0.393902
O O5 0.750000 0.181277 0.859089
O O6 0.587342 0.262246 0.834520
O O7 0.623443 0.000000 0.868877
O O8 0.634323 0.211049 0.936429
O O9 0.586956 0.201224 0.347072
O O10 0.519069 0.260631 0.248779
O O11 0.512800 0.000000 0.291277
O O12 0.358558 0.743658 0.953383
O O13 0.367709 0.000000 0.996445
O O14 0.500000 0.828292 0.000000
O O15 0.250000 0.336089 0.492802
O O16 0.386249 0.500000 0.491385
O O17 0.383414 0.256012 0.547359
O O18 0.750000 0.801002 0.389396
O O19 0.638739 0.000000 0.410809
O O20 0.502821 0.500000 0.807193
O O21 0.422173 0.713453 0.852696
O O22 0.750000 0.296652 0.126832
O O23 0.853595 0.500000 0.097812
#
# Coordination Sequence:
#
# PCOD9402230 Si02
#       8
#     8   8   8   8   8   8   8   8
#     4   9  18  34  55  77 103 137 174 214 264 321
#     4  10  21  38  60  85 114 148 184 224 274 331
#     4  10  22  38  56  78 104 138 185 231 272 323
#     4  10  19  34  60  90 118 145 179 227 278 327
#     4   9  17  30  51  80 111 140 171 212 264 321
#     4   9  18  34  55  78 106 140 177 220 270 324
#     4  11  24  40  57  79 110 146 188 235 280 326
#     4  10  22  39  58  82 114 152 189 225 273 334
#
# _framework density 18.285473
#
# number of rings (size 3 to 8) (size 9 to 14) (size 15 to 20)
#    0.000    2.250    1.250    1.125    0.000    6.250 
#    0.000    3.750    0.000    0.000    0.000    0.000 
#    0.000    0.000    0.000    0.000    0.000    0.000 
#
# Total GULP energy -357317.356743 kJ/mol
# GULP energy per Si atom -5583.083699 kJ/mol
# Density = 1.824385 g / cm^3
# Si number density = 18.285473 Si / 1000 Ang^3
#
#
#
# Elastic Constant Matrix: (Units=GPa)
#
#
# Indices 1 2 3 4 5 6 
#
# 1 44.0353 12.3065 -4.6235 0.0000 0.0000 0.0000
# 2 12.3065 30.8932 25.6839 0.0000 0.0000 0.0000
# 3 -4.6235 25.6839 50.4057 0.0000 0.0000 0.0000
# 4 0.0000 0.0000 0.0000 10.5577 0.0000 0.0000
# 5 0.0000 0.0000 0.0000 0.0000 -43.0864 0.0000
# 6 0.0000 0.0000 0.0000 0.0000 0.0000 17.7298
#
#
#
# Elastic Compliance Matrix: (Units=1/GPa)
#
#
# Indices 1 2 3 4 5 6 
#
# 1 0.031708 -0.026110 0.016213 0.000000 0.000000 0.000000
# 2 -0.026110 0.077660 -0.041966 0.000000 0.000000 0.000000
# 3 0.016213 -0.041966 0.042710 0.000000 0.000000 0.000000
# 4 0.000000 0.000000 0.000000 0.094718 0.000000 0.000000
# 5 0.000000 0.000000 0.000000 0.000000 -0.023209 0.000000
# 6 0.000000 0.000000 0.000000 0.000000 0.000000 0.056402
#
#
# Mechanical properties :
#
#
# Convention : Reuss Voigt Hill
#
# Bulk Modulus (GPa) = 20.68201 21.34086 21.01144
# Shear Modulus (GPa) = 12.50522 3.17138 7.83830
#
# Velocity S-wave (km/s) = 2.61796 1.31838 2.07266
# Velocity P-wave (km/s) = 4.52476 3.74350 4.15255
#
# Compressibility (1/GPa) = 0.04835120
#
# Stress axis : x y z
#
# Youngs Moduli (GPa) = 31.53760 12.87659 23.41385
#
# Poissons Ratio (x) = 0.33621 -0.37960
# Poissons Ratio (y) = 0.82344 0.98259
# Poissons Ratio (z) = -0.51131 0.54038
#
# Static dielectric constant tensor:
#      x y z
#    x 1.649300 0.000000 0.000000 
#    y 0.000000 1.609940 0.000000 
#    z 0.000000 0.000000 1.586940 
# 
# From -- ./inp_files/35609.got.cif
#   From: 2010.05.17/outbox.cif.g08.bks.cpg/sg51_18_cif.got.tgz:35609.got - 2010.06.03 11:52:47.
