data_PCOD9402694
_publ_section_title
;
Structure prediction by ZEFSAII (Michael W. Deem and Ramdas Pophale) SiO2 
 PCOD9402694
Probable space group: P M M A
;
_chemical_formula_sum "Si O2"
_cell_formula_units_Z 64
_cell_length_a 9.209282
_cell_length_b 14.842812
_cell_length_c 22.217227
_cell_angle_alpha 90.000000
_cell_angle_beta 90.000000
_cell_angle_gamma 90.000000
_cell_volume 3036.909226
_symmetry_space_group_name_H-M "P M M A"
_symmetry_group_IT_number 51
_symmetry_cell_setting 'orthorhombic'
loop_
_space_group_symop_operation_xyz
x,y,z
1/2-x,-y,z
1/2+x,-y,-z
-x,y,-z
-x,-y,-z
1/2+x,y,-z
1/2-x,y,z
x,-y,z
loop_
_atom_site_type_symbol
_atom_site_label
_atom_site_fract_x
_atom_site_fract_y
_atom_site_fract_z
Si Si1 0.582582 0.610030 0.561600
Si Si2 0.579095 0.109326 0.558107
Si Si3 0.420095 0.143654 0.058773
Si Si4 0.083549 0.639492 0.193396
Si Si5 0.420160 0.362733 0.060300
Si Si6 0.084172 0.107365 0.314235
Si Si7 0.414609 0.607724 0.682090
Si Si8 0.082620 0.854991 0.187414
O O1 0.500000 0.635800 0.500000
O O2 0.750000 0.640206 0.560593
O O3 0.583726 0.500000 0.562312
O O4 0.504685 0.639946 0.623606
O O5 0.500000 0.146433 0.500000
O O6 0.750000 0.128665 0.556083
O O7 0.519063 0.139713 0.622901
O O8 0.565733 0.000000 0.556236
O O9 0.250000 0.121404 0.056218
O O10 0.430156 0.253197 0.058550
O O11 0.479898 0.113793 0.123778
O O12 0.500000 0.109534 0.000000
O O13 0.250000 0.607385 0.201515
O O14 0.028171 0.607807 0.127285
O O15 0.090514 0.747284 0.186582
O O16 0.992332 0.621493 0.253431
O O17 0.250000 0.385547 0.057005
O O18 0.500000 0.395219 0.000000
O O19 0.250000 0.144998 0.310806
O O20 0.009133 0.123341 0.250666
O O21 0.097303 0.000000 0.319476
O O22 0.250000 0.644089 0.682765
O O23 0.405211 0.500000 0.674660
O O24 0.250000 0.889688 0.189654
#
# Coordination Sequence:
#
# PCOD9402694 Si02
#       8
#     8   8   8   8   8   8   8   8
#     4   9  16  27  45  68  92 117 146 181 219 257
#     4   8  13  21  35  56  79 102 131 168 206 241
#     4   8  13  22  37  57  80 105 135 172 210 247
#     4   9  17  29  45  65  88 114 144 178 218 263
#     4   8  14  24  39  60  83 106 136 175 215 254
#     4   8  13  22  39  63  86 108 139 177 211 246
#     4  10  20  32  46  66  91 117 146 181 219 260
#     4   8  14  25  41  61  85 112 142 176 213 253
#
# _framework density 21.074058000000001
#
# number of rings (size 3 to 8) (size 9 to 14) (size 15 to 20)
#    0.000    3.500    0.000    3.000    0.000    2.750 
#    0.000    1.875    0.000    3.000    0.000    1.750 
#    0.000    0.000    0.000    0.000    0.000    0.000 
#
# Total GULP energy -356346.631867 kJ/mol
# GULP energy per Si atom -5567.916123 kJ/mol
# Density = 2.102609 g / cm^3
# Si number density = 21.074058 Si / 1000 Ang^3
#
#
#
# Elastic Constant Matrix: (Units=GPa)
#
#
# Indices 1 2 3 4 5 6 
#
# 1 79.1225 -0.7056 96.7152 0.0000 0.0000 0.0000
# 2 -0.7056 51.2074 6.3362 0.0000 0.0000 0.0000
# 3 96.7152 6.3362 297.7390 0.0000 0.0000 0.0000
# 4 0.0000 0.0000 0.0000 17.2502 0.0000 0.0000
# 5 0.0000 0.0000 0.0000 0.0000 33.4566 0.0000
# 6 0.0000 0.0000 0.0000 0.0000 0.0000 9.3165
#
#
#
# Elastic Compliance Matrix: (Units=1/GPa)
#
#
# Indices 1 2 3 4 5 6 
#
# 1 0.021028 0.001138 -0.006855 0.000000 0.000000 0.000000
# 2 0.001138 0.019642 -0.000788 0.000000 0.000000 0.000000
# 3 -0.006855 -0.000788 0.005602 0.000000 0.000000 0.000000
# 4 0.000000 0.000000 0.000000 0.057970 0.000000 0.000000
# 5 0.000000 0.000000 0.000000 0.000000 0.029889 0.000000
# 6 0.000000 0.000000 0.000000 0.000000 0.000000 0.107337
#
#
# Mechanical properties :
#
#
# Convention : Reuss Voigt Hill
#
# Bulk Modulus (GPa) = 30.06398 70.30672 50.18535
# Shear Modulus (GPa) = 18.82786 33.71952 26.27369
#
# Velocity S-wave (km/s) = 2.99225 4.00440 3.53474
# Velocity P-wave (km/s) = 5.12200 7.40368 6.36590
#
# Compressibility (1/GPa) = 0.03326239
#
# Stress axis : x y z
#
# Youngs Moduli (GPa) = 47.55673 50.91244 178.50735
#
# Poissons Ratio (x) = -0.05793 1.22360
# Poissons Ratio (y) = -0.05411 0.14060
# Poissons Ratio (z) = 0.32598 0.04010
#
# Static dielectric constant tensor:
#      x y z
#    x 1.729000 0.000000 0.000000 
#    y 0.000000 1.832360 0.000000 
#    z 0.000000 0.000000 1.822800 
# 
# From -- ./inp_files/32562.got.cif
#   From: 2010.05.17/outbox.cif.g08.bks.cpg/sg51_17_cif.got.tgz:32562.got - 2010.06.03 11:52:47.
