data_PCOD9402804
_publ_section_title
;
Structure prediction by ZEFSAII (Michael W. Deem and Ramdas Pophale) SiO2 
 PCOD9402804
Probable space group: P M M A
;
_chemical_formula_sum "Si O2"
_cell_formula_units_Z 64
_cell_length_a 8.699785
_cell_length_b 19.619532
_cell_length_c 24.244744
_cell_angle_alpha 90.000000
_cell_angle_beta 90.000000
_cell_angle_gamma 90.000000
_cell_volume 4138.231348
_symmetry_space_group_name_H-M "P M M A"
_symmetry_group_IT_number 51
_symmetry_cell_setting 'orthorhombic'
loop_
_space_group_symop_operation_xyz
x,y,z
1/2-x,-y,z
1/2+x,-y,-z
-x,y,-z
-x,-y,-z
1/2+x,y,-z
1/2-x,y,z
x,-y,z
loop_
_atom_site_type_symbol
_atom_site_label
_atom_site_fract_x
_atom_site_fract_y
_atom_site_fract_z
Si Si1 0.065240 0.783833 0.440035
Si Si2 0.436833 0.075498 0.386316
Si Si3 0.434032 0.420354 0.060080
Si Si4 0.434808 0.651571 0.833635
Si Si5 0.065042 0.075932 0.257721
Si Si6 0.934502 0.702938 0.337876
Si Si7 0.934353 0.420994 0.725809
Si Si8 0.565821 0.785392 0.227657
O O1 0.250000 0.782979 0.440880
O O2 0.012019 0.859938 0.421655
O O3 0.000000 0.767788 0.500000
O O4 0.005509 0.732246 0.393544
O O5 0.250000 0.075425 0.387057
O O6 0.482563 0.083922 0.322124
O O7 0.487813 0.000000 0.404928
O O8 0.250000 0.415120 0.059515
O O9 0.474543 0.500000 0.070722
O O10 0.502392 0.374453 0.108450
O O11 0.500000 0.402591 0.000000
O O12 0.250000 0.647589 0.832496
O O13 0.500448 0.604618 0.784483
O O14 0.479938 0.729112 0.817657
O O15 0.250000 0.077636 0.256901
O O16 0.002817 0.139598 0.223862
O O17 0.015921 0.000000 0.239815
O O18 0.750000 0.702029 0.341120
O O19 0.979387 0.752641 0.286834
O O20 0.995720 0.629031 0.320088
O O21 0.750000 0.414213 0.726427
O O22 0.973638 0.500000 0.717113
O O23 0.750000 0.790266 0.227054
#
# Coordination Sequence:
#
# PCOD9402804 Si02
#       8
#     8   8   8   8   8   8   8   8
#     4  11  21  33  50  68  90 120 153 192 233 278
#     4   8  15  28  45  65  89 118 152 189 229 274
#     4  10  20  33  49  70  98 135 175 209 241 280
#     4  10  20  32  47  71 102 133 165 203 239 276
#     4   9  16  27  45  67  90 120 157 192 231 282
#     4  10  20  34  50  69  93 119 152 190 232 284
#     4  10  20  33  51  75  99 123 153 190 234 284
#     4   9  18  30  45  67  95 123 154 194 238 279
#
# _framework density 15.465544
#
# number of rings (size 3 to 8) (size 9 to 14) (size 15 to 20)
#    0.000    2.375    1.250    3.750    0.000    6.250 
#    0.000    0.000    0.000    1.500    0.000    0.000 
#    0.000    0.500    0.000    1.625    0.000    2.375 
#
# Total GULP energy -356914.303230 kJ/mol
# GULP energy per Si atom -5576.785988 kJ/mol
# Density = 1.543034 g / cm^3
# Si number density = 15.465544 Si / 1000 Ang^3
#
#
#
# Elastic Constant Matrix: (Units=GPa)
#
#
# Indices 1 2 3 4 5 6 
#
# 1 39.7135 43.4662 35.9672 0.0000 0.0000 0.0000
# 2 43.4662 139.0706 76.0875 0.0000 0.0000 0.0000
# 3 35.9672 76.0875 110.7306 0.0000 0.0000 0.0000
# 4 0.0000 0.0000 0.0000 25.4738 0.0000 0.0000
# 5 0.0000 0.0000 0.0000 0.0000 22.9797 0.0000
# 6 0.0000 0.0000 0.0000 0.0000 0.0000 20.7802
#
#
#
# Elastic Compliance Matrix: (Units=1/GPa)
#
#
# Indices 1 2 3 4 5 6 
#
# 1 0.041703 -0.009010 -0.007354 0.000000 0.000000 0.000000
# 2 -0.009010 0.013469 -0.006328 0.000000 0.000000 0.000000
# 3 -0.007354 -0.006328 0.015768 0.000000 0.000000 0.000000
# 4 0.000000 0.000000 0.000000 0.039256 0.000000 0.000000
# 5 0.000000 0.000000 0.000000 0.000000 0.043517 0.000000
# 6 0.000000 0.000000 0.000000 0.000000 0.000000 0.048123
#
#
# Mechanical properties :
#
#
# Convention : Reuss Voigt Hill
#
# Bulk Modulus (GPa) = 39.13318 66.72851 52.93084
# Shear Modulus (GPa) = 19.55108 22.77966 21.16537
#
# Velocity S-wave (km/s) = 3.55937 3.84204 3.70341
# Velocity P-wave (km/s) = 6.50005 7.93233 7.25164
#
# Compressibility (1/GPa) = 0.02555376
#
# Stress axis : x y z
#
# Youngs Moduli (GPa) = 23.97916 74.24360 63.41841
#
# Poissons Ratio (x) = 0.66897 0.46640
# Poissons Ratio (y) = 0.21606 0.40134
# Poissons Ratio (z) = 0.17635 0.46985
#
# Static dielectric constant tensor:
#      x y z
#    x 1.518630 0.000000 0.000000 
#    y 0.000000 1.526750 0.000000 
#    z 0.000000 0.000000 1.485310 
# 
# From -- ./inp_files/35144.got.cif
#   From: 2010.05.17/outbox.cif.g08.bks.cpg/sg51_18_cif.got.tgz:35144.got - 2010.06.03 11:52:47.
