data_PCOD9402191
_publ_section_title
;
Structure prediction by ZEFSAII (Michael W. Deem and Ramdas Pophale) SiO2 
 PCOD9402191
Probable space group: P M M A
;
_chemical_formula_sum "Si O2"
_cell_formula_units_Z 64
_cell_length_a 8.274790
_cell_length_b 16.047292
_cell_length_c 24.451018
_cell_angle_alpha 90.000000
_cell_angle_beta 90.000000
_cell_angle_gamma 90.000000
_cell_volume 3246.801078
_symmetry_space_group_name_H-M "P M M A"
_symmetry_group_IT_number 51
_symmetry_cell_setting 'orthorhombic'
loop_
_space_group_symop_operation_xyz
x,y,z
1/2-x,-y,z
1/2+x,-y,-z
-x,y,-z
-x,-y,-z
1/2+x,y,-z
1/2-x,y,z
x,-y,z
loop_
_atom_site_type_symbol
_atom_site_label
_atom_site_fract_x
_atom_site_fract_y
_atom_site_fract_z
Si Si1 0.557561 0.749795 0.937902
Si Si2 0.945086 0.346155 0.748007
Si Si3 0.447486 0.592834 0.132624
Si Si4 0.942311 0.092426 0.131103
Si Si5 0.945639 0.750916 0.437629
Si Si6 0.055768 0.592061 0.631149
Si Si7 0.056471 0.151476 0.248207
Si Si8 0.445287 0.907698 0.634082
O O1 0.750000 0.744242 0.937725
O O2 0.494772 0.667779 0.905968
O O3 0.510940 0.832827 0.905094
O O4 0.500000 0.752583 0.000000
O O5 0.750000 0.350087 0.745233
O O6 0.995889 0.388448 0.804805
O O7 0.992265 0.248835 0.749476
O O8 0.013315 0.388492 0.693903
O O9 0.250000 0.594124 0.131989
O O10 0.499118 0.500000 0.116097
O O11 0.750000 0.092890 0.124633
O O12 0.983589 0.110008 0.194339
O O13 0.003734 0.000000 0.116034
O O14 0.750000 0.750791 0.436021
O O15 0.004532 0.667779 0.406470
O O16 0.002425 0.832664 0.404603
O O17 0.000000 0.752392 0.500000
O O18 0.250000 0.591176 0.626351
O O19 0.994462 0.500000 0.616021
O O20 0.250000 0.147994 0.243679
O O21 0.002117 0.108933 0.304222
O O22 0.250000 0.906059 0.633949
O O23 0.498060 0.000000 0.616262
#
# Coordination Sequence:
#
# PCOD9402191 Si02
#       8
#     8   8   8   8   8   8   8   8
#     4  11  23  41  62  87 117 155 199 245 292 340
#     4  10  19  34  58  87 117 151 188 227 281 342
#     4   9  18  35  59  86 118 154 190 231 282 340
#     4  11  24  41  62  88 118 155 195 237 290 348
#     4  10  22  39  57  79 109 147 190 240 285 334
#     4  10  21  37  57  83 114 148 186 230 283 339
#     4  11  21  35  59  91 121 151 188 232 284 340
#     4  10  21  38  59  83 113 151 189 227 282 345
#
# _framework density 19.71171
#
# number of rings (size 3 to 8) (size 9 to 14) (size 15 to 20)
#    0.000    1.750    2.500    1.875    0.000    6.000 
#    0.000    0.000    0.000    1.875    0.000    0.000 
#    0.000    0.000    0.000    0.000    0.000    0.000 
#
# Total GULP energy -357581.278813 kJ/mol
# GULP energy per Si atom -5587.207481 kJ/mol
# Density = 1.966685 g / cm^3
# Si number density = 19.711710 Si / 1000 Ang^3
#
#
#
# Elastic Constant Matrix: (Units=GPa)
#
#
# Indices 1 2 3 4 5 6 
#
# 1 10.9707 23.0246 9.2072 0.0000 0.0000 0.0000
# 2 23.0246 203.3395 90.1587 0.0000 0.0000 0.0000
# 3 9.2072 90.1587 152.4611 0.0000 0.0000 0.0000
# 4 0.0000 0.0000 0.0000 0.9319 0.0000 0.0000
# 5 0.0000 0.0000 0.0000 0.0000 20.4903 0.0000
# 6 0.0000 0.0000 0.0000 0.0000 0.0000 18.0824
#
#
#
# Elastic Compliance Matrix: (Units=1/GPa)
#
#
# Indices 1 2 3 4 5 6 
#
# 1 0.119694 -0.014026 0.001066 0.000000 0.000000 0.000000
# 2 -0.014026 0.008309 -0.004067 0.000000 0.000000 0.000000
# 3 0.001066 -0.004067 0.008900 0.000000 0.000000 0.000000
# 4 0.000000 0.000000 0.000000 1.073021 0.000000 0.000000
# 5 0.000000 0.000000 0.000000 0.000000 0.048804 0.000000
# 6 0.000000 0.000000 0.000000 0.000000 0.000000 0.055302
#
#
# Mechanical properties :
#
#
# Convention : Reuss Voigt Hill
#
# Bulk Modulus (GPa) = 9.72292 67.95025 38.83659
# Shear Modulus (GPa) = 3.61698 24.19298 13.90498
#
# Velocity S-wave (km/s) = 1.35607 3.50714 2.65885
# Velocity P-wave (km/s) = 2.71941 7.13771 5.40102
#
# Compressibility (1/GPa) = 0.10284972
#
# Stress axis : x y z
#
# Youngs Moduli (GPa) = 8.35462 120.34876 112.36568
#
# Poissons Ratio (x) = 1.68800 -0.11977
# Poissons Ratio (y) = 0.11718 0.45695
# Poissons Ratio (z) = -0.00891 0.48942
#
# Static dielectric constant tensor:
#      x y z
#    x 1.684800 0.000000 0.000000 
#    y 0.000000 1.721670 0.000000 
#    z 0.000000 0.000000 1.643460 
# 
# From -- ./inp_files/34822.got.cif
#   From: 2010.05.17/outbox.cif.g08.bks.cpg/sg51_18_cif.got.tgz:34822.got - 2010.06.03 11:52:47.
