data_PCOD9402983
_publ_section_title
;
Structure prediction by ZEFSAII (Michael W. Deem and Ramdas Pophale) SiO2 
 PCOD9402983
Probable space group: P M M A
;
_chemical_formula_sum "Si O2"
_cell_formula_units_Z 64
_cell_length_a 28.897198
_cell_length_b 8.835022
_cell_length_c 12.839717
_cell_angle_alpha 90.000000
_cell_angle_beta 90.000000
_cell_angle_gamma 90.000000
_cell_volume 3278.074508
_symmetry_space_group_name_H-M "P M M A"
_symmetry_group_IT_number 51
_symmetry_cell_setting 'orthorhombic'
loop_
_space_group_symop_operation_xyz
x,y,z
1/2-x,-y,z
1/2+x,-y,-z
-x,y,-z
-x,-y,-z
1/2+x,y,-z
1/2-x,y,z
x,-y,z
loop_
_atom_site_type_symbol
_atom_site_label
_atom_site_fract_x
_atom_site_fract_y
_atom_site_fract_z
Si Si1 0.041318 0.818843 0.753394
Si Si2 0.300970 0.818471 0.695267
Si Si3 0.657479 0.681657 0.741891
Si Si4 0.948271 0.680643 0.698625
Si Si5 0.323292 0.174276 0.469164
Si Si6 0.197316 0.315244 0.037009
Si Si7 0.371654 0.319303 0.854142
Si Si8 0.932591 0.824482 0.482149
O O1 0.078248 0.753044 0.834649
O O2 0.057064 0.773965 0.635390
O O3 0.989442 0.756502 0.763281
O O4 0.041983 0.000000 0.758152
O O5 0.250000 0.793782 0.741350
O O6 0.300111 0.770105 0.574822
O O7 0.339904 0.731051 0.757336
O O8 0.310780 0.000000 0.696681
O O9 0.657559 0.500000 0.741717
O O10 0.603326 0.729124 0.734565
O O11 0.682619 0.737523 0.637682
O O12 0.681873 0.733310 0.847605
O O13 0.951303 0.500000 0.706032
O O14 0.953606 0.730866 0.577743
O O15 0.377692 0.179680 0.498203
O O16 0.309830 0.000000 0.452605
O O17 0.250000 0.265868 0.013502
O O18 0.197719 0.500000 0.035154
O O19 0.158228 0.267769 0.954269
O O20 0.376353 0.500000 0.858034
O O21 0.947161 0.000000 0.492125
#
# Coordination Sequence:
#
# PCOD9402983 Si02
#       8
#     8   8   8   8   8   8   8   8
#     4  11  21  35  54  77 110 152 190 221 272 340
#     4  10  20  35  54  77 111 151 183 219 278 346
#     4   9  19  36  57  81 111 145 183 231 281 330
#     4  10  20  32  50  81 114 144 184 231 276 321
#     4   9  17  32  51  76 110 146 180 218 268 327
#     4   9  19  38  62  84 107 141 185 232 284 337
#     4  11  22  36  57  83 110 140 185 240 285 326
#     4   9  17  31  50  72 105 149 188 218 260 325
#
# _framework density 19.523657
#
# number of rings (size 3 to 8) (size 9 to 14) (size 15 to 20)
#    0.000    2.250    1.250    1.875    0.000    4.750 
#    0.000    1.875    0.000    5.250    0.000    0.000 
#    0.000    0.000    0.000    0.000    0.000    0.000 
#
# Total GULP energy -357136.304401 kJ/mol
# GULP energy per Si atom -5580.254756 kJ/mol
# Density = 1.947922 g / cm^3
# Si number density = 19.523657 Si / 1000 Ang^3
#
#
#
# Elastic Constant Matrix: (Units=GPa)
#
#
# Indices 1 2 3 4 5 6 
#
# 1 41.9051 7.7734 10.8041 0.0000 0.0000 0.0000
# 2 7.7734 18.7214 7.8271 0.0000 0.0000 0.0000
# 3 10.8041 7.8271 77.9408 0.0000 0.0000 0.0000
# 4 0.0000 0.0000 0.0000 33.4673 0.0000 0.0000
# 5 0.0000 0.0000 0.0000 0.0000 22.0861 0.0000
# 6 0.0000 0.0000 0.0000 0.0000 0.0000 -118.3532
#
#
#
# Elastic Compliance Matrix: (Units=1/GPa)
#
#
# Indices 1 2 3 4 5 6 
#
# 1 0.026376 -0.009836 -0.002668 0.000000 0.000000 0.000000
# 2 -0.009836 0.059424 -0.004604 0.000000 0.000000 0.000000
# 3 -0.002668 -0.004604 0.013663 0.000000 0.000000 0.000000
# 4 0.000000 0.000000 0.000000 0.029880 0.000000 0.000000
# 5 0.000000 0.000000 0.000000 0.000000 0.045277 0.000000
# 6 0.000000 0.000000 0.000000 0.000000 0.000000 -0.008449
#
#
# Mechanical properties :
#
#
# Convention : Reuss Voigt Hill
#
# Bulk Modulus (GPa) = 15.32683 21.26406 18.29545
# Shear Modulus (GPa) = 22.50876 -5.08247 8.71315
#
# Velocity S-wave (km/s) = 3.39912 -1.61521 2.11484
# Velocity P-wave (km/s) = 4.82419 2.72701 3.91850
#
# Compressibility (1/GPa) = 0.06524505
#
# Stress axis : x y z
#
# Youngs Moduli (GPa) = 37.91327 16.82832 73.19299
#
# Poissons Ratio (x) = 0.16552 0.19531
# Poissons Ratio (y) = 0.37291 0.33699
# Poissons Ratio (z) = 0.10117 0.07748
#
# Static dielectric constant tensor:
#      x y z
#    x 1.724990 0.000000 0.000000 
#    y 0.000000 1.663480 0.000000 
#    z 0.000000 0.000000 1.678780 
# 
# From -- ./inp_files/19460.got.cif
#   From: 2010.05.17/outbox.cif.g08.bks.cpg/sg51_10_cif.got.tgz:19460.got - 2010.06.03 11:52:47.
