data_PCOD9402124
_publ_section_title
;
Structure prediction by ZEFSAII (Michael W. Deem and Ramdas Pophale) SiO2 
 PCOD9402124
Probable space group: P M M A
;
_chemical_formula_sum "Si O2"
_cell_formula_units_Z 64
_cell_length_a 22.708216
_cell_length_b 8.883883
_cell_length_c 17.836841
_cell_angle_alpha 90.000000
_cell_angle_beta 90.000000
_cell_angle_gamma 90.000000
_cell_volume 3598.353184
_symmetry_space_group_name_H-M "P M M A"
_symmetry_group_IT_number 51
_symmetry_cell_setting 'orthorhombic'
loop_
_space_group_symop_operation_xyz
x,y,z
1/2-x,-y,z
1/2+x,-y,-z
-x,y,-z
-x,-y,-z
1/2+x,y,-z
1/2-x,y,z
x,-y,z
loop_
_atom_site_type_symbol
_atom_site_label
_atom_site_fract_x
_atom_site_fract_y
_atom_site_fract_z
Si Si1 0.818342 0.675749 0.568726
Si Si2 0.915095 0.820249 0.147974
Si Si3 0.584131 0.179755 0.672462
Si Si4 0.149791 0.821121 0.589527
Si Si5 0.928818 0.672467 0.992417
Si Si6 0.947514 0.820367 0.839193
Si Si7 0.976563 0.325134 0.414801
Si Si8 0.184011 0.320313 0.745821
O O1 0.750000 0.684483 0.590181
O O2 0.836078 0.500000 0.564537
O O3 0.859725 0.760375 0.627494
O O4 0.826163 0.748312 0.486813
O O5 0.867697 0.744973 0.202431
O O6 0.983024 0.776898 0.167338
O O7 0.910760 0.000000 0.154336
O O8 0.905165 0.767655 0.062341
O O9 0.584443 0.211444 0.761027
O O10 0.527649 0.262392 0.637780
O O11 0.578187 0.000000 0.662206
O O12 0.081158 0.775715 0.593002
O O13 0.178711 0.751496 0.663459
O O14 0.157337 0.000000 0.587925
O O15 0.909114 0.500000 0.998120
O O16 0.918487 0.740277 0.910393
O O17 0.000000 0.675172 0.000000
O O18 0.947105 0.000000 0.852543
O O19 0.962800 0.500000 0.398021
O O20 0.000000 0.317369 0.500000
O O21 0.250000 0.287888 0.775447
O O22 0.177428 0.500000 0.739962
#
# Coordination Sequence:
#
# PCOD9402124 Si02
#       8
#     8   8   8   8   8   8   8   8
#     4  11  24  41  58  76 103 142 187 231 277 330
#     4  10  19  34  57  83 114 149 182 222 274 331
#     4  11  22  36  57  84 113 144 183 231 279 328
#     4  12  24  38  59  83 109 142 185 234 281 330
#     4   9  17  30  52  82 113 145 178 214 261 321
#     4   9  19  34  53  83 116 144 177 222 279 334
#     4  11  22  36  56  81 112 147 182 223 278 336
#     4  11  24  40  57  79 111 150 191 235 280 332
#
# _framework density 17.785913999999998
#
# number of rings (size 3 to 8) (size 9 to 14) (size 15 to 20)
#    0.000    1.500    1.250    4.500    0.000    8.000 
#    0.000    0.000    0.000    0.750    0.000    3.500 
#    0.000    0.000    0.000    0.000    0.000    0.000 
#
# Total GULP energy -357597.221036 kJ/mol
# GULP energy per Si atom -5587.456579 kJ/mol
# Density = 1.774543 g / cm^3
# Si number density = 17.785914 Si / 1000 Ang^3
#
#
#
# Elastic Constant Matrix: (Units=GPa)
#
#
# Indices 1 2 3 4 5 6 
#
# 1 50.8583 15.3745 26.3107 0.0000 0.0000 0.0000
# 2 15.3745 76.5188 43.8823 0.0000 0.0000 0.0000
# 3 26.3107 43.8823 112.8323 0.0000 0.0000 0.0000
# 4 0.0000 0.0000 0.0000 18.6664 0.0000 0.0000
# 5 0.0000 0.0000 0.0000 0.0000 5.0419 0.0000
# 6 0.0000 0.0000 0.0000 0.0000 0.0000 12.7664
#
#
#
# Elastic Compliance Matrix: (Units=1/GPa)
#
#
# Indices 1 2 3 4 5 6 
#
# 1 0.022584 -0.001953 -0.004507 0.000000 0.000000 0.000000
# 2 -0.001953 0.016989 -0.006152 0.000000 0.000000 0.000000
# 3 -0.004507 -0.006152 0.012306 0.000000 0.000000 0.000000
# 4 0.000000 0.000000 0.000000 0.053572 0.000000 0.000000
# 5 0.000000 0.000000 0.000000 0.000000 0.198339 0.000000
# 6 0.000000 0.000000 0.000000 0.000000 0.000000 0.078331
#
#
# Mechanical properties :
#
#
# Convention : Reuss Voigt Hill
#
# Bulk Modulus (GPa) = 37.51489 45.70494 41.60992
# Shear Modulus (GPa) = 12.01258 17.60439 14.80849
#
# Velocity S-wave (km/s) = 2.60166 3.14951 2.88860
# Velocity P-wave (km/s) = 5.49210 6.24331 5.87971
#
# Compressibility (1/GPa) = 0.02665608
#
# Stress axis : x y z
#
# Youngs Moduli (GPa) = 44.27836 58.86112 81.26015
#
# Poissons Ratio (x) = 0.11497 0.36621
# Poissons Ratio (y) = 0.08649 0.49990
# Poissons Ratio (z) = 0.19955 0.36211
#
# Static dielectric constant tensor:
#      x y z
#    x 1.596900 0.000000 0.000000 
#    y 0.000000 1.598580 0.000000 
#    z 0.000000 0.000000 1.592640 
# 
# From -- ./inp_files/30646.got.cif
#   From: 2010.05.17/outbox.cif.g08.bks.cpg/sg51_16_cif.got.tgz:30646.got - 2010.06.03 11:52:47.
