data_PCOD9402870
_publ_section_title
;
Structure prediction by ZEFSAII (Michael W. Deem and Ramdas Pophale) SiO2 
 PCOD9402870
Probable space group: P M M A
;
_chemical_formula_sum "Si O2"
_cell_formula_units_Z 64
_cell_length_a 23.623671
_cell_length_b 9.268362
_cell_length_c 18.471577
_cell_angle_alpha 90.000000
_cell_angle_beta 90.000000
_cell_angle_gamma 90.000000
_cell_volume 4044.402296
_symmetry_space_group_name_H-M "P M M A"
_symmetry_group_IT_number 51
_symmetry_cell_setting 'orthorhombic'
loop_
_space_group_symop_operation_xyz
x,y,z
1/2-x,-y,z
1/2+x,-y,-z
-x,y,-z
-x,-y,-z
1/2+x,y,-z
1/2-x,y,z
x,-y,z
loop_
_atom_site_type_symbol
_atom_site_label
_atom_site_fract_x
_atom_site_fract_y
_atom_site_fract_z
Si Si1 0.815118 0.671898 0.009916
Si Si2 0.377735 0.327955 0.139747
Si Si3 0.818699 0.667738 0.581677
Si Si4 0.318590 0.668248 0.578930
Si Si5 0.510022 0.827639 0.914797
Si Si6 0.316249 0.173358 0.724207
Si Si7 0.182247 0.171410 0.272742
Si Si8 0.614638 0.173043 0.133934
O O1 0.750000 0.716280 0.018171
O O2 0.819116 0.500000 0.022585
O O3 0.853817 0.753850 0.066973
O O4 0.836594 0.698726 0.928733
O O5 0.382075 0.500000 0.150510
O O6 0.437813 0.260357 0.117324
O O7 0.351489 0.252034 0.209786
O O8 0.750000 0.669857 0.580212
O O9 0.835176 0.500000 0.592325
O O10 0.837873 0.715404 0.501339
O O11 0.835633 0.765515 0.649125
O O12 0.250000 0.676361 0.578096
O O13 0.333573 0.500000 0.587610
O O14 0.336381 0.758734 0.648570
O O15 0.451882 0.795004 0.872557
O O16 0.521316 0.000000 0.910073
O O17 0.500000 0.794448 0.000000
O O18 0.250000 0.214138 0.736676
O O19 0.354973 0.218396 0.791704
O O20 0.318000 0.000000 0.718782
O O21 0.250000 0.198119 0.264347
O O22 0.173258 0.000000 0.269517
O O23 0.620749 0.000000 0.127647
#
# Coordination Sequence:
#
# PCOD9402870 Si02
#       8
#     8   8   8   8   8   8   8   8
#     4  10  21  34  48  69  96 125 157 194 238 289
#     4  11  22  35  52  71  96 128 164 204 247 293
#     4   8  14  26  44  66  95 130 163 193 230 279
#     4   8  14  25  42  65  94 129 163 192 228 277
#     4  10  20  36  55  72  92 121 163 212 254 292
#     4   9  17  28  43  67  98 128 158 193 235 285
#     4  10  20  32  48  73 103 132 163 199 240 288
#     4  10  20  34  51  70  94 126 162 202 247 291
#
# _framework density 15.824339999999999
#
# number of rings (size 3 to 8) (size 9 to 14) (size 15 to 20)
#    0.000    2.500    1.250    2.250    0.000    4.250 
#    0.000    3.750    0.000    0.000    0.000    0.875 
#    0.000    7.000    0.000    0.000    0.000    0.000 
#
# Total GULP energy -356723.048108 kJ/mol
# GULP energy per Si atom -5573.797627 kJ/mol
# Density = 1.578832 g / cm^3
# Si number density = 15.824340 Si / 1000 Ang^3
#
#
#
# Elastic Constant Matrix: (Units=GPa)
#
#
# Indices 1 2 3 4 5 6 
#
# 1 42.5788 24.2002 20.0123 0.0000 0.0000 0.0000
# 2 24.2002 37.2296 46.0416 0.0000 0.0000 0.0000
# 3 20.0123 46.0416 113.9147 0.0000 0.0000 0.0000
# 4 0.0000 0.0000 0.0000 29.9562 0.0000 0.0000
# 5 0.0000 0.0000 0.0000 0.0000 1.6125 0.0000
# 6 0.0000 0.0000 0.0000 0.0000 0.0000 18.1347
#
#
#
# Elastic Compliance Matrix: (Units=1/GPa)
#
#
# Indices 1 2 3 4 5 6 
#
# 1 0.039805 -0.034442 0.006928 0.000000 0.000000 0.000000
# 2 -0.034442 0.083504 -0.027700 0.000000 0.000000 0.000000
# 3 0.006928 -0.027700 0.018757 0.000000 0.000000 0.000000
# 4 0.000000 0.000000 0.000000 0.033382 0.000000 0.000000
# 5 0.000000 0.000000 0.000000 0.000000 0.620145 0.000000
# 6 0.000000 0.000000 0.000000 0.000000 0.000000 0.055143
#
#
# Mechanical properties :
#
#
# Convention : Reuss Voigt Hill
#
# Bulk Modulus (GPa) = 31.60668 41.58125 36.59396
# Shear Modulus (GPa) = 5.14556 16.83861 10.99209
#
# Velocity S-wave (km/s) = 1.80520 3.26559 2.63845
# Velocity P-wave (km/s) = 4.93577 6.36809 5.69712
#
# Compressibility (1/GPa) = 0.03163889
#
# Stress axis : x y z
#
# Youngs Moduli (GPa) = 25.12233 11.97541 53.31321
#
# Poissons Ratio (x) = 0.41245 -0.36933
# Poissons Ratio (y) = 0.86526 1.47677
# Poissons Ratio (z) = -0.17404 0.33172
#
# Static dielectric constant tensor:
#      x y z
#    x 1.507940 0.000000 0.000000 
#    y 0.000000 1.523830 0.000000 
#    z 0.000000 0.000000 1.527710 
# 
# From -- ./inp_files/30921.got.cif
#   From: 2010.05.17/outbox.cif.g08.bks.cpg/sg51_16_cif.got.tgz:30921.got - 2010.06.03 11:52:47.
