data_PCOD9402072
_publ_section_title
;
Structure prediction by ZEFSAII (Michael W. Deem and Ramdas Pophale) SiO2 
 PCOD9402072
Probable space group: P M M A
;
_chemical_formula_sum "Si O2"
_cell_formula_units_Z 56
_cell_length_a 16.161843
_cell_length_b 19.506000
_cell_length_c 8.077846
_cell_angle_alpha 90.000000
_cell_angle_beta 90.000000
_cell_angle_gamma 90.000000
_cell_volume 2546.564454
_symmetry_space_group_name_H-M "P M M A"
_symmetry_group_IT_number 51
_symmetry_cell_setting 'orthorhombic'
loop_
_space_group_symop_operation_xyz
x,y,z
1/2-x,-y,z
1/2+x,-y,-z
-x,y,-z
-x,-y,-z
1/2+x,y,-z
1/2-x,y,z
x,-y,z
loop_
_atom_site_type_symbol
_atom_site_label
_atom_site_fract_x
_atom_site_fract_y
_atom_site_fract_z
Si Si1 0.496910 0.421371 0.702145
Si Si2 0.934385 0.795275 0.878202
Si Si3 0.345620 0.925604 0.562948
Si Si4 0.063134 0.202467 0.617415
Si Si5 0.657611 0.329376 0.325278
Si Si6 0.155890 0.666193 0.272685
Si Si7 0.346301 0.074845 0.964265
O O1 0.500000 0.421541 0.500000
O O2 0.490675 0.500000 0.756496
O O3 0.414469 0.378030 0.742574
O O4 0.581197 0.386171 0.766525
O O5 0.873251 0.739862 0.797794
O O6 0.889073 0.858740 0.961864
O O7 0.999645 0.826682 0.748895
O O8 0.000000 0.758027 0.000000
O O9 0.250000 0.920936 0.511610
O O10 0.393729 0.857545 0.516053
O O11 0.378245 0.000000 0.508482
O O12 0.347754 0.923808 0.763811
O O13 0.129781 0.250996 0.702468
O O14 0.000000 0.245482 0.500000
O O15 0.750000 0.343563 0.263471
O O16 0.659353 0.333327 0.526276
O O17 0.250000 0.650222 0.216355
O O18 0.250000 0.076575 0.012959
O O19 0.380721 0.000000 0.015906
#
# Coordination Sequence:
#
# PCOD9402072 Si02
#       7
#     8   8   8   8   8   8   8
#     4   9  17  32  55  87 121 148 184 230 277 335
#     4  12  22  35  57  83 113 146 194 248 285 340
#     4   9  19  36  55  77 107 145 189 237 293 353
#     4  12  21  36  55  78 115 147 188 237 291 349
#     4  10  19  34  56  82 117 156 190 231 285 340
#     4  10  20  36  57  83 117 153 191 236 287 337
#     4   9  19  36  55  77 107 144 190 244 296 345
#
# _framework density 21.990411999999999
#
# number of rings (size 3 to 8) (size 9 to 14) (size 15 to 20)
#    0.000    1.857    4.286    2.143    0.000    1.714 
#    0.000    2.857    0.000    2.143    0.000    0.000 
#    0.000    0.000    0.000    0.000    0.000    0.000 
#
# Total GULP energy -312427.022190 kJ/mol
# GULP energy per Si atom -5579.053968 kJ/mol
# Density = 2.194036 g / cm^3
# Si number density = 21.990412 Si / 1000 Ang^3
#
#
#
# Elastic Constant Matrix: (Units=GPa)
#
#
# Indices 1 2 3 4 5 6 
#
# 1 177.8532 86.8040 15.2395 0.0000 0.0000 0.0000
# 2 86.8040 151.6674 6.7875 0.0000 0.0000 0.0000
# 3 15.2395 6.7875 11.0400 0.0000 0.0000 0.0000
# 4 0.0000 0.0000 0.0000 6.8819 0.0000 0.0000
# 5 0.0000 0.0000 0.0000 0.0000 19.5201 0.0000
# 6 0.0000 0.0000 0.0000 0.0000 0.0000 22.2358
#
#
#
# Elastic Compliance Matrix: (Units=1/GPa)
#
#
# Indices 1 2 3 4 5 6 
#
# 1 0.008609 -0.004519 -0.009104 0.000000 0.000000 0.000000
# 2 -0.004519 0.009153 0.000612 0.000000 0.000000 0.000000
# 3 -0.009104 0.000612 0.102771 0.000000 0.000000 0.000000
# 4 0.000000 0.000000 0.000000 0.145308 0.000000 0.000000
# 5 0.000000 0.000000 0.000000 0.000000 0.051229 0.000000
# 6 0.000000 0.000000 0.000000 0.000000 0.000000 0.044972
#
#
# Mechanical properties :
#
#
# Convention : Reuss Voigt Hill
#
# Bulk Modulus (GPa) = 10.58117 62.02472 36.30294
# Shear Modulus (GPa) = 11.91698 25.17622 18.54660
#
# Velocity S-wave (km/s) = 2.33044 3.38727 2.90728
# Velocity P-wave (km/s) = 3.47324 6.60036 5.27390
#
# Compressibility (1/GPa) = 0.09450753
#
# Stress axis : x y z
#
# Youngs Moduli (GPa) = 116.16366 109.25795 9.73035
#
# Poissons Ratio (x) = 0.49379 0.08859
# Poissons Ratio (y) = 0.52500 -0.00595
# Poissons Ratio (z) = 1.05761 -0.06682
#
# Static dielectric constant tensor:
#      x y z
#    x 1.794340 0.000000 0.000000 
#    y 0.000000 1.801080 0.000000 
#    z 0.000000 0.000000 1.914890 
# 
# From -- ./inp_files/8509.got.cif
#   From: 2010.05.17/outbox.cif.g08.bks.cpg/sg51_5_cif.got.tgz:8509.got - 2010.06.03 11:52:47.
