data_PCOD9402520
_publ_section_title
;
Structure prediction by ZEFSAII (Michael W. Deem and Ramdas Pophale) SiO2 
 PCOD9402520
Probable space group: P M M A
;
_chemical_formula_sum "Si O2"
_cell_formula_units_Z 38
_cell_length_a 15.944058
_cell_length_b 10.009245
_cell_length_c 11.875217
_cell_angle_alpha 90.000000
_cell_angle_beta 90.000000
_cell_angle_gamma 90.000000
_cell_volume 1895.141927
_symmetry_space_group_name_H-M "P M M A"
_symmetry_group_IT_number 51
_symmetry_cell_setting 'orthorhombic'
loop_
_space_group_symop_operation_xyz
x,y,z
1/2-x,-y,z
1/2+x,-y,-z
-x,y,-z
-x,-y,-z
1/2+x,y,-z
1/2-x,y,z
x,-y,z
loop_
_atom_site_type_symbol
_atom_site_label
_atom_site_fract_x
_atom_site_fract_y
_atom_site_fract_z
Si Si1 0.431289 0.000000 0.097544
Si Si2 0.750000 0.711118 0.849496
Si Si3 0.106610 0.654268 0.724686
Si Si4 0.850809 0.340759 0.524150
Si Si5 0.250000 0.337294 0.889506
Si Si6 0.750000 0.000000 0.888149
Si Si7 0.920797 0.732386 0.754303
O O1 0.434546 0.869436 0.176894
O O2 0.337185 0.000000 0.046068
O O3 0.500000 0.000000 0.000000
O O4 0.750000 0.866940 0.812672
O O5 0.839016 0.658194 0.806644
O O6 0.750000 0.711902 0.983539
O O7 0.132555 0.500000 0.712995
O O8 0.121439 0.708835 0.599221
O O9 0.168677 0.709186 0.819688
O O10 0.010317 0.661421 0.759762
O O11 0.750000 0.331355 0.533860
O O12 0.873041 0.500000 0.536636
O O13 0.895855 0.260001 0.623208
O O14 0.250000 0.500000 0.898343
#
# Coordination Sequence:
#
# PCOD9402520 Si02
#       7
#     4   4   8   8   4   2   8
#     4  10  24  42  61  86 118 157 201 242 292 357
#     4  10  22  37  57  84 114 153 204 248 293 351
#     4  10  21  38  60  87 121 160 194 238 301 364
#     4  10  19  37  63  89 119 155 198 245 300 360
#     4  10  22  37  54  83 125 160 190 235 292 365
#     4   8  20  40  62  74 104 152 198 242 284 332
#     4  11  22  38  62  87 113 154 201 250 298 346
#
# _framework density 20.051268
#
# number of rings (size 3 to 8) (size 9 to 14) (size 15 to 20)
#    0.000    1.895    2.105    1.263    5.895    3.368 
#    0.000    4.211    0.000    0.000    0.000    0.000 
#    0.000    0.000    0.000    0.000    0.000    0.000 
#
# Total GULP energy -211828.157704 kJ/mol
# GULP energy per Si atom -5574.425203 kJ/mol
# Density = 2.000563 g / cm^3
# Si number density = 20.051268 Si / 1000 Ang^3
#
#
#
# Elastic Constant Matrix: (Units=GPa)
#
#
# Indices 1 2 3 4 5 6 
#
# 1 122.5188 -6.9812 38.1211 0.0000 0.0000 0.0000
# 2 -6.9812 48.4748 10.9159 0.0000 0.0000 0.0000
# 3 38.1211 10.9159 128.9976 0.0000 0.0000 0.0000
# 4 0.0000 0.0000 0.0000 23.8795 0.0000 0.0000
# 5 0.0000 0.0000 0.0000 0.0000 39.6510 0.0000
# 6 0.0000 0.0000 0.0000 0.0000 0.0000 22.9055
#
#
#
# Elastic Compliance Matrix: (Units=1/GPa)
#
#
# Indices 1 2 3 4 5 6 
#
# 1 0.009169 0.001968 -0.002876 0.000000 0.000000 0.000000
# 2 0.001968 0.021452 -0.002397 0.000000 0.000000 0.000000
# 3 -0.002876 -0.002397 0.008805 0.000000 0.000000 0.000000
# 4 0.000000 0.000000 0.000000 0.041877 0.000000 0.000000
# 5 0.000000 0.000000 0.000000 0.000000 0.025220 0.000000
# 6 0.000000 0.000000 0.000000 0.000000 0.000000 0.043658
#
#
# Mechanical properties :
#
#
# Convention : Reuss Voigt Hill
#
# Bulk Modulus (GPa) = 30.47247 42.67810 36.57528
# Shear Modulus (GPa) = 29.80986 34.48290 32.14638
#
# Velocity S-wave (km/s) = 3.85993 4.15147 4.00835
# Velocity P-wave (km/s) = 5.92416 6.65660 6.30103
#
# Compressibility (1/GPa) = 0.03281651
#
# Stress axis : x y z
#
# Youngs Moduli (GPa) = 109.06237 46.61466 113.57342
#
# Poissons Ratio (x) = -0.09175 0.32666
# Poissons Ratio (y) = -0.21465 0.27223
# Poissons Ratio (z) = 0.31368 0.11173
#
# Static dielectric constant tensor:
#      x y z
#    x 1.737150 0.000000 0.000000 
#    y 0.000000 1.742910 0.000000 
#    z 0.000000 0.000000 1.712980 
# 
# From -- ./inp_files/16263.got.cif
#   From: 2010.05.17/outbox.cif.g08.bks.cpg/sg51_9_cif.got.tgz:16263.got - 2010.06.03 11:52:47.
