data_PCOD9402767
_publ_section_title
;
Structure prediction by ZEFSAII (Michael W. Deem and Ramdas Pophale) SiO2 
 PCOD9402767
Probable space group: P M M A
;
_chemical_formula_sum "Si O2"
_cell_formula_units_Z 52
_cell_length_a 9.854179
_cell_length_b 10.193917
_cell_length_c 29.693493
_cell_angle_alpha 90.000000
_cell_angle_beta 90.000000
_cell_angle_gamma 90.000000
_cell_volume 2982.791034
_symmetry_space_group_name_H-M "P M M A"
_symmetry_group_IT_number 51
_symmetry_cell_setting 'orthorhombic'
loop_
_space_group_symop_operation_xyz
x,y,z
1/2-x,-y,z
1/2+x,-y,-z
-x,y,-z
-x,-y,-z
1/2+x,y,-z
1/2-x,y,z
x,-y,z
loop_
_atom_site_type_symbol
_atom_site_label
_atom_site_fract_x
_atom_site_fract_y
_atom_site_fract_z
Si Si1 0.095687 0.759558 0.395168
Si Si2 0.589831 0.155635 0.872875
Si Si3 0.594411 0.156473 0.704788
Si Si4 0.405909 0.840798 0.787472
Si Si5 0.589807 0.347446 0.956072
Si Si6 0.101186 0.848720 0.536720
Si Si7 0.406008 0.500000 0.455615
O O1 0.250000 0.807415 0.405355
O O2 0.082348 0.763158 0.341521
O O3 0.077820 0.623250 0.421639
O O4 0.977020 0.845510 0.416434
O O5 0.750000 0.171411 0.861346
O O6 0.493815 0.194525 0.831336
O O7 0.560473 0.246515 0.915852
O O8 0.569088 0.000000 0.882390
O O9 0.750000 0.170276 0.721447
O O10 0.487473 0.197922 0.742564
O O11 0.576067 0.000000 0.694886
O O12 0.250000 0.794871 0.788781
O O13 0.403135 0.000000 0.786815
O O14 0.750000 0.335416 0.966917
O O15 0.565744 0.500000 0.942707
O O16 0.500000 0.320258 0.000000
O O17 0.250000 0.786769 0.537775
O O18 0.000000 0.788898 0.500000
O O19 0.118177 0.000000 0.523701
O O20 0.250000 0.500000 0.471364
O O21 0.500000 0.500000 0.500000
#
# Coordination Sequence:
#
# PCOD9402767 Si02
#       7
#     8   8   8   8   8   8   4
#     4  10  20  34  52  72  95 123 158 197 235 281
#     4   9  17  30  49  72  99 132 171 213 255 302
#     4   9  17  30  50  74  98 126 158 193 240 296
#     4   9  17  29  47  73 102 129 159 198 243 291
#     4   9  18  32  49  70  99 135 174 214 258 308
#     4  10  20  32  47  69  96 122 148 183 229 279
#     4  10  22  38  54  72  94 124 164 204 239 282
#
# _framework density 17.433336000000001
#
# number of rings (size 3 to 8) (size 9 to 14) (size 15 to 20)
#    0.000    2.615    0.000    1.846    0.000    6.769 
#    0.000    1.538    1.692    0.000    0.000    0.000 
#    0.000    0.000    0.000    0.000    0.000    0.000 
#
# Total GULP energy -289636.874531 kJ/mol
# GULP energy per Si atom -5569.939895 kJ/mol
# Density = 1.739366 g / cm^3
# Si number density = 17.433336 Si / 1000 Ang^3
#
#
#
# Elastic Constant Matrix: (Units=GPa)
#
#
# Indices 1 2 3 4 5 6 
#
# 1 138.5723 42.0692 99.7459 0.0000 0.0000 0.0000
# 2 42.0692 52.2164 46.8547 0.0000 0.0000 0.0000
# 3 99.7459 46.8547 136.3719 0.0000 0.0000 0.0000
# 4 0.0000 0.0000 0.0000 16.9529 0.0000 0.0000
# 5 0.0000 0.0000 0.0000 0.0000 30.9148 0.0000
# 6 0.0000 0.0000 0.0000 0.0000 0.0000 9.6456
#
#
#
# Elastic Compliance Matrix: (Units=1/GPa)
#
#
# Indices 1 2 3 4 5 6 
#
# 1 0.015642 -0.003377 -0.010280 0.000000 0.000000 0.000000
# 2 -0.003377 0.028416 -0.007293 0.000000 0.000000 0.000000
# 3 -0.010280 -0.007293 0.017358 0.000000 0.000000 0.000000
# 4 0.000000 0.000000 0.000000 0.058987 0.000000 0.000000
# 5 0.000000 0.000000 0.000000 0.000000 0.032347 0.000000
# 6 0.000000 0.000000 0.000000 0.000000 0.000000 0.103674
#
#
# Mechanical properties :
#
#
# Convention : Reuss Voigt Hill
#
# Bulk Modulus (GPa) = 51.24389 78.27780 64.76085
# Shear Modulus (GPa) = 16.40258 20.73537 18.56898
#
# Velocity S-wave (km/s) = 3.07070 3.45252 3.26719
# Velocity P-wave (km/s) = 6.48307 7.80333 7.17364
#
# Compressibility (1/GPa) = 0.01951452
#
# Stress axis : x y z
#
# Youngs Moduli (GPa) = 63.93171 35.19116 57.61053
#
# Poissons Ratio (x) = 0.11885 0.59226
# Poissons Ratio (y) = 0.21592 0.42015
# Poissons Ratio (z) = 0.65724 0.25665
#
# Static dielectric constant tensor:
#      x y z
#    x 1.625230 0.000000 0.000000 
#    y 0.000000 1.629070 0.000000 
#    z 0.000000 0.000000 1.573460 
# 
# From -- ./inp_files/36238.got.cif
#   From: 2010.05.17/outbox.cif.g08.bks.cpg/sg51_19_cif.got.tgz:36238.got - 2010.06.03 11:52:47.
