data_PCOD9402797
_publ_section_title
;
Structure prediction by ZEFSAII (Michael W. Deem and Ramdas Pophale) SiO2 
 PCOD9402797
Probable space group: P M M A
;
_chemical_formula_sum "Si O2"
_cell_formula_units_Z 40
_cell_length_a 9.405445
_cell_length_b 7.664249
_cell_length_c 27.164378
_cell_angle_alpha 90.000000
_cell_angle_beta 90.000000
_cell_angle_gamma 90.000000
_cell_volume 1958.162454
_symmetry_space_group_name_H-M "P M M A"
_symmetry_group_IT_number 51
_symmetry_cell_setting 'orthorhombic'
loop_
_space_group_symop_operation_xyz
x,y,z
1/2-x,-y,z
1/2+x,-y,-z
-x,y,-z
-x,-y,-z
1/2+x,y,-z
1/2-x,y,z
x,-y,z
loop_
_atom_site_type_symbol
_atom_site_label
_atom_site_fract_x
_atom_site_fract_y
_atom_site_fract_z
Si Si1 0.910680 0.291940 0.857096
Si Si2 0.413691 0.713591 0.951482
Si Si3 0.411428 0.291816 0.546043
Si Si4 0.915356 0.209610 0.347431
Si Si5 0.085504 0.789437 0.760042
O O1 0.750000 0.221503 0.857250
O O2 0.900838 0.500000 0.864236
O O3 0.005715 0.225431 0.902372
O O4 0.988870 0.263269 0.805457
O O5 0.250000 0.770443 0.952666
O O6 0.412139 0.500000 0.951074
O O7 0.500000 0.766679 0.000000
O O8 0.500000 0.221841 0.500000
O O9 0.250000 0.220578 0.546041
O O10 0.401350 0.500000 0.539939
O O11 0.478261 0.263065 0.600111
O O12 0.750000 0.267931 0.348524
O O13 0.969676 0.269164 0.293968
O O14 0.916668 0.000000 0.346945
O O15 0.250000 0.730452 0.766280
O O16 0.089221 0.000000 0.759193
#
# Coordination Sequence:
#
# PCOD9402797 Si02
#       5
#     8   8   8   8   8
#     4  10  20  32  47  71 101 130 162 199 238 284
#     4   9  16  27  45  69  97 128 161 199 242 285
#     4   9  17  29  45  66  92 121 151 184 226 275
#     4   8  15  29  48  68  89 115 151 193 232 274
#     4   9  18  33  52  72  94 123 160 201 245 291
#
# _framework density 20.427313999999999
#
# number of rings (size 3 to 8) (size 9 to 14) (size 15 to 20)
#    0.000    3.000    0.000    2.400    0.000    5.200 
#    0.000    3.000    0.000    4.200    0.000    0.000 
#    0.000    0.000    0.000    0.000    0.000    0.000 
#
# Total GULP energy -222974.173519 kJ/mol
# GULP energy per Si atom -5574.354338 kJ/mol
# Density = 2.038082 g / cm^3
# Si number density = 20.427314 Si / 1000 Ang^3
#
#
#
# Elastic Constant Matrix: (Units=GPa)
#
#
# Indices 1 2 3 4 5 6 
#
# 1 126.7384 6.2379 110.4454 0.0000 0.0000 0.0000
# 2 6.2379 32.7710 1.1439 0.0000 0.0000 0.0000
# 3 110.4454 1.1439 243.0271 0.0000 0.0000 0.0000
# 4 0.0000 0.0000 0.0000 33.8265 0.0000 0.0000
# 5 0.0000 0.0000 0.0000 0.0000 34.0764 0.0000
# 6 0.0000 0.0000 0.0000 0.0000 0.0000 7.2446
#
#
#
# Elastic Compliance Matrix: (Units=1/GPa)
#
#
# Indices 1 2 3 4 5 6 
#
# 1 0.013237 -0.002310 -0.006005 0.000000 0.000000 0.000000
# 2 -0.002310 0.030923 0.000904 0.000000 0.000000 0.000000
# 3 -0.006005 0.000904 0.006839 0.000000 0.000000 0.000000
# 4 0.000000 0.000000 0.000000 0.029563 0.000000 0.000000
# 5 0.000000 0.000000 0.000000 0.000000 0.029346 0.000000
# 6 0.000000 0.000000 0.000000 0.000000 0.000000 0.138034
#
#
# Mechanical properties :
#
#
# Convention : Reuss Voigt Hill
#
# Bulk Modulus (GPa) = 27.64094 70.91012 49.27553
# Shear Modulus (GPa) = 18.19362 34.01011 26.10186
#
# Velocity S-wave (km/s) = 2.98762 4.08479 3.57850
# Velocity P-wave (km/s) = 5.04598 7.55222 6.42254
#
# Compressibility (1/GPa) = 0.03617822
#
# Stress axis : x y z
#
# Youngs Moduli (GPa) = 75.54775 32.33843 146.21262
#
# Poissons Ratio (x) = 0.07470 0.87795
# Poissons Ratio (y) = 0.17451 -0.13221
# Poissons Ratio (z) = 0.45364 -0.02924
#
# Static dielectric constant tensor:
#      x y z
#    x 1.709970 0.000000 0.000000 
#    y 0.000000 1.764380 0.000000 
#    z 0.000000 0.000000 1.743650 
# 
# From -- ./inp_files/31375.got.cif
#   From: 2010.05.17/outbox.cif.g08.bks.cpg/sg51_16_cif.got.tgz:31375.got - 2010.06.03 11:52:47.
