data_PCOD9402573
_publ_section_title
;
Structure prediction by ZEFSAII (Michael W. Deem and Ramdas Pophale) SiO2 
 PCOD9402573
Probable space group: P M M A
;
_chemical_formula_sum "Si O2"
_cell_formula_units_Z 56
_cell_length_a 9.015110
_cell_length_b 19.129140
_cell_length_c 25.690208
_cell_angle_alpha 90.000000
_cell_angle_beta 90.000000
_cell_angle_gamma 90.000000
_cell_volume 4430.309800
_symmetry_space_group_name_H-M "P M M A"
_symmetry_group_IT_number 51
_symmetry_cell_setting 'orthorhombic'
loop_
_space_group_symop_operation_xyz
x,y,z
1/2-x,-y,z
1/2+x,-y,-z
-x,y,-z
-x,-y,-z
1/2+x,y,-z
1/2-x,y,z
x,-y,z
loop_
_atom_site_type_symbol
_atom_site_label
_atom_site_fract_x
_atom_site_fract_y
_atom_site_fract_z
Si Si1 0.421379 0.414773 0.946614
Si Si2 0.080536 0.584666 0.159015
Si Si3 0.571181 0.781125 0.558057
Si Si4 0.072114 0.923138 0.557429
Si Si5 0.072329 0.417845 0.731927
Si Si6 0.584830 0.582093 0.450563
Si Si7 0.574125 0.346586 0.636267
O O1 0.250000 0.393562 0.945726
O O2 0.424180 0.500000 0.946366
O O3 0.505445 0.391040 0.894563
O O4 0.500000 0.392456 0.000000
O O5 0.250000 0.609165 0.163652
O O6 0.084477 0.500000 0.156010
O O7 0.987137 0.600323 0.210643
O O8 0.500000 0.770998 0.500000
O O9 0.750000 0.784037 0.552129
O O10 0.505867 0.854342 0.579765
O O11 0.535780 0.721086 0.600562
O O12 0.750000 0.913325 0.446274
O O13 0.000000 0.926813 0.500000
O O14 0.045685 0.000000 0.581910
O O15 0.250000 0.415337 0.730095
O O16 0.029255 0.500000 0.721175
O O17 0.004960 0.363690 0.690489
O O18 0.500000 0.612984 0.500000
O O19 0.750000 0.612230 0.443682
O O20 0.602052 0.500000 0.459875
O O21 0.483152 0.591853 0.400925
O O22 0.750000 0.347123 0.643496
#
# Coordination Sequence:
#
# PCOD9402573 Si02
#       7
#     8   8   8   8   8   8   8
#     4   9  15  22  33  50  71  92 113 138 171 213
#     4   9  16  26  39  53  69  89 113 143 179 217
#     4  10  20  31  43  59  77  96 116 139 171 211
#     4   9  16  26  42  62  80  97 115 133 157 195
#     4  10  20  32  44  56  69  89 119 153 188 224
#     4  10  20  32  44  56  68  84 108 139 177 219
#     4  11  22  32  42  56  72  91 116 145 178 215
#
# _framework density 12.6402
#
# number of rings (size 3 to 8) (size 9 to 14) (size 15 to 20)
#    0.000    2.286    0.000    4.714    0.000   11.143 
#    0.000    0.000    0.000    0.000    0.000    0.000 
#    0.000    0.000    0.000    0.000    0.000    0.000 
#
# Total GULP energy -311751.540496 kJ/mol
# GULP energy per Si atom -5566.991795 kJ/mol
# Density = 1.261143 g / cm^3
# Si number density = 12.640200 Si / 1000 Ang^3
#
#
#
# Elastic Constant Matrix: (Units=GPa)
#
#
# Indices 1 2 3 4 5 6 
#
# 1 75.0084 32.6165 41.3660 0.0000 0.0000 0.0000
# 2 32.6165 51.5198 25.0932 0.0000 0.0000 0.0000
# 3 41.3660 25.0932 92.5830 0.0000 0.0000 0.0000
# 4 0.0000 0.0000 0.0000 4.7457 0.0000 0.0000
# 5 0.0000 0.0000 0.0000 0.0000 22.1635 0.0000
# 6 0.0000 0.0000 0.0000 0.0000 0.0000 0.0033
#
#
#
# Elastic Compliance Matrix: (Units=1/GPa)
#
#
# Indices 1 2 3 4 5 6 
#
# 1 0.021607 -0.010342 -0.006851 0.000000 0.000000 0.000000
# 2 -0.010342 0.027312 -0.002782 0.000000 0.000000 0.000000
# 3 -0.006851 -0.002782 0.014616 0.000000 0.000000 0.000000
# 4 0.000000 0.000000 0.000000 0.210716 0.000000 0.000000
# 5 0.000000 0.000000 0.000000 0.000000 0.045119 0.000000
# 6 0.000000 0.000000 0.000000 0.000000 0.000000299.867486
#
#
# Mechanical properties :
#
#
# Convention : Reuss Voigt Hill
#
# Bulk Modulus (GPa) = 42.39850 46.36251 44.38051
# Shear Modulus (GPa) = 0.01665 13.38487 6.70076
#
# Velocity S-wave (km/s) = 0.11491 3.25762 2.30492
# Velocity P-wave (km/s) = 5.79940 7.13497 6.50157
#
# Compressibility (1/GPa) = 0.02358574
#
# Stress axis : x y z
#
# Youngs Moduli (GPa) = 46.28058 36.61328 68.41795
#
# Poissons Ratio (x) = 0.37867 0.46873
# Poissons Ratio (y) = 0.47866 0.19031
# Poissons Ratio (z) = 0.31707 0.10184
#
# Static dielectric constant tensor:
#      x y z
#    x 1.439560 0.000000 0.000000 
#    y 0.000000 1.431310 0.000000 
#    z 0.000000 0.000000 1.398140 
# 
# From -- ./inp_files/32499.got.cif
#   From: 2010.05.17/outbox.cif.g08.bks.cpg/sg51_17_cif.got.tgz:32499.got - 2010.06.03 11:52:47.
