data_PCOD9402441
_publ_section_title
;
Structure prediction by ZEFSAII (Michael W. Deem and Ramdas Pophale) SiO2 
 PCOD9402441
Probable space group: P M M A
;
_chemical_formula_sum "Si O2"
_cell_formula_units_Z 48
_cell_length_a 35.112575
_cell_length_b 7.977412
_cell_length_c 9.049402
_cell_angle_alpha 90.000000
_cell_angle_beta 90.000000
_cell_angle_gamma 90.000000
_cell_volume 2534.805164
_symmetry_space_group_name_H-M "P M M A"
_symmetry_group_IT_number 51
_symmetry_cell_setting 'orthorhombic'
loop_
_space_group_symop_operation_xyz
x,y,z
1/2-x,-y,z
1/2+x,-y,-z
-x,y,-z
-x,-y,-z
1/2+x,y,-z
1/2-x,y,z
x,-y,z
loop_
_atom_site_type_symbol
_atom_site_label
_atom_site_fract_x
_atom_site_fract_y
_atom_site_fract_z
Si Si1 0.706422 0.000000 0.679555
Si Si2 0.152558 0.694012 0.678235
Si Si3 0.001369 0.297081 0.330576
Si Si4 0.926204 0.298175 0.155813
Si Si5 0.155578 0.685335 0.323579
Si Si6 0.419965 0.192601 0.179834
Si Si7 0.706361 0.000000 0.319436
O O1 0.683451 0.165914 0.725036
O O2 0.750000 0.000000 0.730694
O O3 0.707110 0.000000 0.499500
O O4 0.162407 0.500000 0.715814
O O5 0.111856 0.734589 0.750459
O O6 0.149242 0.702194 0.500168
O O7 0.183410 0.832603 0.725011
O O8 0.000855 0.500000 0.331416
O O9 0.040110 0.241335 0.253337
O O10 0.000000 0.239354 0.500000
O O11 0.963996 0.240762 0.241594
O O12 0.928980 0.500000 0.137326
O O13 0.923263 0.219016 0.994941
O O14 0.171705 0.500000 0.296086
O O15 0.115020 0.702344 0.244473
O O16 0.411500 0.000000 0.214562
O O17 0.750000 0.000000 0.268192
#
# Coordination Sequence:
#
# PCOD9402441 Si02
#       7
#     4   8   8   8   8   8   4
#     4   9  18  34  55  88 121 144 183 233 284 343
#     4   9  19  35  58  84 111 148 191 232 279 336
#     4  10  21  39  60  81 109 147 191 237 284 335
#     4  10  21  37  56  80 110 149 194 235 279 333
#     4  10  19  36  59  83 114 152 191 233 284 337
#     4  12  24  36  53  82 115 150 193 236 281 335
#     4   9  18  32  55  86 119 148 177 227 286 337
#
# _framework density 18.936368000000002
#
# number of rings (size 3 to 8) (size 9 to 14) (size 15 to 20)
#    0.000    2.000    0.833    3.000    1.167    6.333 
#    0.000    3.333    0.000    2.000    0.000    2.333 
#    0.000    0.000    0.000    0.000    0.000    0.000 
#
# Total GULP energy -268064.085571 kJ/mol
# GULP energy per Si atom -5584.668449 kJ/mol
# Density = 1.889327 g / cm^3
# Si number density = 18.936368 Si / 1000 Ang^3
#
#
#
# Elastic Constant Matrix: (Units=GPa)
#
#
# Indices 1 2 3 4 5 6 
#
# 1 149.5670 73.6765 38.0529 0.0000 0.0000 0.0000
# 2 73.6765 101.6531 37.2389 0.0000 0.0000 0.0000
# 3 38.0529 37.2389 48.5991 0.0000 0.0000 0.0000
# 4 0.0000 0.0000 0.0000 -1.8635 0.0000 0.0000
# 5 0.0000 0.0000 0.0000 0.0000 -16.7941 0.0000
# 6 0.0000 0.0000 0.0000 0.0000 0.0000 20.3676
#
#
#
# Elastic Compliance Matrix: (Units=1/GPa)
#
#
# Indices 1 2 3 4 5 6 
#
# 1 0.010791 -0.006570 -0.003415 0.000000 0.000000 0.000000
# 2 -0.006570 0.017677 -0.008400 0.000000 0.000000 0.000000
# 3 -0.003415 -0.008400 0.029687 0.000000 0.000000 0.000000
# 4 0.000000 0.000000 0.000000 -0.536625 0.000000 0.000000
# 5 0.000000 0.000000 0.000000 0.000000 -0.059545 0.000000
# 6 0.000000 0.000000 0.000000 0.000000 0.000000 0.049098
#
#
# Mechanical properties :
#
#
# Convention : Reuss Voigt Hill
#
# Bulk Modulus (GPa) = 46.76396 66.41731 56.59063
# Shear Modulus (GPa) = -11.23551 10.39872 -0.41839
#
# Velocity S-wave (km/s) = -2.43848 2.34592 -0.47056
# Velocity P-wave (km/s) = 4.10130 6.51827 5.44557
#
# Compressibility (1/GPa) = 0.02138399
#
# Stress axis : x y z
#
# Youngs Moduli (GPa) = 92.66644 56.57155 33.68462
#
# Poissons Ratio (x) = 0.37170 0.11504
# Poissons Ratio (y) = 0.60885 0.28296
# Poissons Ratio (z) = 0.31647 0.47521
#
# Static dielectric constant tensor:
#      x y z
#    x 1.617600 0.000000 0.000000 
#    y 0.000000 1.675190 0.000000 
#    z 0.000000 0.000000 1.624100 
# 
# From -- ./inp_files/12946.got.cif
#   From: 2010.05.17/outbox.cif.g08.bks.cpg/sg51_7_cif.got.tgz:12946.got - 2010.06.03 11:52:47.
