data_PCOD9402350
_publ_section_title
;
Structure prediction by ZEFSAII (Michael W. Deem and Ramdas Pophale) SiO2 
 PCOD9402350
Probable space group: P M M A
;
_chemical_formula_sum "Si O2"
_cell_formula_units_Z 40
_cell_length_a 8.372264
_cell_length_b 12.206859
_cell_length_c 21.129997
_cell_angle_alpha 90.000000
_cell_angle_beta 90.000000
_cell_angle_gamma 90.000000
_cell_volume 2159.465539
_symmetry_space_group_name_H-M "P M M A"
_symmetry_group_IT_number 51
_symmetry_cell_setting 'orthorhombic'
loop_
_space_group_symop_operation_xyz
x,y,z
1/2-x,-y,z
1/2+x,-y,-z
-x,y,-z
-x,-y,-z
1/2+x,y,-z
1/2-x,y,z
x,-y,z
loop_
_atom_site_type_symbol
_atom_site_label
_atom_site_fract_x
_atom_site_fract_y
_atom_site_fract_z
Si Si1 0.442845 0.126025 0.430087
Si Si2 0.941485 0.500000 0.121725
Si Si3 0.940944 0.500000 0.268351
Si Si4 0.943196 0.733848 0.689568
Si Si5 0.058918 0.730799 0.069542
Si Si6 0.445094 0.874194 0.188487
O O1 0.500000 0.157667 0.500000
O O2 0.250000 0.126117 0.429688
O O3 0.498013 0.206379 0.374501
O O4 0.494891 0.000000 0.418220
O O5 0.750000 0.500000 0.121229
O O6 0.997949 0.500000 0.194969
O O7 0.001284 0.609241 0.087554
O O8 0.750000 0.500000 0.267247
O O9 0.999907 0.610127 0.301843
O O10 0.750000 0.734068 0.689469
O O11 0.996232 0.804598 0.750458
O O12 0.250000 0.730995 0.069733
O O13 0.002728 0.813232 0.124571
O O14 0.000000 0.761341 0.000000
O O15 0.250000 0.874647 0.188777
O O16 0.497648 0.000000 0.191595
#
# Coordination Sequence:
#
# PCOD9402350 Si02
#       6
#     8   4   4   8   8   8
#     4   9  18  33  56  86 117 148 181 221 266 314
#     4  11  22  38  57  78 107 139 178 226 274 326
#     4  11  23  36  55  82 113 141 173 226 283 324
#     4  10  19  35  59  83 108 142 186 225 262 318
#     4  11  22  36  56  80 108 141 179 223 272 324
#     4   9  18  33  55  81 106 137 179 223 266 317
#
# _framework density 18.523102000000002
#
# number of rings (size 3 to 8) (size 9 to 14) (size 15 to 20)
#    0.000    2.000    2.000    2.100    0.000    4.400 
#    0.000    0.500    0.000    6.000    0.000    0.000 
#    0.000    0.000    0.000    0.000    0.000    0.000 
#
# Total GULP energy -223385.267449 kJ/mol
# GULP energy per Si atom -5584.631686 kJ/mol
# Density = 1.848094 g / cm^3
# Si number density = 18.523102 Si / 1000 Ang^3
#
#
#
# Elastic Constant Matrix: (Units=GPa)
#
#
# Indices 1 2 3 4 5 6 
#
# 1 19.2699 17.0928 23.8664 0.0000 0.0000 0.0000
# 2 17.0928 169.2452 109.1959 0.0000 0.0000 0.0000
# 3 23.8664 109.1959 188.1016 0.0000 0.0000 0.0000
# 4 0.0000 0.0000 0.0000 32.8705 0.0000 0.0000
# 5 0.0000 0.0000 0.0000 0.0000 26.1600 0.0000
# 6 0.0000 0.0000 0.0000 0.0000 0.0000 4.6900
#
#
#
# Elastic Compliance Matrix: (Units=1/GPa)
#
#
# Indices 1 2 3 4 5 6 
#
# 1 0.061948 -0.001895 -0.006760 0.000000 0.000000 0.000000
# 2 -0.001895 0.009505 -0.005277 0.000000 0.000000 0.000000
# 3 -0.006760 -0.005277 0.009238 0.000000 0.000000 0.000000
# 4 0.000000 0.000000 0.000000 0.030422 0.000000 0.000000
# 5 0.000000 0.000000 0.000000 0.000000 0.038226 0.000000
# 6 0.000000 0.000000 0.000000 0.000000 0.000000 0.213219
#
#
# Mechanical properties :
#
#
# Convention : Reuss Voigt Hill
#
# Bulk Modulus (GPa) = 18.93014 75.21408 47.07211
# Shear Modulus (GPa) = 12.25399 27.84156 20.04778
#
# Velocity S-wave (km/s) = 2.57486 3.88115 3.29342
# Velocity P-wave (km/s) = 4.36827 7.79604 6.31902
#
# Compressibility (1/GPa) = 0.05282581
#
# Stress axis : x y z
#
# Youngs Moduli (GPa) = 16.14267 105.20977 108.25424
#
# Poissons Ratio (x) = 0.19936 0.73179
# Poissons Ratio (y) = 0.03059 0.57129
# Poissons Ratio (z) = 0.10912 0.55522
#
# Static dielectric constant tensor:
#      x y z
#    x 1.640230 0.000000 0.000000 
#    y 0.000000 1.606470 0.000000 
#    z 0.000000 0.000000 1.630710 
# 
# From -- ./inp_files/31436.got.cif
#   From: 2010.05.17/outbox.cif.g08.bks.cpg/sg51_16_cif.got.tgz:31436.got - 2010.06.03 11:52:47.
