data_PCOD9402585
_publ_section_title
;
Structure prediction by ZEFSAII (Michael W. Deem and Ramdas Pophale) SiO2 
 PCOD9402585
Probable space group: P M M A
;
_chemical_formula_sum "Si O2"
_cell_formula_units_Z 48
_cell_length_a 7.698739
_cell_length_b 14.297140
_cell_length_c 24.654693
_cell_angle_alpha 90.000000
_cell_angle_beta 90.000000
_cell_angle_gamma 90.000000
_cell_volume 2713.740809
_symmetry_space_group_name_H-M "P M M A"
_symmetry_group_IT_number 51
_symmetry_cell_setting 'orthorhombic'
loop_
_space_group_symop_operation_xyz
x,y,z
1/2-x,-y,z
1/2+x,-y,-z
-x,y,-z
-x,-y,-z
1/2+x,y,-z
1/2-x,y,z
x,-y,z
loop_
_atom_site_type_symbol
_atom_site_label
_atom_site_fract_x
_atom_site_fract_y
_atom_site_fract_z
Si Si1 0.040836 0.393184 0.060989
Si Si2 0.455960 0.605863 0.732391
Si Si3 0.958839 0.106829 0.561606
Si Si4 0.546630 0.721723 0.837996
Si Si5 0.040492 0.218790 0.335268
Si Si6 0.537119 0.893709 0.771446
O O1 0.250000 0.397055 0.066169
O O2 0.975569 0.500000 0.067086
O O3 0.971619 0.327060 0.108665
O O4 0.000000 0.361612 0.000000
O O5 0.250000 0.602769 0.741115
O O6 0.519164 0.500000 0.723651
O O7 0.534448 0.651865 0.786637
O O8 0.489207 0.677233 0.683047
O O9 0.750000 0.103276 0.566425
O O10 0.023197 0.177652 0.607709
O O11 0.000000 0.134404 0.500000
O O12 0.023328 0.000000 0.570022
O O13 0.750000 0.738012 0.849024
O O14 0.474577 0.820478 0.816827
O O15 0.250000 0.217618 0.336086
O O16 0.985014 0.149528 0.286571
O O17 0.750000 0.893277 0.771978
O O18 0.480115 0.000000 0.778277
#
# Coordination Sequence:
#
# PCOD9402585 Si02
#       6
#     8   8   8   8   8   8
#     4   9  17  28  42  61  84 110 142 179 217 257
#     4  10  20  31  44  65  91 116 142 177 222 265
#     4   9  17  29  46  69  95 121 149 181 218 260
#     4   9  17  29  46  66  87 114 146 178 213 256
#     4   9  17  29  46  66  88 117 150 180 211 253
#     4   8  13  23  42  66  87 108 139 177 211 246
#
# _framework density 17.687760999999998
#
# number of rings (size 3 to 8) (size 9 to 14) (size 15 to 20)
#    0.000    3.000    0.000    2.500    0.000    5.333 
#    0.000    1.667    0.000   13.000    0.000    0.000 
#    0.000    0.000    0.000    0.000    0.000    0.000 
#
# Total GULP energy -267503.847419 kJ/mol
# GULP energy per Si atom -5572.996821 kJ/mol
# Density = 1.764750 g / cm^3
# Si number density = 17.687761 Si / 1000 Ang^3
#
#
#
# Elastic Constant Matrix: (Units=GPa)
#
#
# Indices 1 2 3 4 5 6 
#
# 1 26.0035 -2.3427 -7.1684 0.0000 0.0000 0.0000
# 2 -2.3427 158.2733 86.4119 0.0000 0.0000 0.0000
# 3 -7.1684 86.4119 122.7648 0.0000 0.0000 0.0000
# 4 0.0000 0.0000 0.0000 24.8508 0.0000 0.0000
# 5 0.0000 0.0000 0.0000 0.0000 18.0618 0.0000
# 6 0.0000 0.0000 0.0000 0.0000 0.0000 -61.8704
#
#
#
# Elastic Compliance Matrix: (Units=1/GPa)
#
#
# Indices 1 2 3 4 5 6 
#
# 1 0.039200 -0.001087 0.003054 0.000000 0.000000 0.000000
# 2 -0.001087 0.010292 -0.007308 0.000000 0.000000 0.000000
# 3 0.003054 -0.007308 0.013468 0.000000 0.000000 0.000000
# 4 0.000000 0.000000 0.000000 0.040240 0.000000 0.000000
# 5 0.000000 0.000000 0.000000 0.000000 0.055366 0.000000
# 6 0.000000 0.000000 0.000000 0.000000 0.000000 -0.016163
#
#
# Mechanical properties :
#
#
# Convention : Reuss Voigt Hill
#
# Bulk Modulus (GPa) = 19.12834 51.20480 35.16657
# Shear Modulus (GPa) = 29.32371 11.55116 20.43744
#
# Velocity S-wave (km/s) = 4.07609 2.55828 3.40289
# Velocity P-wave (km/s) = 5.74375 6.14317 5.94681
#
# Compressibility (1/GPa) = 0.05227844
#
# Stress axis : x y z
#
# Youngs Moduli (GPa) = 25.51000 97.16400 74.25124
#
# Poissons Ratio (x) = 0.10565 -0.22678
# Poissons Ratio (y) = 0.02774 0.54261
# Poissons Ratio (z) = -0.07791 0.71005
#
# Static dielectric constant tensor:
#      x y z
#    x 1.662370 0.000000 0.000000 
#    y 0.000000 1.608720 0.000000 
#    z 0.000000 0.000000 1.594160 
# 
# From -- ./inp_files/34616.got.cif
#   From: 2010.05.17/outbox.cif.g08.bks.cpg/sg51_18_cif.got.tgz:34616.got - 2010.06.03 11:52:47.
