data_PCOD9402556
_publ_section_title
;
Structure prediction by ZEFSAII (Michael W. Deem and Ramdas Pophale) SiO2 
 PCOD9402556
Probable space group: P M M A
;
_chemical_formula_sum "Si O2"
_cell_formula_units_Z 52
_cell_length_a 9.160915
_cell_length_b 29.400254
_cell_length_c 11.800851
_cell_angle_alpha 90.000000
_cell_angle_beta 90.000000
_cell_angle_gamma 90.000000
_cell_volume 3178.361291
_symmetry_space_group_name_H-M "P M M A"
_symmetry_group_IT_number 51
_symmetry_cell_setting 'orthorhombic'
loop_
_space_group_symop_operation_xyz
x,y,z
1/2-x,-y,z
1/2+x,-y,-z
-x,y,-z
-x,-y,-z
1/2+x,y,-z
1/2-x,y,z
x,-y,z
loop_
_atom_site_type_symbol
_atom_site_label
_atom_site_fract_x
_atom_site_fract_y
_atom_site_fract_z
Si Si1 0.423322 0.861524 0.876969
Si Si2 0.000000 0.704066 0.000000
Si Si3 0.923464 0.550860 0.877591
Si Si4 0.575301 0.050343 0.875628
Si Si5 0.909909 0.223879 0.812808
Si Si6 0.918245 0.639187 0.205449
Si Si7 0.080360 0.296397 0.381370
O O1 0.250000 0.867080 0.886607
O O2 0.497436 0.906025 0.820567
O O3 0.466303 0.813987 0.820314
O O4 0.500000 0.857781 0.000000
O O5 0.081261 0.739055 0.085158
O O6 0.924229 0.669940 0.090032
O O7 0.750000 0.558145 0.890256
O O8 0.945519 0.500000 0.828716
O O9 0.996003 0.592350 0.812245
O O10 0.000000 0.551054 0.000000
O O11 0.750000 0.057266 0.886394
O O12 0.552341 0.000000 0.823931
O O13 0.500000 0.048261 0.000000
O O14 0.750000 0.201587 0.821258
O O15 0.921789 0.251335 0.696296
O O16 0.750000 0.630707 0.231748
O O17 0.996743 0.666831 0.304832
O O18 0.250000 0.309072 0.397664
O O19 0.000000 0.290331 0.500000
#
# Coordination Sequence:
#
# PCOD9402556 Si02
#       7
#     8   4   8   8   8   8   8
#     4  11  20  28  42  64  94 128 163 202 246 295
#     4  10  20  30  49  74 103 132 166 202 246 296
#     4  10  20  33  50  75 108 141 171 204 246 297
#     4   9  16  26  40  57  82 120 163 202 240 286
#     4  10  20  33  49  70  99 130 164 205 247 294
#     4  11  21  33  54  79 106 136 169 208 250 299
#     4  10  22  39  57  76 100 131 171 212 253 298
#
# _framework density 16.360631999999999
#
# number of rings (size 3 to 8) (size 9 to 14) (size 15 to 20)
#    0.000    1.846    1.538    4.615    0.000    6.154 
#    0.000    0.000    0.000    0.462    0.000    0.000 
#    0.000    0.615    0.000    2.000    0.000    2.769 
#
# Total GULP energy -289695.566046 kJ/mol
# GULP energy per Si atom -5571.068578 kJ/mol
# Density = 1.632339 g / cm^3
# Si number density = 16.360632 Si / 1000 Ang^3
#
#
#
# Elastic Constant Matrix: (Units=GPa)
#
#
# Indices 1 2 3 4 5 6 
#
# 1 147.8650 64.0433 34.7054 0.0000 0.0000 0.0000
# 2 64.0433 110.4618 23.4118 0.0000 0.0000 0.0000
# 3 34.7054 23.4118 73.6399 0.0000 0.0000 0.0000
# 4 0.0000 0.0000 0.0000 7.4492 0.0000 0.0000
# 5 0.0000 0.0000 0.0000 0.0000 14.5780 0.0000
# 6 0.0000 0.0000 0.0000 0.0000 0.0000 59.9147
#
#
#
# Elastic Compliance Matrix: (Units=1/GPa)
#
#
# Indices 1 2 3 4 5 6 
#
# 1 0.009594 -0.004937 -0.002952 0.000000 0.000000 0.000000
# 2 -0.004937 0.012247 -0.001567 0.000000 0.000000 0.000000
# 3 -0.002952 -0.001567 0.015469 0.000000 0.000000 0.000000
# 4 0.000000 0.000000 0.000000 0.134242 0.000000 0.000000
# 5 0.000000 0.000000 0.000000 0.000000 0.068596 0.000000
# 6 0.000000 0.000000 0.000000 0.000000 0.000000 0.016690
#
#
# Mechanical properties :
#
#
# Convention : Reuss Voigt Hill
#
# Bulk Modulus (GPa) = 54.35177 64.03196 59.19187
# Shear Modulus (GPa) = 17.73784 30.37548 24.05666
#
# Velocity S-wave (km/s) = 3.29626 4.31353 3.83874
# Velocity P-wave (km/s) = 6.91233 8.00197 7.47702
#
# Compressibility (1/GPa) = 0.01839867
#
# Stress axis : x y z
#
# Youngs Moduli (GPa) = 104.23202 81.65112 64.64527
#
# Poissons Ratio (x) = 0.40309 0.19083
# Poissons Ratio (y) = 0.51456 0.10130
# Poissons Ratio (z) = 0.30769 0.12795
#
# Static dielectric constant tensor:
#      x y z
#    x 1.558780 0.000000 0.000000 
#    y 0.000000 1.604010 0.000000 
#    z 0.000000 0.000000 1.513570 
# 
# From -- ./inp_files/14747.got.cif
#   From: 2010.05.17/outbox.cif.g08.bks.cpg/sg51_8_cif.got.tgz:14747.got - 2010.06.03 11:52:47.
