data_PCOD9402790
_publ_section_title
;
Structure prediction by ZEFSAII (Michael W. Deem and Ramdas Pophale) SiO2 
 PCOD9402790
Probable space group: P M M A
;
_chemical_formula_sum "Si O2"
_cell_formula_units_Z 56
_cell_length_a 14.574966
_cell_length_b 7.380248
_cell_length_c 21.798614
_cell_angle_alpha 90.000000
_cell_angle_beta 90.000000
_cell_angle_gamma 90.000000
_cell_volume 2344.808540
_symmetry_space_group_name_H-M "P M M A"
_symmetry_group_IT_number 51
_symmetry_cell_setting 'orthorhombic'
loop_
_space_group_symop_operation_xyz
x,y,z
1/2-x,-y,z
1/2+x,-y,-z
-x,y,-z
-x,-y,-z
1/2+x,y,-z
1/2-x,y,z
x,-y,z
loop_
_atom_site_type_symbol
_atom_site_label
_atom_site_fract_x
_atom_site_fract_y
_atom_site_fract_z
Si Si1 0.643083 0.212038 0.474821
Si Si2 0.852171 0.706693 0.615946
Si Si3 0.050777 0.795047 0.645365
Si Si4 0.856706 0.221296 0.102338
Si Si5 0.862071 0.790377 0.969964
Si Si6 0.853834 0.778427 0.834228
Si Si7 0.963430 0.778226 0.223702
O O1 0.750000 0.224217 0.457723
O O2 0.634163 0.293987 0.542168
O O3 0.585255 0.288683 0.418252
O O4 0.618207 0.000000 0.483507
O O5 0.750000 0.783175 0.627553
O O6 0.853202 0.500000 0.637418
O O7 0.940504 0.801802 0.643404
O O8 0.075267 0.713982 0.711240
O O9 0.088421 0.000000 0.644250
O O10 0.750000 0.271857 0.107413
O O11 0.909640 0.278692 0.162921
O O12 0.860388 0.000000 0.100296
O O13 0.893087 0.284651 0.035703
O O14 0.750000 0.789806 0.972751
O O15 0.882759 0.715396 0.902730
O O16 0.892409 0.000000 0.968228
O O17 0.750000 0.720402 0.821136
O O18 0.931036 0.724312 0.786484
O O19 0.852572 0.000000 0.836486
O O20 0.960632 0.000000 0.225510
#
# Coordination Sequence:
#
# PCOD9402790 Si02
#       7
#     8   8   8   8   8   8   8
#     4   9  18  33  52  73  97 124 153 187 229 274
#     4  10  21  36  54  75  95 117 150 191 233 275
#     4  10  20  32  47  70  99 128 157 188 225 273
#     4   8  13  21  32  47  71 104 143 186 225 261
#     4   7  10  17  29  44  63  94 138 183 224 261
#     4   8  13  21  31  44  67 100 140 184 222 258
#     4   9  17  25  34  53  79 111 149 179 211 261
#
# _framework density 23.882546999999999
#
# number of rings (size 3 to 8) (size 9 to 14) (size 15 to 20)
#    0.000    3.286    0.000    2.571    0.000    4.857 
#    0.000    7.143    0.000    0.000    0.000    0.000 
#    0.000    0.000    0.000    2.571    0.000   13.429 
#
# Total GULP energy -312561.976669 kJ/mol
# GULP energy per Si atom -5581.463869 kJ/mol
# Density = 2.382819 g / cm^3
# Si number density = 23.882547 Si / 1000 Ang^3
#
#
#
# Elastic Constant Matrix: (Units=GPa)
#
#
# Indices 1 2 3 4 5 6 
#
# 1 45.5870 -4.1714 11.5584 0.0000 0.0000 0.0000
# 2 -4.1714 83.1902 -4.4007 0.0000 0.0000 0.0000
# 3 11.5584 -4.4007 47.4545 0.0000 0.0000 0.0000
# 4 0.0000 0.0000 0.0000 12.2331 0.0000 0.0000
# 5 0.0000 0.0000 0.0000 0.0000 15.8113 0.0000
# 6 0.0000 0.0000 0.0000 0.0000 0.0000 -32.1523
#
#
#
# Elastic Compliance Matrix: (Units=1/GPa)
#
#
# Indices 1 2 3 4 5 6 
#
# 1 0.023444 0.000878 -0.005629 0.000000 0.000000 0.000000
# 2 0.000878 0.012113 0.000909 0.000000 0.000000 0.000000
# 3 -0.005629 0.000909 0.022528 0.000000 0.000000 0.000000
# 4 0.000000 0.000000 0.000000 0.081745 0.000000 0.000000
# 5 0.000000 0.000000 0.000000 0.000000 0.063246 0.000000
# 6 0.000000 0.000000 0.000000 0.000000 0.000000 -0.031102
#
#
# Mechanical properties :
#
#
# Convention : Reuss Voigt Hill
#
# Bulk Modulus (GPa) = 19.84068 20.24494 20.04281
# Shear Modulus (GPa) = 25.45085 10.72813 18.08949
#
# Velocity S-wave (km/s) = 3.26800 2.12174 2.75514
# Velocity P-wave (km/s) = 4.75030 3.80758 4.30483
#
# Compressibility (1/GPa) = 0.05040150
#
# Stress axis : x y z
#
# Youngs Moduli (GPa) = 42.65566 82.55753 44.38892
#
# Poissons Ratio (x) = -0.07247 0.24985
# Poissons Ratio (y) = -0.03744 -0.04037
# Poissons Ratio (z) = 0.24010 -0.07508
#
# Static dielectric constant tensor:
#      x y z
#    x 1.889660 0.000000 0.000000 
#    y 0.000000 2.380780 0.000000 
#    z 0.000000 0.000000 1.911700 
# 
# From -- ./inp_files/33452.got.cif
#   From: 2010.05.17/outbox.cif.g08.bks.cpg/sg51_17_cif.got.tgz:33452.got - 2010.06.03 11:52:47.
