data_PCOD9402314
_publ_section_title
;
Structure prediction by ZEFSAII (Michael W. Deem and Ramdas Pophale) SiO2 
 PCOD9402314
Probable space group: P M M A
;
_chemical_formula_sum "Si O2"
_cell_formula_units_Z 52
_cell_length_a 8.822862
_cell_length_b 23.351254
_cell_length_c 14.627055
_cell_angle_alpha 90.000000
_cell_angle_beta 90.000000
_cell_angle_gamma 90.000000
_cell_volume 3013.537420
_symmetry_space_group_name_H-M "P M M A"
_symmetry_group_IT_number 51
_symmetry_cell_setting 'orthorhombic'
loop_
_space_group_symop_operation_xyz
x,y,z
1/2-x,-y,z
1/2+x,-y,-z
-x,y,-z
-x,-y,-z
1/2+x,y,-z
1/2-x,y,z
x,-y,z
loop_
_atom_site_type_symbol
_atom_site_label
_atom_site_fract_x
_atom_site_fract_y
_atom_site_fract_z
Si Si1 0.432253 0.886943 0.785794
Si Si2 0.567975 0.218719 0.898792
Si Si3 0.431092 0.433709 0.901019
Si Si4 0.068035 0.720333 0.403450
Si Si5 0.932199 0.000000 0.101053
Si Si6 0.432400 0.333371 0.213629
Si Si7 0.568190 0.855216 0.597649
O O1 0.250000 0.883128 0.782811
O O2 0.499713 0.831861 0.837388
O O3 0.497774 0.887825 0.683522
O O4 0.476006 0.943315 0.842879
O O5 0.750000 0.212906 0.901675
O O6 0.531598 0.279575 0.852014
O O7 0.500000 0.215825 0.000000
O O8 0.250000 0.429757 0.906292
O O9 0.472475 0.500000 0.882080
O O10 0.493441 0.390167 0.826185
O O11 0.500000 0.418500 0.000000
O O12 0.250000 0.717486 0.408203
O O13 0.017978 0.684149 0.315706
O O14 0.028975 0.787524 0.389930
O O15 0.000000 0.701551 0.500000
O O16 0.750000 0.000000 0.093328
O O17 0.000000 0.000000 0.000000
O O18 0.250000 0.339715 0.213972
O O19 0.500000 0.872983 0.500000
O O20 0.750000 0.860229 0.597071
#
# Coordination Sequence:
#
# PCOD9402314 Si02
#       7
#     8   8   8   8   4   8   8
#     4  11  22  38  58  81 108 144 184 227 276 329
#     4  11  22  36  52  78 112 142 177 225 274 328
#     4  10  21  36  54  78 108 144 186 227 268 319
#     4   9  18  33  52  79 111 142 175 217 266 321
#     4  10  24  42  59  80 107 142 189 232 272 328
#     4  10  20  35  54  79 111 142 178 222 270 323
#     4  10  19  35  57  84 114 144 179 223 273 329
#
# _framework density 17.255469000000002
#
# number of rings (size 3 to 8) (size 9 to 14) (size 15 to 20)
#    0.000    1.846    1.538    2.769    0.000    7.077 
#    0.000    0.385    0.000    0.462    0.000    0.000 
#    0.000    0.000    0.000    0.000    0.000    0.000 
#
# Total GULP energy -290427.764351 kJ/mol
# GULP energy per Si atom -5585.149314 kJ/mol
# Density = 1.721620 g / cm^3
# Si number density = 17.255469 Si / 1000 Ang^3
#
#
#
# Elastic Constant Matrix: (Units=GPa)
#
#
# Indices 1 2 3 4 5 6 
#
# 1 40.6891 35.1094 48.6050 0.0000 0.0000 0.0000
# 2 35.1094 83.3425 69.5034 0.0000 0.0000 0.0000
# 3 48.6050 69.5034 178.2330 0.0000 0.0000 0.0000
# 4 0.0000 0.0000 0.0000 30.5214 0.0000 0.0000
# 5 0.0000 0.0000 0.0000 0.0000 35.7453 0.0000
# 6 0.0000 0.0000 0.0000 0.0000 0.0000 19.7256
#
#
#
# Elastic Compliance Matrix: (Units=1/GPa)
#
#
# Indices 1 2 3 4 5 6 
#
# 1 0.043872 -0.012603 -0.007050 0.000000 0.000000 0.000000
# 2 -0.012603 0.021402 -0.004909 0.000000 0.000000 0.000000
# 3 -0.007050 -0.004909 0.009447 0.000000 0.000000 0.000000
# 4 0.000000 0.000000 0.000000 0.032764 0.000000 0.000000
# 5 0.000000 0.000000 0.000000 0.000000 0.027976 0.000000
# 6 0.000000 0.000000 0.000000 0.000000 0.000000 0.050695
#
#
# Mechanical properties :
#
#
# Convention : Reuss Voigt Hill
#
# Bulk Modulus (GPa) = 39.06477 67.63335 53.34906
# Shear Modulus (GPa) = 20.50761 27.13492 23.82127
#
# Velocity S-wave (km/s) = 3.45116 3.96983 3.71955
# Velocity P-wave (km/s) = 6.21039 7.76486 7.03072
#
# Compressibility (1/GPa) = 0.02559851
#
# Stress axis : x y z
#
# Youngs Moduli (GPa) = 22.79342 46.72545 105.85007
#
# Poissons Ratio (x) = 0.58888 0.74620
# Poissons Ratio (y) = 0.28726 0.51960
# Poissons Ratio (z) = 0.16068 0.22937
#
# Static dielectric constant tensor:
#      x y z
#    x 1.577830 0.000000 0.000000 
#    y 0.000000 1.569160 0.000000 
#    z 0.000000 0.000000 1.570640 
# 
# From -- ./inp_files/21499.got.cif
#   From: 2010.05.17/outbox.cif.g08.bks.cpg/sg51_11_cif.got.tgz:21499.got - 2010.06.03 11:52:47.
