data_PCOD9402640
_publ_section_title
;
Structure prediction by ZEFSAII (Michael W. Deem and Ramdas Pophale) SiO2 
 PCOD9402640
Probable space group: P M M A
;
_chemical_formula_sum "Si O2"
_cell_formula_units_Z 40
_cell_length_a 9.011777
_cell_length_b 13.717205
_cell_length_c 20.287957
_cell_angle_alpha 90.000000
_cell_angle_beta 90.000000
_cell_angle_gamma 90.000000
_cell_volume 2507.924056
_symmetry_space_group_name_H-M "P M M A"
_symmetry_group_IT_number 51
_symmetry_cell_setting 'orthorhombic'
loop_
_space_group_symop_operation_xyz
x,y,z
1/2-x,-y,z
1/2+x,-y,-z
-x,y,-z
-x,-y,-z
1/2+x,y,-z
1/2-x,y,z
x,-y,z
loop_
_atom_site_type_symbol
_atom_site_label
_atom_site_fract_x
_atom_site_fract_y
_atom_site_fract_z
Si Si1 0.426687 0.279304 0.825233
Si Si2 0.927975 0.385386 0.705388
Si Si3 0.916809 0.384632 0.935768
Si Si4 0.072466 0.113211 0.928512
Si Si5 0.080129 0.381959 0.566434
O O1 0.250000 0.276337 0.816317
O O2 0.504361 0.308944 0.757210
O O3 0.479299 0.364157 0.874306
O O4 0.473157 0.183754 0.868029
O O5 0.750000 0.381103 0.707110
O O6 0.969462 0.500000 0.719900
O O7 0.989322 0.361356 0.632762
O O8 0.750000 0.344260 0.927766
O O9 0.902281 0.500000 0.943679
O O10 0.000000 0.345767 0.000000
O O11 0.250000 0.125155 0.935871
O O12 0.041086 0.000000 0.912546
O O13 0.000000 0.132627 0.000000
O O14 0.250000 0.347462 0.570861
O O15 0.085235 0.500000 0.561952
O O16 0.000000 0.346579 0.500000
#
# Coordination Sequence:
#
# PCOD9402640 Si02
#       5
#     8   8   8   8   8
#     4  11  21  31  46  66  88 115 146 183 227 272
#     4  10  20  32  45  64  93 127 159 190 224 263
#     4  10  20  32  44  59  82 113 147 181 216 257
#     4   9  19  35  52  69  88 111 143 185 233 282
#     4   9  16  27  44  65  90 122 159 194 225 259
#
# _framework density 15.949445000000001
#
# number of rings (size 3 to 8) (size 9 to 14) (size 15 to 20)
#    0.000    2.200    0.000    3.600    0.000   10.400 
#    0.000    0.000    0.000    0.000    0.000    0.000 
#    0.000    0.800    0.000    2.200    0.000    3.200 
#
# Total GULP energy -222867.944530 kJ/mol
# GULP energy per Si atom -5571.698613 kJ/mol
# Density = 1.591314 g / cm^3
# Si number density = 15.949445 Si / 1000 Ang^3
#
#
#
# Elastic Constant Matrix: (Units=GPa)
#
#
# Indices 1 2 3 4 5 6 
#
# 1 70.4025 37.0351 52.3249 0.0000 0.0000 0.0000
# 2 37.0351 66.2490 44.8570 0.0000 0.0000 0.0000
# 3 52.3249 44.8570 139.4712 0.0000 0.0000 0.0000
# 4 0.0000 0.0000 0.0000 38.2418 0.0000 0.0000
# 5 0.0000 0.0000 0.0000 0.0000 30.5726 0.0000
# 6 0.0000 0.0000 0.0000 0.0000 0.0000 31.2272
#
#
#
# Elastic Compliance Matrix: (Units=1/GPa)
#
#
# Indices 1 2 3 4 5 6 
#
# 1 0.023314 -0.009090 -0.005823 0.000000 0.000000 0.000000
# 2 -0.009090 0.022841 -0.003936 0.000000 0.000000 0.000000
# 3 -0.005823 -0.003936 0.010620 0.000000 0.000000 0.000000
# 4 0.000000 0.000000 0.000000 0.026149 0.000000 0.000000
# 5 0.000000 0.000000 0.000000 0.000000 0.032709 0.000000
# 6 0.000000 0.000000 0.000000 0.000000 0.000000 0.032023
#
#
# Mechanical properties :
#
#
# Convention : Reuss Voigt Hill
#
# Bulk Modulus (GPa) = 52.41872 60.50630 56.46251
# Shear Modulus (GPa) = 26.08047 29.46871 27.77459
#
# Velocity S-wave (km/s) = 4.04814 4.30307 4.17755
# Velocity P-wave (km/s) = 7.40181 7.91879 7.66466
#
# Compressibility (1/GPa) = 0.01907715
#
# Stress axis : x y z
#
# Youngs Moduli (GPa) = 42.89326 43.78028 94.15903
#
# Poissons Ratio (x) = 0.39798 0.54827
# Poissons Ratio (y) = 0.38992 0.37060
# Poissons Ratio (z) = 0.24976 0.17231
#
# Static dielectric constant tensor:
#      x y z
#    x 1.553900 0.000000 0.000000 
#    y 0.000000 1.550680 0.000000 
#    z 0.000000 0.000000 1.497540 
# 
# From -- ./inp_files/27221.got.cif
#   From: 2010.05.17/outbox.cif.g08.bks.cpg/sg51_14_cif.got.tgz:27221.got - 2010.06.03 11:52:47.
