data_PCOD9402600
_publ_section_title
;
Structure prediction by ZEFSAII (Michael W. Deem and Ramdas Pophale) SiO2 
 PCOD9402600
Probable space group: P M M A
;
_chemical_formula_sum "Si O2"
_cell_formula_units_Z 44
_cell_length_a 7.522244
_cell_length_b 8.461232
_cell_length_c 31.140019
_cell_angle_alpha 90.000000
_cell_angle_beta 90.000000
_cell_angle_gamma 90.000000
_cell_volume 1981.982854
_symmetry_space_group_name_H-M "P M M A"
_symmetry_group_IT_number 51
_symmetry_cell_setting 'orthorhombic'
loop_
_space_group_symop_operation_xyz
x,y,z
1/2-x,-y,z
1/2+x,-y,-z
-x,y,-z
-x,-y,-z
1/2+x,y,-z
1/2-x,y,z
x,-y,z
loop_
_atom_site_type_symbol
_atom_site_label
_atom_site_fract_x
_atom_site_fract_y
_atom_site_fract_z
Si Si1 0.533102 0.325103 0.904800
Si Si2 0.537365 0.000000 0.949617
Si Si3 0.966727 0.823777 0.817732
Si Si4 0.462595 0.817286 0.546236
Si Si5 0.963885 0.183102 0.361343
Si Si6 0.461124 0.325051 0.269184
O O1 0.750000 0.325822 0.907074
O O2 0.474007 0.500000 0.919513
O O3 0.482651 0.297433 0.854966
O O4 0.472065 0.166789 0.929635
O O5 0.750000 0.000000 0.942007
O O6 0.500000 0.000000 0.000000
O O7 0.750000 0.825728 0.817462
O O8 0.029204 0.781375 0.769891
O O9 0.024356 0.000000 0.829662
O O10 0.500000 0.741147 0.500000
O O11 0.250000 0.824814 0.548758
O O12 0.524877 0.750140 0.592197
O O13 0.529400 0.000000 0.544476
O O14 0.750000 0.185455 0.361757
O O15 0.016531 0.265000 0.317459
O O16 0.020881 0.000000 0.359540
O O17 0.250000 0.333823 0.262329
O O18 0.537010 0.500000 0.265449
#
# Coordination Sequence:
#
# PCOD9402600 Si02
#       6
#     8   4   8   8   8   8
#     4   9  16  28  48  74 103 134 170 211 254 303
#     4  10  20  34  52  76 104 136 174 214 257 302
#     4   9  15  26  46  72 100 127 159 202 249 294
#     4   8  14  25  42  65  90 115 147 191 240 289
#     4   9  18  32  48  67  94 127 161 195 237 294
#     4  10  20  31  45  70 100 127 158 199 245 289
#
# _framework density 22.19999
#
# number of rings (size 3 to 8) (size 9 to 14) (size 15 to 20)
#    0.000    2.909    0.909    2.182    0.000    4.727 
#    0.000    1.818    0.000    1.636    0.000    0.000 
#    0.000    0.000    0.000    0.000    0.000    0.000 
#
# Total GULP energy -245237.149956 kJ/mol
# GULP energy per Si atom -5573.571590 kJ/mol
# Density = 2.214946 g / cm^3
# Si number density = 22.199990 Si / 1000 Ang^3
#
#
#
# Elastic Constant Matrix: (Units=GPa)
#
#
# Indices 1 2 3 4 5 6 
#
# 1 51.7605 4.3316 -4.0912 0.0000 0.0000 0.0000
# 2 4.3316 127.7189 67.0619 0.0000 0.0000 0.0000
# 3 -4.0912 67.0619 149.9717 0.0000 0.0000 0.0000
# 4 0.0000 0.0000 0.0000 3.1353 0.0000 0.0000
# 5 0.0000 0.0000 0.0000 0.0000 14.8553 0.0000
# 6 0.0000 0.0000 0.0000 0.0000 0.0000 -25.2636
#
#
#
# Elastic Compliance Matrix: (Units=1/GPa)
#
#
# Indices 1 2 3 4 5 6 
#
# 1 0.019508 -0.001230 0.001082 0.000000 0.000000 0.000000
# 2 -0.001230 0.010310 -0.004644 0.000000 0.000000 0.000000
# 3 0.001082 -0.004644 0.008774 0.000000 0.000000 0.000000
# 4 0.000000 0.000000 0.000000 0.318946 0.000000 0.000000
# 5 0.000000 0.000000 0.000000 0.000000 0.067316 0.000000
# 6 0.000000 0.000000 0.000000 0.000000 0.000000 -0.039583
#
#
# Mechanical properties :
#
#
# Convention : Reuss Voigt Hill
#
# Bulk Modulus (GPa) = 34.47197 51.56174 43.01685
# Shear Modulus (GPa) = 12.36022 16.02198 14.19110
#
# Velocity S-wave (km/s) = 2.36215 2.68938 2.53106
# Velocity P-wave (km/s) = 4.79597 5.73761 5.28779
#
# Compressibility (1/GPa) = 0.02900908
#
# Stress axis : x y z
#
# Youngs Moduli (GPa) = 51.26047 96.99624 113.97405
#
# Poissons Ratio (x) = 0.11929 -0.12333
# Poissons Ratio (y) = 0.06304 0.52926
# Poissons Ratio (z) = -0.05547 0.45042
#
# Static dielectric constant tensor:
#      x y z
#    x 1.847540 0.000000 0.000000 
#    y 0.000000 1.814600 0.000000 
#    z 0.000000 0.000000 1.834540 
# 
# From -- ./inp_files/36719.got.cif
#   From: 2010.05.17/outbox.cif.g08.bks.cpg/sg51_19_cif.got.tgz:36719.got - 2010.06.03 11:52:47.
