data_PCOD9402056
_publ_section_title
;
Structure prediction by ZEFSAII (Michael W. Deem and Ramdas Pophale) SiO2 
 PCOD9402056
Probable space group: P M M A
;
_chemical_formula_sum "Si O2"
_cell_formula_units_Z 36
_cell_length_a 8.461110
_cell_length_b 24.106487
_cell_length_c 9.421609
_cell_angle_alpha 90.000000
_cell_angle_beta 90.000000
_cell_angle_gamma 90.000000
_cell_volume 1921.703336
_symmetry_space_group_name_H-M "P M M A"
_symmetry_group_IT_number 51
_symmetry_cell_setting 'orthorhombic'
loop_
_space_group_symop_operation_xyz
x,y,z
1/2-x,-y,z
1/2+x,-y,-z
-x,y,-z
-x,-y,-z
1/2+x,y,-z
1/2-x,y,z
x,-y,z
loop_
_atom_site_type_symbol
_atom_site_label
_atom_site_fract_x
_atom_site_fract_y
_atom_site_fract_z
Si Si1 0.559051 0.937338 0.340861
Si Si2 0.559942 0.378603 0.837677
Si Si3 0.559662 0.500000 0.838212
Si Si4 0.439293 0.725516 0.660286
Si Si5 0.941091 0.167501 0.159921
O O1 0.500000 0.925704 0.500000
O O2 0.750000 0.936761 0.342839
O O3 0.504895 0.889591 0.234016
O O4 0.507648 0.000000 0.302505
O O5 0.750000 0.376562 0.839906
O O6 0.509069 0.439821 0.780771
O O7 0.496278 0.329181 0.742006
O O8 0.500000 0.372881 0.000000
O O9 0.750000 0.500000 0.837375
O O10 0.500000 0.500000 0.000000
O O11 0.500000 0.726747 0.500000
O O12 0.250000 0.725907 0.658503
O O13 0.493951 0.779937 0.746657
O O14 0.750000 0.167459 0.158791
O O15 0.000000 0.172119 0.000000
#
# Coordination Sequence:
#
# PCOD9402056 Si02
#       5
#     8   8   4   8   8
#     4   9  18  34  55  79 107 139 175 214 257 307
#     4  10  19  34  56  82 110 140 176 217 261 311
#     4   8  16  30  51  78 107 138 172 212 258 308
#     4  11  23  38  55  77 105 139 178 220 268 319
#     4  10  22  37  54  78 107 138 174 217 263 311
#
# _framework density 18.73338
#
# number of rings (size 3 to 8) (size 9 to 14) (size 15 to 20)
#    0.000    2.222    0.000    2.667    0.000    5.778 
#    0.000    0.556    0.000    0.000    0.000    0.000 
#    0.000    0.000    0.000    0.000    0.000    0.000 
#
# Total GULP energy -200887.134993 kJ/mol
# GULP energy per Si atom -5580.198194 kJ/mol
# Density = 1.869074 g / cm^3
# Si number density = 18.733380 Si / 1000 Ang^3
#
#
#
# Elastic Constant Matrix: (Units=GPa)
#
#
# Indices 1 2 3 4 5 6 
#
# 1 23.3319 34.3193 24.7629 0.0000 0.0000 0.0000
# 2 34.3193 202.5957 122.9145 0.0000 0.0000 0.0000
# 3 24.7629 122.9145 143.2081 0.0000 0.0000 0.0000
# 4 0.0000 0.0000 0.0000 6.2021 0.0000 0.0000
# 5 0.0000 0.0000 0.0000 0.0000 33.9283 0.0000
# 6 0.0000 0.0000 0.0000 0.0000 0.0000 31.1331
#
#
#
# Elastic Compliance Matrix: (Units=1/GPa)
#
#
# Indices 1 2 3 4 5 6 
#
# 1 0.057830 -0.007782 -0.003321 0.000000 0.000000 0.000000
# 2 -0.007782 0.011346 -0.008393 0.000000 0.000000 0.000000
# 3 -0.003321 -0.008393 0.014760 0.000000 0.000000 0.000000
# 4 0.000000 0.000000 0.000000 0.161235 0.000000 0.000000
# 5 0.000000 0.000000 0.000000 0.000000 0.029474 0.000000
# 6 0.000000 0.000000 0.000000 0.000000 0.000000 0.032120
#
#
# Mechanical properties :
#
#
# Convention : Reuss Voigt Hill
#
# Bulk Modulus (GPa) = 22.24866 81.45879 51.85372
# Shear Modulus (GPa) = 13.86047 26.72863 20.29455
#
# Velocity S-wave (km/s) = 2.72303 3.78139 3.29498
# Velocity P-wave (km/s) = 4.66784 7.91472 6.49737
#
# Compressibility (1/GPa) = 0.04494653
#
# Stress axis : x y z
#
# Youngs Moduli (GPa) = 17.29197 88.13807 67.74922
#
# Poissons Ratio (x) = 0.68585 0.22499
# Poissons Ratio (y) = 0.13456 0.56859
# Poissons Ratio (z) = 0.05743 0.73970
#
# Static dielectric constant tensor:
#      x y z
#    x 1.646530 0.000000 0.000000 
#    y 0.000000 1.685070 0.000000 
#    z 0.000000 0.000000 1.589860 
# 
# From -- ./inp_files/5237.got.cif
#   From: 2010.05.17/outbox.cif.g08.bks.cpg/sg51_3_cif.got.tgz:5237.got - 2010.06.03 11:52:47.
