data_PCOD9402078
_publ_section_title
;
Structure prediction by ZEFSAII (Michael W. Deem and Ramdas Pophale) SiO2 
 PCOD9402078
Probable space group: P M M A
;
_chemical_formula_sum "Si O2"
_cell_formula_units_Z 48
_cell_length_a 21.224420
_cell_length_b 8.422788
_cell_length_c 14.506065
_cell_angle_alpha 90.000000
_cell_angle_beta 90.000000
_cell_angle_gamma 90.000000
_cell_volume 2593.231689
_symmetry_space_group_name_H-M "P M M A"
_symmetry_group_IT_number 51
_symmetry_cell_setting 'orthorhombic'
loop_
_space_group_symop_operation_xyz
x,y,z
1/2-x,-y,z
1/2+x,-y,-z
-x,y,-z
-x,-y,-z
1/2+x,y,-z
1/2-x,y,z
x,-y,z
loop_
_atom_site_type_symbol
_atom_site_label
_atom_site_fract_x
_atom_site_fract_y
_atom_site_fract_z
Si Si1 0.125139 0.308510 0.211278
Si Si2 0.627058 0.310124 0.210322
Si Si3 0.000566 0.693783 0.893845
Si Si4 0.750000 0.692099 0.895617
Si Si5 0.927200 0.191315 0.604150
Si Si6 0.927118 0.191753 0.394592
Si Si7 0.250000 0.187933 0.894800
O O1 0.125361 0.500000 0.208705
O O2 0.062279 0.252410 0.158299
O O3 0.187512 0.252885 0.158359
O O4 0.117786 0.255896 0.316702
O O5 0.629586 0.500000 0.204426
O O6 0.563993 0.253995 0.157150
O O7 0.617551 0.259912 0.316095
O O8 0.688405 0.242736 0.160946
O O9 0.000329 0.500000 0.892525
O O10 0.000000 0.743813 0.000000
O O11 0.750000 0.500000 0.894133
O O12 0.750000 0.742404 0.001936
O O13 0.911221 0.239610 0.499456
O O14 0.999942 0.241846 0.622553
O O15 0.926601 0.000000 0.606740
O O16 0.925594 0.000000 0.390506
O O17 0.250000 0.000000 0.902033
#
# Coordination Sequence:
#
# PCOD9402078 Si02
#       7
#     8   8   8   4   8   8   4
#     4  10  19  34  56  84 113 147 190 237 286 332
#     4  11  21  36  59  85 112 146 189 238 287 336
#     4   9  17  30  51  79 109 138 177 231 285 333
#     4  10  22  40  61  82 113 154 191 230 280 338
#     4   9  18  33  55  82 116 154 187 229 284 342
#     4   9  18  34  55  82 116 152 189 231 285 339
#     4  12  26  42  59  80 113 154 191 230 280 344
#
# _framework density 18.509723999999999
#
# number of rings (size 3 to 8) (size 9 to 14) (size 15 to 20)
#    0.000    2.167    1.667    3.250    0.000    4.000 
#    0.000    2.500    0.000    6.500    0.000    0.000 
#    0.000    0.000    0.000    0.000    0.000    0.000 
#
# Total GULP energy -267944.030236 kJ/mol
# GULP energy per Si atom -5582.167297 kJ/mol
# Density = 1.846759 g / cm^3
# Si number density = 18.509724 Si / 1000 Ang^3
#
#
#
# Elastic Constant Matrix: (Units=GPa)
#
#
# Indices 1 2 3 4 5 6 
#
# 1 155.2732 24.9525 97.5879 0.0000 0.0000 0.0000
# 2 24.9525 15.1924 17.2801 0.0000 0.0000 0.0000
# 3 97.5879 17.2801 172.3693 0.0000 0.0000 0.0000
# 4 0.0000 0.0000 0.0000 36.9253 0.0000 0.0000
# 5 0.0000 0.0000 0.0000 0.0000 32.1558 0.0000
# 6 0.0000 0.0000 0.0000 0.0000 0.0000 12.3050
#
#
#
# Elastic Compliance Matrix: (Units=1/GPa)
#
#
# Indices 1 2 3 4 5 6 
#
# 1 0.012059 -0.013590 -0.005465 0.000000 0.000000 0.000000
# 2 -0.013590 0.089609 -0.001289 0.000000 0.000000 0.000000
# 3 -0.005465 -0.001289 0.009025 0.000000 0.000000 0.000000
# 4 0.000000 0.000000 0.000000 0.027082 0.000000 0.000000
# 5 0.000000 0.000000 0.000000 0.000000 0.031099 0.000000
# 6 0.000000 0.000000 0.000000 0.000000 0.000000 0.081268
#
#
# Mechanical properties :
#
#
# Convention : Reuss Voigt Hill
#
# Bulk Modulus (GPa) = 14.28479 69.16400 41.72440
# Shear Modulus (GPa) = 15.91530 29.81151 22.86340
#
# Velocity S-wave (km/s) = 2.93547 4.01756 3.51837
# Velocity P-wave (km/s) = 4.38447 7.67910 6.25268
#
# Compressibility (1/GPa) = 0.07000451
#
# Stress axis : x y z
#
# Youngs Moduli (GPa) = 82.92784 11.15958 110.80784
#
# Poissons Ratio (x) = 0.15166 0.60553
# Poissons Ratio (y) = 1.12698 0.14287
# Poissons Ratio (z) = 0.45318 0.01439
#
# Static dielectric constant tensor:
#      x y z
#    x 1.624930 0.000000 0.000000 
#    y 0.000000 1.635160 0.000000 
#    z 0.000000 0.000000 1.630210 
# 
# From -- ./inp_files/24992.got.cif
#   From: 2010.05.17/outbox.cif.g08.bks.cpg/sg51_13_cif.got.tgz:24992.got - 2010.06.03 11:52:47.
