data_PCOD9402283
_publ_section_title
;
Structure prediction by ZEFSAII (Michael W. Deem and Ramdas Pophale) SiO2 
 PCOD9402283
Probable space group: P M M A
;
_chemical_formula_sum "Si O2"
_cell_formula_units_Z 48
_cell_length_a 17.577567
_cell_length_b 8.003472
_cell_length_c 15.944962
_cell_angle_alpha 90.000000
_cell_angle_beta 90.000000
_cell_angle_gamma 90.000000
_cell_volume 2243.162213
_symmetry_space_group_name_H-M "P M M A"
_symmetry_group_IT_number 51
_symmetry_cell_setting 'orthorhombic'
loop_
_space_group_symop_operation_xyz
x,y,z
1/2-x,-y,z
1/2+x,-y,-z
-x,y,-z
-x,-y,-z
1/2+x,y,-z
1/2-x,y,z
x,-y,z
loop_
_atom_site_type_symbol
_atom_site_label
_atom_site_fract_x
_atom_site_fract_y
_atom_site_fract_z
Si Si1 0.421294 0.794874 0.050572
Si Si2 0.750000 0.675284 0.167868
Si Si3 0.048840 0.191909 0.236489
Si Si4 0.053327 0.195621 0.424063
Si Si5 0.122623 0.186385 0.726932
Si Si6 0.250000 0.186656 0.000600
Si Si7 0.837440 0.698979 0.448431
O O1 0.424072 0.737136 0.147978
O O2 0.423233 0.000000 0.048266
O O3 0.500000 0.744128 0.000000
O O4 0.335742 0.743712 0.019991
O O5 0.750000 0.500000 0.120917
O O6 0.678172 0.689539 0.227354
O O7 0.750000 0.817737 0.099811
O O8 0.058969 0.268229 0.329923
O O9 0.957860 0.185208 0.228572
O O10 0.078341 0.000000 0.241218
O O11 0.135045 0.212909 0.467571
O O12 0.000000 0.267476 0.500000
O O13 0.030975 0.000000 0.414149
O O14 0.114354 0.236423 0.630375
O O15 0.155002 0.000000 0.729843
O O16 0.250000 0.000000 0.038206
O O17 0.750000 0.737308 0.428790
O O18 0.845437 0.500000 0.456824
#
# Coordination Sequence:
#
# PCOD9402283 Si02
#       7
#     8   4   8   8   8   4   8
#     4   9  17  32  56  86 117 143 184 247 298 342
#     4  12  24  36  52  83 120 147 180 235 294 346
#     4   9  18  33  55  84 114 143 184 242 294 336
#     4  10  19  35  56  81 112 149 193 238 285 346
#     4  11  20  34  58  83 111 148 189 231 285 349
#     4  10  20  36  60  85 108 147 196 233 292 362
#     4  11  23  37  52  77 116 153 189 239 292 341
#
# _framework density 21.398363
#
# number of rings (size 3 to 8) (size 9 to 14) (size 15 to 20)
#    0.000    1.833    2.500    2.750    0.000    4.000 
#    1.500    0.000    0.000    6.500    0.000    0.000 
#    0.000    0.000    0.000    0.000    0.000    0.000 
#
# Total GULP energy -267263.178711 kJ/mol
# GULP energy per Si atom -5567.982890 kJ/mol
# Density = 2.134966 g / cm^3
# Si number density = 21.398363 Si / 1000 Ang^3
#
#
#
# Elastic Constant Matrix: (Units=GPa)
#
#
# Indices 1 2 3 4 5 6 
#
# 1 93.6195 11.1481 49.3793 0.0000 0.0000 0.0000
# 2 11.1481 34.6424 9.2655 0.0000 0.0000 0.0000
# 3 49.3793 9.2655 153.5679 0.0000 0.0000 0.0000
# 4 0.0000 0.0000 0.0000 0.2852 0.0000 0.0000
# 5 0.0000 0.0000 0.0000 0.0000 15.2836 0.0000
# 6 0.0000 0.0000 0.0000 0.0000 0.0000 16.6142
#
#
#
# Elastic Compliance Matrix: (Units=1/GPa)
#
#
# Indices 1 2 3 4 5 6 
#
# 1 0.013195 -0.003163 -0.004052 0.000000 0.000000 0.000000
# 2 -0.003163 0.030098 -0.000799 0.000000 0.000000 0.000000
# 3 -0.004052 -0.000799 0.007863 0.000000 0.000000 0.000000
# 4 0.000000 0.000000 0.000000 3.505719 0.000000 0.000000
# 5 0.000000 0.000000 0.000000 0.000000 0.065430 0.000000
# 6 0.000000 0.000000 0.000000 0.000000 0.000000 0.060189
#
#
# Mechanical properties :
#
#
# Convention : Reuss Voigt Hill
#
# Bulk Modulus (GPa) = 28.46676 46.82393 37.64535
# Shear Modulus (GPa) = 1.34762 20.57240 10.96001
#
# Velocity S-wave (km/s) = 0.79445 3.10401 2.26562
# Velocity P-wave (km/s) = 3.76479 5.89712 4.94720
#
# Compressibility (1/GPa) = 0.03512869
#
# Stress axis : x y z
#
# Youngs Moduli (GPa) = 75.78388 33.22503 127.17893
#
# Poissons Ratio (x) = 0.10508 0.51535
# Poissons Ratio (y) = 0.23967 0.10162
# Poissons Ratio (z) = 0.30709 0.02655
#
# Static dielectric constant tensor:
#      x y z
#    x 1.815070 0.000000 0.000000 
#    y 0.000000 1.787660 0.000000 
#    z 0.000000 0.000000 1.767300 
# 
# From -- ./inp_files/24973.got.cif
#   From: 2010.05.17/outbox.cif.g08.bks.cpg/sg51_13_cif.got.tgz:24973.got - 2010.06.03 11:52:47.
