data_PCOD9402732
_publ_section_title
;
Structure prediction by ZEFSAII (Michael W. Deem and Ramdas Pophale) SiO2 
 PCOD9402732
Probable space group: P M M A
;
_chemical_formula_sum "Si O2"
_cell_formula_units_Z 48
_cell_length_a 14.616153
_cell_length_b 9.432152
_cell_length_c 16.144014
_cell_angle_alpha 90.000000
_cell_angle_beta 90.000000
_cell_angle_gamma 90.000000
_cell_volume 2225.642454
_symmetry_space_group_name_H-M "P M M A"
_symmetry_group_IT_number 51
_symmetry_cell_setting 'orthorhombic'
loop_
_space_group_symop_operation_xyz
x,y,z
1/2-x,-y,z
1/2+x,-y,-z
-x,y,-z
-x,-y,-z
1/2+x,y,-z
1/2-x,y,z
x,-y,z
loop_
_atom_site_type_symbol
_atom_site_label
_atom_site_fract_x
_atom_site_fract_y
_atom_site_fract_z
Si Si1 0.362200 0.161862 0.899087
Si Si2 0.643582 0.658069 0.255095
Si Si3 0.859510 0.161994 0.779700
Si Si4 0.614704 0.164382 0.417547
Si Si5 0.638017 0.337755 0.938809
Si Si6 0.395674 0.163241 0.401708
O O1 0.250000 0.156918 0.898293
O O2 0.394855 0.238497 0.815297
O O3 0.393925 0.000000 0.903949
O O4 0.388996 0.252641 0.979041
O O5 0.750000 0.641867 0.232330
O O6 0.602456 0.500000 0.257333
O O7 0.643044 0.734636 0.343486
O O8 0.750000 0.151579 0.788700
O O9 0.892131 0.255837 0.856222
O O10 0.875742 0.226606 0.688194
O O11 0.896587 0.000000 0.782367
O O12 0.504758 0.160559 0.411435
O O13 0.640272 0.217565 0.509813
O O14 0.645009 0.000000 0.407430
O O15 0.750000 0.340180 0.938347
O O16 0.606662 0.500000 0.940430
O O17 0.362674 0.000000 0.396803
#
# Coordination Sequence:
#
# PCOD9402732 Si02
#       6
#     8   8   8   8   8   8
#     4   9  16  27  45  68  92 121 157 191 226 275
#     4  10  20  32  46  69 100 127 153 192 239 280
#     4   9  16  27  45  69  95 123 156 192 230 274
#     4   9  17  32  52  70  91 123 162 198 234 280
#     4   9  16  26  41  64  95 126 153 186 230 275
#     4   8  16  31  50  71  94 122 158 199 237 274
#
# _framework density 21.566807000000001
#
# number of rings (size 3 to 8) (size 9 to 14) (size 15 to 20)
#    0.000    3.000    0.000    2.500    0.000    5.667 
#    0.000    5.000    0.000    3.000    0.000    7.000 
#    0.000    0.000    0.000    0.000    0.000    0.000 
#
# Total GULP energy -267774.433904 kJ/mol
# GULP energy per Si atom -5578.634040 kJ/mol
# Density = 2.151772 g / cm^3
# Si number density = 21.566807 Si / 1000 Ang^3
#
#
#
# Elastic Constant Matrix: (Units=GPa)
#
#
# Indices 1 2 3 4 5 6 
#
# 1 45.1860 1.4786 -8.9525 0.0000 0.0000 0.0000
# 2 1.4786 155.1075 116.0934 0.0000 0.0000 0.0000
# 3 -8.9525 116.0934 228.9734 0.0000 0.0000 0.0000
# 4 0.0000 0.0000 0.0000 -48.1626 0.0000 0.0000
# 5 0.0000 0.0000 0.0000 0.0000 34.9810 0.0000
# 6 0.0000 0.0000 0.0000 0.0000 0.0000 5.3415
#
#
#
# Elastic Compliance Matrix: (Units=1/GPa)
#
#
# Indices 1 2 3 4 5 6 
#
# 1 0.022492 -0.001406 0.001592 0.000000 0.000000 0.000000
# 2 -0.001406 0.010478 -0.005367 0.000000 0.000000 0.000000
# 3 0.001592 -0.005367 0.007151 0.000000 0.000000 0.000000
# 4 0.000000 0.000000 0.000000 -0.020763 0.000000 0.000000
# 5 0.000000 0.000000 0.000000 0.000000 0.028587 0.000000
# 6 0.000000 0.000000 0.000000 0.000000 0.000000 0.187213
#
#
# Mechanical properties :
#
#
# Convention : Reuss Voigt Hill
#
# Bulk Modulus (GPa) = 33.60386 71.83401 52.71893
# Shear Modulus (GPa) = 19.57400 19.80846 19.69123
#
# Velocity S-wave (km/s) = 3.01591 3.03391 3.02492
# Velocity P-wave (km/s) = 5.26713 6.75669 6.05787
#
# Compressibility (1/GPa) = 0.02975849
#
# Stress axis : x y z
#
# Youngs Moduli (GPa) = 44.45973 95.43856 139.84094
#
# Poissons Ratio (x) = 0.13422 -0.22269
# Poissons Ratio (y) = 0.06252 0.75059
# Poissons Ratio (z) = -0.07080 0.51226
#
# Static dielectric constant tensor:
#      x y z
#    x 1.865970 0.000000 0.000000 
#    y 0.000000 1.750700 0.000000 
#    z 0.000000 0.000000 1.784650 
# 
# From -- ./inp_files/24749.got.cif
#   From: 2010.05.17/outbox.cif.g08.bks.cpg/sg51_13_cif.got.tgz:24749.got - 2010.06.03 11:52:47.
