data_PCOD9402975
_publ_section_title
;
Structure prediction by ZEFSAII (Michael W. Deem and Ramdas Pophale) SiO2 
 PCOD9402975
Probable space group: P M M A
;
_chemical_formula_sum "Si O2"
_cell_formula_units_Z 32
_cell_length_a 7.899083
_cell_length_b 7.620737
_cell_length_c 25.112483
_cell_angle_alpha 90.000000
_cell_angle_beta 90.000000
_cell_angle_gamma 90.000000
_cell_volume 1511.691973
_symmetry_space_group_name_H-M "P M M A"
_symmetry_group_IT_number 51
_symmetry_cell_setting 'orthorhombic'
loop_
_space_group_symop_operation_xyz
x,y,z
1/2-x,-y,z
1/2+x,-y,-z
-x,y,-z
-x,-y,-z
1/2+x,y,-z
1/2-x,y,z
x,-y,z
loop_
_atom_site_type_symbol
_atom_site_label
_atom_site_fract_x
_atom_site_fract_y
_atom_site_fract_z
Si Si1 0.442234 0.785651 0.559352
Si Si2 0.750000 0.289528 0.757038
Si Si3 0.750000 0.788557 0.632699
Si Si4 0.452888 0.799753 0.943397
Si Si5 0.941320 0.293742 0.174362
O O1 0.500000 0.733850 0.500000
O O2 0.250000 0.728088 0.569904
O O3 0.581937 0.726351 0.601807
O O4 0.441362 0.000000 0.559905
O O5 0.750000 0.500000 0.765587
O O6 0.750000 0.257807 0.694417
O O7 0.581274 0.218872 0.785887
O O8 0.750000 0.000000 0.628681
O O9 0.250000 0.802347 0.942398
O O10 0.503887 0.721394 0.886779
O O11 0.518522 0.000000 0.944137
O O12 0.500000 0.716032 0.000000
O O13 0.750000 0.218496 0.178350
O O14 0.926201 0.500000 0.185882
#
# Coordination Sequence:
#
# PCOD9402975 Si02
#       5
#     8   4   4   8   8
#     4   9  15  26  47  76 108 136 163 204 253 295
#     4  10  22  38  54  72 100 138 175 210 251 298
#     4  10  20  32  50  80 106 130 171 210 247 298
#     4   9  18  31  48  74 104 130 158 199 255 310
#     4   9  19  36  54  71  94 129 172 212 249 293
#
# _framework density 21.168331999999999
#
# number of rings (size 3 to 8) (size 9 to 14) (size 15 to 20)
#    0.000    2.750    1.250    0.000    1.750    2.500 
#    0.000    0.000    0.000    0.750    0.000    0.000 
#    0.000    0.000    0.000    0.000    0.000    0.000 
#
# Total GULP energy -178492.432440 kJ/mol
# GULP energy per Si atom -5577.888514 kJ/mol
# Density = 2.112015 g / cm^3
# Si number density = 21.168332 Si / 1000 Ang^3
#
#
#
# Elastic Constant Matrix: (Units=GPa)
#
#
# Indices 1 2 3 4 5 6 
#
# 1 172.0662 9.9562 119.8954 0.0000 0.0000 0.0000
# 2 9.9562 39.0611 -4.3161 0.0000 0.0000 0.0000
# 3 119.8954 -4.3161 196.6375 0.0000 0.0000 0.0000
# 4 0.0000 0.0000 0.0000 29.8147 0.0000 0.0000
# 5 0.0000 0.0000 0.0000 0.0000 40.5857 0.0000
# 6 0.0000 0.0000 0.0000 0.0000 0.0000 60.1345
#
#
#
# Elastic Compliance Matrix: (Units=1/GPa)
#
#
# Indices 1 2 3 4 5 6 
#
# 1 0.010538 -0.003404 -0.006500 0.000000 0.000000 0.000000
# 2 -0.003404 0.026763 0.002663 0.000000 0.000000 0.000000
# 3 -0.006500 0.002663 0.009107 0.000000 0.000000 0.000000
# 4 0.000000 0.000000 0.000000 0.033541 0.000000 0.000000
# 5 0.000000 0.000000 0.000000 0.000000 0.024639 0.000000
# 6 0.000000 0.000000 0.000000 0.000000 0.000000 0.016629
#
#
# Mechanical properties :
#
#
# Convention : Reuss Voigt Hill
#
# Bulk Modulus (GPa) = 31.32270 73.20396 52.26333
# Shear Modulus (GPa) = 34.16678 44.92226 39.54452
#
# Velocity S-wave (km/s) = 4.02188 4.61167 4.32684
# Velocity P-wave (km/s) = 6.03295 7.93811 7.05018
#
# Compressibility (1/GPa) = 0.03192573
#
# Stress axis : x y z
#
# Youngs Moduli (GPa) = 94.89621 37.36522 109.80394
#
# Poissons Ratio (x) = 0.12720 0.71372
# Poissons Ratio (y) = 0.32304 -0.29241
# Poissons Ratio (z) = 0.61682 -0.09951
#
# Static dielectric constant tensor:
#      x y z
#    x 1.778400 0.000000 0.000000 
#    y 0.000000 1.796940 0.000000 
#    z 0.000000 0.000000 1.726800 
# 
# From -- ./inp_files/26979.got.cif
#   From: 2010.05.17/outbox.cif.g08.bks.cpg/sg51_14_cif.got.tgz:26979.got - 2010.06.03 11:52:47.
