data_PCOD9402653
_publ_section_title
;
Structure prediction by ZEFSAII (Michael W. Deem and Ramdas Pophale) SiO2 
 PCOD9402653
Probable space group: P M M A
;
_chemical_formula_sum "Si O2"
_cell_formula_units_Z 64
_cell_length_a 13.943806
_cell_length_b 14.606680
_cell_length_c 21.562567
_cell_angle_alpha 90.000000
_cell_angle_beta 90.000000
_cell_angle_gamma 90.000000
_cell_volume 4391.706503
_symmetry_space_group_name_H-M "P M M A"
_symmetry_group_IT_number 51
_symmetry_cell_setting 'orthorhombic'
loop_
_space_group_symop_operation_xyz
x,y,z
1/2-x,-y,z
1/2+x,-y,-z
-x,y,-z
-x,-y,-z
1/2+x,y,-z
1/2-x,y,z
x,-y,z
loop_
_atom_site_type_symbol
_atom_site_label
_atom_site_fract_x
_atom_site_fract_y
_atom_site_fract_z
Si Si1 0.135645 0.711784 0.413449
Si Si2 0.856610 0.611388 0.964702
Si Si3 0.634571 0.394551 0.460501
Si Si4 0.634633 0.105266 0.376775
Si Si5 0.447621 0.611183 0.905011
Si Si6 0.865940 0.900175 0.522309
Si Si7 0.455351 0.290274 0.656411
Si Si8 0.636732 0.610121 0.227027
O O1 0.250000 0.707614 0.402139
O O2 0.112891 0.644543 0.471113
O O3 0.107278 0.812747 0.437976
O O4 0.068408 0.695004 0.354818
O O5 0.750000 0.642863 0.948336
O O6 0.856234 0.500000 0.963790
O O7 0.943478 0.640340 0.920096
O O8 0.884437 0.638002 0.035143
O O9 0.750000 0.390750 0.454559
O O10 0.604058 0.500000 0.454398
O O11 0.592159 0.333218 0.405772
O O12 0.750000 0.121248 0.371740
O O13 0.609487 0.111935 0.450084
O O14 0.577323 0.184436 0.341942
O O15 0.616474 0.000000 0.357648
O O16 0.446565 0.500000 0.904389
O O17 0.406054 0.640545 0.839213
O O18 0.750000 0.902292 0.523768
O O19 0.900709 0.000000 0.543761
O O20 0.415928 0.342251 0.715979
O O21 0.750000 0.629960 0.229388
O O22 0.625698 0.500000 0.231927
#
# Coordination Sequence:
#
# PCOD9402653 Si02
#       8
#     8   8   8   8   8   8   8   8
#     4  10  21  34  44  58  80 103 132 174 219 256
#     4   8  12  20  38  62  86 111 139 171 204 238
#     4  10  20  33  47  61  77  98 130 175 219 254
#     4   9  17  29  46  68  89 103 122 162 215 267
#     4   8  14  24  38  59  85 112 142 172 203 237
#     4   8  14  27  46  64  82 100 119 155 211 268
#     4  12  21  30  46  63  79 107 142 171 205 255
#     4  10  20  32  45  61  83 111 143 178 209 241
#
# _framework density 14.572924
#
# number of rings (size 3 to 8) (size 9 to 14) (size 15 to 20)
#    0.000    2.625    1.250    3.750    0.000    4.500 
#    0.000    1.875    0.000    0.750    0.000    0.000 
#    0.000    0.000    0.000    2.250    0.000    4.250 
#
# Total GULP energy -356755.801380 kJ/mol
# GULP energy per Si atom -5574.309397 kJ/mol
# Density = 1.453976 g / cm^3
# Si number density = 14.572924 Si / 1000 Ang^3
#
#
#
# Elastic Constant Matrix: (Units=GPa)
#
#
# Indices 1 2 3 4 5 6 
#
# 1 79.0477 23.7569 40.1112 0.0000 0.0000 0.0000
# 2 23.7569 50.9558 22.0315 0.0000 0.0000 0.0000
# 3 40.1112 22.0315 70.2336 0.0000 0.0000 0.0000
# 4 0.0000 0.0000 0.0000 2.6897 0.0000 0.0000
# 5 0.0000 0.0000 0.0000 0.0000 16.7757 0.0000
# 6 0.0000 0.0000 0.0000 0.0000 0.0000 10.4823
#
#
#
# Elastic Compliance Matrix: (Units=1/GPa)
#
#
# Indices 1 2 3 4 5 6 
#
# 1 0.018760 -0.004760 -0.009221 0.000000 0.000000 0.000000
# 2 -0.004760 0.023912 -0.004783 0.000000 0.000000 0.000000
# 3 -0.009221 -0.004783 0.021005 0.000000 0.000000 0.000000
# 4 0.000000 0.000000 0.000000 0.371794 0.000000 0.000000
# 5 0.000000 0.000000 0.000000 0.000000 0.059610 0.000000
# 6 0.000000 0.000000 0.000000 0.000000 0.000000 0.095399
#
#
# Mechanical properties :
#
#
# Convention : Reuss Voigt Hill
#
# Bulk Modulus (GPa) = 38.24087 41.33737 39.78912
# Shear Modulus (GPa) = 7.85271 13.61203 10.73237
#
# Velocity S-wave (km/s) = 2.32385 3.05956 2.71672
# Velocity P-wave (km/s) = 5.78778 6.39599 6.09947
#
# Compressibility (1/GPa) = 0.02615004
#
# Stress axis : x y z
#
# Youngs Moduli (GPa) = 53.30468 41.82048 47.60840
#
# Poissons Ratio (x) = 0.19905 0.43900
# Poissons Ratio (y) = 0.25371 0.22769
# Poissons Ratio (z) = 0.49153 0.20001
#
# Static dielectric constant tensor:
#      x y z
#    x 1.535690 0.000000 0.000000 
#    y 0.000000 1.488690 0.000000 
#    z 0.000000 0.000000 1.450430 
# 
# From -- ./inp_files/29971.got.cif
#   From: 2010.05.17/outbox.cif.g08.bks.cpg/sg51_15_cif.got.tgz:29971.got - 2010.06.03 11:52:47.
