data_PCOD9402791
_publ_section_title
;
Structure prediction by ZEFSAII (Michael W. Deem and Ramdas Pophale) SiO2 
 PCOD9402791
Probable space group: P M M A
;
_chemical_formula_sum "Si O2"
_cell_formula_units_Z 64
_cell_length_a 17.931143
_cell_length_b 9.302600
_cell_length_c 23.604606
_cell_angle_alpha 90.000000
_cell_angle_beta 90.000000
_cell_angle_gamma 90.000000
_cell_volume 3937.395830
_symmetry_space_group_name_H-M "P M M A"
_symmetry_group_IT_number 51
_symmetry_cell_setting 'orthorhombic'
loop_
_space_group_symop_operation_xyz
x,y,z
1/2-x,-y,z
1/2+x,-y,-z
-x,y,-z
-x,-y,-z
1/2+x,y,-z
1/2-x,y,z
x,-y,z
loop_
_atom_site_type_symbol
_atom_site_label
_atom_site_fract_x
_atom_site_fract_y
_atom_site_fract_z
Si Si1 0.389865 0.836552 0.273566
Si Si2 0.052891 0.336737 0.173882
Si Si3 0.334801 0.829505 0.879848
Si Si4 0.445126 0.165615 0.668733
Si Si5 0.886728 0.334876 0.228860
Si Si6 0.971555 0.327235 0.062893
Si Si7 0.668665 0.671832 0.621536
Si Si8 0.986982 0.672689 0.565541
O O1 0.396713 0.765026 0.212124
O O2 0.473537 0.836316 0.300506
O O3 0.342252 0.744837 0.317633
O O4 0.363998 0.000000 0.270575
O O5 0.081703 0.500000 0.173984
O O6 0.971369 0.339852 0.203996
O O7 0.034081 0.290068 0.110053
O O8 0.250000 0.809587 0.900238
O O9 0.342713 0.755174 0.818246
O O10 0.396435 0.755251 0.919642
O O11 0.349683 0.000000 0.874883
O O12 0.392235 0.254681 0.711072
O O13 0.459297 0.244853 0.609204
O O14 0.421634 0.000000 0.662082
O O15 0.861049 0.500000 0.233623
O O16 0.958882 0.500000 0.068105
O O17 0.000000 0.296162 0.000000
O O18 0.750000 0.710340 0.597896
O O19 0.665763 0.500000 0.628718
O O20 0.597845 0.711179 0.583155
O O21 0.996147 0.500000 0.573052
O O22 0.000000 0.707228 0.500000
#
# Coordination Sequence:
#
# PCOD9402791 Si02
#       8
#     8   8   8   8   8   8   8   8
#     4   9  16  25  40  63  88 112 139 174 218 268
#     4   8  14  25  42  64  89 114 141 179 223 265
#     4  10  20  32  47  70  99 128 158 196 245 297
#     4   9  16  26  42  65  91 116 144 182 228 275
#     4   9  16  27  45  67  90 117 149 185 227 274
#     4   9  18  32  50  72  96 125 165 206 239 277
#     4   9  17  29  45  64  86 113 145 184 231 278
#     4   9  17  29  45  65  89 119 157 196 231 273
#
# _framework density 16.254398999999999
#
# number of rings (size 3 to 8) (size 9 to 14) (size 15 to 20)
#    0.000    3.000    0.000    2.250    0.000    7.750 
#    0.000    0.000    0.000    1.500    0.000    3.500 
#    0.000    0.000    0.000    0.000    0.000    0.000 
#
# Total GULP energy -356366.538239 kJ/mol
# GULP energy per Si atom -5568.227160 kJ/mol
# Density = 1.621740 g / cm^3
# Si number density = 16.254399 Si / 1000 Ang^3
#
#
#
# Elastic Constant Matrix: (Units=GPa)
#
#
# Indices 1 2 3 4 5 6 
#
# 1 51.6656 33.8226 38.6998 0.0000 0.0000 0.0000
# 2 33.8226 68.3353 60.2667 0.0000 0.0000 0.0000
# 3 38.6998 60.2667 143.0812 0.0000 0.0000 0.0000
# 4 0.0000 0.0000 0.0000 13.0513 0.0000 0.0000
# 5 0.0000 0.0000 0.0000 0.0000 10.5548 0.0000
# 6 0.0000 0.0000 0.0000 0.0000 0.0000 15.1350
#
#
#
# Elastic Compliance Matrix: (Units=1/GPa)
#
#
# Indices 1 2 3 4 5 6 
#
# 1 0.029369 -0.011981 -0.002897 0.000000 0.000000 0.000000
# 2 -0.011981 0.028170 -0.008625 0.000000 0.000000 0.000000
# 3 -0.002897 -0.008625 0.011405 0.000000 0.000000 0.000000
# 4 0.000000 0.000000 0.000000 0.076621 0.000000 0.000000
# 5 0.000000 0.000000 0.000000 0.000000 0.094743 0.000000
# 6 0.000000 0.000000 0.000000 0.000000 0.000000 0.066072
#
#
# Mechanical properties :
#
#
# Convention : Reuss Voigt Hill
#
# Bulk Modulus (GPa) = 45.58218 58.74003 52.16111
# Shear Modulus (GPa) = 13.86196 16.43441 15.14818
#
# Velocity S-wave (km/s) = 2.92346 3.18319 3.05609
# Velocity P-wave (km/s) = 6.28485 7.05171 6.67930
#
# Compressibility (1/GPa) = 0.02193840
#
# Stress axis : x y z
#
# Youngs Moduli (GPa) = 34.05005 35.49834 87.67730
#
# Poissons Ratio (x) = 0.42531 0.25399
# Poissons Ratio (y) = 0.40796 0.75621
# Poissons Ratio (z) = 0.09864 0.30617
#
# Static dielectric constant tensor:
#      x y z
#    x 1.551170 0.000000 0.000000 
#    y 0.000000 1.549470 0.000000 
#    z 0.000000 0.000000 1.532560 
# 
# From -- ./inp_files/35960.got.cif
#   From: 2010.05.17/outbox.cif.g08.bks.cpg/sg51_18_cif.got.tgz:35960.got - 2010.06.03 11:52:47.
