data_PCOD9402152
_publ_section_title
;
Structure prediction by ZEFSAII (Michael W. Deem and Ramdas Pophale) SiO2 
 PCOD9402152
Probable space group: P M M A
;
_chemical_formula_sum "Si O2"
_cell_formula_units_Z 44
_cell_length_a 8.569821
_cell_length_b 18.438211
_cell_length_c 14.722976
_cell_angle_alpha 90.000000
_cell_angle_beta 90.000000
_cell_angle_gamma 90.000000
_cell_volume 2326.409355
_symmetry_space_group_name_H-M "P M M A"
_symmetry_group_IT_number 51
_symmetry_cell_setting 'orthorhombic'
loop_
_space_group_symop_operation_xyz
x,y,z
1/2-x,-y,z
1/2+x,-y,-z
-x,y,-z
-x,-y,-z
1/2+x,y,-z
1/2-x,y,z
x,-y,z
loop_
_atom_site_type_symbol
_atom_site_label
_atom_site_fract_x
_atom_site_fract_y
_atom_site_fract_z
Si Si1 0.940410 0.419029 0.287439
Si Si2 0.437144 0.857639 0.286756
Si Si3 0.937467 0.278845 0.398572
Si Si4 0.563102 0.183746 0.097526
Si Si5 0.937654 0.353606 0.096830
Si Si6 0.561605 0.000000 0.602257
O O1 0.750000 0.418845 0.287464
O O2 0.992562 0.500000 0.311421
O O3 0.989903 0.355486 0.355466
O O4 0.989774 0.397665 0.185232
O O5 0.250000 0.854608 0.287563
O O6 0.503504 0.786204 0.335405
O O7 0.495821 0.858403 0.183441
O O8 0.488191 0.928166 0.343397
O O9 0.750000 0.277426 0.399214
O O10 0.000000 0.269925 0.500000
O O11 0.750000 0.180683 0.098496
O O12 0.515989 0.268922 0.107498
O O13 0.500000 0.158836 0.000000
O O14 0.750000 0.355729 0.094289
O O15 0.000000 0.380022 0.000000
O O16 0.500000 0.000000 0.500000
O O17 0.750000 0.000000 0.599142
#
# Coordination Sequence:
#
# PCOD9402152 Si02
#       6
#     8   8   8   8   8   4
#     4   9  18  34  54  76 109 150 188 231 283 337
#     4  11  22  39  62  88 117 151 188 234 284 341
#     4  11  22  38  58  83 110 145 192 238 287 344
#     4  10  19  34  57  88 119 153 192 235 280 335
#     4   9  17  31  51  78 109 144 184 226 274 328
#     4  10  24  42  61  88 119 150 189 234 288 342
#
# _framework density 18.913267000000001
#
# number of rings (size 3 to 8) (size 9 to 14) (size 15 to 20)
#    0.000    2.000    1.818    2.182    0.000    4.364 
#    0.000    0.455    0.000    3.818    0.000    0.000 
#    0.000    0.000    0.000    0.000    0.000    0.000 
#
# Total GULP energy -245719.554139 kJ/mol
# GULP energy per Si atom -5584.535321 kJ/mol
# Density = 1.887022 g / cm^3
# Si number density = 18.913267 Si / 1000 Ang^3
#
#
#
# Elastic Constant Matrix: (Units=GPa)
#
#
# Indices 1 2 3 4 5 6 
#
# 1 31.8724 27.0706 32.0672 0.0000 0.0000 0.0000
# 2 27.0706 113.6299 74.2331 0.0000 0.0000 0.0000
# 3 32.0672 74.2331 164.2526 0.0000 0.0000 0.0000
# 4 0.0000 0.0000 0.0000 46.5355 0.0000 0.0000
# 5 0.0000 0.0000 0.0000 0.0000 34.1773 0.0000
# 6 0.0000 0.0000 0.0000 0.0000 0.0000 15.6486
#
#
#
# Elastic Compliance Matrix: (Units=1/GPa)
#
#
# Indices 1 2 3 4 5 6 
#
# 1 0.042308 -0.006645 -0.005257 0.000000 0.000000 0.000000
# 2 -0.006645 0.013531 -0.004818 0.000000 0.000000 0.000000
# 3 -0.005257 -0.004818 0.009292 0.000000 0.000000 0.000000
# 4 0.000000 0.000000 0.000000 0.021489 0.000000 0.000000
# 5 0.000000 0.000000 0.000000 0.000000 0.029259 0.000000
# 6 0.000000 0.000000 0.000000 0.000000 0.000000 0.063904
#
#
# Mechanical properties :
#
#
# Convention : Reuss Voigt Hill
#
# Bulk Modulus (GPa) = 31.55421 64.05519 47.80470
# Shear Modulus (GPa) = 22.34279 31.03120 26.68699
#
# Velocity S-wave (km/s) = 3.44078 4.05496 3.76043
# Velocity P-wave (km/s) = 5.70132 7.47429 6.64718
#
# Compressibility (1/GPa) = 0.03169149
#
# Stress axis : x y z
#
# Youngs Moduli (GPa) = 23.63628 73.90352 107.62072
#
# Poissons Ratio (x) = 0.49110 0.56571
# Poissons Ratio (y) = 0.15707 0.51852
# Poissons Ratio (z) = 0.12425 0.35607
#
# Static dielectric constant tensor:
#      x y z
#    x 1.643420 0.000000 0.000000 
#    y 0.000000 1.655110 0.000000 
#    z 0.000000 0.000000 1.635640 
# 
# From -- ./inp_files/20873.got.cif
#   From: 2010.05.17/outbox.cif.g08.bks.cpg/sg51_11_cif.got.tgz:20873.got - 2010.06.03 11:52:47.
