data_PCOD9402643
_publ_section_title
;
Structure prediction by ZEFSAII (Michael W. Deem and Ramdas Pophale) SiO2 
 PCOD9402643
Probable space group: P M M A
;
_chemical_formula_sum "Si O2"
_cell_formula_units_Z 56
_cell_length_a 9.911118
_cell_length_b 13.770835
_cell_length_c 29.627852
_cell_angle_alpha 90.000000
_cell_angle_beta 90.000000
_cell_angle_gamma 90.000000
_cell_volume 4043.738734
_symmetry_space_group_name_H-M "P M M A"
_symmetry_group_IT_number 51
_symmetry_cell_setting 'orthorhombic'
loop_
_space_group_symop_operation_xyz
x,y,z
1/2-x,-y,z
1/2+x,-y,-z
-x,y,-z
-x,-y,-z
1/2+x,y,-z
1/2-x,y,z
x,-y,z
loop_
_atom_site_type_symbol
_atom_site_label
_atom_site_fract_x
_atom_site_fract_y
_atom_site_fract_z
Si Si1 0.406686 0.118326 0.957620
Si Si2 0.594214 0.881894 0.875331
Si Si3 0.250000 0.885764 0.433019
Si Si4 0.403834 0.117699 0.226965
Si Si5 0.482354 0.788803 0.598505
Si Si6 0.907320 0.886074 0.309600
Si Si7 0.588338 0.615189 0.545138
Si Si8 0.250000 0.117235 0.539018
O O1 0.250000 0.149867 0.960278
O O2 0.485476 0.149677 0.912331
O O3 0.403828 0.000000 0.957630
O O4 0.500000 0.147346 0.000000
O O5 0.750000 0.853692 0.885758
O O6 0.561485 0.850849 0.824061
O O7 0.593515 0.000000 0.875830
O O8 0.379674 0.845246 0.408831
O O9 0.250000 0.860693 0.486058
O O10 0.250000 0.000000 0.430638
O O11 0.250000 0.147991 0.236535
O O12 0.503563 0.145213 0.266963
O O13 0.405135 0.000000 0.225965
O O14 0.430645 0.815613 0.648038
O O15 0.519525 0.679201 0.584354
O O16 0.377689 0.834727 0.563047
O O17 0.750000 0.884950 0.297593
O O18 0.940345 0.000000 0.321505
O O19 0.500000 0.635934 0.500000
O O20 0.750000 0.637643 0.540236
O O21 0.578695 0.500000 0.553601
O O22 0.250000 0.000000 0.545276
#
# Coordination Sequence:
#
# PCOD9402643 Si02
#       8
#     8   8   4   8   8   8   8   4
#     4   9  15  20  27  40  58  82 112 149 194 242
#     4   8  13  22  33  45  62  84 113 152 195 236
#     4  11  22  32  47  69  89 115 146 166 194 244
#     4   8  15  26  40  55  71  95 128 163 196 236
#     4  12  22  34  50  69  90 117 140 171 208 243
#     4  10  20  32  44  60  85 113 137 164 199 241
#     4  10  22  39  57  75  91 109 137 173 210 248
#     4  11  22  36  49  65  95 121 142 166 196 242
#
# _framework density 13.848571
#
# number of rings (size 3 to 8) (size 9 to 14) (size 15 to 20)
#    0.000    2.286    1.429    3.857    2.000    3.429 
#    0.000    2.857    0.000    0.000    0.000    0.000 
#    0.000    0.000    0.000    0.000    0.000    0.000 
#
# Total GULP energy -311886.598354 kJ/mol
# GULP energy per Si atom -5569.403542 kJ/mol
# Density = 1.381705 g / cm^3
# Si number density = 13.848571 Si / 1000 Ang^3
#
#
#
# Elastic Constant Matrix: (Units=GPa)
#
#
# Indices 1 2 3 4 5 6 
#
# 1 84.5886 18.3797 41.2481 0.0000 0.0000 0.0000
# 2 18.3797 38.3634 22.9266 0.0000 0.0000 0.0000
# 3 41.2481 22.9266 78.9112 0.0000 0.0000 0.0000
# 4 0.0000 0.0000 0.0000 3.4392 0.0000 0.0000
# 5 0.0000 0.0000 0.0000 0.0000 28.6205 0.0000
# 6 0.0000 0.0000 0.0000 0.0000 0.0000 13.5700
#
#
#
# Elastic Compliance Matrix: (Units=1/GPa)
#
#
# Indices 1 2 3 4 5 6 
#
# 1 0.016198 -0.003268 -0.007517 0.000000 0.000000 0.000000
# 2 -0.003268 0.032203 -0.007648 0.000000 0.000000 0.000000
# 3 -0.007517 -0.007648 0.018824 0.000000 0.000000 0.000000
# 4 0.000000 0.000000 0.000000 0.290769 0.000000 0.000000
# 5 0.000000 0.000000 0.000000 0.000000 0.034940 0.000000
# 6 0.000000 0.000000 0.000000 0.000000 0.000000 0.073692
#
#
# Mechanical properties :
#
#
# Convention : Reuss Voigt Hill
#
# Bulk Modulus (GPa) = 32.94013 40.77466 36.85739
# Shear Modulus (GPa) = 9.73501 17.07985 13.40743
#
# Velocity S-wave (km/s) = 2.65422 3.51569 3.11488
# Velocity P-wave (km/s) = 5.76461 6.78139 6.29357
#
# Compressibility (1/GPa) = 0.03035811
#
# Stress axis : x y z
#
# Youngs Moduli (GPa) = 61.73729 31.05344 53.12390
#
# Poissons Ratio (x) = 0.10147 0.39935
# Poissons Ratio (y) = 0.20174 0.40629
# Poissons Ratio (z) = 0.46410 0.23749
#
# Static dielectric constant tensor:
#      x y z
#    x 1.466650 0.000000 0.000000 
#    y 0.000000 1.434930 0.000000 
#    z 0.000000 0.000000 1.462420 
# 
# From -- ./inp_files/37508.got.cif
#   From: 2010.05.17/outbox.cif.g08.bks.cpg/sg51_19_cif.got.tgz:37508.got - 2010.06.03 11:52:47.
