data_PCOD9402214
_publ_section_title
;
Structure prediction by ZEFSAII (Michael W. Deem and Ramdas Pophale) SiO2 
 PCOD9402214
Probable space group: P M M A
;
_chemical_formula_sum "Si O2"
_cell_formula_units_Z 56
_cell_length_a 15.016957
_cell_length_b 14.415584
_cell_length_c 12.884921
_cell_angle_alpha 90.000000
_cell_angle_beta 90.000000
_cell_angle_gamma 90.000000
_cell_volume 2789.304570
_symmetry_space_group_name_H-M "P M M A"
_symmetry_group_IT_number 51
_symmetry_cell_setting 'orthorhombic'
loop_
_space_group_symop_operation_xyz
x,y,z
1/2-x,-y,z
1/2+x,-y,-z
-x,y,-z
-x,-y,-z
1/2+x,y,-z
1/2-x,y,z
x,-y,z
loop_
_atom_site_type_symbol
_atom_site_label
_atom_site_fract_x
_atom_site_fract_y
_atom_site_fract_z
Si Si1 0.651025 0.233427 0.856589
Si Si2 0.645502 0.244624 0.095782
Si Si3 0.595974 0.393812 0.270155
Si Si4 0.618093 0.394232 0.699820
Si Si5 0.089958 0.898094 0.566775
Si Si6 0.108603 0.699882 0.514513
Si Si7 0.984472 0.108848 0.201079
O O1 0.750000 0.190698 0.856518
O O2 0.652205 0.324132 0.785787
O O3 0.576287 0.164446 0.812612
O O4 0.629605 0.263324 0.974425
O O5 0.750000 0.225892 0.110709
O O6 0.619283 0.327891 0.173521
O O7 0.586252 0.156230 0.125146
O O8 0.625352 0.500000 0.254708
O O9 0.489212 0.393803 0.285760
O O10 0.631325 0.351871 0.378514
O O11 0.647505 0.500000 0.710282
O O12 0.640960 0.353615 0.586769
O O13 0.138633 0.806764 0.524867
O O14 0.056986 0.879135 0.683987
O O15 0.000000 0.904964 0.500000
O O16 0.134069 0.000000 0.562871
O O17 0.000000 0.701994 0.500000
O O18 0.996804 0.000000 0.182425
#
# Coordination Sequence:
#
# PCOD9402214 Si02
#       7
#     8   8   8   8   8   8   8
#     4  11  24  41  61  87 122 161 203 255 308 358
#     4  11  24  41  60  87 123 159 202 254 306 364
#     4  10  19  34  59  88 119 159 204 250 306 365
#     4  10  20  35  60  91 122 163 209 251 304 365
#     4   9  16  28  56  92 121 157 200 239 295 362
#     4   9  15  30  55  86 125 156 196 250 301 357
#     4  11  22  41  67  92 122 160 203 251 304 364
#
# _framework density 20.076688000000001
#
# number of rings (size 3 to 8) (size 9 to 14) (size 15 to 20)
#    0.000    1.857    2.857    2.571    0.000    4.571 
#    0.000    5.000    0.000    1.714    0.000    4.000 
#    0.000    0.000    0.000    0.000    0.000    0.000 
#
# Total GULP energy -312732.544984 kJ/mol
# GULP energy per Si atom -5584.509732 kJ/mol
# Density = 2.003099 g / cm^3
# Si number density = 20.076688 Si / 1000 Ang^3
#
#
#
# Elastic Constant Matrix: (Units=GPa)
#
#
# Indices 1 2 3 4 5 6 
#
# 1 59.7556 40.0110 7.6458 0.0000 0.0000 0.0000
# 2 40.0110 175.0457 61.8318 0.0000 0.0000 0.0000
# 3 7.6458 61.8318 94.4641 0.0000 0.0000 0.0000
# 4 0.0000 0.0000 0.0000 11.0232 0.0000 0.0000
# 5 0.0000 0.0000 0.0000 0.0000 99.6704 0.0000
# 6 0.0000 0.0000 0.0000 0.0000 0.0000 -4.4802
#
#
#
# Elastic Compliance Matrix: (Units=1/GPa)
#
#
# Indices 1 2 3 4 5 6 
#
# 1 0.019988 -0.005199 0.001785 0.000000 0.000000 0.000000
# 2 -0.005199 0.008783 -0.005328 0.000000 0.000000 0.000000
# 3 0.001785 -0.005328 0.013929 0.000000 0.000000 0.000000
# 4 0.000000 0.000000 0.000000 0.090718 0.000000 0.000000
# 5 0.000000 0.000000 0.000000 0.000000 0.010033 0.000000
# 6 0.000000 0.000000 0.000000 0.000000 0.000000 -0.223205
#
#
# Mechanical properties :
#
#
# Convention : Reuss Voigt Hill
#
# Bulk Modulus (GPa) = 39.65763 60.91585 50.28674
# Shear Modulus (GPa) = -92.82521 35.89448 -28.46536
#
# Velocity S-wave (km/s) = -6.80703 4.23291 -3.76950
# Velocity P-wave (km/s) = 6.47958 7.36868 2.48118
#
# Compressibility (1/GPa) = 0.02521583
#
# Stress axis : x y z
#
# Youngs Moduli (GPa) = 50.03065 113.85130 71.79157
#
# Poissons Ratio (x) = 0.59196 -0.12818
# Poissons Ratio (y) = 0.26013 0.38253
# Poissons Ratio (z) = -0.08933 0.60664
#
# Static dielectric constant tensor:
#      x y z
#    x 1.785760 0.000000 0.000000 
#    y 0.000000 1.701650 0.000000 
#    z 0.000000 0.000000 1.697630 
# 
# From -- ./inp_files/16608.got.cif
#   From: 2010.05.17/outbox.cif.g08.bks.cpg/sg51_9_cif.got.tgz:16608.got - 2010.06.03 11:52:47.
