data_PCOD9402838
_publ_section_title
;
Structure prediction by ZEFSAII (Michael W. Deem and Ramdas Pophale) SiO2 
 PCOD9402838
Probable space group: P M M A
;
_chemical_formula_sum "Si O2"
_cell_formula_units_Z 56
_cell_length_a 8.696636
_cell_length_b 30.010453
_cell_length_c 13.973694
_cell_angle_alpha 90.000000
_cell_angle_beta 90.000000
_cell_angle_gamma 90.000000
_cell_volume 3646.994201
_symmetry_space_group_name_H-M "P M M A"
_symmetry_group_IT_number 51
_symmetry_cell_setting 'orthorhombic'
loop_
_space_group_symop_operation_xyz
x,y,z
1/2-x,-y,z
1/2+x,-y,-z
-x,y,-z
-x,-y,-z
1/2+x,y,-z
1/2-x,y,z
x,-y,z
loop_
_atom_site_type_symbol
_atom_site_label
_atom_site_fract_x
_atom_site_fract_y
_atom_site_fract_z
Si Si1 0.434069 0.227684 0.290249
Si Si2 0.065509 0.951186 0.391959
Si Si3 0.564921 0.725901 0.105190
Si Si4 0.066104 0.141250 0.608370
Si Si5 0.933954 0.634267 0.208383
Si Si6 0.566438 0.449583 0.894430
Si Si7 0.934623 0.313158 0.396724
O O1 0.250000 0.226362 0.290383
O O2 0.496286 0.241451 0.185677
O O3 0.502225 0.181502 0.328393
O O4 0.492928 0.266752 0.360854
O O5 0.250000 0.946267 0.395397
O O6 0.000000 0.952783 0.500000
O O7 0.990757 0.906474 0.351013
O O8 0.030373 0.000000 0.348355
O O9 0.750000 0.729045 0.106478
O O10 0.522542 0.675621 0.139162
O O11 0.500000 0.734406 0.000000
O O12 0.250000 0.142297 0.603562
O O13 0.000000 0.145704 0.500000
O O14 0.750000 0.629428 0.202436
O O15 0.972966 0.650637 0.315178
O O16 0.009988 0.588672 0.176094
O O17 0.750000 0.448619 0.899948
O O18 0.518090 0.500000 0.867258
O O19 0.500000 0.440517 0.000000
O O20 0.750000 0.308323 0.399495
O O21 0.000000 0.324799 0.500000
#
# Coordination Sequence:
#
# PCOD9402838 Si02
#       7
#     8   8   8   8   8   8   8
#     4  11  21  33  48  67  92 123 157 192 231 272
#     4   9  16  26  40  59  84 115 152 191 230 274
#     4  10  20  34  50  71  96 122 153 187 227 273
#     4  11  20  30  44  63  90 123 158 195 233 275
#     4   9  19  33  50  71  95 122 152 186 223 268
#     4  10  20  32  48  71  97 123 151 185 226 272
#     4  10  20  34  50  70  94 121 155 192 230 271
#
# _framework density 15.355112
#
# number of rings (size 3 to 8) (size 9 to 14) (size 15 to 20)
#    0.000    2.000    0.000    6.857    0.000    6.286 
#    0.000    0.000    0.000    0.429    0.000    0.000 
#    0.000    0.571    0.000    2.143    0.000    3.571 
#
# Total GULP energy -312420.315494 kJ/mol
# GULP energy per Si atom -5578.934205 kJ/mol
# Density = 1.532016 g / cm^3
# Si number density = 15.355112 Si / 1000 Ang^3
#
#
#
# Elastic Constant Matrix: (Units=GPa)
#
#
# Indices 1 2 3 4 5 6 
#
# 1 96.3681 61.9169 45.4437 0.0000 0.0000 0.0000
# 2 61.9169 146.8038 67.7612 0.0000 0.0000 0.0000
# 3 45.4437 67.7612 92.5988 0.0000 0.0000 0.0000
# 4 0.0000 0.0000 0.0000 19.1328 0.0000 0.0000
# 5 0.0000 0.0000 0.0000 0.0000 25.3684 0.0000
# 6 0.0000 0.0000 0.0000 0.0000 0.0000 27.0193
#
#
#
# Elastic Compliance Matrix: (Units=1/GPa)
#
#
# Indices 1 2 3 4 5 6 
#
# 1 0.015240 -0.004493 -0.004191 0.000000 0.000000 0.000000
# 2 -0.004493 0.011611 -0.006291 0.000000 0.000000 0.000000
# 3 -0.004191 -0.006291 0.017460 0.000000 0.000000 0.000000
# 4 0.000000 0.000000 0.000000 0.052266 0.000000 0.000000
# 5 0.000000 0.000000 0.000000 0.000000 0.039419 0.000000
# 6 0.000000 0.000000 0.000000 0.000000 0.000000 0.037011
#
#
# Mechanical properties :
#
#
# Convention : Reuss Voigt Hill
#
# Bulk Modulus (GPa) = 69.64106 76.22382 72.93244
# Shear Modulus (GPa) = 24.06790 25.01401 24.54096
#
# Velocity S-wave (km/s) = 3.96336 4.04051 4.00212
# Velocity P-wave (km/s) = 8.14840 8.45672 8.30399
#
# Compressibility (1/GPa) = 0.01435935
#
# Stress axis : x y z
#
# Youngs Moduli (GPa) = 65.61568 86.12611 57.27359
#
# Poissons Ratio (x) = 0.38699 0.24005
# Poissons Ratio (y) = 0.29483 0.36033
# Poissons Ratio (z) = 0.27501 0.54186
#
# Static dielectric constant tensor:
#      x y z
#    x 1.512870 0.000000 0.000000 
#    y 0.000000 1.527400 0.000000 
#    z 0.000000 0.000000 1.485520 
# 
# From -- ./inp_files/22547.got.cif
#   From: 2010.05.17/outbox.cif.g08.bks.cpg/sg51_12_cif.got.tgz:22547.got - 2010.06.03 11:52:47.
