data_PCOD9402651
_publ_section_title
;
Structure prediction by ZEFSAII (Michael W. Deem and Ramdas Pophale) SiO2 
 PCOD9402651
Probable space group: P M M A
;
_chemical_formula_sum "Si O2"
_cell_formula_units_Z 64
_cell_length_a 9.092360
_cell_length_b 15.373890
_cell_length_c 26.840362
_cell_angle_alpha 90.000000
_cell_angle_beta 90.000000
_cell_angle_gamma 90.000000
_cell_volume 3751.878458
_symmetry_space_group_name_H-M "P M M A"
_symmetry_group_IT_number 51
_symmetry_cell_setting 'orthorhombic'
loop_
_space_group_symop_operation_xyz
x,y,z
1/2-x,-y,z
1/2+x,-y,-z
-x,y,-z
-x,-y,-z
1/2+x,y,-z
1/2-x,y,z
x,-y,z
loop_
_atom_site_type_symbol
_atom_site_label
_atom_site_fract_x
_atom_site_fract_y
_atom_site_fract_z
Si Si1 0.918485 0.167434 0.347713
Si Si2 0.916352 0.374586 0.355609
Si Si3 0.073539 0.594822 0.253919
Si Si4 0.423599 0.895446 0.846559
Si Si5 0.572540 0.204398 0.755819
Si Si6 0.088491 0.398813 0.455428
Si Si7 0.580237 0.105783 0.949475
Si Si8 0.920160 0.895001 0.551481
O O1 0.750000 0.133703 0.343471
O O2 0.911073 0.270719 0.355114
O O3 0.005667 0.162616 0.295074
O O4 0.998470 0.131200 0.397079
O O5 0.750000 0.405895 0.350593
O O6 0.015942 0.405527 0.310320
O O7 0.990476 0.398867 0.406893
O O8 0.250000 0.595144 0.252277
O O9 0.025739 0.500000 0.231516
O O10 0.028028 0.692823 0.237015
O O11 0.250000 0.875466 0.844688
O O12 0.509638 0.848673 0.802266
O O13 0.492292 0.869273 0.899828
O O14 0.439693 0.000000 0.841960
O O15 0.750000 0.200863 0.753199
O O16 0.250000 0.360550 0.446817
O O17 0.109274 0.500000 0.468821
O O18 0.000000 0.354737 0.500000
O O19 0.750000 0.134180 0.947667
O O20 0.580890 0.000000 0.950626
O O21 0.500000 0.135016 0.000000
O O22 0.750000 0.865390 0.552256
O O23 0.000000 0.866199 0.500000
O O24 0.919733 0.000000 0.550266
#
# Coordination Sequence:
#
# PCOD9402651 Si02
#       8
#     8   8   8   8   8   8   8   8
#     4  10  21  36  52  70  93 120 149 185 232 285
#     4  10  20  32  47  68  90 112 141 176 217 270
#     4   9  18  33  52  72  94 122 156 196 245 297
#     4  10  20  33  49  71 103 143 181 216 255 296
#     4  10  20  34  52  74 101 132 168 210 252 300
#     4  10  20  32  45  61  82 108 136 166 203 251
#     4   9  16  27  45  70 101 138 180 221 257 295
#     4  10  21  37  56  75  92 113 146 189 237 290
#
# _framework density 17.058122000000001
#
# number of rings (size 3 to 8) (size 9 to 14) (size 15 to 20)
#    0.000    2.250    0.000    3.000    0.000    8.500 
#    0.000    0.000    0.000    0.000    0.000    0.000 
#    0.000    0.500    0.000    1.375    0.000    2.000 
#
# Total GULP energy -356547.473745 kJ/mol
# GULP energy per Si atom -5571.054277 kJ/mol
# Density = 1.701930 g / cm^3
# Si number density = 17.058122 Si / 1000 Ang^3
#
#
#
# Elastic Constant Matrix: (Units=GPa)
#
#
# Indices 1 2 3 4 5 6 
#
# 1 64.4881 21.1642 59.3620 0.0000 0.0000 0.0000
# 2 21.1642 39.3008 33.5191 0.0000 0.0000 0.0000
# 3 59.3620 33.5191 130.8443 0.0000 0.0000 0.0000
# 4 0.0000 0.0000 0.0000 -2.6824 0.0000 0.0000
# 5 0.0000 0.0000 0.0000 0.0000 29.8206 0.0000
# 6 0.0000 0.0000 0.0000 0.0000 0.0000 16.9691
#
#
#
# Elastic Compliance Matrix: (Units=1/GPa)
#
#
# Indices 1 2 3 4 5 6 
#
# 1 0.027472 -0.005328 -0.011099 0.000000 0.000000 0.000000
# 2 -0.005328 0.033592 -0.006188 0.000000 0.000000 0.000000
# 3 -0.011099 -0.006188 0.014263 0.000000 0.000000 0.000000
# 4 0.000000 0.000000 0.000000 -0.372801 0.000000 0.000000
# 5 0.000000 0.000000 0.000000 0.000000 0.033534 0.000000
# 6 0.000000 0.000000 0.000000 0.000000 0.000000 0.058931
#
#
# Mechanical properties :
#
#
# Convention : Reuss Voigt Hill
#
# Bulk Modulus (GPa) = 33.22583 51.41376 42.31980
# Shear Modulus (GPa) = -33.38957 16.86065 -8.26446
#
# Velocity S-wave (km/s) = -4.42905 3.14733 -2.20350
# Velocity P-wave (km/s) = 2.57585 6.58888 4.28826
#
# Compressibility (1/GPa) = 0.03009706
#
# Stress axis : x y z
#
# Youngs Moduli (GPa) = 36.40111 29.76910 70.11082
#
# Poissons Ratio (x) = 0.15862 0.77813
# Poissons Ratio (y) = 0.19395 0.43385
# Poissons Ratio (z) = 0.40400 0.18421
#
# Static dielectric constant tensor:
#      x y z
#    x 1.623460 0.000000 0.000000 
#    y 0.000000 1.619980 0.000000 
#    z 0.000000 0.000000 1.535000 
# 
# From -- ./inp_files/34921.got.cif
#   From: 2010.05.17/outbox.cif.g08.bks.cpg/sg51_18_cif.got.tgz:34921.got - 2010.06.03 11:52:47.
