data_PCOD9402378
_publ_section_title
;
Structure prediction by ZEFSAII (Michael W. Deem and Ramdas Pophale) SiO2 
 PCOD9402378
Probable space group: P M M A
;
_chemical_formula_sum "Si O2"
_cell_formula_units_Z 48
_cell_length_a 18.658959
_cell_length_b 7.717321
_cell_length_c 18.176121
_cell_angle_alpha 90.000000
_cell_angle_beta 90.000000
_cell_angle_gamma 90.000000
_cell_volume 2617.310097
_symmetry_space_group_name_H-M "P M M A"
_symmetry_group_IT_number 51
_symmetry_cell_setting 'orthorhombic'
loop_
_space_group_symop_operation_xyz
x,y,z
1/2-x,-y,z
1/2+x,-y,-z
-x,y,-z
-x,-y,-z
1/2+x,y,-z
1/2-x,y,z
x,-y,z
loop_
_atom_site_type_symbol
_atom_site_label
_atom_site_fract_x
_atom_site_fract_y
_atom_site_fract_z
Si Si1 0.167358 0.289906 0.730239
Si Si2 0.973961 0.500000 0.915951
Si Si3 0.061163 0.802572 0.447572
Si Si4 0.164924 0.500000 0.185602
Si Si5 0.464152 0.808909 0.822987
Si Si6 0.903980 0.796615 0.715027
Si Si7 0.664698 0.295461 0.432184
O O1 0.250000 0.236730 0.739588
O O2 0.165859 0.500000 0.730395
O O3 0.114832 0.222243 0.792059
O O4 0.141135 0.234827 0.648879
O O5 0.890853 0.500000 0.884700
O O6 0.010492 0.333534 0.879463
O O7 0.000000 0.500000 0.000000
O O8 0.083243 0.730410 0.368260
O O9 0.129266 0.800950 0.500589
O O10 0.000000 0.720553 0.500000
O O11 0.037047 0.000000 0.431528
O O12 0.250000 0.500000 0.167451
O O13 0.144989 0.668176 0.236168
O O14 0.518826 0.794783 0.754559
O O15 0.470708 0.000000 0.854814
O O16 0.879337 0.000000 0.713784
O O17 0.750000 0.279047 0.433269
O O18 0.647648 0.500000 0.439090
#
# Coordination Sequence:
#
# PCOD9402378 Si02
#       7
#     8   4   8   4   8   8   8
#     4   9  17  31  50  75 110 149 186 230 279 324
#     4  10  22  42  64  89 120 145 172 213 271 335
#     4  10  20  33  47  69 103 141 186 239 288 327
#     4  10  22  40  63  87 110 145 190 225 274 347
#     4  10  19  35  60  84 110 145 183 222 267 326
#     4   9  20  36  54  80 111 145 190 243 285 325
#     4   9  19  32  45  66  99 138 180 224 272 323
#
# _framework density 18.339438999999999
#
# number of rings (size 3 to 8) (size 9 to 14) (size 15 to 20)
#    0.000    2.500    0.833    2.000    1.167    4.333 
#    0.000    4.167    0.000    0.000    0.000    0.000 
#    0.000    0.000    0.000    0.000    0.000    0.000 
#
# Total GULP energy -267510.412009 kJ/mol
# GULP energy per Si atom -5573.133584 kJ/mol
# Density = 1.829770 g / cm^3
# Si number density = 18.339439 Si / 1000 Ang^3
#
#
#
# Elastic Constant Matrix: (Units=GPa)
#
#
# Indices 1 2 3 4 5 6 
#
# 1 77.0632 38.3562 60.2622 0.0000 0.0000 0.0000
# 2 38.3562 83.3076 46.4567 0.0000 0.0000 0.0000
# 3 60.2622 46.4567 119.4734 0.0000 0.0000 0.0000
# 4 0.0000 0.0000 0.0000 62.9667 0.0000 0.0000
# 5 0.0000 0.0000 0.0000 0.0000 14.5539 0.0000
# 6 0.0000 0.0000 0.0000 0.0000 0.0000 12.4942
#
#
#
# Elastic Compliance Matrix: (Units=1/GPa)
#
#
# Indices 1 2 3 4 5 6 
#
# 1 0.023120 -0.005288 -0.009605 0.000000 0.000000 0.000000
# 2 -0.005288 0.016537 -0.003763 0.000000 0.000000 0.000000
# 3 -0.009605 -0.003763 0.014678 0.000000 0.000000 0.000000
# 4 0.000000 0.000000 0.000000 0.015881 0.000000 0.000000
# 5 0.000000 0.000000 0.000000 0.000000 0.068710 0.000000
# 6 0.000000 0.000000 0.000000 0.000000 0.000000 0.080037
#
#
# Mechanical properties :
#
#
# Convention : Reuss Voigt Hill
#
# Bulk Modulus (GPa) = 58.74796 63.33272 61.04034
# Shear Modulus (GPa) = 19.08766 26.98757 23.03761
#
# Velocity S-wave (km/s) = 3.22964 3.84025 3.54811
# Velocity P-wave (km/s) = 6.78312 7.36695 7.08105
#
# Compressibility (1/GPa) = 0.01702187
#
# Stress axis : x y z
#
# Youngs Moduli (GPa) = 43.25346 60.47073 68.12887
#
# Poissons Ratio (x) = 0.31979 0.65439
# Poissons Ratio (y) = 0.22874 0.25636
# Poissons Ratio (z) = 0.41545 0.22755
#
# Static dielectric constant tensor:
#      x y z
#    x 1.646520 0.000000 0.000000 
#    y 0.000000 1.690360 0.000000 
#    z 0.000000 0.000000 1.629250 
# 
# From -- ./inp_files/24857.got.cif
#   From: 2010.05.17/outbox.cif.g08.bks.cpg/sg51_13_cif.got.tgz:24857.got - 2010.06.03 11:52:47.
