data_PCOD9402561
_publ_section_title
;
Structure prediction by ZEFSAII (Michael W. Deem and Ramdas Pophale) SiO2 
 PCOD9402561
Probable space group: P M M A
;
_chemical_formula_sum "Si O2"
_cell_formula_units_Z 64
_cell_length_a 9.393462
_cell_length_b 15.521723
_cell_length_c 30.274639
_cell_angle_alpha 90.000000
_cell_angle_beta 90.000000
_cell_angle_gamma 90.000000
_cell_volume 4414.124567
_symmetry_space_group_name_H-M "P M M A"
_symmetry_group_IT_number 51
_symmetry_cell_setting 'orthorhombic'
loop_
_space_group_symop_operation_xyz
x,y,z
1/2-x,-y,z
1/2+x,-y,-z
-x,y,-z
-x,-y,-z
1/2+x,y,-z
1/2-x,y,z
x,-y,z
loop_
_atom_site_type_symbol
_atom_site_label
_atom_site_fract_x
_atom_site_fract_y
_atom_site_fract_z
Si Si1 0.582635 0.395728 0.957164
Si Si2 0.916199 0.734805 0.604714
Si Si3 0.084903 0.604626 0.140767
Si Si4 0.916239 0.265785 0.711160
Si Si5 0.917837 0.601544 0.454058
Si Si6 0.914424 0.096857 0.396308
Si Si7 0.418978 0.602734 0.771303
Si Si8 0.414686 0.096652 0.711011
O O1 0.750000 0.377469 0.961345
O O2 0.567427 0.500000 0.957140
O O3 0.536723 0.366287 0.908148
O O4 0.500000 0.362571 0.000000
O O5 0.750000 0.727968 0.592904
O O6 0.927515 0.729210 0.657920
O O7 0.008206 0.660141 0.582538
O O8 0.981722 0.826604 0.589969
O O9 0.250000 0.630634 0.147615
O O10 0.084742 0.500000 0.139738
O O11 0.986024 0.629528 0.181520
O O12 0.750000 0.270212 0.722856
O O13 0.002671 0.342393 0.733937
O O14 0.984995 0.174529 0.725272
O O15 0.750000 0.620878 0.458325
O O16 0.931927 0.500000 0.443482
O O17 0.000000 0.616704 0.500000
O O18 0.750000 0.113775 0.409192
O O19 0.916974 0.095888 0.342654
O O20 0.953529 0.000000 0.410958
O O21 0.250000 0.617251 0.770506
O O22 0.443869 0.500000 0.765642
O O23 0.250000 0.111795 0.723902
O O24 0.456520 0.000000 0.725368
#
# Coordination Sequence:
#
# PCOD9402561 Si02
#       8
#     8   8   8   8   8   8   8   8
#     4   8  13  20  31  48  68  90 119 160 208 252
#     4  10  20  32  48  71  95 117 142 173 208 247
#     4   8  14  25  38  50  68  97 132 169 211 256
#     4  10  20  31  44  64  89 116 144 175 210 248
#     4  10  21  37  56  74  91 113 141 174 212 253
#     4   8  14  26  45  68  93 120 146 170 200 240
#     4  10  20  31  42  56  76 107 147 186 219 253
#     4   8  14  26  44  64  86 111 138 171 209 246
#
# _framework density 14.49891
#
# number of rings (size 3 to 8) (size 9 to 14) (size 15 to 20)
#    0.000    3.000    0.000    3.000    0.000    4.500 
#    0.000    7.500    0.000    0.375    0.000    0.000 
#    0.000    0.000    0.000    0.000    0.000    0.625 
#
# Total GULP energy -356279.535362 kJ/mol
# GULP energy per Si atom -5566.867740 kJ/mol
# Density = 1.446591 g / cm^3
# Si number density = 14.498910 Si / 1000 Ang^3
#
#
#
# Elastic Constant Matrix: (Units=GPa)
#
#
# Indices 1 2 3 4 5 6 
#
# 1 104.3365 62.1101 44.8421 0.0000 0.0000 0.0000
# 2 62.1101 60.7210 34.8321 0.0000 0.0000 0.0000
# 3 44.8421 34.8321 34.9911 0.0000 0.0000 0.0000
# 4 0.0000 0.0000 0.0000 -2.5240 0.0000 0.0000
# 5 0.0000 0.0000 0.0000 0.0000 23.7735 0.0000
# 6 0.0000 0.0000 0.0000 0.0000 0.0000 20.2204
#
#
#
# Elastic Compliance Matrix: (Units=1/GPa)
#
#
# Indices 1 2 3 4 5 6 
#
# 1 0.028449 -0.019083 -0.017462 0.000000 0.000000 0.000000
# 2 -0.019083 0.051192 -0.026504 0.000000 0.000000 0.000000
# 3 -0.017462 -0.026504 0.077341 0.000000 0.000000 0.000000
# 4 0.000000 0.000000 0.000000 -0.396198 0.000000 0.000000
# 5 0.000000 0.000000 0.000000 0.000000 0.042064 0.000000
# 6 0.000000 0.000000 0.000000 0.000000 0.000000 0.049455
#
#
# Mechanical properties :
#
#
# Convention : Reuss Voigt Hill
#
# Bulk Modulus (GPa) = 32.37989 53.73528 43.05759
# Shear Modulus (GPa) = -442.32803 12.17826 -215.07488
#
# Velocity S-wave (km/s) = -17.48539 2.90132 -12.19265
# Velocity P-wave (km/s) = 19.62832 6.95454 12.97893
#
# Compressibility (1/GPa) = 0.03088337
#
# Stress axis : x y z
#
# Youngs Moduli (GPa) = 35.15042 19.53418 12.92979
#
# Poissons Ratio (x) = 0.37277 0.22578
# Poissons Ratio (y) = 0.67077 0.34270
# Poissons Ratio (z) = 0.61380 0.51774
#
# Static dielectric constant tensor:
#      x y z
#    x 1.481490 0.000000 0.000000 
#    y 0.000000 1.471150 0.000000 
#    z 0.000000 0.000000 1.481860 
# 
# From -- ./inp_files/37557.got.cif
#   From: 2010.05.17/outbox.cif.g08.bks.cpg/sg51_19_cif.got.tgz:37557.got - 2010.06.03 11:52:47.
