data_PCOD9402826
_publ_section_title
;
Structure prediction by ZEFSAII (Michael W. Deem and Ramdas Pophale) SiO2 
 PCOD9402826
Probable space group: P M M A
;
_chemical_formula_sum "Si O2"
_cell_formula_units_Z 48
_cell_length_a 8.703783
_cell_length_b 24.774926
_cell_length_c 13.899544
_cell_angle_alpha 90.000000
_cell_angle_beta 90.000000
_cell_angle_gamma 90.000000
_cell_volume 2997.236229
_symmetry_space_group_name_H-M "P M M A"
_symmetry_group_IT_number 51
_symmetry_cell_setting 'orthorhombic'
loop_
_space_group_symop_operation_xyz
x,y,z
1/2-x,-y,z
1/2+x,-y,-z
-x,y,-z
-x,-y,-z
1/2+x,y,-z
1/2-x,y,z
x,-y,z
loop_
_atom_site_type_symbol
_atom_site_label
_atom_site_fract_x
_atom_site_fract_y
_atom_site_fract_z
Si Si1 0.433270 0.170376 0.108398
Si Si2 0.433427 0.612721 0.895044
Si Si3 0.065770 0.059084 0.891354
Si Si4 0.435173 0.559960 0.293053
Si Si5 0.934642 0.669454 0.604629
Si Si6 0.934146 0.275506 0.208612
O O1 0.250000 0.169694 0.103098
O O2 0.493509 0.113409 0.150957
O O3 0.492352 0.221107 0.168564
O O4 0.500000 0.175261 0.000000
O O5 0.250000 0.607728 0.896467
O O6 0.501101 0.574468 0.812283
O O7 0.472438 0.673937 0.861512
O O8 0.500000 0.601710 0.000000
O O9 0.250000 0.064463 0.895205
O O10 0.029301 0.000000 0.847795
O O11 0.000000 0.057511 0.000000
O O12 0.250000 0.560727 0.288476
O O13 0.485123 0.500000 0.322671
O O14 0.482226 0.608577 0.363500
O O15 0.750000 0.672363 0.604604
O O16 0.000000 0.681794 0.500000
O O17 0.001312 0.708076 0.687278
O O18 0.750000 0.270608 0.211905
#
# Coordination Sequence:
#
# PCOD9402826 Si02
#       6
#     8   8   8   8   8   8
#     4  11  20  29  44  67  96 130 165 199 236 277
#     4  10  20  32  48  68  91 122 155 189 229 272
#     4   9  16  26  40  59  87 125 166 203 236 270
#     4   9  19  35  52  70  93 120 151 187 225 270
#     4  10  20  35  54  74  95 119 148 184 232 284
#     4  10  20  34  50  69  93 120 155 196 236 279
#
# _framework density 16.014752999999999
#
# number of rings (size 3 to 8) (size 9 to 14) (size 15 to 20)
#    0.000    2.167    0.000    5.000    0.000    6.000 
#    0.000    0.000    0.000    0.000    0.000    0.000 
#    0.000    0.667    0.000    2.500    0.000    4.167 
#
# Total GULP energy -267757.955884 kJ/mol
# GULP energy per Si atom -5578.290748 kJ/mol
# Density = 1.597830 g / cm^3
# Si number density = 16.014753 Si / 1000 Ang^3
#
#
#
# Elastic Constant Matrix: (Units=GPa)
#
#
# Indices 1 2 3 4 5 6 
#
# 1 63.3666 39.1497 18.0633 0.0000 0.0000 0.0000
# 2 39.1497 122.4618 24.6138 0.0000 0.0000 0.0000
# 3 18.0633 24.6138 63.9770 0.0000 0.0000 0.0000
# 4 0.0000 0.0000 0.0000 11.0663 0.0000 0.0000
# 5 0.0000 0.0000 0.0000 0.0000 20.8783 0.0000
# 6 0.0000 0.0000 0.0000 0.0000 0.0000 4.0768
#
#
#
# Elastic Compliance Matrix: (Units=1/GPa)
#
#
# Indices 1 2 3 4 5 6 
#
# 1 0.020371 -0.005805 -0.003518 0.000000 0.000000 0.000000
# 2 -0.005805 0.010505 -0.002402 0.000000 0.000000 0.000000
# 3 -0.003518 -0.002402 0.017548 0.000000 0.000000 0.000000
# 4 0.000000 0.000000 0.000000 0.090365 0.000000 0.000000
# 5 0.000000 0.000000 0.000000 0.000000 0.047897 0.000000
# 6 0.000000 0.000000 0.000000 0.000000 0.000000 0.245291
#
#
# Mechanical properties :
#
#
# Convention : Reuss Voigt Hill
#
# Bulk Modulus (GPa) = 40.04456 45.93990 42.99223
# Shear Modulus (GPa) = 10.78165 18.40285 14.59225
#
# Velocity S-wave (km/s) = 2.59749 3.39354 3.02184
# Velocity P-wave (km/s) = 5.83567 6.64102 6.25132
#
# Compressibility (1/GPa) = 0.02497218
#
# Stress axis : x y z
#
# Youngs Moduli (GPa) = 49.09028 95.19717 56.98610
#
# Poissons Ratio (x) = 0.55264 0.20048
# Poissons Ratio (y) = 0.28498 0.13690
# Poissons Ratio (z) = 0.17270 0.22870
#
# Static dielectric constant tensor:
#      x y z
#    x 1.528660 0.000000 0.000000 
#    y 0.000000 1.571010 0.000000 
#    z 0.000000 0.000000 1.494940 
# 
# From -- ./inp_files/14427.got.cif
#   From: 2010.05.17/outbox.cif.g08.bks.cpg/sg51_8_cif.got.tgz:14427.got - 2010.06.03 11:52:47.
