data_PCOD9402111
_publ_section_title
;
Structure prediction by ZEFSAII (Michael W. Deem and Ramdas Pophale) SiO2 
 PCOD9402111
Probable space group: P M M A
;
_chemical_formula_sum "Si O2"
_cell_formula_units_Z 48
_cell_length_a 34.408364
_cell_length_b 7.570314
_cell_length_c 8.230548
_cell_angle_alpha 90.000000
_cell_angle_beta 90.000000
_cell_angle_gamma 90.000000
_cell_volume 2143.910589
_symmetry_space_group_name_H-M "P M M A"
_symmetry_group_IT_number 51
_symmetry_cell_setting 'orthorhombic'
loop_
_space_group_symop_operation_xyz
x,y,z
1/2-x,-y,z
1/2+x,-y,-z
-x,y,-z
-x,-y,-z
1/2+x,y,-z
1/2-x,y,z
x,-y,z
loop_
_atom_site_type_symbol
_atom_site_label
_atom_site_fract_x
_atom_site_fract_y
_atom_site_fract_z
Si Si1 0.997891 0.286570 0.187667
Si Si2 0.919104 0.205789 0.668610
Si Si3 0.331927 0.201297 0.806840
Si Si4 0.343733 0.784025 0.158982
Si Si5 0.205045 0.784269 0.474295
Si Si6 0.914545 0.701420 0.304043
O O1 0.998148 0.500000 0.197957
O O2 0.036521 0.225663 0.278316
O O3 0.956979 0.224700 0.260583
O O4 0.000000 0.234141 0.000000
O O5 0.888538 0.266300 0.805450
O O6 0.911423 0.298519 0.498257
O O7 0.910826 0.000000 0.638318
O O8 0.312251 0.280778 0.646087
O O9 0.377992 0.199906 0.770857
O O10 0.317112 0.000000 0.816451
O O11 0.327794 0.281497 0.986226
O O12 0.319343 0.728104 0.316710
O O13 0.342500 0.000000 0.150093
O O14 0.250000 0.736063 0.459356
O O15 0.202408 0.000000 0.476133
O O16 0.912576 0.500000 0.243274
#
# Coordination Sequence:
#
# PCOD9402111 Si02
#       6
#     8   8   8   8   8   8
#     4  10  22  38  53  75 109 145 186 233 277 328
#     4  11  21  35  55  79 109 145 187 231 279 327
#     4  10  19  34  57  82 111 144 183 226 270 321
#     4   9  18  32  52  81 113 143 177 223 272 322
#     4   9  17  31  53  83 116 143 173 220 275 328
#     4  11  22  36  55  78 107 145 186 225 275 329
#
# _framework density 22.388995000000001
#
# number of rings (size 3 to 8) (size 9 to 14) (size 15 to 20)
#    0.000    2.000    1.667    2.500    0.000    4.333 
#    0.000    4.167    0.000    0.500    0.000    0.000 
#    0.000    0.000    0.000    0.000    0.000    0.000 
#
# Total GULP energy -268211.758147 kJ/mol
# GULP energy per Si atom -5587.744961 kJ/mol
# Density = 2.233804 g / cm^3
# Si number density = 22.388995 Si / 1000 Ang^3
#
#
#
# Elastic Constant Matrix: (Units=GPa)
#
#
# Indices 1 2 3 4 5 6 
#
# 1 95.3754 -6.8852 32.8957 0.0000 0.0000 0.0000
# 2 -6.8852 55.1747 -4.1989 0.0000 0.0000 0.0000
# 3 32.8957 -4.1989 144.6041 0.0000 0.0000 0.0000
# 4 0.0000 0.0000 0.0000 8.9684 0.0000 0.0000
# 5 0.0000 0.0000 0.0000 0.0000 11.4550 0.0000
# 6 0.0000 0.0000 0.0000 0.0000 0.0000 28.0268
#
#
#
# Elastic Compliance Matrix: (Units=1/GPa)
#
#
# Indices 1 2 3 4 5 6 
#
# 1 0.011461 0.001235 -0.002571 0.000000 0.000000 0.000000
# 2 0.001235 0.018297 0.000250 0.000000 0.000000 0.000000
# 3 -0.002571 0.000250 0.007508 0.000000 0.000000 0.000000
# 4 0.000000 0.000000 0.000000 0.111502 0.000000 0.000000
# 5 0.000000 0.000000 0.000000 0.000000 0.087298 0.000000
# 6 0.000000 0.000000 0.000000 0.000000 0.000000 0.035680
#
#
# Mechanical properties :
#
#
# Convention : Reuss Voigt Hill
#
# Bulk Modulus (GPa) = 28.49560 37.64194 33.06877
# Shear Modulus (GPa) = 17.50600 27.91290 22.70945
#
# Velocity S-wave (km/s) = 2.79928 3.53473 3.18828
# Velocity P-wave (km/s) = 4.81696 5.78863 5.32501
#
# Compressibility (1/GPa) = 0.03509314
#
# Stress axis : x y z
#
# Youngs Moduli (GPa) = 87.25329 54.65267 133.19731
#
# Poissons Ratio (x) = -0.06747 0.34250
# Poissons Ratio (y) = -0.10772 -0.03336
# Poissons Ratio (z) = 0.22436 -0.01369
#
# Static dielectric constant tensor:
#      x y z
#    x 1.787530 0.000000 0.000000 
#    y 0.000000 1.895720 0.000000 
#    z 0.000000 0.000000 1.808340 
# 
# From -- ./inp_files/12817.got.cif
#   From: 2010.05.17/outbox.cif.g08.bks.cpg/sg51_7_cif.got.tgz:12817.got - 2010.06.03 11:52:47.
