data_PCOD9402393
_publ_section_title
;
Structure prediction by ZEFSAII (Michael W. Deem and Ramdas Pophale) SiO2 
 PCOD9402393
Probable space group: P M M A
;
_chemical_formula_sum "Si O2"
_cell_formula_units_Z 40
_cell_length_a 20.731173
_cell_length_b 7.814474
_cell_length_c 11.945081
_cell_angle_alpha 90.000000
_cell_angle_beta 90.000000
_cell_angle_gamma 90.000000
_cell_volume 1935.141494
_symmetry_space_group_name_H-M "P M M A"
_symmetry_group_IT_number 51
_symmetry_cell_setting 'orthorhombic'
loop_
_space_group_symop_operation_xyz
x,y,z
1/2-x,-y,z
1/2+x,-y,-z
-x,y,-z
-x,-y,-z
1/2+x,y,-z
1/2-x,y,z
x,-y,z
loop_
_atom_site_type_symbol
_atom_site_label
_atom_site_fract_x
_atom_site_fract_y
_atom_site_fract_z
Si Si1 0.494368 0.198685 0.625618
Si Si2 0.624171 0.790394 0.227277
Si Si3 0.750000 0.206353 0.620834
Si Si4 0.620561 0.301995 0.749692
Si Si5 0.750000 0.791808 0.365280
Si Si6 0.825009 0.206481 0.988877
O O1 0.500000 0.274378 0.500000
O O2 0.439464 0.271315 0.708036
O O3 0.562206 0.205243 0.689622
O O4 0.475380 0.000000 0.608393
O O5 0.686131 0.739521 0.300012
O O6 0.638140 0.733326 0.100470
O O7 0.621877 0.000000 0.222826
O O8 0.686321 0.268891 0.682736
O O9 0.750000 0.265312 0.492887
O O10 0.750000 0.000000 0.624125
O O11 0.603301 0.500000 0.744544
O O12 0.636603 0.253463 0.877143
O O13 0.750000 0.000000 0.366185
O O14 0.750000 0.267227 0.985423
O O15 0.821648 0.000000 0.993526
#
# Coordination Sequence:
#
# PCOD9402393 Si02
#       6
#     8   8   4   8   4   8
#     4  10  21  39  62  89 121 157 199 244 293 353
#     4   9  17  32  58  91 120 147 189 245 295 341
#     4  11  21  36  61  88 114 149 198 249 296 353
#     4  12  25  39  57  83 120 159 197 243 296 353
#     4   9  16  30  57  92 118 139 182 245 302 345
#     4  10  19  35  61  88 116 151 195 245 293 344
#
# _framework density 20.670324000000001
#
# number of rings (size 3 to 8) (size 9 to 14) (size 15 to 20)
#    0.000    1.800    2.000    3.300    0.000    4.400 
#    0.000    5.000    0.000    2.400    0.000    0.000 
#    0.000    0.000    0.000    0.000    0.000    0.000 
#
# Total GULP energy -223425.833655 kJ/mol
# GULP energy per Si atom -5585.645841 kJ/mol
# Density = 2.062328 g / cm^3
# Si number density = 20.670324 Si / 1000 Ang^3
#
#
#
# Elastic Constant Matrix: (Units=GPa)
#
#
# Indices 1 2 3 4 5 6 
#
# 1 133.1546 -21.4397 79.2258 0.0000 0.0000 0.0000
# 2 -21.4397 29.4276 -5.3183 0.0000 0.0000 0.0000
# 3 79.2258 -5.3183 219.6395 0.0000 0.0000 0.0000
# 4 0.0000 0.0000 0.0000 -64.0291 0.0000 0.0000
# 5 0.0000 0.0000 0.0000 0.0000 52.6616 0.0000
# 6 0.0000 0.0000 0.0000 0.0000 0.0000 -13.4545
#
#
#
# Elastic Compliance Matrix: (Units=1/GPa)
#
#
# Indices 1 2 3 4 5 6 
#
# 1 0.010921 0.007276 -0.003763 0.000000 0.000000 0.000000
# 2 0.007276 0.038979 -0.001681 0.000000 0.000000 0.000000
# 3 -0.003763 -0.001681 0.005870 0.000000 0.000000 0.000000
# 4 0.000000 0.000000 0.000000 -0.015618 0.000000 0.000000
# 5 0.000000 0.000000 0.000000 0.000000 0.018989 0.000000
# 6 0.000000 0.000000 0.000000 0.000000 0.000000 -0.074325
#
#
# Mechanical properties :
#
#
# Convention : Reuss Voigt Hill
#
# Bulk Modulus (GPa) = 16.82535 54.12859 35.47697
# Shear Modulus (GPa) = 5197.26777 17.01921 2607.14349
#
# Velocity S-wave (km/s) = 50.19781 2.87255 35.55328
# Velocity P-wave (km/s) = 58.03377 6.10291 41.26235
#
# Compressibility (1/GPa) = 0.05943413
#
# Stress axis : x y z
#
# Youngs Moduli (GPa) = 91.57049 25.65480 170.37096
#
# Poissons Ratio (x) = -0.18667 0.64110
# Poissons Ratio (y) = -0.66628 0.28635
# Poissons Ratio (z) = 0.34458 0.04312
#
# Static dielectric constant tensor:
#      x y z
#    x 1.693940 0.000000 0.000000 
#    y 0.000000 1.761440 0.000000 
#    z 0.000000 0.000000 1.731390 
# 
# From -- ./inp_files/17942.got.cif
#   From: 2010.05.17/outbox.cif.g08.bks.cpg/sg51_9_cif.got.tgz:17942.got - 2010.06.03 11:52:47.
