data_PCOD9402576
_publ_section_title
;
Structure prediction by ZEFSAII (Michael W. Deem and Ramdas Pophale) SiO2 
 PCOD9402576
Probable space group: P M M A
;
_chemical_formula_sum "Si O2"
_cell_formula_units_Z 64
_cell_length_a 9.230534
_cell_length_b 15.272488
_cell_length_c 26.312422
_cell_angle_alpha 90.000000
_cell_angle_beta 90.000000
_cell_angle_gamma 90.000000
_cell_volume 3709.346849
_symmetry_space_group_name_H-M "P M M A"
_symmetry_group_IT_number 51
_symmetry_cell_setting 'orthorhombic'
loop_
_space_group_symop_operation_xyz
x,y,z
1/2-x,-y,z
1/2+x,-y,-z
-x,y,-z
-x,-y,-z
1/2+x,y,-z
1/2-x,y,z
x,-y,z
loop_
_atom_site_type_symbol
_atom_site_label
_atom_site_fract_x
_atom_site_fract_y
_atom_site_fract_z
Si Si1 0.916217 0.168578 0.348706
Si Si2 0.905075 0.374375 0.364873
Si Si3 0.919904 0.598354 0.246330
Si Si4 0.421886 0.894684 0.844372
Si Si5 0.574742 0.214792 0.756037
Si Si6 0.097232 0.398452 0.457380
Si Si7 0.582368 0.106320 0.949101
Si Si8 0.916909 0.894782 0.551121
O O1 0.750000 0.134879 0.341441
O O2 0.903315 0.270269 0.362860
O O3 0.006666 0.173486 0.295954
O O4 0.998415 0.126255 0.396489
O O5 0.750000 0.404302 0.385582
O O6 0.922156 0.405750 0.307649
O O7 0.029364 0.400292 0.402373
O O8 0.750000 0.613343 0.232096
O O9 0.962560 0.500000 0.227733
O O10 0.014680 0.685282 0.235407
O O11 0.250000 0.874167 0.842278
O O12 0.511161 0.843968 0.801446
O O13 0.491026 0.871024 0.898975
O O14 0.436384 0.000000 0.837983
O O15 0.750000 0.214863 0.753879
O O16 0.250000 0.353281 0.455876
O O17 0.114159 0.500000 0.472111
O O18 0.000000 0.355273 0.500000
O O19 0.750000 0.135829 0.946779
O O20 0.586041 0.000000 0.951011
O O21 0.500000 0.136226 0.000000
O O22 0.750000 0.863409 0.553064
O O23 0.000000 0.863585 0.500000
O O24 0.911789 0.000000 0.547492
#
# Coordination Sequence:
#
# PCOD9402576 Si02
#       8
#     8   8   8   8   8   8   8   8
#     4  10  21  37  54  71  93 122 155 192 239 295
#     4   9  18  32  49  68  88 111 141 177 220 274
#     4   9  18  34  55  75  97 128 164 204 253 308
#     4  10  20  34  52  74 104 145 188 226 265 309
#     4  11  22  35  52  76 107 138 172 217 264 316
#     4  10  20  31  43  60  82 108 136 166 203 252
#     4   9  16  27  45  71 104 142 184 226 265 306
#     4  10  21  37  56  76  95 117 150 194 245 301
#
# _framework density 17.253710000000002
#
# number of rings (size 3 to 8) (size 9 to 14) (size 15 to 20)
#    0.000    2.250    0.000    4.125    0.000    8.000 
#    0.000    0.000    0.000    0.000    0.000    0.000 
#    0.000    0.500    0.000    1.875    0.000    2.875 
#
# Total GULP energy -356504.474995 kJ/mol
# GULP energy per Si atom -5570.382422 kJ/mol
# Density = 1.721444 g / cm^3
# Si number density = 17.253710 Si / 1000 Ang^3
#
#
#
# Elastic Constant Matrix: (Units=GPa)
#
#
# Indices 1 2 3 4 5 6 
#
# 1 170.1993 38.4007 81.6560 0.0000 0.0000 0.0000
# 2 38.4007 48.6346 34.2981 0.0000 0.0000 0.0000
# 3 81.6560 34.2981 111.2960 0.0000 0.0000 0.0000
# 4 0.0000 0.0000 0.0000 2.1732 0.0000 0.0000
# 5 0.0000 0.0000 0.0000 0.0000 22.0552 0.0000
# 6 0.0000 0.0000 0.0000 0.0000 0.0000 21.5903
#
#
#
# Elastic Compliance Matrix: (Units=1/GPa)
#
#
# Indices 1 2 3 4 5 6 
#
# 1 0.009462 -0.003290 -0.005928 0.000000 0.000000 0.000000
# 2 -0.003290 0.027415 -0.006034 0.000000 0.000000 0.000000
# 3 -0.005928 -0.006034 0.015194 0.000000 0.000000 0.000000
# 4 0.000000 0.000000 0.000000 0.460142 0.000000 0.000000
# 5 0.000000 0.000000 0.000000 0.000000 0.045341 0.000000
# 6 0.000000 0.000000 0.000000 0.000000 0.000000 0.046317
#
#
# Mechanical properties :
#
#
# Convention : Reuss Voigt Hill
#
# Bulk Modulus (GPa) = 46.37077 70.98217 58.67647
# Shear Modulus (GPa) = 7.79344 20.88207 14.33775
#
# Velocity S-wave (km/s) = 2.12762 3.48270 2.88583
# Velocity P-wave (km/s) = 5.74194 7.57640 6.72204
#
# Compressibility (1/GPa) = 0.02156531
#
# Stress axis : x y z
#
# Youngs Moduli (GPa) = 105.68666 36.47632 65.81533
#
# Poissons Ratio (x) = 0.12002 0.39016
# Poissons Ratio (y) = 0.34774 0.39716
# Poissons Ratio (z) = 0.62652 0.22011
#
# Static dielectric constant tensor:
#      x y z
#    x 1.654230 0.000000 0.000000 
#    y 0.000000 1.614230 0.000000 
#    z 0.000000 0.000000 1.557290 
# 
# From -- ./inp_files/34920.got.cif
#   From: 2010.05.17/outbox.cif.g08.bks.cpg/sg51_18_cif.got.tgz:34920.got - 2010.06.03 11:52:47.
