data_PCOD9402748
_publ_section_title
;
Structure prediction by ZEFSAII (Michael W. Deem and Ramdas Pophale) SiO2 
 PCOD9402748
Probable space group: P M M A
;
_chemical_formula_sum "Si O2"
_cell_formula_units_Z 56
_cell_length_a 9.424704
_cell_length_b 15.031570
_cell_length_c 20.574992
_cell_angle_alpha 90.000000
_cell_angle_beta 90.000000
_cell_angle_gamma 90.000000
_cell_volume 2914.819981
_symmetry_space_group_name_H-M "P M M A"
_symmetry_group_IT_number 51
_symmetry_cell_setting 'orthorhombic'
loop_
_space_group_symop_operation_xyz
x,y,z
1/2-x,-y,z
1/2+x,-y,-z
-x,y,-z
-x,-y,-z
1/2+x,y,-z
1/2-x,y,z
x,-y,z
loop_
_atom_site_type_symbol
_atom_site_label
_atom_site_fract_x
_atom_site_fract_y
_atom_site_fract_z
Si Si1 0.579804 0.896284 0.199037
Si Si2 0.086765 0.874196 0.062910
Si Si3 0.095956 0.662825 0.057768
Si Si4 0.082160 0.896889 0.436821
Si Si5 0.899724 0.601990 0.160911
Si Si6 0.580227 0.219559 0.691404
Si Si7 0.087005 0.601410 0.683549
O O1 0.750000 0.878565 0.194276
O O2 0.502667 0.889728 0.128817
O O3 0.504652 0.826930 0.248716
O O4 0.562887 0.000000 0.220981
O O5 0.250000 0.906100 0.068074
O O6 0.100661 0.768646 0.051853
O O7 0.000000 0.907014 0.000000
O O8 0.250000 0.622953 0.052825
O O9 0.030204 0.647429 0.127864
O O10 0.000000 0.626624 0.000000
O O11 0.250000 0.894504 0.450259
O O12 0.057447 0.842752 0.371275
O O13 0.000000 0.862378 0.500000
O O14 0.039939 0.000000 0.426923
O O15 0.750000 0.644760 0.140311
O O16 0.899944 0.500000 0.138904
O O17 0.906133 0.600547 0.238002
O O18 0.750000 0.224232 0.705555
O O19 0.517610 0.316292 0.671651
O O20 0.250000 0.617621 0.660803
O O21 0.046205 0.500000 0.663302
#
# Coordination Sequence:
#
# PCOD9402748 Si02
#       7
#     8   8   8   8   8   8   8
#     4  11  24  39  56  81 112 148 191 236 284 342
#     4  10  21  37  56  76 100 135 180 230 284 341
#     4  10  20  32  47  67  89 118 159 207 262 324
#     4   9  19  36  58  86 121 159 196 233 277 333
#     4   9  18  32  48  66  91 124 162 208 264 322
#     4  11  22  36  58  88 121 154 188 234 290 342
#     4   9  19  36  57  81 110 146 187 230 277 331
#
# _framework density 19.212164000000001
#
# number of rings (size 3 to 8) (size 9 to 14) (size 15 to 20)
#    0.000    2.143    0.000    3.857    0.000    8.571 
#    0.000    2.857    0.000    0.429    0.000    0.000 
#    0.000    0.000    0.000    0.000    0.000    0.000 
#
# Total GULP energy -312227.520170 kJ/mol
# GULP energy per Si atom -5575.491432 kJ/mol
# Density = 1.916844 g / cm^3
# Si number density = 19.212164 Si / 1000 Ang^3
#
#
#
# Elastic Constant Matrix: (Units=GPa)
#
#
# Indices 1 2 3 4 5 6 
#
# 1 131.5165 49.9133 51.6718 0.0000 0.0000 0.0000
# 2 49.9133 80.6188 28.7736 0.0000 0.0000 0.0000
# 3 51.6718 28.7736 77.2783 0.0000 0.0000 0.0000
# 4 0.0000 0.0000 0.0000 12.0040 0.0000 0.0000
# 5 0.0000 0.0000 0.0000 0.0000 26.4621 0.0000
# 6 0.0000 0.0000 0.0000 0.0000 0.0000 11.4231
#
#
#
# Elastic Compliance Matrix: (Units=1/GPa)
#
#
# Indices 1 2 3 4 5 6 
#
# 1 0.011975 -0.005255 -0.006051 0.000000 0.000000 0.000000
# 2 -0.005255 0.016611 -0.002671 0.000000 0.000000 0.000000
# 3 -0.006051 -0.002671 0.017981 0.000000 0.000000 0.000000
# 4 0.000000 0.000000 0.000000 0.083305 0.000000 0.000000
# 5 0.000000 0.000000 0.000000 0.000000 0.037790 0.000000
# 6 0.000000 0.000000 0.000000 0.000000 0.000000 0.087542
#
#
# Mechanical properties :
#
#
# Convention : Reuss Voigt Hill
#
# Bulk Modulus (GPa) = 53.72489 61.12567 57.42528
# Shear Modulus (GPa) = 17.27943 20.58149 18.93046
#
# Velocity S-wave (km/s) = 3.00225 3.27658 3.14241
# Velocity P-wave (km/s) = 6.32793 6.79705 6.56668
#
# Compressibility (1/GPa) = 0.01861335
#
# Stress axis : x y z
#
# Youngs Moduli (GPa) = 83.50677 60.20198 55.61548
#
# Poissons Ratio (x) = 0.31634 0.33651
# Poissons Ratio (y) = 0.43879 0.14857
# Poissons Ratio (z) = 0.50527 0.16082
#
# Static dielectric constant tensor:
#      x y z
#    x 1.697030 0.000000 0.000000 
#    y 0.000000 1.725770 0.000000 
#    z 0.000000 0.000000 1.632620 
# 
# From -- ./inp_files/32044.got.cif
#   From: 2010.05.17/outbox.cif.g08.bks.cpg/sg51_17_cif.got.tgz:32044.got - 2010.06.03 11:52:47.
