data_PCOD9402961
_publ_section_title
;
Structure prediction by ZEFSAII (Michael W. Deem and Ramdas Pophale) SiO2 
 PCOD9402961
Probable space group: P M M A
;
_chemical_formula_sum "Si O2"
_cell_formula_units_Z 48
_cell_length_a 19.891850
_cell_length_b 7.372592
_cell_length_c 13.536394
_cell_angle_alpha 90.000000
_cell_angle_beta 90.000000
_cell_angle_gamma 90.000000
_cell_volume 1985.173015
_symmetry_space_group_name_H-M "P M M A"
_symmetry_group_IT_number 51
_symmetry_cell_setting 'orthorhombic'
loop_
_space_group_symop_operation_xyz
x,y,z
1/2-x,-y,z
1/2+x,-y,-z
-x,y,-z
-x,-y,-z
1/2+x,y,-z
1/2-x,y,z
x,-y,z
loop_
_atom_site_type_symbol
_atom_site_label
_atom_site_fract_x
_atom_site_fract_y
_atom_site_fract_z
Si Si1 0.536986 0.711739 0.681869
Si Si2 0.599402 0.278279 0.394804
Si Si3 0.461467 0.219403 0.098170
Si Si4 0.675024 0.210723 0.974431
Si Si5 0.826567 0.278954 0.596263
Si Si6 0.327671 0.718427 0.803427
O O1 0.542137 0.500000 0.656665
O O2 0.477898 0.784199 0.611756
O O3 0.512370 0.726440 0.794718
O O4 0.612671 0.783708 0.667884
O O5 0.598664 0.500000 0.395663
O O6 0.644444 0.226777 0.488300
O O7 0.633015 0.219037 0.292313
O O8 0.461748 0.000000 0.095535
O O9 0.500000 0.281957 0.000000
O O10 0.384794 0.288509 0.090034
O O11 0.750000 0.290858 0.968444
O O12 0.650701 0.217923 0.088354
O O13 0.680770 0.000000 0.947988
O O14 0.750000 0.215498 0.613771
O O15 0.822948 0.500000 0.599883
O O16 0.250000 0.772654 0.793460
O O17 0.330807 0.500000 0.805560
#
# Coordination Sequence:
#
# PCOD9402961 Si02
#       6
#     8   8   8   8   8   8
#     4  10  20  32  50  76 100 124 160 204 243 279
#     4   9  16  28  47  71 100 130 158 193 239 288
#     4  10  21  36  52  70  95 130 167 199 239 293
#     4   9  18  32  48  66  91 125 162 198 240 291
#     4   9  17  30  49  74 103 132 161 194 235 286
#     4   9  16  26  44  71  97 122 157 200 243 284
#
# _framework density 24.179252000000002
#
# number of rings (size 3 to 8) (size 9 to 14) (size 15 to 20)
#    0.000    2.667    0.000    2.000    0.000    5.667 
#    0.000    0.000    0.000    3.000    0.000    0.000 
#    0.000    0.000    0.000    0.000    0.000    0.000 
#
# Total GULP energy -268068.929159 kJ/mol
# GULP energy per Si atom -5584.769357 kJ/mol
# Density = 2.412422 g / cm^3
# Si number density = 24.179252 Si / 1000 Ang^3
#
#
#
# Elastic Constant Matrix: (Units=GPa)
#
#
# Indices 1 2 3 4 5 6 
#
# 1 102.9249 1.6423 15.0840 0.0000 0.0000 0.0000
# 2 1.6423 86.2588 -17.4340 0.0000 0.0000 0.0000
# 3 15.0840 -17.4340 45.2192 0.0000 0.0000 0.0000
# 4 0.0000 0.0000 0.0000 9.4043 0.0000 0.0000
# 5 0.0000 0.0000 0.0000 0.0000 43.2887 0.0000
# 6 0.0000 0.0000 0.0000 0.0000 0.0000 -14.8541
#
#
#
# Elastic Compliance Matrix: (Units=1/GPa)
#
#
# Indices 1 2 3 4 5 6 
#
# 1 0.010289 -0.000965 -0.003804 0.000000 0.000000 0.000000
# 2 -0.000965 0.012663 0.005204 0.000000 0.000000 0.000000
# 3 -0.003804 0.005204 0.025390 0.000000 0.000000 0.000000
# 4 0.000000 0.000000 0.000000 0.106334 0.000000 0.000000
# 5 0.000000 0.000000 0.000000 0.000000 0.023101 0.000000
# 6 0.000000 0.000000 0.000000 0.000000 0.000000 -0.067321
#
#
# Mechanical properties :
#
#
# Convention : Reuss Voigt Hill
#
# Bulk Modulus (GPa) = 20.32011 25.88749 23.10380
# Shear Modulus (GPa) = 39.68609 23.24183 31.46396
#
# Velocity S-wave (km/s) = 4.05573 3.10373 3.61124
# Velocity P-wave (km/s) = 5.50945 4.85530 5.19269
#
# Compressibility (1/GPa) = 0.04921232
#
# Stress axis : x y z
#
# Youngs Moduli (GPa) = 97.19403 78.96898 39.38593
#
# Poissons Ratio (x) = 0.07618 0.14982
# Poissons Ratio (y) = 0.09377 -0.20497
# Poissons Ratio (z) = 0.36972 -0.41096
#
# Static dielectric constant tensor:
#      x y z
#    x 1.949070 0.000000 0.000000 
#    y 0.000000 1.908180 0.000000 
#    z 0.000000 0.000000 1.875620 
# 
# From -- ./inp_files/18102.got.cif
#   From: 2010.05.17/outbox.cif.g08.bks.cpg/sg51_10_cif.got.tgz:18102.got - 2010.06.03 11:52:47.
