data_PCOD9402289
_publ_section_title
;
Structure prediction by ZEFSAII (Michael W. Deem and Ramdas Pophale) SiO2 
 PCOD9402289
Probable space group: P M M A
;
_chemical_formula_sum "Si O2"
_cell_formula_units_Z 52
_cell_length_a 7.589257
_cell_length_b 16.748177
_cell_length_c 17.642261
_cell_angle_alpha 90.000000
_cell_angle_beta 90.000000
_cell_angle_gamma 90.000000
_cell_volume 2242.441100
_symmetry_space_group_name_H-M "P M M A"
_symmetry_group_IT_number 51
_symmetry_cell_setting 'orthorhombic'
loop_
_space_group_symop_operation_xyz
x,y,z
1/2-x,-y,z
1/2+x,-y,-z
-x,y,-z
-x,-y,-z
1/2+x,y,-z
1/2-x,y,z
x,-y,z
loop_
_atom_site_type_symbol
_atom_site_label
_atom_site_fract_x
_atom_site_fract_y
_atom_site_fract_z
Si Si1 0.537267 0.090217 0.806788
Si Si2 0.034341 0.409609 0.131097
Si Si3 0.538428 0.500000 0.586849
Si Si4 0.539318 0.766051 0.915074
Si Si5 0.042546 0.371030 0.300100
Si Si6 0.458758 0.750360 0.581834
Si Si7 0.460403 0.914011 0.628399
O O1 0.750000 0.090476 0.812002
O O2 0.473330 0.166673 0.855723
O O3 0.488421 0.098091 0.718494
O O4 0.478681 0.000000 0.831090
O O5 0.250000 0.411029 0.127377
O O6 0.978009 0.500000 0.107174
O O7 0.975098 0.326498 0.092044
O O8 0.974305 0.394161 0.218029
O O9 0.750000 0.500000 0.591998
O O10 0.500000 0.500000 0.500000
O O11 0.467521 0.574610 0.633179
O O12 0.750000 0.761402 0.903470
O O13 0.500000 0.793645 0.000000
O O14 0.250000 0.387029 0.292838
O O15 0.023719 0.285767 0.338466
O O16 0.500000 0.711338 0.500000
O O17 0.250000 0.750303 0.587378
O O18 0.533785 0.839622 0.582702
O O19 0.250000 0.915850 0.616567
O O20 0.535167 0.000000 0.607520
#
# Coordination Sequence:
#
# PCOD9402289 Si02
#       7
#     8   8   4   8   8   8   8
#     4   9  18  34  56  82 109 138 176 218 261 316
#     4   9  17  33  57  80 102 134 179 223 265 316
#     4  10  20  32  50  76 103 132 166 208 257 310
#     4  10  21  35  53  79 110 143 176 216 263 313
#     4  10  19  35  57  78 101 133 175 219 264 316
#     4  11  23  36  51  75 107 142 179 219 266 318
#     4   9  19  36  56  78 105 137 175 221 269 314
#
# _framework density 23.189012999999999
#
# number of rings (size 3 to 8) (size 9 to 14) (size 15 to 20)
#    0.000    2.308    0.769    1.846    0.000    5.846 
#    0.000    0.769    0.000    0.923    0.000    0.000 
#    0.000    0.000    0.000    0.000    0.000    0.000 
#
# Total GULP energy -289945.810851 kJ/mol
# GULP energy per Si atom -5575.880978 kJ/mol
# Density = 2.313623 g / cm^3
# Si number density = 23.189013 Si / 1000 Ang^3
#
#
#
# Elastic Constant Matrix: (Units=GPa)
#
#
# Indices 1 2 3 4 5 6 
#
# 1 49.8396 -5.8546 -10.9094 0.0000 0.0000 0.0000
# 2 -5.8546 119.1452 8.3245 0.0000 0.0000 0.0000
# 3 -10.9094 8.3245 46.8552 0.0000 0.0000 0.0000
# 4 0.0000 0.0000 0.0000 22.2049 0.0000 0.0000
# 5 0.0000 0.0000 0.0000 0.0000 5.9077 0.0000
# 6 0.0000 0.0000 0.0000 0.0000 0.0000 6.4022
#
#
#
# Elastic Compliance Matrix: (Units=1/GPa)
#
#
# Indices 1 2 3 4 5 6 
#
# 1 0.021200 0.000706 0.004811 0.000000 0.000000 0.000000
# 2 0.000706 0.008522 -0.001350 0.000000 0.000000 0.000000
# 3 0.004811 -0.001350 0.022702 0.000000 0.000000 0.000000
# 4 0.000000 0.000000 0.000000 0.045035 0.000000 0.000000
# 5 0.000000 0.000000 0.000000 0.000000 0.169271 0.000000
# 6 0.000000 0.000000 0.000000 0.000000 0.000000 0.156197
#
#
# Mechanical properties :
#
#
# Convention : Reuss Voigt Hill
#
# Bulk Modulus (GPa) = 16.45879 22.10678 19.28279
# Shear Modulus (GPa) = 11.49827 21.85491 16.67659
#
# Velocity S-wave (km/s) = 2.22918 3.07329 2.68462
# Velocity P-wave (km/s) = 3.70658 4.70611 4.23593
#
# Compressibility (1/GPa) = 0.06075780
#
# Stress axis : x y z
#
# Youngs Moduli (GPa) = 47.16915 117.34195 44.04853
#
# Poissons Ratio (x) = -0.08280 -0.21191
# Poissons Ratio (y) = -0.03328 0.05946
# Poissons Ratio (z) = -0.22692 0.15839
#
# Static dielectric constant tensor:
#      x y z
#    x 1.868040 0.000000 0.000000 
#    y 0.000000 2.077570 0.000000 
#    z 0.000000 0.000000 1.816330 
# 
# From -- ./inp_files/27926.got.cif
#   From: 2010.05.17/outbox.cif.g08.bks.cpg/sg51_14_cif.got.tgz:27926.got - 2010.06.03 11:52:47.
