data_PCOD9402225
_publ_section_title
;
Structure prediction by ZEFSAII (Michael W. Deem and Ramdas Pophale) SiO2 
 PCOD9402225
Probable space group: P M M A
;
_chemical_formula_sum "Si O2"
_cell_formula_units_Z 56
_cell_length_a 15.730793
_cell_length_b 8.753694
_cell_length_c 21.823579
_cell_angle_alpha 90.000000
_cell_angle_beta 90.000000
_cell_angle_gamma 90.000000
_cell_volume 3005.162441
_symmetry_space_group_name_H-M "P M M A"
_symmetry_group_IT_number 51
_symmetry_cell_setting 'orthorhombic'
loop_
_space_group_symop_operation_xyz
x,y,z
1/2-x,-y,z
1/2+x,-y,-z
-x,y,-z
-x,-y,-z
1/2+x,y,-z
1/2-x,y,z
x,-y,z
loop_
_atom_site_type_symbol
_atom_site_label
_atom_site_fract_x
_atom_site_fract_y
_atom_site_fract_z
Si Si1 0.601134 0.181817 0.001519
Si Si2 0.652302 0.183599 0.558781
Si Si3 0.653338 0.815740 0.138151
Si Si4 0.002938 0.183225 0.348131
Si Si5 0.156475 0.316178 0.126153
Si Si6 0.848176 0.317200 0.424118
Si Si7 0.497459 0.316579 0.212750
O O1 0.641659 0.262148 0.943136
O O2 0.615775 0.000000 0.995884
O O3 0.500000 0.208998 0.000000
O O4 0.636440 0.230716 0.067530
O O5 0.750000 0.219424 0.576681
O O6 0.582754 0.228809 0.608982
O O7 0.635141 0.261998 0.493567
O O8 0.646592 0.000000 0.550399
O O9 0.750000 0.777926 0.155095
O O10 0.584236 0.739958 0.181632
O O11 0.643370 0.000000 0.140749
O O12 0.916591 0.241425 0.379736
O O13 0.011212 0.251713 0.280699
O O14 0.001444 0.000000 0.344724
O O15 0.250000 0.265220 0.147066
O O16 0.154642 0.500000 0.126907
O O17 0.080362 0.262035 0.169668
O O18 0.750000 0.275084 0.409614
O O19 0.855403 0.500000 0.420848
O O20 0.496620 0.500000 0.214681
#
# Coordination Sequence:
#
# PCOD9402225 Si02
#       7
#     8   8   8   8   8   8   8
#     4  10  19  34  60  88 114 142 180 232 284 335
#     4   9  19  37  60  87 118 149 184 228 277 330
#     4  10  21  38  59  83 112 146 185 230 282 338
#     4  11  23  38  59  84 113 151 192 231 279 332
#     4  10  22  39  58  82 113 149 188 230 281 339
#     4  10  21  37  59  88 119 150 186 229 277 329
#     4  11  24  40  57  79 111 150 191 235 280 330
#
# _framework density 18.634599000000001
#
# number of rings (size 3 to 8) (size 9 to 14) (size 15 to 20)
#    0.000    1.857    1.429    2.143    0.000    7.429 
#    0.000    0.000    0.000    0.000    0.000    0.000 
#    0.000    0.000    0.000    0.000    0.000    0.000 
#
# Total GULP energy -312852.650444 kJ/mol
# GULP energy per Si atom -5586.654472 kJ/mol
# Density = 1.859219 g / cm^3
# Si number density = 18.634599 Si / 1000 Ang^3
#
#
#
# Elastic Constant Matrix: (Units=GPa)
#
#
# Indices 1 2 3 4 5 6 
#
# 1 80.4352 28.5823 33.7817 0.0000 0.0000 0.0000
# 2 28.5823 21.3175 15.2921 0.0000 0.0000 0.0000
# 3 33.7817 15.2921 65.8302 0.0000 0.0000 0.0000
# 4 0.0000 0.0000 0.0000 43.8334 0.0000 0.0000
# 5 0.0000 0.0000 0.0000 0.0000 -3.6693 0.0000
# 6 0.0000 0.0000 0.0000 0.0000 0.0000 23.0697
#
#
#
# Elastic Compliance Matrix: (Units=1/GPa)
#
#
# Indices 1 2 3 4 5 6 
#
# 1 0.025708 -0.030005 -0.006222 0.000000 0.000000 0.000000
# 2 -0.030005 0.091311 -0.005813 0.000000 0.000000 0.000000
# 3 -0.006222 -0.005813 0.019734 0.000000 0.000000 0.000000
# 4 0.000000 0.000000 0.000000 0.022814 0.000000 0.000000
# 5 0.000000 0.000000 0.000000 0.000000 -0.272528 0.000000
# 6 0.000000 0.000000 0.000000 0.000000 0.000000 0.043347
#
#
# Mechanical properties :
#
#
# Convention : Reuss Voigt Hill
#
# Bulk Modulus (GPa) = 18.98588 35.87724 27.43156
# Shear Modulus (GPa) = 156.13188 18.64186 87.38687
#
# Velocity S-wave (km/s) = 9.16340 3.16632 6.85542
# Velocity P-wave (km/s) = 11.05296 5.71509 8.79858
#
# Compressibility (1/GPa) = 0.05267071
#
# Stress axis : x y z
#
# Youngs Moduli (GPa) = 38.89855 10.95160 50.67371
#
# Poissons Ratio (x) = 0.32861 0.31531
# Poissons Ratio (y) = 1.16716 0.29459
# Poissons Ratio (z) = 0.24204 0.06367
#
# Static dielectric constant tensor:
#      x y z
#    x 1.650720 0.000000 0.000000 
#    y 0.000000 1.631840 0.000000 
#    z 0.000000 0.000000 1.600460 
# 
# From -- ./inp_files/33355.got.cif
#   From: 2010.05.17/outbox.cif.g08.bks.cpg/sg51_17_cif.got.tgz:33355.got - 2010.06.03 11:52:47.
