data_PCOD9402264
_publ_section_title
;
Structure prediction by ZEFSAII (Michael W. Deem and Ramdas Pophale) SiO2 
 PCOD9402264
Probable space group: P M M A
;
_chemical_formula_sum "Si O2"
_cell_formula_units_Z 64
_cell_length_a 26.341175
_cell_length_b 13.892088
_cell_length_c 9.384171
_cell_angle_alpha 90.000000
_cell_angle_beta 90.000000
_cell_angle_gamma 90.000000
_cell_volume 3433.986491
_symmetry_space_group_name_H-M "P M M A"
_symmetry_group_IT_number 51
_symmetry_cell_setting 'orthorhombic'
loop_
_space_group_symop_operation_xyz
x,y,z
1/2-x,-y,z
1/2+x,-y,-z
-x,y,-z
-x,-y,-z
1/2+x,y,-z
1/2-x,y,z
x,-y,z
loop_
_atom_site_type_symbol
_atom_site_label
_atom_site_fract_x
_atom_site_fract_y
_atom_site_fract_z
Si Si1 0.085544 0.385227 0.962785
Si Si2 0.308508 0.115925 0.263816
Si Si3 0.927328 0.774601 0.241570
Si Si4 0.306908 0.385558 0.422977
Si Si5 0.614016 0.764839 0.546563
Si Si6 0.120843 0.885935 0.011330
Si Si7 0.195002 0.383689 0.087085
Si Si8 0.956070 0.235995 0.815130
O O1 0.078070 0.500000 0.967564
O O2 0.143483 0.359512 0.007171
O O3 0.051634 0.327209 0.078745
O O4 0.077242 0.336787 0.809387
O O5 0.250000 0.145729 0.282006
O O6 0.346050 0.161585 0.380683
O O7 0.330023 0.142098 0.106437
O O8 0.310911 0.000000 0.274049
O O9 0.913306 0.796605 0.402999
O O10 0.986301 0.794676 0.209155
O O11 0.890017 0.833546 0.137199
O O12 0.250000 0.361420 0.473245
O O13 0.313107 0.500000 0.435017
O O14 0.351696 0.327120 0.493794
O O15 0.309779 0.359551 0.254486
O O16 0.572518 0.741498 0.667471
O O17 0.074320 0.850680 0.110124
O O18 0.121416 0.000000 0.992114
O O19 0.250000 0.347795 0.034618
O O20 0.197137 0.500000 0.082281
#
# Coordination Sequence:
#
# PCOD9402264 Si02
#       8
#     8   8   8   8   8   8   8   8
#     4  10  19  35  55  77 107 144 186 232 277 323
#     4   9  19  38  63  87 109 138 179 220 260 321
#     4  11  24  36  50  80 114 145 181 226 278 324
#     4   9  17  31  53  78 102 134 180 226 262 306
#     4  11  21  36  55  79 113 149 180 219 273 330
#     4   9  19  38  62  84 106 136 177 227 276 320
#     4   8  14  27  50  76  96 123 171 223 264 306
#     4  10  21  37  56  77 104 145 192 231 264 316
#
# _framework density 18.637231
#
# number of rings (size 3 to 8) (size 9 to 14) (size 15 to 20)
#    0.000    2.375    1.250    3.000    0.000    3.000 
#    0.000    2.500    0.000    9.000    0.000    0.000 
#    0.000    0.000    0.000    0.000    0.000    0.000 
#
# Total GULP energy -356846.085030 kJ/mol
# GULP energy per Si atom -5575.720079 kJ/mol
# Density = 1.859481 g / cm^3
# Si number density = 18.637231 Si / 1000 Ang^3
#
#
#
# Elastic Constant Matrix: (Units=GPa)
#
#
# Indices 1 2 3 4 5 6 
#
# 1 77.9771 5.4193 27.7939 0.0000 0.0000 0.0000
# 2 5.4193 64.7766 20.1628 0.0000 0.0000 0.0000
# 3 27.7939 20.1628 83.5658 0.0000 0.0000 0.0000
# 4 0.0000 0.0000 0.0000 12.4334 0.0000 0.0000
# 5 0.0000 0.0000 0.0000 0.0000 8.8404 0.0000
# 6 0.0000 0.0000 0.0000 0.0000 0.0000 17.0344
#
#
#
# Elastic Compliance Matrix: (Units=1/GPa)
#
#
# Indices 1 2 3 4 5 6 
#
# 1 0.014555 0.000313 -0.004916 0.000000 0.000000 0.000000
# 2 0.000313 0.016698 -0.004133 0.000000 0.000000 0.000000
# 3 -0.004916 -0.004133 0.014599 0.000000 0.000000 0.000000
# 4 0.000000 0.000000 0.000000 0.080429 0.000000 0.000000
# 5 0.000000 0.000000 0.000000 0.000000 0.113117 0.000000
# 6 0.000000 0.000000 0.000000 0.000000 0.000000 0.058705
#
#
# Mechanical properties :
#
#
# Convention : Reuss Voigt Hill
#
# Bulk Modulus (GPa) = 35.23781 37.00793 36.12287
# Shear Modulus (GPa) = 15.38297 19.19121 17.28709
#
# Velocity S-wave (km/s) = 2.87608 3.21241 3.04889
# Velocity P-wave (km/s) = 5.47516 5.80169 5.64078
#
# Compressibility (1/GPa) = 0.02837861
#
# Stress axis : x y z
#
# Youngs Moduli (GPa) = 68.70530 59.88760 68.49793
#
# Poissons Ratio (x) = -0.01872 0.33676
# Poissons Ratio (y) = -0.02148 0.28309
# Poissons Ratio (z) = 0.33778 0.24751
#
# Static dielectric constant tensor:
#      x y z
#    x 1.674480 0.000000 0.000000 
#    y 0.000000 1.669060 0.000000 
#    z 0.000000 0.000000 1.627080 
# 
# From -- ./inp_files/11870.got.cif
#   From: 2010.05.17/outbox.cif.g08.bks.cpg/sg51_6_cif.got.tgz:11870.got - 2010.06.03 11:52:47.
