data_PCOD9402474
_publ_section_title
;
Structure prediction by ZEFSAII (Michael W. Deem and Ramdas Pophale) SiO2 
 PCOD9402474
Probable space group: P M M A
;
_chemical_formula_sum "Si O2"
_cell_formula_units_Z 54
_cell_length_a 14.679465
_cell_length_b 14.728215
_cell_length_c 12.431674
_cell_angle_alpha 90.000000
_cell_angle_beta 90.000000
_cell_angle_gamma 90.000000
_cell_volume 2687.756718
_symmetry_space_group_name_H-M "P M M A"
_symmetry_group_IT_number 51
_symmetry_cell_setting 'orthorhombic'
loop_
_space_group_symop_operation_xyz
x,y,z
1/2-x,-y,z
1/2+x,-y,-z
-x,y,-z
-x,-y,-z
1/2+x,y,-z
1/2-x,y,z
x,-y,z
loop_
_atom_site_type_symbol
_atom_site_label
_atom_site_fract_x
_atom_site_fract_y
_atom_site_fract_z
Si Si1 0.860763 0.900645 0.692050
Si Si2 0.858485 0.191566 0.477466
Si Si3 0.500000 0.347960 0.500000
Si Si4 0.250000 0.000000 0.047568
Si Si5 0.895437 0.151610 0.011963
Si Si6 0.487228 0.398490 0.741874
Si Si7 0.643025 0.226945 0.240149
Si Si8 0.142018 0.276939 0.172856
O O1 0.750000 0.903598 0.704034
O O2 0.882240 0.883159 0.566561
O O3 0.889930 0.811534 0.757364
O O4 0.894560 0.000000 0.726321
O O5 0.750000 0.205051 0.486134
O O6 0.881298 0.176453 0.352303
O O7 0.912567 0.282062 0.508304
O O8 0.493398 0.399528 0.612036
O O9 0.171442 0.079139 0.040176
O O10 0.873581 0.165188 0.136940
O O11 0.878068 0.246124 0.948875
O O12 0.000000 0.125915 0.000000
O O13 0.465222 0.500000 0.779902
O O14 0.414492 0.319484 0.768279
O O15 0.582083 0.361464 0.790050
O O16 0.750000 0.248935 0.245716
O O17 0.250000 0.289740 0.188973
#
# Coordination Sequence:
#
# PCOD9402474 Si02
#       8
#     8   8   4   2   8   8   8   8
#     4   9  18  33  57  86 117 160 207 248 305 377
#     4   9  18  34  58  85 120 164 204 249 313 378
#     4  10  19  36  61  88 128 164 205 260 325 374
#     4  12  26  44  68  98 128 172 226 252 312 376
#     4  12  24  43  67  97 127 169 213 264 310 370
#     4  11  23  39  65  96 125 166 216 268 323 392
#     4  10  21  42  65  86 126 168 206 264 327 376
#     4  11  22  39  65  88 131 168 205 266 324 379
#
# _framework density 20.091103
#
# number of rings (size 3 to 8) (size 9 to 14) (size 15 to 20)
#    0.000    1.630    4.444    0.444    1.037    0.593 
#    1.333    1.852    0.000    4.444    0.000    0.000 
#    0.000    0.000    0.000    0.000    0.000    0.000 
#
# Total GULP energy -301038.877872 kJ/mol
# GULP energy per Si atom -5574.794035 kJ/mol
# Density = 2.004537 g / cm^3
# Si number density = 20.091103 Si / 1000 Ang^3
#
#
#
# Elastic Constant Matrix: (Units=GPa)
#
#
# Indices 1 2 3 4 5 6 
#
# 1 87.7832 3.5067 5.1368 0.0000 0.0000 0.0000
# 2 3.5067 47.2361 7.5281 0.0000 0.0000 0.0000
# 3 5.1368 7.5281 70.8127 0.0000 0.0000 0.0000
# 4 0.0000 0.0000 0.0000 -6.4033 0.0000 0.0000
# 5 0.0000 0.0000 0.0000 0.0000 23.5217 0.0000
# 6 0.0000 0.0000 0.0000 0.0000 0.0000 22.8076
#
#
#
# Elastic Compliance Matrix: (Units=1/GPa)
#
#
# Indices 1 2 3 4 5 6 
#
# 1 0.011465 -0.000731 -0.000754 0.000000 0.000000 0.000000
# 2 -0.000731 0.021582 -0.002241 0.000000 0.000000 0.000000
# 3 -0.000754 -0.002241 0.014415 0.000000 0.000000 0.000000
# 4 0.000000 0.000000 0.000000 -0.156169 0.000000 0.000000
# 5 0.000000 0.000000 0.000000 0.000000 0.042514 0.000000
# 6 0.000000 0.000000 0.000000 0.000000 0.000000 0.043845
#
#
# Mechanical properties :
#
#
# Convention : Reuss Voigt Hill
#
# Bulk Modulus (GPa) = 24.99443 26.46392 25.72918
# Shear Modulus (GPa) = -3205.08953 20.62921 -1592.23016
#
# Velocity S-wave (km/s) = -39.98426 3.20782 -28.18201
# Velocity P-wave (km/s) = 46.03463 5.18852 32.34399
#
# Compressibility (1/GPa) = 0.04000891
#
# Stress axis : x y z
#
# Youngs Moduli (GPa) = 87.22178 46.33549 69.37348
#
# Poissons Ratio (x) = 0.03387 0.05231
# Poissons Ratio (y) = 0.06376 0.15549
# Poissons Ratio (z) = 0.06576 0.10385
#
# Static dielectric constant tensor:
#      x y z
#    x 1.705560 0.000000 0.000000 
#    y 0.000000 1.671570 0.000000 
#    z 0.000000 0.000000 1.770180 
# 
# From -- ./inp_files/16699.got.cif
#   From: 2010.05.17/outbox.cif.g08.bks.cpg/sg51_9_cif.got.tgz:16699.got - 2010.06.03 11:52:47.
