data_PCOD9402286
_publ_section_title
;
Structure prediction by ZEFSAII (Michael W. Deem and Ramdas Pophale) SiO2 
 PCOD9402286
Probable space group: P M M A
;
_chemical_formula_sum "Si O2"
_cell_formula_units_Z 24
_cell_length_a 5.370986
_cell_length_b 30.592733
_cell_length_c 7.201755
_cell_angle_alpha 90.000000
_cell_angle_beta 90.000000
_cell_angle_gamma 90.000000
_cell_volume 1183.342982
_symmetry_space_group_name_H-M "P M M A"
_symmetry_group_IT_number 51
_symmetry_cell_setting 'orthorhombic'
loop_
_space_group_symop_operation_xyz
x,y,z
1/2-x,-y,z
1/2+x,-y,-z
-x,y,-z
-x,-y,-z
1/2+x,y,-z
1/2-x,y,z
x,-y,z
loop_
_atom_site_type_symbol
_atom_site_label
_atom_site_fract_x
_atom_site_fract_y
_atom_site_fract_z
Si Si1 0.250000 0.367480 0.294553
Si Si2 0.750000 0.722977 0.873609
Si Si3 0.750000 0.179329 0.878200
Si Si4 0.750000 0.000000 0.626511
Si Si5 0.250000 0.094744 0.376778
Si Si6 0.750000 0.594680 0.285054
Si Si7 0.250000 0.500000 0.872948
O O1 0.250000 0.315374 0.278125
O O2 0.498803 0.385712 0.203740
O O3 0.250000 0.387805 0.502078
O O4 0.750000 0.771988 0.790686
O O5 0.500000 0.718676 0.000000
O O6 0.750000 0.137766 0.746302
O O7 0.500000 0.177097 0.000000
O O8 0.750000 0.952763 0.725862
O O9 0.500000 0.000000 0.500000
O O10 0.500000 0.095777 0.500000
O O11 0.750000 0.543058 0.255175
O O12 0.500000 0.500000 0.000000
#
# Coordination Sequence:
#
# PCOD9402286 Si02
#       7
#     4   4   4   2   4   4   2
#     4  10  21  39  60  85 113 149 183 228 276 326
#     4  10  21  37  59  83 113 151 188 227 282 340
#     4  10  21  38  56  82 121 156 188 246 309 353
#     4   8  16  30  52  76 114 148 196 246 302 340
#     4  10  19  35  56  85 111 156 202 251 290 357
#     4  10  23  40  60  86 117 147 179 228 281 315
#     4  12  26  42  62  90 116 148 186 224 274 342
#
# _framework density 20.281525999999999
#
# number of rings (size 3 to 8) (size 9 to 14) (size 15 to 20)
#    0.000    2.000    0.000    3.000    0.000    6.667 
#    6.000    0.833    0.000    0.000    0.000    0.000 
#    0.000    0.000    0.000    0.000    0.000    0.000 
#
# Total GULP energy -133812.730613 kJ/mol
# GULP energy per Si atom -5575.530442 kJ/mol
# Density = 2.023536 g / cm^3
# Si number density = 20.281526 Si / 1000 Ang^3
#
#
#
# Elastic Constant Matrix: (Units=GPa)
#
#
# Indices 1 2 3 4 5 6 
#
# 1 195.0542 48.6355 21.0744 0.0000 0.0000 0.0000
# 2 48.6355 278.6259 71.5286 0.0000 0.0000 0.0000
# 3 21.0744 71.5286 75.2103 0.0000 0.0000 0.0000
# 4 0.0000 0.0000 0.0000 62.1522 0.0000 0.0000
# 5 0.0000 0.0000 0.0000 0.0000 -9.1469 0.0000
# 6 0.0000 0.0000 0.0000 0.0000 0.0000 34.1800
#
#
#
# Elastic Compliance Matrix: (Units=1/GPa)
#
#
# Indices 1 2 3 4 5 6 
#
# 1 0.005398 -0.000733 -0.000815 0.000000 0.000000 0.000000
# 2 -0.000733 0.004848 -0.004405 0.000000 0.000000 0.000000
# 3 -0.000815 -0.004405 0.017714 0.000000 0.000000 0.000000
# 4 0.000000 0.000000 0.000000 0.016090 0.000000 0.000000
# 5 0.000000 0.000000 0.000000 0.000000 -0.109326 0.000000
# 6 0.000000 0.000000 0.000000 0.000000 0.000000 0.029257
#
#
# Mechanical properties :
#
#
# Convention : Reuss Voigt Hill
#
# Bulk Modulus (GPa) = 62.29543 92.37418 77.33481
# Shear Modulus (GPa) = -266.48884 44.61386 -110.93749
#
# Velocity S-wave (km/s) = -11.47520 4.69521 -7.40389
# Velocity P-wave (km/s) = 12.03293 8.66246 5.90564
#
# Compressibility (1/GPa) = 0.01605254
#
# Stress axis : x y z
#
# Youngs Moduli (GPa) = 185.26703 206.27652 56.45216
#
# Poissons Ratio (x) = 0.15117 0.04604
# Poissons Ratio (y) = 0.13577 0.24868
# Poissons Ratio (z) = 0.15108 0.90869
#
# Static dielectric constant tensor:
#      x y z
#    x 1.741490 0.000000 0.000000 
#    y 0.000000 1.741900 0.000000 
#    z 0.000000 0.000000 1.690690 
# 
# From -- ./inp_files/4228.got.cif
#   From: 2010.05.17/outbox.cif.g08.bks.cpg/sg51_3_cif.got.tgz:4228.got - 2010.06.03 11:52:47.
