data_PCOD9402273
_publ_section_title
;
Structure prediction by ZEFSAII (Michael W. Deem and Ramdas Pophale) SiO2 
 PCOD9402273
Probable space group: P M M A
;
_chemical_formula_sum "Si O2"
_cell_formula_units_Z 48
_cell_length_a 7.926579
_cell_length_b 10.648417
_cell_length_c 29.144835
_cell_angle_alpha 90.000000
_cell_angle_beta 90.000000
_cell_angle_gamma 90.000000
_cell_volume 2459.984912
_symmetry_space_group_name_H-M "P M M A"
_symmetry_group_IT_number 51
_symmetry_cell_setting 'orthorhombic'
loop_
_space_group_symop_operation_xyz
x,y,z
1/2-x,-y,z
1/2+x,-y,-z
-x,y,-z
-x,-y,-z
1/2+x,y,-z
1/2-x,y,z
x,-y,z
loop_
_atom_site_type_symbol
_atom_site_label
_atom_site_fract_x
_atom_site_fract_y
_atom_site_fract_z
Si Si1 0.953247 0.144720 0.051015
Si Si2 0.952509 0.000000 0.802590
Si Si3 0.048277 0.750520 0.354474
Si Si4 0.951750 0.253248 0.144796
Si Si5 0.453828 0.500000 0.304972
Si Si6 0.454511 0.500000 0.801984
Si Si7 0.549051 0.143347 0.448586
Si Si8 0.956688 0.000000 0.696781
O O1 0.750000 0.140764 0.053728
O O2 0.016426 0.229106 0.093103
O O3 0.014232 0.000000 0.056511
O O4 0.000000 0.187453 0.000000
O O5 0.014267 0.125415 0.827595
O O6 0.750000 0.000000 0.803642
O O7 0.007990 0.000000 0.749701
O O8 0.250000 0.749872 0.348485
O O9 0.982173 0.624754 0.330627
O O10 0.983286 0.875305 0.329039
O O11 0.013286 0.767349 0.408203
O O12 0.750000 0.269267 0.141552
O O13 0.016875 0.374839 0.171871
O O14 0.250000 0.500000 0.308508
O O15 0.496008 0.500000 0.251269
O O16 0.250000 0.500000 0.803296
O O17 0.500000 0.181691 0.500000
O O18 0.750000 0.138209 0.445987
O O19 0.482280 0.000000 0.441374
O O20 0.750000 0.000000 0.695644
#
# Coordination Sequence:
#
# PCOD9402273 Si02
#       8
#     8   4   8   8   4   4   8   4
#     4   9  17  31  52  76 106 140 176 222 277 330
#     4  11  21  33  54  83 108 139 184 233 278 327
#     4  10  19  35  56  78 107 145 181 219 270 323
#     4  10  20  37  55  78 110 146 183 225 277 331
#     4  10  22  38  57  80 113 150 184 226 277 324
#     4  10  22  38  59  80 108 152 192 224 272 334
#     4  10  20  34  55  84 113 141 177 223 273 323
#     4   9  18  31  50  75 104 135 174 221 268 315
#
# _framework density 19.512312999999999
#
# number of rings (size 3 to 8) (size 9 to 14) (size 15 to 20)
#    0.000    2.167    1.667    1.750    0.000    4.000 
#    0.000    2.500    0.000    0.000    0.000    0.000 
#    0.000    0.000    0.000    0.000    0.000    0.000 
#
# Total GULP energy -267955.229002 kJ/mol
# GULP energy per Si atom -5582.400604 kJ/mol
# Density = 1.946790 g / cm^3
# Si number density = 19.512313 Si / 1000 Ang^3
#
#
#
# Elastic Constant Matrix: (Units=GPa)
#
#
# Indices 1 2 3 4 5 6 
#
# 1 12.8780 7.4482 -3.4738 0.0000 0.0000 0.0000
# 2 7.4482 165.3878 111.7327 0.0000 0.0000 0.0000
# 3 -3.4738 111.7327 198.4322 0.0000 0.0000 0.0000
# 4 0.0000 0.0000 0.0000 37.0644 0.0000 0.0000
# 5 0.0000 0.0000 0.0000 0.0000 25.3897 0.0000
# 6 0.0000 0.0000 0.0000 0.0000 0.0000 -9.1973
#
#
#
# Elastic Compliance Matrix: (Units=1/GPa)
#
#
# Indices 1 2 3 4 5 6 
#
# 1 0.083653 -0.007677 0.005787 0.000000 0.000000 0.000000
# 2 -0.007677 0.010463 -0.006026 0.000000 0.000000 0.000000
# 3 0.005787 -0.006026 0.008534 0.000000 0.000000 0.000000
# 4 0.000000 0.000000 0.000000 0.026980 0.000000 0.000000
# 5 0.000000 0.000000 0.000000 0.000000 0.039386 0.000000
# 6 0.000000 0.000000 0.000000 0.000000 0.000000 -0.108728
#
#
# Mechanical properties :
#
#
# Convention : Reuss Voigt Hill
#
# Bulk Modulus (GPa) = 11.51832 67.56801 39.54317
# Shear Modulus (GPa) = 47.59228 28.05075 37.82151
#
# Velocity S-wave (km/s) = 4.94407 3.79567 4.40744
# Velocity P-wave (km/s) = 6.20546 7.34255 6.79782
#
# Compressibility (1/GPa) = 0.08681820
#
# Stress axis : x y z
#
# Youngs Moduli (GPa) = 11.95419 95.57363 117.17982
#
# Poissons Ratio (x) = 0.73372 -0.67814
# Poissons Ratio (y) = 0.09177 0.70612
# Poissons Ratio (z) = -0.06918 0.57592
#
# Static dielectric constant tensor:
#      x y z
#    x 1.694920 0.000000 0.000000 
#    y 0.000000 1.694710 0.000000 
#    z 0.000000 0.000000 1.672330 
# 
# From -- ./inp_files/37274.got.cif
#   From: 2010.05.17/outbox.cif.g08.bks.cpg/sg51_19_cif.got.tgz:37274.got - 2010.06.03 11:52:47.
