data_PCOD9402721
_publ_section_title
;
Structure prediction by ZEFSAII (Michael W. Deem and Ramdas Pophale) SiO2 
 PCOD9402721
Probable space group: P M M A
;
_chemical_formula_sum "Si O2"
_cell_formula_units_Z 48
_cell_length_a 9.367392
_cell_length_b 7.549936
_cell_length_c 32.509344
_cell_angle_alpha 90.000000
_cell_angle_beta 90.000000
_cell_angle_gamma 90.000000
_cell_volume 2299.165165
_symmetry_space_group_name_H-M "P M M A"
_symmetry_group_IT_number 51
_symmetry_cell_setting 'orthorhombic'
loop_
_space_group_symop_operation_xyz
x,y,z
1/2-x,-y,z
1/2+x,-y,-z
-x,y,-z
-x,-y,-z
1/2+x,y,-z
1/2-x,y,z
x,-y,z
loop_
_atom_site_type_symbol
_atom_site_label
_atom_site_fract_x
_atom_site_fract_y
_atom_site_fract_z
Si Si1 0.914655 0.216393 0.459393
Si Si2 0.089036 0.210480 0.700908
Si Si3 0.085652 0.783151 0.378072
Si Si4 0.588195 0.789153 0.961475
Si Si5 0.084364 0.712633 0.127735
Si Si6 0.914965 0.286453 0.782567
O O1 0.750000 0.273661 0.459762
O O2 0.000000 0.272778 0.500000
O O3 0.997112 0.271497 0.418220
O O4 0.913680 0.000000 0.459533
O O5 0.250000 0.282885 0.700875
O O6 0.992689 0.278672 0.663382
O O7 0.011608 0.235287 0.744369
O O8 0.099767 0.000000 0.694207
O O9 0.250000 0.725957 0.379687
O O10 0.087140 0.000000 0.377886
O O11 0.750000 0.716281 0.961020
O O12 0.520429 0.763275 0.916254
O O13 0.400868 0.000000 0.032967
O O14 0.500000 0.717504 0.000000
O O15 0.250000 0.773471 0.126616
O O16 0.084496 0.500000 0.128496
O O17 0.029402 0.773230 0.172350
O O18 0.750000 0.226103 0.777386
O O19 0.910739 0.500000 0.783404
#
# Coordination Sequence:
#
# PCOD9402721 Si02
#       6
#     8   8   8   8   8   8
#     4   9  15  22  33  51  78 113 151 189 231 281
#     4  10  20  32  46  67  95 125 156 191 234 284
#     4   9  16  26  40  58  82 114 152 193 235 278
#     4   9  17  29  45  66  92 121 151 183 221 265
#     4   8  15  29  48  68  89 114 147 187 227 268
#     4   9  18  33  52  72  93 119 154 196 239 282
#
# _framework density 20.877143
#
# number of rings (size 3 to 8) (size 9 to 14) (size 15 to 20)
#    0.000    3.000    0.000    2.500    0.000    6.333 
#    0.000    2.500    0.000    3.000    0.000    0.000 
#    0.000    0.667    0.000    2.500    0.000    5.500 
#
# Total GULP energy -267693.269948 kJ/mol
# GULP energy per Si atom -5576.943124 kJ/mol
# Density = 2.082963 g / cm^3
# Si number density = 20.877143 Si / 1000 Ang^3
#
#
#
# Elastic Constant Matrix: (Units=GPa)
#
#
# Indices 1 2 3 4 5 6 
#
# 1 150.4211 5.2781 120.4578 0.0000 0.0000 0.0000
# 2 5.2781 46.9111 0.1243 0.0000 0.0000 0.0000
# 3 120.4578 0.1243 247.3616 0.0000 0.0000 0.0000
# 4 0.0000 0.0000 0.0000 33.8566 0.0000 0.0000
# 5 0.0000 0.0000 0.0000 0.0000 35.2324 0.0000
# 6 0.0000 0.0000 0.0000 0.0000 0.0000 2.2274
#
#
#
# Elastic Compliance Matrix: (Units=1/GPa)
#
#
# Indices 1 2 3 4 5 6 
#
# 1 0.010967 -0.001220 -0.005340 0.000000 0.000000 0.000000
# 2 -0.001220 0.021453 0.000583 0.000000 0.000000 0.000000
# 3 -0.005340 0.000583 0.006643 0.000000 0.000000 0.000000
# 4 0.000000 0.000000 0.000000 0.029536 0.000000 0.000000
# 5 0.000000 0.000000 0.000000 0.000000 0.028383 0.000000
# 6 0.000000 0.000000 0.000000 0.000000 0.000000 0.448962
#
#
# Mechanical properties :
#
#
# Convention : Reuss Voigt Hill
#
# Bulk Modulus (GPa) = 36.88772 77.37938 57.13355
# Shear Modulus (GPa) = 8.81937 35.51884 22.16910
#
# Velocity S-wave (km/s) = 2.05757 4.12919 3.26219
# Velocity P-wave (km/s) = 4.83240 7.73810 6.45098
#
# Compressibility (1/GPa) = 0.02710929
#
# Stress axis : x y z
#
# Youngs Moduli (GPa) = 91.18135 46.61442 150.53830
#
# Poissons Ratio (x) = 0.05686 0.80388
# Poissons Ratio (y) = 0.11122 -0.08780
# Poissons Ratio (z) = 0.48691 -0.02719
#
# Static dielectric constant tensor:
#      x y z
#    x 1.722580 0.000000 0.000000 
#    y 0.000000 1.800480 0.000000 
#    z 0.000000 0.000000 1.753180 
# 
# From -- ./inp_files/36122.got.cif
#   From: 2010.05.17/outbox.cif.g08.bks.cpg/sg51_19_cif.got.tgz:36122.got - 2010.06.03 11:52:47.
