data_PCOD9402416
_publ_section_title
;
Structure prediction by ZEFSAII (Michael W. Deem and Ramdas Pophale) SiO2 
 PCOD9402416
Probable space group: P M M A
;
_chemical_formula_sum "Si O2"
_cell_formula_units_Z 48
_cell_length_a 19.871775
_cell_length_b 7.791432
_cell_length_c 15.422089
_cell_angle_alpha 90.000000
_cell_angle_beta 90.000000
_cell_angle_gamma 90.000000
_cell_volume 2387.795619
_symmetry_space_group_name_H-M "P M M A"
_symmetry_group_IT_number 51
_symmetry_cell_setting 'orthorhombic'
loop_
_space_group_symop_operation_xyz
x,y,z
1/2-x,-y,z
1/2+x,-y,-z
-x,y,-z
-x,-y,-z
1/2+x,y,-z
1/2-x,y,z
x,-y,z
loop_
_atom_site_type_symbol
_atom_site_label
_atom_site_fract_x
_atom_site_fract_y
_atom_site_fract_z
Si Si1 0.173264 0.210281 0.892790
Si Si2 0.326877 0.709626 0.375834
Si Si3 0.430732 0.300523 0.232876
Si Si4 0.580805 0.201319 0.267223
Si Si5 0.827011 0.292306 0.426355
Si Si6 0.429177 0.202692 0.034813
O O1 0.250000 0.270394 0.888648
O O2 0.128979 0.265167 0.810219
O O3 0.175674 0.000000 0.891194
O O4 0.133628 0.268162 0.978823
O O5 0.250000 0.759489 0.355381
O O6 0.328728 0.500000 0.376615
O O7 0.380076 0.772116 0.305155
O O8 0.341794 0.762728 0.474843
O O9 0.414042 0.500000 0.222884
O O10 0.507630 0.284757 0.263973
O O11 0.423913 0.223065 0.137387
O O12 0.620201 0.226207 0.356721
O O13 0.569273 0.000000 0.251589
O O14 0.750000 0.239288 0.405306
O O15 0.828541 0.500000 0.424216
O O16 0.431217 0.000000 0.015857
O O17 0.500000 0.276708 0.000000
#
# Coordination Sequence:
#
# PCOD9402416 Si02
#       6
#     8   8   8   8   8   8
#     4   9  18  33  54  77 102 139 182 216 257 325
#     4   8  17  36  58  78 106 145 183 221 272 332
#     4  11  22  35  56  83 108 140 184 228 272 324
#     4  11  21  35  54  79 113 148 182 222 273 327
#     4   9  18  35  58  81 107 142 183 226 271 320
#     4  10  19  36  56  75 104 142 176 214 273 333
#
# _framework density 20.102222000000001
#
# number of rings (size 3 to 8) (size 9 to 14) (size 15 to 20)
#    0.000    2.333    1.667    2.500    0.000    2.667 
#    0.000    5.000    0.000    5.500    0.000    0.000 
#    0.000    0.000    0.000    0.000    0.000    0.000 
#
# Total GULP energy -267954.399173 kJ/mol
# GULP energy per Si atom -5582.383316 kJ/mol
# Density = 2.005647 g / cm^3
# Si number density = 20.102222 Si / 1000 Ang^3
#
#
#
# Elastic Constant Matrix: (Units=GPa)
#
#
# Indices 1 2 3 4 5 6 
#
# 1 147.3175 -7.4565 99.1198 0.0000 0.0000 0.0000
# 2 -7.4565 20.2261 -13.7483 0.0000 0.0000 0.0000
# 3 99.1198 -13.7483 140.2763 0.0000 0.0000 0.0000
# 4 0.0000 0.0000 0.0000 24.5937 0.0000 0.0000
# 5 0.0000 0.0000 0.0000 0.0000 43.4095 0.0000
# 6 0.0000 0.0000 0.0000 0.0000 0.0000 7.8632
#
#
#
# Elastic Compliance Matrix: (Units=1/GPa)
#
#
# Indices 1 2 3 4 5 6 
#
# 1 0.012985 -0.001553 -0.009328 0.000000 0.000000 0.000000
# 2 -0.001553 0.053156 0.006307 0.000000 0.000000 0.000000
# 3 -0.009328 0.006307 0.014338 0.000000 0.000000 0.000000
# 4 0.000000 0.000000 0.000000 0.040661 0.000000 0.000000
# 5 0.000000 0.000000 0.000000 0.000000 0.023036 0.000000
# 6 0.000000 0.000000 0.000000 0.000000 0.000000 0.127175
#
#
# Mechanical properties :
#
#
# Convention : Reuss Voigt Hill
#
# Bulk Modulus (GPa) = 14.01900 51.51663 32.76781
# Shear Modulus (GPa) = 16.43243 30.50027 23.46635
#
# Velocity S-wave (km/s) = 2.86220 3.89943 3.42036
# Velocity P-wave (km/s) = 4.23225 6.77916 5.65106
#
# Compressibility (1/GPa) = 0.07133178
#
# Stress axis : x y z
#
# Youngs Moduli (GPa) = 77.00902 18.81261 69.74459
#
# Poissons Ratio (x) = 0.02922 0.65057
# Poissons Ratio (y) = 0.11961 -0.43990
# Poissons Ratio (z) = 0.71833 -0.11866
#
# Static dielectric constant tensor:
#      x y z
#    x 1.690320 0.000000 0.000000 
#    y 0.000000 1.752560 0.000000 
#    z 0.000000 0.000000 1.686370 
# 
# From -- ./inp_files/24759.got.cif
#   From: 2010.05.17/outbox.cif.g08.bks.cpg/sg51_13_cif.got.tgz:24759.got - 2010.06.03 11:52:47.
