data_PCOD9402019
_publ_section_title
;
Structure prediction by ZEFSAII (Michael W. Deem and Ramdas Pophale) SiO2 
 PCOD9402019
Probable space group: P M M A
;
_chemical_formula_sum "Si O2"
_cell_formula_units_Z 48
_cell_length_a 15.234613
_cell_length_b 14.698261
_cell_length_c 10.350753
_cell_angle_alpha 90.000000
_cell_angle_beta 90.000000
_cell_angle_gamma 90.000000
_cell_volume 2317.764606
_symmetry_space_group_name_H-M "P M M A"
_symmetry_group_IT_number 51
_symmetry_cell_setting 'orthorhombic'
loop_
_space_group_symop_operation_xyz
x,y,z
1/2-x,-y,z
1/2+x,-y,-z
-x,y,-z
-x,-y,-z
1/2+x,y,-z
1/2-x,y,z
x,-y,z
loop_
_atom_site_type_symbol
_atom_site_label
_atom_site_fract_x
_atom_site_fract_y
_atom_site_fract_z
Si Si1 0.876793 0.103628 0.260746
Si Si2 0.892730 0.204881 0.519341
Si Si3 0.899660 0.399450 0.452632
Si Si4 0.356289 0.603430 0.845115
Si Si5 0.086180 0.896156 0.223582
Si Si6 0.650594 0.777888 0.009708
O O1 0.855924 0.153090 0.394745
O O2 0.846446 0.161548 0.138936
O O3 0.982406 0.100068 0.249683
O O4 0.846025 0.000000 0.257809
O O5 0.861819 0.309493 0.519510
O O6 0.873189 0.150814 0.649897
O O7 0.000000 0.206880 0.500000
O O8 0.859859 0.500000 0.475440
O O9 0.894858 0.382373 0.298365
O O10 0.000000 0.404648 0.500000
O O11 0.250000 0.611866 0.833073
O O12 0.376087 0.500000 0.885317
O O13 0.386360 0.680662 0.944398
O O14 0.117635 0.000000 0.203268
O O15 0.100645 0.833471 0.099425
O O16 0.750000 0.763808 0.962278
#
# Coordination Sequence:
#
# PCOD9402019 Si02
#       6
#     8   8   8   8   8   8
#     4  10  19  34  56  79 103 139 187 227 263 319
#     4   9  17  32  54  80 105 137 175 222 268 319
#     4   9  16  29  53  83 110 136 173 226 279 318
#     4   9  18  34  56  80 108 144 183 223 271 330
#     4  10  21  36  54  77 109 147 181 220 274 325
#     4  11  22  36  54  78 107 142 181 221 268 320
#
# _framework density 20.709610000000001
#
# number of rings (size 3 to 8) (size 9 to 14) (size 15 to 20)
#    0.000    2.333    1.667    1.500    0.000    4.667 
#    0.000    2.500    0.000    5.000    0.000    0.000 
#    0.000    0.000    0.000    0.000    0.000    0.000 
#
# Total GULP energy -267965.013032 kJ/mol
# GULP energy per Si atom -5582.604438 kJ/mol
# Density = 2.066247 g / cm^3
# Si number density = 20.709610 Si / 1000 Ang^3
#
#
#
# Elastic Constant Matrix: (Units=GPa)
#
#
# Indices 1 2 3 4 5 6 
#
# 1 40.7568 27.3561 23.5748 0.0000 0.0000 0.0000
# 2 27.3561 200.0918 86.5155 0.0000 0.0000 0.0000
# 3 23.5748 86.5155 136.2406 0.0000 0.0000 0.0000
# 4 0.0000 0.0000 0.0000 32.5713 0.0000 0.0000
# 5 0.0000 0.0000 0.0000 0.0000 -57.4326 0.0000
# 6 0.0000 0.0000 0.0000 0.0000 0.0000 17.7488
#
#
#
# Elastic Compliance Matrix: (Units=1/GPa)
#
#
# Indices 1 2 3 4 5 6 
#
# 1 0.028074 -0.002395 -0.003337 0.000000 0.000000 0.000000
# 2 -0.002395 0.007094 -0.004090 0.000000 0.000000 0.000000
# 3 -0.003337 -0.004090 0.010515 0.000000 0.000000 0.000000
# 4 0.000000 0.000000 0.000000 0.030702 0.000000 0.000000
# 5 0.000000 0.000000 0.000000 0.000000 -0.017412 0.000000
# 6 0.000000 0.000000 0.000000 0.000000 0.000000 0.056342
#
#
# Mechanical properties :
#
#
# Convention : Reuss Voigt Hill
#
# Bulk Modulus (GPa) = 38.40615 72.44242 55.42428
# Shear Modulus (GPa) = 34.80984 14.55368 24.68176
#
# Velocity S-wave (km/s) = 4.10427 2.65382 3.45599
# Velocity P-wave (km/s) = 6.40667 6.66681 6.53803
#
# Compressibility (1/GPa) = 0.02603750
#
# Stress axis : x y z
#
# Youngs Moduli (GPa) = 35.62062 140.97020 95.10555
#
# Poissons Ratio (x) = 0.33769 0.31733
# Poissons Ratio (y) = 0.08533 0.38899
# Poissons Ratio (z) = 0.11885 0.57659
#
# Static dielectric constant tensor:
#      x y z
#    x 1.776850 0.000000 0.000000 
#    y 0.000000 1.764610 0.000000 
#    z 0.000000 0.000000 1.679730 
# 
# From -- ./inp_files/9617.got.cif
#   From: 2010.05.17/outbox.cif.g08.bks.cpg/sg51_5_cif.got.tgz:9617.got - 2010.06.03 11:52:47.
