data_PCOD9402823
_publ_section_title
;
Structure prediction by ZEFSAII (Michael W. Deem and Ramdas Pophale) SiO2 
 PCOD9402823
Probable space group: P M M A
;
_chemical_formula_sum "Si O2"
_cell_formula_units_Z 44
_cell_length_a 7.539821
_cell_length_b 13.579890
_cell_length_c 23.164004
_cell_angle_alpha 90.000000
_cell_angle_beta 90.000000
_cell_angle_gamma 90.000000
_cell_volume 2371.760975
_symmetry_space_group_name_H-M "P M M A"
_symmetry_group_IT_number 51
_symmetry_cell_setting 'orthorhombic'
loop_
_space_group_symop_operation_xyz
x,y,z
1/2-x,-y,z
1/2+x,-y,-z
-x,y,-z
-x,-y,-z
1/2+x,y,-z
1/2-x,y,z
x,-y,z
loop_
_atom_site_type_symbol
_atom_site_label
_atom_site_fract_x
_atom_site_fract_y
_atom_site_fract_z
Si Si1 0.036708 0.500000 0.432359
Si Si2 0.961325 0.889973 0.689443
Si Si3 0.544908 0.684755 0.639706
Si Si4 0.535023 0.608022 0.234855
Si Si5 0.537295 0.111416 0.062046
Si Si6 0.964077 0.191054 0.184034
O O1 0.250000 0.500000 0.422342
O O2 0.967952 0.397865 0.403560
O O3 0.000000 0.500000 0.500000
O O4 0.750000 0.891550 0.679704
O O5 0.031270 0.794647 0.653397
O O6 0.986145 0.868089 0.757857
O O7 0.030779 0.000000 0.676086
O O8 0.750000 0.700140 0.622534
O O9 0.536767 0.631643 0.701747
O O10 0.750000 0.610340 0.238970
O O11 0.480565 0.500000 0.215846
O O12 0.478484 0.697050 0.194572
O O13 0.750000 0.107743 0.066736
O O14 0.469977 0.154929 0.122215
O O15 0.467234 0.000000 0.058807
O O16 0.500000 0.160387 0.000000
O O17 0.750000 0.187907 0.182665
#
# Coordination Sequence:
#
# PCOD9402823 Si02
#       6
#     4   8   8   8   8   8
#     4  10  20  32  48  68  90 118 149 182 215 248
#     4   9  17  28  44  67  92 116 142 174 214 261
#     4   9  17  30  46  65  90 118 145 175 214 255
#     4   9  16  26  43  66  89 112 139 173 214 258
#     4   9  17  28  41  56  76 105 140 177 215 255
#     4   9  17  28  42  62  87 114 142 175 217 262
#
# _framework density 18.551617
#
# number of rings (size 3 to 8) (size 9 to 14) (size 15 to 20)
#    0.000    2.909    0.909    0.545    0.000    2.545 
#    0.000    1.818    0.000    1.091    0.000    0.000 
#    0.000    0.000    0.000    0.000    0.000    0.000 
#
# Total GULP energy -244940.529760 kJ/mol
# GULP energy per Si atom -5566.830222 kJ/mol
# Density = 1.850939 g / cm^3
# Si number density = 18.551617 Si / 1000 Ang^3
#
#
#
# Elastic Constant Matrix: (Units=GPa)
#
#
# Indices 1 2 3 4 5 6 
#
# 1 45.7725 7.1726 -0.6826 0.0000 0.0000 0.0000
# 2 7.1726 167.9745 76.0562 0.0000 0.0000 0.0000
# 3 -0.6826 76.0562 119.6017 0.0000 0.0000 0.0000
# 4 0.0000 0.0000 0.0000 30.8899 0.0000 0.0000
# 5 0.0000 0.0000 0.0000 0.0000 17.9636 0.0000
# 6 0.0000 0.0000 0.0000 0.0000 0.0000 3.6588
#
#
#
# Elastic Compliance Matrix: (Units=1/GPa)
#
#
# Indices 1 2 3 4 5 6 
#
# 1 0.022082 -0.001404 0.001019 0.000000 0.000000 0.000000
# 2 -0.001404 0.008450 -0.005381 0.000000 0.000000 0.000000
# 3 0.001019 -0.005381 0.011789 0.000000 0.000000 0.000000
# 4 0.000000 0.000000 0.000000 0.032373 0.000000 0.000000
# 5 0.000000 0.000000 0.000000 0.000000 0.055668 0.000000
# 6 0.000000 0.000000 0.000000 0.000000 0.000000 0.273315
#
#
# Mechanical properties :
#
#
# Convention : Reuss Voigt Hill
#
# Bulk Modulus (GPa) = 32.48019 55.38233 43.93126
# Shear Modulus (GPa) = 11.75161 27.22261 19.48711
#
# Velocity S-wave (km/s) = 2.51958 3.83482 3.24454
# Velocity P-wave (km/s) = 5.10004 7.03745 6.14557
#
# Compressibility (1/GPa) = 0.03078799
#
# Stress axis : x y z
#
# Youngs Moduli (GPa) = 45.28481 118.34518 84.82491
#
# Poissons Ratio (x) = 0.16620 -0.08644
# Poissons Ratio (y) = 0.06360 0.45648
# Poissons Ratio (z) = -0.04615 0.63686
#
# Static dielectric constant tensor:
#      x y z
#    x 1.695670 0.000000 0.000000 
#    y 0.000000 1.688950 0.000000 
#    z 0.000000 0.000000 1.614060 
# 
# From -- ./inp_files/27378.got.cif
#   From: 2010.05.17/outbox.cif.g08.bks.cpg/sg51_14_cif.got.tgz:27378.got - 2010.06.03 11:52:47.
