data_PCOD9402428
_publ_section_title
;
Structure prediction by ZEFSAII (Michael W. Deem and Ramdas Pophale) SiO2 
 PCOD9402428
Probable space group: P M M A
;
_chemical_formula_sum "Si O2"
_cell_formula_units_Z 44
_cell_length_a 10.333961
_cell_length_b 7.681638
_cell_length_c 29.008955
_cell_angle_alpha 90.000000
_cell_angle_beta 90.000000
_cell_angle_gamma 90.000000
_cell_volume 2302.781541
_symmetry_space_group_name_H-M "P M M A"
_symmetry_group_IT_number 51
_symmetry_cell_setting 'orthorhombic'
loop_
_space_group_symop_operation_xyz
x,y,z
1/2-x,-y,z
1/2+x,-y,-z
-x,y,-z
-x,-y,-z
1/2+x,y,-z
1/2-x,y,z
x,-y,z
loop_
_atom_site_type_symbol
_atom_site_label
_atom_site_fract_x
_atom_site_fract_y
_atom_site_fract_z
Si Si1 0.600654 0.289170 0.305298
Si Si2 0.750000 0.797073 0.059965
Si Si3 0.986628 0.297390 0.891656
Si Si4 0.750000 0.712732 0.952786
Si Si5 0.402069 0.500000 0.457625
Si Si6 0.101518 0.801523 0.383965
Si Si7 0.899411 0.712818 0.200956
O O1 0.750000 0.236483 0.314401
O O2 0.597977 0.500000 0.306362
O O3 0.499855 0.223610 0.342811
O O4 0.567018 0.234172 0.252978
O O5 0.622120 0.714366 0.081691
O O6 0.750000 0.000000 0.071927
O O7 0.750000 0.776049 0.005046
O O8 0.952648 0.500000 0.884965
O O9 0.874974 0.225396 0.924276
O O10 0.011085 0.223042 0.840620
O O11 0.750000 0.500000 0.955594
O O12 0.250000 0.500000 0.471719
O O13 0.500000 0.500000 0.500000
O O14 0.424479 0.333209 0.424920
O O15 0.250000 0.768905 0.368035
O O16 0.094136 0.000000 0.400477
O O17 0.750000 0.763593 0.192105
O O18 0.901072 0.500000 0.200142
#
# Coordination Sequence:
#
# PCOD9402428 Si02
#       7
#     8   4   8   4   4   8   8
#     4   9  17  31  55  86 115 147 190 236 285 341
#     4  12  24  36  54  76  98 138 182 214 268 337
#     4  10  19  36  58  78 104 133 171 223 276 328
#     4  10  22  36  54  80 104 128 172 224 274 329
#     4  10  22  40  62  88 122 160 202 248 297 340
#     4  10  21  38  59  85 121 161 201 242 290 349
#     4   8  14  28  53  81 106 137 176 224 277 329
#
# _framework density 19.107327999999999
#
# number of rings (size 3 to 8) (size 9 to 14) (size 15 to 20)
#    0.000    2.364    1.818    2.455    0.000    4.364 
#    1.636    0.909    0.000    0.000    0.000    0.000 
#    0.000    0.000    0.000    0.000    0.000    0.000 
#
# Total GULP energy -245533.526311 kJ/mol
# GULP energy per Si atom -5580.307416 kJ/mol
# Density = 1.906384 g / cm^3
# Si number density = 19.107328 Si / 1000 Ang^3
#
#
#
# Elastic Constant Matrix: (Units=GPa)
#
#
# Indices 1 2 3 4 5 6 
#
# 1 100.9855 9.2731 81.8010 0.0000 0.0000 0.0000
# 2 9.2731 56.3706 26.5470 0.0000 0.0000 0.0000
# 3 81.8010 26.5470 147.5655 0.0000 0.0000 0.0000
# 4 0.0000 0.0000 0.0000 -22.0850 0.0000 0.0000
# 5 0.0000 0.0000 0.0000 0.0000 -18.4957 0.0000
# 6 0.0000 0.0000 0.0000 0.0000 0.0000 31.5061
#
#
#
# Elastic Compliance Matrix: (Units=1/GPa)
#
#
# Indices 1 2 3 4 5 6 
#
# 1 0.018160 0.001916 -0.010411 0.000000 0.000000 0.000000
# 2 0.001916 0.019584 -0.004585 0.000000 0.000000 0.000000
# 3 -0.010411 -0.004585 0.013373 0.000000 0.000000 0.000000
# 4 0.000000 0.000000 0.000000 -0.045280 0.000000 0.000000
# 5 0.000000 0.000000 0.000000 0.000000 -0.054067 0.000000
# 6 0.000000 0.000000 0.000000 0.000000 0.000000 0.031740
#
#
# Mechanical properties :
#
#
# Convention : Reuss Voigt Hill
#
# Bulk Modulus (GPa) = 40.07162 60.01820 50.04491
# Shear Modulus (GPa) = 277.92285 10.67178 144.29731
#
# Velocity S-wave (km/s) = 12.07350 2.36586 8.69962
# Velocity P-wave (km/s) = 14.67571 6.24038 11.27650
#
# Compressibility (1/GPa) = 0.02495532
#
# Stress axis : x y z
#
# Youngs Moduli (GPa) = 55.06598 51.06237 74.77778
#
# Poissons Ratio (x) = -0.09782 0.77854
# Poissons Ratio (y) = -0.10549 0.34286
# Poissons Ratio (z) = 0.57332 0.23413
#
# Static dielectric constant tensor:
#      x y z
#    x 1.649100 0.000000 0.000000 
#    y 0.000000 1.724760 0.000000 
#    z 0.000000 0.000000 1.640150 
# 
# From -- ./inp_files/36838.got.cif
#   From: 2010.05.17/outbox.cif.g08.bks.cpg/sg51_19_cif.got.tgz:36838.got - 2010.06.03 11:52:47.
