data_PCOD9402759
_publ_section_title
;
Structure prediction by ZEFSAII (Michael W. Deem and Ramdas Pophale) SiO2 
 PCOD9402759
Probable space group: P M M A
;
_chemical_formula_sum "Si O2"
_cell_formula_units_Z 44
_cell_length_a 10.430095
_cell_length_b 14.227570
_cell_length_c 18.341821
_cell_angle_alpha 90.000000
_cell_angle_beta 90.000000
_cell_angle_gamma 90.000000
_cell_volume 2721.832816
_symmetry_space_group_name_H-M "P M M A"
_symmetry_group_IT_number 51
_symmetry_cell_setting 'orthorhombic'
loop_
_space_group_symop_operation_xyz
x,y,z
1/2-x,-y,z
1/2+x,-y,-z
-x,y,-z
-x,-y,-z
1/2+x,y,-z
1/2-x,y,z
x,-y,z
loop_
_atom_site_type_symbol
_atom_site_label
_atom_site_fract_x
_atom_site_fract_y
_atom_site_fract_z
Si Si1 0.500000 0.761391 0.000000
Si Si2 0.099177 0.113056 0.435852
Si Si3 0.594989 0.108716 0.868519
Si Si4 0.904085 0.201246 0.716898
Si Si5 0.888315 0.606484 0.089854
Si Si6 0.100421 0.607081 0.213336
O O1 0.543998 0.826590 0.933536
O O2 0.395930 0.687646 0.969807
O O3 0.250000 0.138254 0.450048
O O4 0.054061 0.159508 0.360011
O O5 0.000000 0.138102 0.500000
O O6 0.096377 0.000000 0.427250
O O7 0.750000 0.113139 0.869601
O O8 0.550435 0.147192 0.789644
O O9 0.557184 0.000000 0.877904
O O10 0.750000 0.189571 0.716477
O O11 0.930632 0.311346 0.729302
O O12 0.750000 0.613443 0.128197
O O13 0.895670 0.500000 0.059688
O O14 0.005994 0.618510 0.145047
O O15 0.250000 0.619960 0.191416
O O16 0.086472 0.500000 0.240238
#
# Coordination Sequence:
#
# PCOD9402759 Si02
#       6
#     4   8   8   8   8   8
#     4  12  20  32  48  66  94 132 170 210 250 294
#     4   9  17  30  51  77 103 128 157 195 239 288
#     4  10  20  32  47  68  93 126 171 214 247 287
#     4   9  16  30  51  74  96 125 162 201 243 289
#     4  10  21  34  48  69  97 128 163 207 259 307
#     4   9  17  31  52  75  96 122 162 209 249 290
#
# _framework density 16.165578
#
# number of rings (size 3 to 8) (size 9 to 14) (size 15 to 20)
#    0.000    2.364    1.818    1.636    0.000    2.909 
#    0.000    2.727    0.000    0.545    0.000    0.000 
#    0.000    0.000    0.000    0.000    0.000    0.000 
#
# Total GULP energy -245010.187707 kJ/mol
# GULP energy per Si atom -5568.413357 kJ/mol
# Density = 1.612878 g / cm^3
# Si number density = 16.165578 Si / 1000 Ang^3
#
#
#
# Elastic Constant Matrix: (Units=GPa)
#
#
# Indices 1 2 3 4 5 6 
#
# 1 58.7510 35.7535 43.6721 0.0000 0.0000 0.0000
# 2 35.7535 118.6033 76.3284 0.0000 0.0000 0.0000
# 3 43.6721 76.3284 133.6510 0.0000 0.0000 0.0000
# 4 0.0000 0.0000 0.0000 23.9289 0.0000 0.0000
# 5 0.0000 0.0000 0.0000 0.0000 19.8130 0.0000
# 6 0.0000 0.0000 0.0000 0.0000 0.0000 -197.9281
#
#
#
# Elastic Compliance Matrix: (Units=1/GPa)
#
#
# Indices 1 2 3 4 5 6 
#
# 1 0.023298 -0.003358 -0.005695 0.000000 0.000000 0.000000
# 2 -0.003358 0.013815 -0.006793 0.000000 0.000000 0.000000
# 3 -0.005695 -0.006793 0.013222 0.000000 0.000000 0.000000
# 4 0.000000 0.000000 0.000000 0.041790 0.000000 0.000000
# 5 0.000000 0.000000 0.000000 0.000000 0.050472 0.000000
# 6 0.000000 0.000000 0.000000 0.000000 0.000000 -0.005052
#
#
# Mechanical properties :
#
#
# Convention : Reuss Voigt Hill
#
# Bulk Modulus (GPa) = 53.63658 69.16814 61.40236
# Shear Modulus (GPa) = 28.49783 -20.48714 4.00534
#
# Velocity S-wave (km/s) = 4.20321 -3.56382 1.57578
# Velocity P-wave (km/s) = 7.53708 5.09370 6.43247
#
# Compressibility (1/GPa) = 0.01864399
#
# Stress axis : x y z
#
# Youngs Moduli (GPa) = 42.92210 72.38382 75.62942
#
# Poissons Ratio (x) = 0.24308 0.43071
# Poissons Ratio (y) = 0.14414 0.51372
# Poissons Ratio (z) = 0.24444 0.49167
#
# Static dielectric constant tensor:
#      x y z
#    x 1.568240 0.000000 0.000000 
#    y 0.000000 1.562410 0.000000 
#    z 0.000000 0.000000 1.527490 
# 
# From -- ./inp_files/23169.got.cif
#   From: 2010.05.17/outbox.cif.g08.bks.cpg/sg51_12_cif.got.tgz:23169.got - 2010.06.03 11:52:47.
