data_PCOD9402401
_publ_section_title
;
Structure prediction by ZEFSAII (Michael W. Deem and Ramdas Pophale) SiO2 
 PCOD9402401
Probable space group: P M M A
;
_chemical_formula_sum "Si O2"
_cell_formula_units_Z 48
_cell_length_a 14.604017
_cell_length_b 15.036529
_cell_length_c 11.683692
_cell_angle_alpha 90.000000
_cell_angle_beta 90.000000
_cell_angle_gamma 90.000000
_cell_volume 2565.665450
_symmetry_space_group_name_H-M "P M M A"
_symmetry_group_IT_number 51
_symmetry_cell_setting 'orthorhombic'
loop_
_space_group_symop_operation_xyz
x,y,z
1/2-x,-y,z
1/2+x,-y,-z
-x,y,-z
-x,-y,-z
1/2+x,y,-z
1/2-x,y,z
x,-y,z
loop_
_atom_site_type_symbol
_atom_site_label
_atom_site_fract_x
_atom_site_fract_y
_atom_site_fract_z
Si Si1 0.355912 0.745457 0.188906
Si Si2 0.390392 0.897603 0.010958
Si Si3 0.641268 0.605995 0.257643
Si Si4 0.482160 0.246787 0.633917
Si Si5 0.361045 0.600511 0.004712
Si Si6 0.353430 0.894624 0.752724
O O1 0.250000 0.728139 0.220252
O O2 0.423269 0.748817 0.295757
O O3 0.389885 0.669450 0.100749
O O4 0.360253 0.835260 0.113916
O O5 0.354902 0.867564 0.886684
O O6 0.362622 0.000000 0.028925
O O7 0.500000 0.894667 0.000000
O O8 0.750000 0.625802 0.271066
O O9 0.629887 0.500000 0.275275
O O10 0.578877 0.666414 0.337429
O O11 0.614759 0.625239 0.125248
O O12 0.500000 0.238668 0.500000
O O13 0.424728 0.163687 0.683301
O O14 0.250000 0.599745 0.005948
O O15 0.392170 0.500000 0.028646
O O16 0.250000 0.882294 0.709392
O O17 0.375544 0.000000 0.749933
#
# Coordination Sequence:
#
# PCOD9402401 Si02
#       6
#     8   8   8   8   8   8
#     4  11  23  37  56  85 121 157 193 236 294 353
#     4  10  19  35  61  91 122 148 179 231 300 365
#     4   9  19  38  64  91 116 145 188 243 300 355
#     4  12  26  40  57  80 116 160 208 249 283 327
#     4   8  16  33  58  88 118 144 177 229 292 355
#     4  10  21  39  64  90 114 146 189 239 297 356
#
# _framework density 18.708597000000001
#
# number of rings (size 3 to 8) (size 9 to 14) (size 15 to 20)
#    0.000    2.000    1.667    3.000    0.000    5.000 
#    0.000    1.667    0.000    2.000    0.000    0.000 
#    0.000    0.000    0.000    0.000    0.000    0.000 
#
# Total GULP energy -268198.090749 kJ/mol
# GULP energy per Si atom -5587.460224 kJ/mol
# Density = 1.866602 g / cm^3
# Si number density = 18.708597 Si / 1000 Ang^3
#
#
#
# Elastic Constant Matrix: (Units=GPa)
#
#
# Indices 1 2 3 4 5 6 
#
# 1 112.5769 35.7401 51.2383 0.0000 0.0000 0.0000
# 2 35.7401 63.9222 49.8893 0.0000 0.0000 0.0000
# 3 51.2383 49.8893 128.4616 0.0000 0.0000 0.0000
# 4 0.0000 0.0000 0.0000 -3.0712 0.0000 0.0000
# 5 0.0000 0.0000 0.0000 0.0000 -9.4881 0.0000
# 6 0.0000 0.0000 0.0000 0.0000 0.0000 25.0839
#
#
#
# Elastic Compliance Matrix: (Units=1/GPa)
#
#
# Indices 1 2 3 4 5 6 
#
# 1 0.011560 -0.004111 -0.003014 0.000000 0.000000 0.000000
# 2 -0.004111 0.023910 -0.007646 0.000000 0.000000 0.000000
# 3 -0.003014 -0.007646 0.011956 0.000000 0.000000 0.000000
# 4 0.000000 0.000000 0.000000 -0.325603 0.000000 0.000000
# 5 0.000000 0.000000 0.000000 0.000000 -0.105396 0.000000
# 6 0.000000 0.000000 0.000000 0.000000 0.000000 0.039866
#
#
# Mechanical properties :
#
#
# Convention : Reuss Voigt Hill
#
# Bulk Modulus (GPa) = 55.91690 64.29957 60.10824
# Shear Modulus (GPa) = -16.22306 13.71112 -1.25597
#
# Velocity S-wave (km/s) = -2.94793 2.71011 -0.82024
# Velocity P-wave (km/s) = 4.28558 6.65105 5.59476
#
# Compressibility (1/GPa) = 0.01788368
#
# Stress axis : x y z
#
# Youngs Moduli (GPa) = 86.50674 41.82372 83.63903
#
# Poissons Ratio (x) = 0.17193 0.25211
# Poissons Ratio (y) = 0.35560 0.63951
# Poissons Ratio (z) = 0.26076 0.31979
#
# Static dielectric constant tensor:
#      x y z
#    x 1.677760 0.000000 0.000000 
#    y 0.000000 1.654870 0.000000 
#    z 0.000000 0.000000 1.595710 
# 
# From -- ./inp_files/16386.got.cif
#   From: 2010.05.17/outbox.cif.g08.bks.cpg/sg51_9_cif.got.tgz:16386.got - 2010.06.03 11:52:47.
