data_PCOD9402876
_publ_section_title
;
Structure prediction by ZEFSAII (Michael W. Deem and Ramdas Pophale) SiO2 
 PCOD9402876
Probable space group: P M M A
;
_chemical_formula_sum "Si O2"
_cell_formula_units_Z 64
_cell_length_a 9.051219
_cell_length_b 14.566288
_cell_length_c 28.993543
_cell_angle_alpha 90.000000
_cell_angle_beta 90.000000
_cell_angle_gamma 90.000000
_cell_volume 3822.585910
_symmetry_space_group_name_H-M "P M M A"
_symmetry_group_IT_number 51
_symmetry_cell_setting 'orthorhombic'
loop_
_space_group_symop_operation_xyz
x,y,z
1/2-x,-y,z
1/2+x,-y,-z
-x,y,-z
-x,-y,-z
1/2+x,y,-z
1/2-x,y,z
x,-y,z
loop_
_atom_site_type_symbol
_atom_site_label
_atom_site_fract_x
_atom_site_fract_y
_atom_site_fract_z
Si Si1 0.572387 0.393563 0.951229
Si Si2 0.926452 0.394483 0.681953
Si Si3 0.073879 0.107215 0.549379
Si Si4 0.927389 0.106631 0.177992
Si Si5 0.577392 0.889844 0.284657
Si Si6 0.574522 0.213954 0.632396
Si Si7 0.077841 0.610043 0.779276
Si Si8 0.427080 0.720745 0.138455
O O1 0.750000 0.389590 0.955528
O O2 0.532570 0.500000 0.940819
O O3 0.527696 0.328060 0.909257
O O4 0.500000 0.368954 0.000000
O O5 0.750000 0.389456 0.690842
O O6 0.962497 0.500000 0.670078
O O7 0.960855 0.320418 0.642778
O O8 0.010828 0.369735 0.729017
O O9 0.250000 0.117494 0.546200
O O10 0.000000 0.126220 0.500000
O O11 0.008693 0.171168 0.589024
O O12 0.042444 0.000000 0.560932
O O13 0.750000 0.114271 0.173422
O O14 0.962519 0.130458 0.231512
O O15 0.008056 0.177802 0.145062
O O16 0.966998 0.000000 0.170436
O O17 0.750000 0.864584 0.291712
O O18 0.477154 0.840014 0.321851
O O19 0.567350 0.000000 0.290252
O O20 0.750000 0.204268 0.626130
O O21 0.250000 0.636469 0.780822
O O22 0.066654 0.500000 0.785756
O O23 0.990192 0.661128 0.819285
O O24 0.250000 0.722273 0.140538
#
# Coordination Sequence:
#
# PCOD9402876 Si02
#       8
#     8   8   8   8   8   8   8   8
#     4   9  19  35  53  74 100 128 158 196 245 299
#     4   9  19  35  51  69  99 137 172 208 250 291
#     4  10  21  37  56  77 102 130 158 194 243 295
#     4   9  19  35  52  71  99 135 173 212 250 288
#     4   9  18  32  48  68  98 134 167 200 241 287
#     4  11  21  31  49  76 101 129 166 204 243 290
#     4  10  20  32  48  73 103 135 172 210 247 293
#     4  11  21  32  50  75 102 132 165 203 250 303
#
# _framework density 16.742594
#
# number of rings (size 3 to 8) (size 9 to 14) (size 15 to 20)
#    0.000    2.250    0.000    3.750    0.000    8.500 
#    0.000    2.500    0.000    0.750    0.000    0.000 
#    0.000    0.000    0.000    0.000    0.000    0.000 
#
# Total GULP energy -357299.048055 kJ/mol
# GULP energy per Si atom -5582.797626 kJ/mol
# Density = 1.670449 g / cm^3
# Si number density = 16.742594 Si / 1000 Ang^3
#
#
#
# Elastic Constant Matrix: (Units=GPa)
#
#
# Indices 1 2 3 4 5 6 
#
# 1 51.1209 52.6921 59.5254 0.0000 0.0000 0.0000
# 2 52.6921 96.7393 91.9401 0.0000 0.0000 0.0000
# 3 59.5254 91.9401 123.3503 0.0000 0.0000 0.0000
# 4 0.0000 0.0000 0.0000 31.9991 0.0000 0.0000
# 5 0.0000 0.0000 0.0000 0.0000 30.1521 0.0000
# 6 0.0000 0.0000 0.0000 0.0000 0.0000 26.8082
#
#
#
# Elastic Compliance Matrix: (Units=1/GPa)
#
#
# Indices 1 2 3 4 5 6 
#
# 1 0.050152 -0.014799 -0.013172 0.000000 0.000000 0.000000
# 2 -0.014799 0.039814 -0.022534 0.000000 0.000000 0.000000
# 3 -0.013172 -0.022534 0.031259 0.000000 0.000000 0.000000
# 4 0.000000 0.000000 0.000000 0.031251 0.000000 0.000000
# 5 0.000000 0.000000 0.000000 0.000000 0.033165 0.000000
# 6 0.000000 0.000000 0.000000 0.000000 0.000000 0.037302
#
#
# Mechanical properties :
#
#
# Convention : Reuss Voigt Hill
#
# Bulk Modulus (GPa) = 49.46513 75.50286 62.48400
# Shear Modulus (GPa) = 15.11983 22.26208 18.69095
#
# Velocity S-wave (km/s) = 3.00838 3.65042 3.34484
# Velocity P-wave (km/s) = 6.45568 7.93483 7.23316
#
# Compressibility (1/GPa) = 0.02021626
#
# Stress axis : x y z
#
# Youngs Moduli (GPa) = 19.93926 25.11685 31.99048
#
# Poissons Ratio (x) = 0.37170 0.42137
# Poissons Ratio (y) = 0.29508 0.72088
# Poissons Ratio (z) = 0.26263 0.56599
#
# Static dielectric constant tensor:
#      x y z
#    x 1.560530 0.000000 0.000000 
#    y 0.000000 1.582370 0.000000 
#    z 0.000000 0.000000 1.529100 
# 
# From -- ./inp_files/34943.got.cif
#   From: 2010.05.17/outbox.cif.g08.bks.cpg/sg51_18_cif.got.tgz:34943.got - 2010.06.03 11:52:47.
