data_PCOD9402688
_publ_section_title
;
Structure prediction by ZEFSAII (Michael W. Deem and Ramdas Pophale) SiO2 
 PCOD9402688
Probable space group: P M M A
;
_chemical_formula_sum "Si O2"
_cell_formula_units_Z 46
_cell_length_a 9.301446
_cell_length_b 10.713043
_cell_length_c 25.834545
_cell_angle_alpha 90.000000
_cell_angle_beta 90.000000
_cell_angle_gamma 90.000000
_cell_volume 2574.329505
_symmetry_space_group_name_H-M "P M M A"
_symmetry_group_IT_number 51
_symmetry_cell_setting 'orthorhombic'
loop_
_space_group_symop_operation_xyz
x,y,z
1/2-x,-y,z
1/2+x,-y,-z
-x,y,-z
-x,-y,-z
1/2+x,y,-z
1/2-x,y,z
x,-y,z
loop_
_atom_site_type_symbol
_atom_site_label
_atom_site_fract_x
_atom_site_fract_y
_atom_site_fract_z
Si Si1 0.952127 0.000000 0.923200
Si Si2 0.083320 0.152222 0.551947
Si Si3 0.921135 0.850081 0.238916
Si Si4 0.089584 0.352323 0.951514
Si Si5 0.415921 0.151571 0.344934
Si Si6 0.750000 0.000000 0.023892
Si Si7 0.585876 0.250397 0.859132
O O1 0.910961 0.120546 0.890142
O O2 0.121920 0.000000 0.932654
O O3 0.869874 0.000000 0.977028
O O4 0.250000 0.191618 0.552221
O O5 0.000000 0.190848 0.500000
O O6 0.997700 0.193091 0.603154
O O7 0.083853 0.000000 0.552291
O O8 0.750000 0.827141 0.239129
O O9 0.993841 0.816828 0.293730
O O10 0.001811 0.775590 0.193752
O O11 0.941885 0.000000 0.230859
O O12 0.250000 0.294902 0.950590
O O13 0.104481 0.500000 0.960735
O O14 0.005135 0.335481 0.898404
O O15 0.000000 0.298802 0.000000
O O16 0.250000 0.194005 0.342614
O O17 0.412143 0.000000 0.346794
O O18 0.750000 0.293880 0.851340
#
# Coordination Sequence:
#
# PCOD9402688 Si02
#       7
#     4   8   8   8   8   2   8
#     4  11  24  36  50  74  98 126 149 184 228 278
#     4   9  15  22  33  50  72 101 142 188 232 272
#     4  10  20  32  46  65  90 121 155 189 230 278
#     4  10  23  41  59  77  96 120 152 190 233 280
#     4   9  16  26  39  54  78 110 145 187 231 274
#     4  10  24  38  48  66 102 126 152 178 226 284
#     4  12  23  35  53  73  99 124 154 190 229 280
#
# _framework density 17.868729999999999
#
# number of rings (size 3 to 8) (size 9 to 14) (size 15 to 20)
#    0.000    1.913    1.739    2.609    4.870    5.913 
#    0.000    0.000    0.000    0.000    0.000    0.000 
#    0.000    0.000    0.000    0.000    0.000    0.870 
#
# Total GULP energy -256210.616209 kJ/mol
# GULP energy per Si atom -5569.796005 kJ/mol
# Density = 1.782806 g / cm^3
# Si number density = 17.868730 Si / 1000 Ang^3
#
#
#
# Elastic Constant Matrix: (Units=GPa)
#
#
# Indices 1 2 3 4 5 6 
#
# 1 221.1994 5.5087 106.3762 0.0000 0.0000 0.0000
# 2 5.5087 9.5309 1.4281 0.0000 0.0000 0.0000
# 3 106.3762 1.4281 170.3159 0.0000 0.0000 0.0000
# 4 0.0000 0.0000 0.0000 16.2842 0.0000 0.0000
# 5 0.0000 0.0000 0.0000 0.0000 38.7914 0.0000
# 6 0.0000 0.0000 0.0000 0.0000 0.0000 13.2461
#
#
#
# Elastic Compliance Matrix: (Units=1/GPa)
#
#
# Indices 1 2 3 4 5 6 
#
# 1 0.006557 -0.003180 -0.004068 0.000000 0.000000 0.000000
# 2 -0.003180 0.106596 0.001092 0.000000 0.000000 0.000000
# 3 -0.004068 0.001092 0.008403 0.000000 0.000000 0.000000
# 4 0.000000 0.000000 0.000000 0.061409 0.000000 0.000000
# 5 0.000000 0.000000 0.000000 0.000000 0.025779 0.000000
# 6 0.000000 0.000000 0.000000 0.000000 0.000000 0.075494
#
#
# Mechanical properties :
#
#
# Convention : Reuss Voigt Hill
#
# Bulk Modulus (GPa) = 9.15385 69.74135 39.44760
# Shear Modulus (GPa) = 15.01662 32.84657 23.93159
#
# Velocity S-wave (km/s) = 2.90209 4.29209 3.66362
# Velocity P-wave (km/s) = 4.04517 7.97981 6.32616
#
# Compressibility (1/GPa) = 0.10924365
#
# Stress axis : x y z
#
# Youngs Moduli (GPa) = 152.51966 9.38123 119.00024
#
# Poissons Ratio (x) = 0.02983 0.48414
# Poissons Ratio (y) = 0.48501 -0.12999
# Poissons Ratio (z) = 0.62051 -0.01025
#
# Static dielectric constant tensor:
#      x y z
#    x 1.648900 0.000000 0.000000 
#    y 0.000000 1.691020 0.000000 
#    z 0.000000 0.000000 1.586270 
# 
# From -- ./inp_files/34568.got.cif
#   From: 2010.05.17/outbox.cif.g08.bks.cpg/sg51_18_cif.got.tgz:34568.got - 2010.06.03 11:52:47.
