data_PCOD9402598
_publ_section_title
;
Structure prediction by ZEFSAII (Michael W. Deem and Ramdas Pophale) SiO2 
 PCOD9402598
Probable space group: P M M A
;
_chemical_formula_sum "Si O2"
_cell_formula_units_Z 48
_cell_length_a 9.848204
_cell_length_b 7.514191
_cell_length_c 31.329052
_cell_angle_alpha 90.000000
_cell_angle_beta 90.000000
_cell_angle_gamma 90.000000
_cell_volume 2318.390133
_symmetry_space_group_name_H-M "P M M A"
_symmetry_group_IT_number 51
_symmetry_cell_setting 'orthorhombic'
loop_
_space_group_symop_operation_xyz
x,y,z
1/2-x,-y,z
1/2+x,-y,-z
-x,y,-z
-x,-y,-z
1/2+x,y,-z
1/2-x,y,z
x,-y,z
loop_
_atom_site_type_symbol
_atom_site_label
_atom_site_fract_x
_atom_site_fract_y
_atom_site_fract_z
Si Si1 0.093725 0.283003 0.961489
Si Si2 0.596648 0.710609 0.537136
Si Si3 0.406359 0.717385 0.865510
Si Si4 0.096976 0.214636 0.614732
Si Si5 0.097766 0.214304 0.712056
Si Si6 0.902835 0.288767 0.789753
O O1 0.250000 0.230380 0.967919
O O2 0.090447 0.500000 0.961836
O O3 0.053033 0.228762 0.913538
O O4 0.000000 0.220297 0.000000
O O5 0.500000 0.786581 0.500000
O O6 0.750000 0.783709 0.537738
O O7 0.608884 0.500000 0.528907
O O8 0.517361 0.730487 0.581568
O O9 0.250000 0.772002 0.857948
O O10 0.406146 0.500000 0.864825
O O11 0.506645 0.782437 0.828803
O O12 0.250000 0.273908 0.602166
O O13 0.071689 0.274456 0.663436
O O14 0.099069 0.000000 0.615112
O O15 0.250000 0.275448 0.724572
O O16 0.985231 0.265912 0.746020
O O17 0.101051 0.000000 0.711069
O O18 0.750000 0.216333 0.787771
O O19 0.892124 0.500000 0.796962
#
# Coordination Sequence:
#
# PCOD9402598 Si02
#       6
#     8   8   8   8   8   8
#     4   8  13  20  31  49  74 107 146 185 227 276
#     4  10  21  36  54  77 105 136 168 201 238 281
#     4   8  14  25  39  55  80 116 155 192 231 278
#     4   9  19  36  56  77 100 127 162 202 242 286
#     4   9  19  36  55  73  95 126 163 200 239 286
#     4  10  20  31  45  69  98 126 158 197 241 287
#
# _framework density 20.704022999999999
#
# number of rings (size 3 to 8) (size 9 to 14) (size 15 to 20)
#    0.000    3.000    0.000    3.000    0.000    5.000 
#    0.000    8.333    0.000    0.000    0.000    0.000 
#    0.000    0.667    0.000    2.167    0.000    4.333 
#
# Total GULP energy -267848.852628 kJ/mol
# GULP energy per Si atom -5580.184430 kJ/mol
# Density = 2.065690 g / cm^3
# Si number density = 20.704023 Si / 1000 Ang^3
#
#
#
# Elastic Constant Matrix: (Units=GPa)
#
#
# Indices 1 2 3 4 5 6 
#
# 1 195.0216 6.9080 139.1719 0.0000 0.0000 0.0000
# 2 6.9080 52.6523 -0.8288 0.0000 0.0000 0.0000
# 3 139.1719 -0.8288 154.2628 0.0000 0.0000 0.0000
# 4 0.0000 0.0000 0.0000 18.2055 0.0000 0.0000
# 5 0.0000 0.0000 0.0000 0.0000 32.4712 0.0000
# 6 0.0000 0.0000 0.0000 0.0000 0.0000 7.1864
#
#
#
# Elastic Compliance Matrix: (Units=1/GPa)
#
#
# Indices 1 2 3 4 5 6 
#
# 1 0.014630 -0.002127 -0.013211 0.000000 0.000000 0.000000
# 2 -0.002127 0.019303 0.002023 0.000000 0.000000 0.000000
# 3 -0.013211 0.002023 0.018412 0.000000 0.000000 0.000000
# 4 0.000000 0.000000 0.000000 0.054928 0.000000 0.000000
# 5 0.000000 0.000000 0.000000 0.000000 0.030796 0.000000
# 6 0.000000 0.000000 0.000000 0.000000 0.000000 0.139152
#
#
# Mechanical properties :
#
#
# Convention : Reuss Voigt Hill
#
# Bulk Modulus (GPa) = 38.88716 76.93766 57.91241
# Shear Modulus (GPa) = 16.00388 28.68500 22.34444
#
# Velocity S-wave (km/s) = 2.78328 3.72624 3.28873
# Velocity P-wave (km/s) = 5.39926 7.46690 6.51562
#
# Compressibility (1/GPa) = 0.02571543
#
# Stress axis : x y z
#
# Youngs Moduli (GPa) = 68.35112 51.80413 54.31384
#
# Poissons Ratio (x) = 0.11021 0.71752
# Poissons Ratio (y) = 0.14541 -0.10988
# Poissons Ratio (z) = 0.90296 -0.10480
#
# Static dielectric constant tensor:
#      x y z
#    x 1.722100 0.000000 0.000000 
#    y 0.000000 1.813520 0.000000 
#    z 0.000000 0.000000 1.716320 
# 
# From -- ./inp_files/37050.got.cif
#   From: 2010.05.17/outbox.cif.g08.bks.cpg/sg51_19_cif.got.tgz:37050.got - 2010.06.03 11:52:47.
