data_PCOD9402157
_publ_section_title
;
Structure prediction by ZEFSAII (Michael W. Deem and Ramdas Pophale) SiO2 
 PCOD9402157
Probable space group: P M M A
;
_chemical_formula_sum "Si O2"
_cell_formula_units_Z 64
_cell_length_a 29.418175
_cell_length_b 7.715358
_cell_length_c 12.813492
_cell_angle_alpha 90.000000
_cell_angle_beta 90.000000
_cell_angle_gamma 90.000000
_cell_volume 2908.300726
_symmetry_space_group_name_H-M "P M M A"
_symmetry_group_IT_number 51
_symmetry_cell_setting 'orthorhombic'
loop_
_space_group_symop_operation_xyz
x,y,z
1/2-x,-y,z
1/2+x,-y,-z
-x,y,-z
-x,-y,-z
1/2+x,y,-z
1/2-x,y,z
x,-y,z
loop_
_atom_site_type_symbol
_atom_site_label
_atom_site_fract_x
_atom_site_fract_y
_atom_site_fract_z
Si Si1 0.699232 0.700260 0.935098
Si Si2 0.300872 0.794507 0.519511
Si Si3 0.549768 0.290154 0.761465
Si Si4 0.118268 0.303724 0.654150
Si Si5 0.051525 0.203794 0.476072
Si Si6 0.551092 0.712395 0.170769
Si Si7 0.695137 0.802469 0.702770
Si Si8 0.602045 0.712464 0.965342
O O1 0.750000 0.778172 0.949414
O O2 0.702376 0.500000 0.967474
O O3 0.688257 0.704847 0.810916
O O4 0.653556 0.774954 0.986021
O O5 0.250000 0.726172 0.538520
O O6 0.334486 0.771791 0.615167
O O7 0.320352 0.725737 0.408372
O O8 0.297554 0.000000 0.500731
O O9 0.549997 0.500000 0.759519
O O10 0.561337 0.228609 0.645764
O O11 0.498868 0.232273 0.793234
O O12 0.583717 0.232521 0.852501
O O13 0.127847 0.500000 0.685316
O O14 0.085627 0.297914 0.553397
O O15 0.089078 0.224253 0.747673
O O16 0.000000 0.262217 0.500000
O O17 0.054749 0.000000 0.501057
O O18 0.550206 0.500000 0.173931
O O19 0.566798 0.762984 0.055381
O O20 0.750000 0.809106 0.690511
O O21 0.678404 0.000000 0.716589
O O22 0.603369 0.500000 0.964929
#
# Coordination Sequence:
#
# PCOD9402157 Si02
#       8
#     8   8   8   8   8   8   8   8
#     4   9  17  29  46  72 105 135 168 216 267 316
#     4   9  19  36  55  77 109 150 190 227 274 331
#     4  10  19  34  58  82 106 137 180 232 277 326
#     4  11  22  35  56  83 113 146 186 233 276 327
#     4  11  23  38  56  80 113 150 183 221 277 341
#     4   9  18  34  54  78 107 139 178 229 281 326
#     4   8  15  29  48  68  95 133 171 209 257 310
#     4   9  18  32  53  80 105 136 181 223 275 334
#
# _framework density 22.005977999999999
#
# number of rings (size 3 to 8) (size 9 to 14) (size 15 to 20)
#    0.000    2.500    1.250    1.875    1.750    2.750 
#    0.000    1.875    0.000    7.500    0.000    1.750 
#    0.000    0.000    0.000    0.000    0.000    0.000 
#
# Total GULP energy -357154.721918 kJ/mol
# GULP energy per Si atom -5580.542530 kJ/mol
# Density = 2.195589 g / cm^3
# Si number density = 22.005978 Si / 1000 Ang^3
#
#
#
# Elastic Constant Matrix: (Units=GPa)
#
#
# Indices 1 2 3 4 5 6 
#
# 1 66.5081 -3.4524 2.8773 0.0000 0.0000 0.0000
# 2 -3.4524 33.7319 -12.4152 0.0000 0.0000 0.0000
# 3 2.8773 -12.4152 62.2433 0.0000 0.0000 0.0000
# 4 0.0000 0.0000 0.0000 52.0858 0.0000 0.0000
# 5 0.0000 0.0000 0.0000 0.0000 24.1474 0.0000
# 6 0.0000 0.0000 0.0000 0.0000 0.0000 12.8706
#
#
#
# Elastic Compliance Matrix: (Units=1/GPa)
#
#
# Indices 1 2 3 4 5 6 
#
# 1 0.015126 0.001393 -0.000421 0.000000 0.000000 0.000000
# 2 0.001393 0.032123 0.006343 0.000000 0.000000 0.000000
# 3 -0.000421 0.006343 0.017351 0.000000 0.000000 0.000000
# 4 0.000000 0.000000 0.000000 0.019199 0.000000 0.000000
# 5 0.000000 0.000000 0.000000 0.000000 0.041412 0.000000
# 6 0.000000 0.000000 0.000000 0.000000 0.000000 0.077696
#
#
# Mechanical properties :
#
#
# Convention : Reuss Voigt Hill
#
# Bulk Modulus (GPa) = 12.62168 15.16696 13.89432
# Shear Modulus (GPa) = 23.28963 29.51900 26.40431
#
# Velocity S-wave (km/s) = 3.25673 3.66650 3.46767
# Velocity P-wave (km/s) = 4.45979 4.98311 4.72870
#
# Compressibility (1/GPa) = 0.07922878
#
# Stress axis : x y z
#
# Youngs Moduli (GPa) = 66.11002 31.13064 57.63475
#
# Poissons Ratio (x) = -0.04337 0.02429
# Poissons Ratio (y) = -0.09209 -0.36557
# Poissons Ratio (z) = 0.02786 -0.19746
#
# Static dielectric constant tensor:
#      x y z
#    x 1.829290 0.000000 0.000000 
#    y 0.000000 1.873000 0.000000 
#    z 0.000000 0.000000 1.793580 
# 
# From -- ./inp_files/19634.got.cif
#   From: 2010.05.17/outbox.cif.g08.bks.cpg/sg51_10_cif.got.tgz:19634.got - 2010.06.03 11:52:47.
