data_PCOD9402782
_publ_section_title
;
Structure prediction by ZEFSAII (Michael W. Deem and Ramdas Pophale) SiO2 
 PCOD9402782
Probable space group: P M M A
;
_chemical_formula_sum "Si O2"
_cell_formula_units_Z 40
_cell_length_a 18.721632
_cell_length_b 7.483914
_cell_length_c 14.231990
_cell_angle_alpha 90.000000
_cell_angle_beta 90.000000
_cell_angle_gamma 90.000000
_cell_volume 1994.059544
_symmetry_space_group_name_H-M "P M M A"
_symmetry_group_IT_number 51
_symmetry_cell_setting 'orthorhombic'
loop_
_space_group_symop_operation_xyz
x,y,z
1/2-x,-y,z
1/2+x,-y,-z
-x,y,-z
-x,-y,-z
1/2+x,y,-z
1/2-x,y,z
x,-y,z
loop_
_atom_site_type_symbol
_atom_site_label
_atom_site_fract_x
_atom_site_fract_y
_atom_site_fract_z
Si Si1 0.116658 0.715891 0.377652
Si Si2 0.517949 0.706405 0.898887
Si Si3 0.671571 0.209117 0.827230
Si Si4 0.965356 0.718644 0.300372
Si Si5 0.330187 0.718479 0.581373
O O1 0.117914 0.500000 0.378337
O O2 0.159028 0.772572 0.284688
O O3 0.149191 0.776405 0.475899
O O4 0.034351 0.771129 0.362149
O O5 0.494181 0.500000 0.902985
O O6 0.602482 0.709368 0.877244
O O7 0.480230 0.782660 0.805688
O O8 0.500000 0.787677 0.000000
O O9 0.750000 0.282157 0.851038
O O10 0.670670 0.000000 0.850326
O O11 0.965756 0.500000 0.298918
O O12 0.891710 0.776333 0.347018
O O13 0.250000 0.774989 0.605133
O O14 0.330925 0.500000 0.581020
#
# Coordination Sequence:
#
# PCOD9402782 Si02
#       5
#     8   8   8   8   8
#     4   9  16  27  45  66  89 119 153 187 223 267
#     4   9  18  33  52  71  90 117 156 197 237 280
#     4  10  20  32  47  70  97 122 150 187 232 277
#     4   8  14  25  41  62  89 117 146 185 229 272
#     4   9  15  22  37  64  93 119 149 184 225 274
#
# _framework density 20.059581999999999
#
# number of rings (size 3 to 8) (size 9 to 14) (size 15 to 20)
#    0.000    3.000    0.000    3.000    0.000    5.200 
#    0.000    1.000    0.000   13.200    0.000    0.000 
#    0.000    0.000    0.000    0.000    0.000    0.000 
#
# Total GULP energy -223133.815993 kJ/mol
# GULP energy per Si atom -5578.345400 kJ/mol
# Density = 2.001393 g / cm^3
# Si number density = 20.059582 Si / 1000 Ang^3
#
#
#
# Elastic Constant Matrix: (Units=GPa)
#
#
# Indices 1 2 3 4 5 6 
#
# 1 129.6954 -7.4875 61.2213 0.0000 0.0000 0.0000
# 2 -7.4875 54.3462 -4.1423 0.0000 0.0000 0.0000
# 3 61.2213 -4.1423 91.8596 0.0000 0.0000 0.0000
# 4 0.0000 0.0000 0.0000 -624.2274 0.0000 0.0000
# 5 0.0000 0.0000 0.0000 0.0000 15.5788 0.0000
# 6 0.0000 0.0000 0.0000 0.0000 0.0000 106.2504
#
#
#
# Elastic Compliance Matrix: (Units=1/GPa)
#
#
# Indices 1 2 3 4 5 6 
#
# 1 0.011302 0.000986 -0.007488 0.000000 0.000000 0.000000
# 2 0.000986 0.018550 0.000179 0.000000 0.000000 0.000000
# 3 -0.007488 0.000179 0.015885 0.000000 0.000000 0.000000
# 4 0.000000 0.000000 0.000000 -0.001602 0.000000 0.000000
# 5 0.000000 0.000000 0.000000 0.000000 0.064190 0.000000
# 6 0.000000 0.000000 0.000000 0.000000 0.000000 0.009412
#
#
# Mechanical properties :
#
#
# Convention : Reuss Voigt Hill
#
# Bulk Modulus (GPa) = 30.21885 41.67602 35.94743
# Shear Modulus (GPa) = 35.35775 -85.39235 -25.01730
#
# Velocity S-wave (km/s) = 4.20293 -6.53160 -3.53533
# Velocity P-wave (km/s) = 6.21692 6.00509 1.13775
#
# Compressibility (1/GPa) = 0.03309193
#
# Stress axis : x y z
#
# Youngs Moduli (GPa) = 88.48090 53.90804 62.95391
#
# Poissons Ratio (x) = -0.05317 0.47139
# Poissons Ratio (y) = -0.08728 -0.01128
# Poissons Ratio (z) = 0.66253 -0.00966
#
# Static dielectric constant tensor:
#      x y z
#    x 1.695380 0.000000 0.000000 
#    y 0.000000 1.772590 0.000000 
#    z 0.000000 0.000000 1.691620 
# 
# From -- ./inp_files/24533.got.cif
#   From: 2010.05.17/outbox.cif.g08.bks.cpg/sg51_13_cif.got.tgz:24533.got - 2010.06.03 11:52:47.
