data_PCOD9402916
_publ_section_title
;
Structure prediction by ZEFSAII (Michael W. Deem and Ramdas Pophale) SiO2 
 PCOD9402916
Probable space group: P M M A
;
_chemical_formula_sum "Si O2"
_cell_formula_units_Z 64
_cell_length_a 13.670020
_cell_length_b 9.218627
_cell_length_c 24.601565
_cell_angle_alpha 90.000000
_cell_angle_beta 90.000000
_cell_angle_gamma 90.000000
_cell_volume 3100.260080
_symmetry_space_group_name_H-M "P M M A"
_symmetry_group_IT_number 51
_symmetry_cell_setting 'orthorhombic'
loop_
_space_group_symop_operation_xyz
x,y,z
1/2-x,-y,z
1/2+x,-y,-z
-x,y,-z
-x,-y,-z
1/2+x,y,-z
1/2-x,y,z
x,-y,z
loop_
_atom_site_type_symbol
_atom_site_label
_atom_site_fract_x
_atom_site_fract_y
_atom_site_fract_z
Si Si1 0.135902 0.824966 0.741246
Si Si2 0.934317 0.676167 0.579621
Si Si3 0.132156 0.332950 0.187499
Si Si4 0.143806 0.676720 0.535641
Si Si5 0.544574 0.324879 0.697391
Si Si6 0.868953 0.166569 0.136762
Si Si7 0.130586 0.333851 0.971025
Si Si8 0.869401 0.833579 0.920249
O O1 0.250000 0.791453 0.731988
O O2 0.062603 0.744724 0.701363
O O3 0.107976 0.776856 0.802911
O O4 0.125387 0.000000 0.739105
O O5 0.931842 0.500000 0.578591
O O6 0.871795 0.721694 0.527380
O O7 0.046662 0.721321 0.567755
O O8 0.906230 0.720419 0.640492
O O9 0.250000 0.334060 0.186799
O O10 0.099313 0.500000 0.179232
O O11 0.099058 0.234519 0.137183
O O12 0.099445 0.282713 0.247208
O O13 0.250000 0.726177 0.555673
O O14 0.143702 0.500000 0.536801
O O15 0.537811 0.500000 0.697252
O O16 0.750000 0.164709 0.135740
O O17 0.900675 0.253604 0.083921
O O18 0.900851 0.000000 0.132926
O O19 0.250000 0.331121 0.970936
O O20 0.100128 0.500000 0.969860
O O21 0.100653 0.257111 0.026895
O O22 0.750000 0.830849 0.919636
O O23 0.899093 0.000000 0.926061
#
# Coordination Sequence:
#
# PCOD9402916 Si02
#       8
#     8   8   8   8   8   8   8   8
#     4   9  19  35  52  70  96 132 170 206 248 300
#     4   8  15  26  39  64  99 128 161 201 240 287
#     4   9  18  32  47  65  94 130 165 203 250 302
#     4   8  13  23  41  64  95 134 166 196 238 284
#     4  10  20  32  49  74 102 132 166 208 254 294
#     4   8  14  26  43  62  86 118 157 198 239 290
#     4   9  15  22  37  64  94 121 151 193 248 304
#     4   9  16  26  42  64  89 120 161 205 247 296
#
# _framework density 20.643429999999999
#
# number of rings (size 3 to 8) (size 9 to 14) (size 15 to 20)
#    0.000    3.250    0.000    2.250    0.000    5.250 
#    0.000    5.000    0.000    0.750    0.000    7.000 
#    0.000    1.000    0.000    0.000    0.000    0.000 
#
# Total GULP energy -357085.927249 kJ/mol
# GULP energy per Si atom -5579.467613 kJ/mol
# Density = 2.059644 g / cm^3
# Si number density = 20.643430 Si / 1000 Ang^3
#
#
#
# Elastic Constant Matrix: (Units=GPa)
#
#
# Indices 1 2 3 4 5 6 
#
# 1 39.1175 -9.5657 -12.3038 0.0000 0.0000 0.0000
# 2 -9.5657 37.3928 29.6313 0.0000 0.0000 0.0000
# 3 -12.3038 29.6313 96.5268 0.0000 0.0000 0.0000
# 4 0.0000 0.0000 0.0000 37.2843 0.0000 0.0000
# 5 0.0000 0.0000 0.0000 0.0000 16.9450 0.0000
# 6 0.0000 0.0000 0.0000 0.0000 0.0000 9.2087
#
#
#
# Elastic Compliance Matrix: (Units=1/GPa)
#
#
# Indices 1 2 3 4 5 6 
#
# 1 0.027499 0.005626 0.001778 0.000000 0.000000 0.000000
# 2 0.005626 0.036491 -0.010485 0.000000 0.000000 0.000000
# 3 0.001778 -0.010485 0.013805 0.000000 0.000000 0.000000
# 4 0.000000 0.000000 0.000000 0.026821 0.000000 0.000000
# 5 0.000000 0.000000 0.000000 0.000000 0.059014 0.000000
# 6 0.000000 0.000000 0.000000 0.000000 0.000000 0.108592
#
#
# Mechanical properties :
#
#
# Convention : Reuss Voigt Hill
#
# Bulk Modulus (GPa) = 13.96005 20.95118 17.45561
# Shear Modulus (GPa) = 16.54197 23.70597 20.12397
#
# Velocity S-wave (km/s) = 2.83383 3.39241 3.12562
# Velocity P-wave (km/s) = 4.18146 5.05131 4.63683
#
# Compressibility (1/GPa) = 0.07163298
#
# Stress axis : x y z
#
# Youngs Moduli (GPa) = 36.36500 27.40430 72.43752
#
# Poissons Ratio (x) = -0.15417 -0.12881
# Poissons Ratio (y) = -0.20457 0.75948
# Poissons Ratio (z) = -0.06467 0.28732
#
# Static dielectric constant tensor:
#      x y z
#    x 1.789800 0.000000 0.000000 
#    y 0.000000 1.690840 0.000000 
#    z 0.000000 0.000000 1.730880 
# 
# From -- ./inp_files/35699.got.cif
#   From: 2010.05.17/outbox.cif.g08.bks.cpg/sg51_18_cif.got.tgz:35699.got - 2010.06.03 11:52:47.
