data_PCOD9402091
_publ_section_title
;
Structure prediction by ZEFSAII (Michael W. Deem and Ramdas Pophale) SiO2 
 PCOD9402091
Probable space group: P M M A
;
_chemical_formula_sum "Si O2"
_cell_formula_units_Z 48
_cell_length_a 14.073943
_cell_length_b 7.291000
_cell_length_c 21.085343
_cell_angle_alpha 90.000000
_cell_angle_beta 90.000000
_cell_angle_gamma 90.000000
_cell_volume 2163.632798
_symmetry_space_group_name_H-M "P M M A"
_symmetry_group_IT_number 51
_symmetry_cell_setting 'orthorhombic'
loop_
_space_group_symop_operation_xyz
x,y,z
1/2-x,-y,z
1/2+x,-y,-z
-x,y,-z
-x,-y,-z
1/2+x,y,-z
1/2-x,y,z
x,-y,z
loop_
_atom_site_type_symbol
_atom_site_label
_atom_site_fract_x
_atom_site_fract_y
_atom_site_fract_z
Si Si1 0.551801 0.776217 0.754857
Si Si2 0.855272 0.223293 0.024839
Si Si3 0.358989 0.223658 0.682146
Si Si4 0.750000 0.717964 0.542658
Si Si5 0.039538 0.222924 0.100385
Si Si6 0.422070 0.206437 0.543491
Si Si7 0.750000 0.216797 0.692027
O O1 0.449947 0.720176 0.724701
O O2 0.557254 0.718446 0.828193
O O3 0.648797 0.714715 0.719772
O O4 0.551084 0.000000 0.752430
O O5 0.750000 0.284715 0.040932
O O6 0.936862 0.280200 0.073554
O O7 0.855674 0.000000 0.025319
O O8 0.885891 0.278693 0.953820
O O9 0.250000 0.281791 0.698049
O O10 0.385344 0.281595 0.610217
O O11 0.356106 0.000000 0.683581
O O12 0.750000 0.500000 0.533114
O O13 0.837391 0.801441 0.505671
O O14 0.750000 0.755678 0.616899
O O15 0.040552 0.000000 0.101133
O O16 0.500000 0.302489 0.500000
O O17 0.457772 0.000000 0.559430
O O18 0.750000 0.000000 0.705960
#
# Coordination Sequence:
#
# PCOD9402091 Si02
#       7
#     8   8   8   4   8   8   4
#     4   9  17  27  42  64  89 120 160 206 247 285
#     4   8  13  20  31  46  75 118 158 190 227 280
#     4   9  16  27  43  65  88 111 147 197 250 297
#     4  12  24  36  52  76 106 133 164 208 256 315
#     4   8  14  22  31  51  78 111 159 197 226 277
#     4  10  19  34  57  77  97 128 167 211 258 308
#     4  10  20  34  50  70  96 127 170 212 248 299
#
# _framework density 22.184912000000001
#
# number of rings (size 3 to 8) (size 9 to 14) (size 15 to 20)
#    0.000    2.833    0.833    2.750    1.167    3.667 
#    0.000    3.333    0.000    0.000    0.000    0.000 
#    0.000    0.000    0.000    3.000    0.000    6.333 
#
# Total GULP energy -267718.652609 kJ/mol
# GULP energy per Si atom -5577.471929 kJ/mol
# Density = 2.213442 g / cm^3
# Si number density = 22.184912 Si / 1000 Ang^3
#
#
#
# Elastic Constant Matrix: (Units=GPa)
#
#
# Indices 1 2 3 4 5 6 
#
# 1 47.2029 17.2578 -17.9739 0.0000 0.0000 0.0000
# 2 17.2578 90.1030 -1.7336 0.0000 0.0000 0.0000
# 3 -17.9739 -1.7336 90.1019 0.0000 0.0000 0.0000
# 4 0.0000 0.0000 0.0000 77.5126 0.0000 0.0000
# 5 0.0000 0.0000 0.0000 0.0000 8.4103 0.0000
# 6 0.0000 0.0000 0.0000 0.0000 0.0000 -57.2529
#
#
#
# Elastic Compliance Matrix: (Units=1/GPa)
#
#
# Indices 1 2 3 4 5 6 
#
# 1 0.024727 -0.004643 0.004843 0.000000 0.000000 0.000000
# 2 -0.004643 0.011974 -0.000696 0.000000 0.000000 0.000000
# 3 0.004843 -0.000696 0.012051 0.000000 0.000000 0.000000
# 4 0.000000 0.000000 0.000000 0.012901 0.000000 0.000000
# 5 0.000000 0.000000 0.000000 0.000000 0.118902 0.000000
# 6 0.000000 0.000000 0.000000 0.000000 0.000000 -0.017466
#
#
# Mechanical properties :
#
#
# Convention : Reuss Voigt Hill
#
# Bulk Modulus (GPa) = 20.93726 24.72314 22.83020
# Shear Modulus (GPa) = 27.77778 21.05784 24.41781
#
# Velocity S-wave (km/s) = 3.54234 3.08425 3.32120
# Velocity P-wave (km/s) = 5.11752 4.88382 5.00204
#
# Compressibility (1/GPa) = 0.04776175
#
# Stress axis : x y z
#
# Youngs Moduli (GPa) = 40.44192 83.51231 82.97846
#
# Poissons Ratio (x) = 0.38773 -0.40189
# Poissons Ratio (y) = 0.18777 0.05773
# Poissons Ratio (z) = -0.19587 0.05811
#
# Static dielectric constant tensor:
#      x y z
#    x 1.767100 0.000000 0.000000 
#    y 0.000000 1.905020 0.000000 
#    z 0.000000 0.000000 1.752090 
# 
# From -- ./inp_files/29508.got.cif
#   From: 2010.05.17/outbox.cif.g08.bks.cpg/sg51_15_cif.got.tgz:29508.got - 2010.06.03 11:52:47.
