data_PCOD9402027
_publ_section_title
;
Structure prediction by ZEFSAII (Michael W. Deem and Ramdas Pophale) SiO2 
 PCOD9402027
Probable space group: P M M A
;
_chemical_formula_sum "Si O2"
_cell_formula_units_Z 48
_cell_length_a 21.366353
_cell_length_b 7.607447
_cell_length_c 14.583875
_cell_angle_alpha 90.000000
_cell_angle_beta 90.000000
_cell_angle_gamma 90.000000
_cell_volume 2370.512599
_symmetry_space_group_name_H-M "P M M A"
_symmetry_group_IT_number 51
_symmetry_cell_setting 'orthorhombic'
loop_
_space_group_symop_operation_xyz
x,y,z
1/2-x,-y,z
1/2+x,-y,-z
-x,y,-z
-x,-y,-z
1/2+x,y,-z
1/2-x,y,z
x,-y,z
loop_
_atom_site_type_symbol
_atom_site_label
_atom_site_fract_x
_atom_site_fract_y
_atom_site_fract_z
Si Si1 0.876133 0.790422 0.709654
Si Si2 0.750000 0.287752 0.402483
Si Si3 0.821608 0.288386 0.899298
Si Si4 0.873149 0.287912 0.294419
Si Si5 0.322752 0.285970 0.895444
Si Si6 0.497849 0.789959 0.395868
Si Si7 0.750000 0.209365 0.616683
O O1 0.867651 0.761876 0.817803
O O2 0.813320 0.718037 0.661729
O O3 0.938907 0.720221 0.662365
O O4 0.876412 0.000000 0.695153
O O5 0.750000 0.500000 0.396868
O O6 0.812909 0.225361 0.352087
O O7 0.750000 0.237545 0.508412
O O8 0.750000 0.227082 0.879652
O O9 0.819361 0.500000 0.901818
O O10 0.839167 0.227075 0.001682
O O11 0.870308 0.500000 0.292698
O O12 0.864611 0.225902 0.189548
O O13 0.937420 0.239760 0.343165
O O14 0.250000 0.238600 0.878250
O O15 0.324612 0.500000 0.896318
O O16 0.500000 0.719828 0.500000
O O17 0.489744 0.000000 0.403237
O O18 0.750000 0.000000 0.634037
#
# Coordination Sequence:
#
# PCOD9402027 Si02
#       7
#     8   4   8   8   8   8   4
#     4  10  20  35  54  75 101 137 177 217 260 305
#     4  10  20  32  51  80 106 128 165 218 267 304
#     4   9  17  30  53  82 107 134 168 210 259 311
#     4  10  19  34  56  80 105 135 172 216 261 308
#     4   8  14  29  53  79 107 137 168 205 258 316
#     4  10  22  39  55  72 102 144 182 215 258 313
#     4  10  20  34  53  74  98 134 177 216 259 310
#
# _framework density 20.248787
#
# number of rings (size 3 to 8) (size 9 to 14) (size 15 to 20)
#    0.000    2.500    1.667    2.000    0.000    3.667 
#    0.000    1.667    0.000    6.000    0.000    0.000 
#    0.000    0.000    0.000    0.000    0.000    0.000 
#
# Total GULP energy -267897.225356 kJ/mol
# GULP energy per Si atom -5581.192195 kJ/mol
# Density = 2.020270 g / cm^3
# Si number density = 20.248787 Si / 1000 Ang^3
#
#
#
# Elastic Constant Matrix: (Units=GPa)
#
#
# Indices 1 2 3 4 5 6 
#
# 1 166.2640 5.9279 119.9568 0.0000 0.0000 0.0000
# 2 5.9279 39.9445 -1.8352 0.0000 0.0000 0.0000
# 3 119.9568 -1.8352 206.6103 0.0000 0.0000 0.0000
# 4 0.0000 0.0000 0.0000 28.4304 0.0000 0.0000
# 5 0.0000 0.0000 0.0000 0.0000 30.6358 0.0000
# 6 0.0000 0.0000 0.0000 0.0000 0.0000 10.9991
#
#
#
# Elastic Compliance Matrix: (Units=1/GPa)
#
#
# Indices 1 2 3 4 5 6 
#
# 1 0.010483 -0.001836 -0.006103 0.000000 0.000000 0.000000
# 2 -0.001836 0.025367 0.001291 0.000000 0.000000 0.000000
# 3 -0.006103 0.001291 0.008395 0.000000 0.000000 0.000000
# 4 0.000000 0.000000 0.000000 0.035174 0.000000 0.000000
# 5 0.000000 0.000000 0.000000 0.000000 0.032642 0.000000
# 6 0.000000 0.000000 0.000000 0.000000 0.000000 0.090917
#
#
# Mechanical properties :
#
#
# Convention : Reuss Voigt Hill
#
# Bulk Modulus (GPa) = 32.31087 73.43531 52.87309
# Shear Modulus (GPa) = 22.06654 33.26435 27.66545
#
# Velocity S-wave (km/s) = 3.30475 4.05752 3.70033
# Velocity P-wave (km/s) = 5.52751 7.63522 6.66521
#
# Compressibility (1/GPa) = 0.03094934
#
# Stress axis : x y z
#
# Youngs Moduli (GPa) = 95.39296 39.42205 119.12332
#
# Poissons Ratio (x) = 0.07238 0.72697
# Poissons Ratio (y) = 0.17515 -0.15383
# Poissons Ratio (z) = 0.58215 -0.05091
#
# Static dielectric constant tensor:
#      x y z
#    x 1.690950 0.000000 0.000000 
#    y 0.000000 1.788280 0.000000 
#    z 0.000000 0.000000 1.720140 
# 
# From -- ./inp_files/24984.got.cif
#   From: 2010.05.17/outbox.cif.g08.bks.cpg/sg51_13_cif.got.tgz:24984.got - 2010.06.03 11:52:47.
