data_PCOD9402394
_publ_section_title
;
Structure prediction by ZEFSAII (Michael W. Deem and Ramdas Pophale) SiO2 
 PCOD9402394
Probable space group: P M M A
;
_chemical_formula_sum "Si O2"
_cell_formula_units_Z 40
_cell_length_a 23.438378
_cell_length_b 8.464647
_cell_length_c 10.362201
_cell_angle_alpha 90.000000
_cell_angle_beta 90.000000
_cell_angle_gamma 90.000000
_cell_volume 2055.835768
_symmetry_space_group_name_H-M "P M M A"
_symmetry_group_IT_number 51
_symmetry_cell_setting 'orthorhombic'
loop_
_space_group_symop_operation_xyz
x,y,z
1/2-x,-y,z
1/2+x,-y,-z
-x,y,-z
-x,-y,-z
1/2+x,y,-z
1/2-x,y,z
x,-y,z
loop_
_atom_site_type_symbol
_atom_site_label
_atom_site_fract_x
_atom_site_fract_y
_atom_site_fract_z
Si Si1 0.607855 0.307254 0.245282
Si Si2 0.184985 0.311922 0.514802
Si Si3 0.684647 0.690131 0.007108
Si Si4 0.866041 0.185431 0.741923
Si Si5 0.488170 0.308904 0.350629
O O1 0.608131 0.500000 0.242896
O O2 0.642120 0.259615 0.373599
O O3 0.642328 0.251887 0.120012
O O4 0.542330 0.259218 0.264103
O O5 0.250000 0.289505 0.557671
O O6 0.176032 0.500000 0.493860
O O7 0.172776 0.226637 0.381201
O O8 0.750000 0.748321 0.020475
O O9 0.686829 0.500000 0.018141
O O10 0.658906 0.732174 0.868595
O O11 0.929216 0.243334 0.703573
O O12 0.866738 0.000000 0.764740
O O13 0.500000 0.262537 0.500000
O O14 0.484630 0.500000 0.349740
#
# Coordination Sequence:
#
# PCOD9402394 Si02
#       5
#     8   8   8   8   8
#     4   9  18  35  62  92 115 143 188 246 299 342
#     4  10  19  35  61  89 114 145 193 247 296 346
#     4  10  21  39  62  87 116 151 194 242 292 345
#     4  12  25  38  55  82 121 161 197 236 284 345
#     4  10  19  37  64  89 117 149 191 244 295 347
#
# _framework density 19.456807999999999
#
# number of rings (size 3 to 8) (size 9 to 14) (size 15 to 20)
#    0.000    1.800    2.000    3.000    0.000    6.800 
#    0.000    6.000    0.000    2.400    0.000    0.000 
#    0.000    0.000    0.000    0.000    0.000    0.000 
#
# Total GULP energy -223425.986983 kJ/mol
# GULP energy per Si atom -5585.649675 kJ/mol
# Density = 1.941252 g / cm^3
# Si number density = 19.456808 Si / 1000 Ang^3
#
#
#
# Elastic Constant Matrix: (Units=GPa)
#
#
# Indices 1 2 3 4 5 6 
#
# 1 76.9393 8.8474 -8.7845 0.0000 0.0000 0.0000
# 2 8.8474 5.7001 -10.3405 0.0000 0.0000 0.0000
# 3 -8.7845 -10.3405 50.6903 0.0000 0.0000 0.0000
# 4 0.0000 0.0000 0.0000 -18.7213 0.0000 0.0000
# 5 0.0000 0.0000 0.0000 0.0000 33.8215 0.0000
# 6 0.0000 0.0000 0.0000 0.0000 0.0000 -5.1151
#
#
#
# Elastic Compliance Matrix: (Units=1/GPa)
#
#
# Indices 1 2 3 4 5 6 
#
# 1 0.016246 -0.031922 -0.003697 0.000000 0.000000 0.000000
# 2 -0.031922 0.341221 0.064075 0.000000 0.000000 0.000000
# 3 -0.003697 0.064075 0.032158 0.000000 0.000000 0.000000
# 4 0.000000 0.000000 0.000000 -0.053415 0.000000 0.000000
# 5 0.000000 0.000000 0.000000 0.000000 0.029567 0.000000
# 6 0.000000 0.000000 0.000000 0.000000 0.000000 -0.195498
#
#
# Mechanical properties :
#
#
# Convention : Reuss Voigt Hill
#
# Bulk Modulus (GPa) = 2.23945 12.53051 7.38498
# Shear Modulus (GPa) = 19.06852 11.57083 15.31968
#
# Velocity S-wave (km/s) = 3.13396 2.44128 2.80905
# Velocity P-wave (km/s) = 3.77480 3.79481 3.78482
#
# Compressibility (1/GPa) = 0.44653808
#
# Stress axis : x y z
#
# Youngs Moduli (GPa) = 61.55350 2.93065 31.09644
#
# Poissons Ratio (x) = 0.09355 0.11495
# Poissons Ratio (y) = 1.96492 -1.99251
# Poissons Ratio (z) = 0.22754 -0.18778
#
# Static dielectric constant tensor:
#      x y z
#    x 1.684900 0.000000 0.000000 
#    y 0.000000 1.673000 0.000000 
#    z 0.000000 0.000000 1.647400 
# 
# From -- ./inp_files/11424.got.cif
#   From: 2010.05.17/outbox.cif.g08.bks.cpg/sg51_6_cif.got.tgz:11424.got - 2010.06.03 11:52:47.
