data_PCOD9402901
_publ_section_title
;
Structure prediction by ZEFSAII (Michael W. Deem and Ramdas Pophale) SiO2 
 PCOD9402901
Probable space group: P M M A
;
_chemical_formula_sum "Si O2"
_cell_formula_units_Z 64
_cell_length_a 9.338125
_cell_length_b 19.700760
_cell_length_c 20.359993
_cell_angle_alpha 90.000000
_cell_angle_beta 90.000000
_cell_angle_gamma 90.000000
_cell_volume 3745.590439
_symmetry_space_group_name_H-M "P M M A"
_symmetry_group_IT_number 51
_symmetry_cell_setting 'orthorhombic'
loop_
_space_group_symop_operation_xyz
x,y,z
1/2-x,-y,z
1/2+x,-y,-z
-x,y,-z
-x,-y,-z
1/2+x,y,-z
1/2-x,y,z
x,-y,z
loop_
_atom_site_type_symbol
_atom_site_label
_atom_site_fract_x
_atom_site_fract_y
_atom_site_fract_z
Si Si1 0.420587 0.578363 0.796935
Si Si2 0.414582 0.400789 0.064948
Si Si3 0.416601 0.191288 0.813095
Si Si4 0.577697 0.771429 0.433582
Si Si5 0.912219 0.922243 0.748653
Si Si6 0.911702 0.238103 0.938024
Si Si7 0.918906 0.302388 0.300301
Si Si8 0.919439 0.076208 0.387527
O O1 0.250000 0.592137 0.808591
O O2 0.434406 0.500000 0.775195
O O3 0.503238 0.585244 0.866480
O O4 0.472661 0.631677 0.740865
O O5 0.250000 0.425075 0.066867
O O6 0.406316 0.319500 0.057808
O O7 0.500000 0.424923 0.000000
O O8 0.250000 0.186822 0.829086
O O9 0.485353 0.120301 0.794615
O O10 0.503935 0.221851 0.872547
O O11 0.432257 0.239966 0.750096
O O12 0.500000 0.749462 0.500000
O O13 0.750000 0.764369 0.438636
O O14 0.527544 0.726720 0.370406
O O15 0.550469 0.852767 0.424165
O O16 0.750000 0.894798 0.747446
O O17 0.981635 0.921188 0.676503
O O18 0.906946 0.000000 0.769783
O O19 0.750000 0.211850 0.936848
O O20 0.000000 0.211749 0.000000
O O21 0.750000 0.315948 0.310714
O O22 0.750000 0.079182 0.369532
O O23 0.941200 0.000000 0.417929
#
# Coordination Sequence:
#
# PCOD9402901 Si02
#       8
#     8   8   8   8   8   8   8   8
#     4  10  20  35  56  79 104 138 178 221 268 316
#     4  10  20  33  51  76 110 147 179 214 255 308
#     4  11  19  32  56  78 101 138 177 223 268 312
#     4  10  20  35  52  75 104 138 173 215 263 312
#     4  10  20  32  48  75 109 139 173 219 263 309
#     4  10  20  33  50  77 108 140 177 219 265 315
#     4   9  18  34  54  77 104 132 171 217 263 312
#     4   9  17  31  50  72 102 140 177 209 252 312
#
# _framework density 17.086759000000001
#
# number of rings (size 3 to 8) (size 9 to 14) (size 15 to 20)
#    0.000    2.125    2.500    1.500    0.000    3.000 
#    0.000    0.625    0.000    0.750    0.000    0.000 
#    0.000    0.000    0.000    0.000    0.000    0.000 
#
# Total GULP energy -356502.449099 kJ/mol
# GULP energy per Si atom -5570.350767 kJ/mol
# Density = 1.704787 g / cm^3
# Si number density = 17.086759 Si / 1000 Ang^3
#
#
#
# Elastic Constant Matrix: (Units=GPa)
#
#
# Indices 1 2 3 4 5 6 
#
# 1 90.8865 36.2543 57.2963 0.0000 0.0000 0.0000
# 2 36.2543 66.9783 43.4784 0.0000 0.0000 0.0000
# 3 57.2963 43.4784 112.4255 0.0000 0.0000 0.0000
# 4 0.0000 0.0000 0.0000 -5.0604 0.0000 0.0000
# 5 0.0000 0.0000 0.0000 0.0000 17.5710 0.0000
# 6 0.0000 0.0000 0.0000 0.0000 0.0000 9.2387
#
#
#
# Elastic Compliance Matrix: (Units=1/GPa)
#
#
# Indices 1 2 3 4 5 6 
#
# 1 0.017323 -0.004868 -0.006946 0.000000 0.000000 0.000000
# 2 -0.004868 0.021303 -0.005757 0.000000 0.000000 0.000000
# 3 -0.006946 -0.005757 0.014661 0.000000 0.000000 0.000000
# 4 0.000000 0.000000 0.000000 -0.197614 0.000000 0.000000
# 5 0.000000 0.000000 0.000000 0.000000 0.056912 0.000000
# 6 0.000000 0.000000 0.000000 0.000000 0.000000 0.108240
#
#
# Mechanical properties :
#
#
# Convention : Reuss Voigt Hill
#
# Bulk Modulus (GPa) = 55.11350 60.48315 57.79832
# Shear Modulus (GPa) = 80.62341 13.23396 46.92869
#
# Velocity S-wave (km/s) = 6.87657 2.78603 5.24639
# Velocity P-wave (km/s) = 9.76600 6.76933 8.40234
#
# Compressibility (1/GPa) = 0.01814438
#
# Stress axis : x y z
#
# Youngs Moduli (GPa) = 57.72518 46.94268 68.20637
#
# Poissons Ratio (x) = 0.22851 0.47377
# Poissons Ratio (y) = 0.28100 0.39270
# Poissons Ratio (z) = 0.40097 0.27027
#
# Static dielectric constant tensor:
#      x y z
#    x 1.581430 0.000000 0.000000 
#    y 0.000000 1.615610 0.000000 
#    z 0.000000 0.000000 1.618820 
# 
# From -- ./inp_files/28366.got.cif
#   From: 2010.05.17/outbox.cif.g08.bks.cpg/sg51_15_cif.got.tgz:28366.got - 2010.06.03 11:52:47.
