data_PCOD9402467
_publ_section_title
;
Structure prediction by ZEFSAII (Michael W. Deem and Ramdas Pophale) SiO2 
 PCOD9402467
Probable space group: P M M A
;
_chemical_formula_sum "Si O2"
_cell_formula_units_Z 40
_cell_length_a 18.415437
_cell_length_b 15.709990
_cell_length_c 7.237071
_cell_angle_alpha 90.000000
_cell_angle_beta 90.000000
_cell_angle_gamma 90.000000
_cell_volume 2093.730459
_symmetry_space_group_name_H-M "P M M A"
_symmetry_group_IT_number 51
_symmetry_cell_setting 'orthorhombic'
loop_
_space_group_symop_operation_xyz
x,y,z
1/2-x,-y,z
1/2+x,-y,-z
-x,y,-z
-x,-y,-z
1/2+x,y,-z
1/2-x,y,z
x,-y,z
loop_
_atom_site_type_symbol
_atom_site_label
_atom_site_fract_x
_atom_site_fract_y
_atom_site_fract_z
Si Si1 0.079772 0.091533 0.905951
Si Si2 0.416358 0.401240 0.565382
Si Si3 0.337156 0.908763 0.287484
Si Si4 0.836758 0.277596 0.710722
Si Si5 0.920141 0.279062 0.091612
O O1 0.086833 0.184586 0.817163
O O2 0.087399 0.000000 0.806307
O O3 0.137055 0.091240 0.074436
O O4 0.000000 0.091243 0.000000
O O5 0.500000 0.397132 0.500000
O O6 0.395581 0.500000 0.581126
O O7 0.369776 0.350904 0.414580
O O8 0.409621 0.351583 0.758059
O O9 0.250000 0.909083 0.298170
O O10 0.361942 0.816694 0.359400
O O11 0.363473 0.000000 0.365703
O O12 0.750000 0.280077 0.706102
O O13 0.864966 0.285867 0.920467
O O14 0.000000 0.285222 0.000000
#
# Coordination Sequence:
#
# PCOD9402467 Si02
#       5
#     8   8   8   8   8
#     4   8  14  25  46  77 111 142 176 222 271 324
#     4  11  24  40  59  82 111 150 195 242 292 344
#     4   8  14  27  50  78 109 147 183 216 268 336
#     4  10  21  38  60  87 118 149 186 237 288 334
#     4  10  19  36  61  85 111 149 193 229 277 347
#
# _framework density 19.104655000000001
#
# number of rings (size 3 to 8) (size 9 to 14) (size 15 to 20)
#    0.000    2.600    2.000    0.000    0.000    2.400 
#    0.000    1.000    0.000    1.200    0.000    5.600 
#    0.000    0.000    0.000    0.000    0.000    0.000 
#
# Total GULP energy -222728.404513 kJ/mol
# GULP energy per Si atom -5568.210113 kJ/mol
# Density = 1.906117 g / cm^3
# Si number density = 19.104655 Si / 1000 Ang^3
#
#
#
# Elastic Constant Matrix: (Units=GPa)
#
#
# Indices 1 2 3 4 5 6 
#
# 1 35.9910 41.7260 21.7955 0.0000 0.0000 0.0000
# 2 41.7260 245.8006 76.9766 0.0000 0.0000 0.0000
# 3 21.7955 76.9766 74.0655 0.0000 0.0000 0.0000
# 4 0.0000 0.0000 0.0000 96.6467 0.0000 0.0000
# 5 0.0000 0.0000 0.0000 0.0000 16.1344 0.0000
# 6 0.0000 0.0000 0.0000 0.0000 0.0000 44.4980
#
#
#
# Elastic Compliance Matrix: (Units=1/GPa)
#
#
# Indices 1 2 3 4 5 6 
#
# 1 0.036519 -0.004201 -0.006380 0.000000 0.000000 0.000000
# 2 -0.004201 0.006515 -0.005534 0.000000 0.000000 0.000000
# 3 -0.006380 -0.005534 0.021131 0.000000 0.000000 0.000000
# 4 0.000000 0.000000 0.000000 0.010347 0.000000 0.000000
# 5 0.000000 0.000000 0.000000 0.000000 0.061979 0.000000
# 6 0.000000 0.000000 0.000000 0.000000 0.000000 0.022473
#
#
# Mechanical properties :
#
#
# Convention : Reuss Voigt Hill
#
# Bulk Modulus (GPa) = 31.31549 70.76147 51.03848
# Shear Modulus (GPa) = 24.77205 45.81310 35.29258
#
# Velocity S-wave (km/s) = 3.60481 4.90226 4.30272
# Velocity P-wave (km/s) = 5.80976 8.31638 7.17340
#
# Compressibility (1/GPa) = 0.03193308
#
# Stress axis : x y z
#
# Youngs Moduli (GPa) = 27.38291 153.49809 47.32358
#
# Poissons Ratio (x) = 0.64488 0.30193
# Poissons Ratio (y) = 0.11504 0.26191
# Poissons Ratio (z) = 0.17471 0.84953
#
# Static dielectric constant tensor:
#      x y z
#    x 1.640720 0.000000 0.000000 
#    y 0.000000 1.727860 0.000000 
#    z 0.000000 0.000000 1.259650 
# 
# From -- ./inp_files/9435.got.cif
#   From: 2010.05.17/outbox.cif.g08.bks.cpg/sg51_5_cif.got.tgz:9435.got - 2010.06.03 11:52:47.
