data_PCOD9402052
_publ_section_title
;
Structure prediction by ZEFSAII (Michael W. Deem and Ramdas Pophale) SiO2 
 PCOD9402052
Probable space group: P M M A
;
_chemical_formula_sum "Si O2"
_cell_formula_units_Z 44
_cell_length_a 8.457376
_cell_length_b 29.917516
_cell_length_c 9.341178
_cell_angle_alpha 90.000000
_cell_angle_beta 90.000000
_cell_angle_gamma 90.000000
_cell_volume 2363.539250
_symmetry_space_group_name_H-M "P M M A"
_symmetry_group_IT_number 51
_symmetry_cell_setting 'orthorhombic'
loop_
_space_group_symop_operation_xyz
x,y,z
1/2-x,-y,z
1/2+x,-y,-z
-x,y,-z
-x,-y,-z
1/2+x,y,-z
1/2-x,y,z
x,-y,z
loop_
_atom_site_type_symbol
_atom_site_label
_atom_site_fract_x
_atom_site_fract_y
_atom_site_fract_z
Si Si1 0.058521 0.634994 0.662805
Si Si2 0.061759 0.914837 0.162094
Si Si3 0.061717 0.000000 0.662319
Si Si4 0.059483 0.731894 0.663528
Si Si5 0.441103 0.450729 0.837824
Si Si6 0.059487 0.169985 0.664113
O O1 0.250000 0.634194 0.662443
O O2 0.008228 0.683708 0.724820
O O3 0.001124 0.591794 0.748665
O O4 0.000000 0.632380 0.500000
O O5 0.250000 0.916895 0.160710
O O6 0.997202 0.956348 0.253677
O O7 0.006905 0.869358 0.238737
O O8 0.000000 0.917022 0.000000
O O9 0.000000 0.000000 0.500000
O O10 0.250000 0.000000 0.659625
O O11 0.250000 0.732032 0.663908
O O12 0.009452 0.780523 0.720254
O O13 0.000000 0.731473 0.500000
O O14 0.250000 0.449758 0.837755
O O15 0.490156 0.500000 0.782347
O O16 0.500000 0.447215 0.000000
O O17 0.250000 0.167668 0.662826
O O18 0.000000 0.165318 0.500000
#
# Coordination Sequence:
#
# PCOD9402052 Si02
#       6
#     8   8   4   8   8   8
#     4   9  17  30  48  72 100 129 164 209 258 307
#     4  12  25  42  61  85 116 150 184 223 271 319
#     4  12  25  44  67  92 118 148 186 226 265 312
#     4   8  15  28  48  72 101 134 169 210 256 305
#     4   9  18  32  48  66  92 127 166 207 253 307
#     4  10  19  34  56  82 109 142 182 222 263 312
#
# _framework density 18.616149
#
# number of rings (size 3 to 8) (size 9 to 14) (size 15 to 20)
#    0.000    2.182    0.000    3.818    0.000    1.818 
#    0.000    0.909    0.000    2.182    0.000    0.000 
#    0.000    0.000    0.000    0.000    0.000    0.000 
#
# Total GULP energy -245356.052697 kJ/mol
# GULP energy per Si atom -5576.273925 kJ/mol
# Density = 1.857378 g / cm^3
# Si number density = 18.616149 Si / 1000 Ang^3
#
#
#
# Elastic Constant Matrix: (Units=GPa)
#
#
# Indices 1 2 3 4 5 6 
#
# 1 71.8399 51.0794 30.9588 0.0000 0.0000 0.0000
# 2 51.0794 245.9769 96.1853 0.0000 0.0000 0.0000
# 3 30.9588 96.1853 93.7377 0.0000 0.0000 0.0000
# 4 0.0000 0.0000 0.0000 -39.1854 0.0000 0.0000
# 5 0.0000 0.0000 0.0000 0.0000 28.6069 0.0000
# 6 0.0000 0.0000 0.0000 0.0000 0.0000 -13.2033
#
#
#
# Elastic Compliance Matrix: (Units=1/GPa)
#
#
# Indices 1 2 3 4 5 6 
#
# 1 0.016925 -0.002219 -0.003313 0.000000 0.000000 0.000000
# 2 -0.002219 0.007081 -0.006533 0.000000 0.000000 0.000000
# 3 -0.003313 -0.006533 0.018465 0.000000 0.000000 0.000000
# 4 0.000000 0.000000 0.000000 -0.025520 0.000000 0.000000
# 5 0.000000 0.000000 0.000000 0.000000 0.034957 0.000000
# 6 0.000000 0.000000 0.000000 0.000000 0.000000 -0.075739
#
#
# Mechanical properties :
#
#
# Convention : Reuss Voigt Hill
#
# Bulk Modulus (GPa) = 54.51908 85.33349 69.92628
# Shear Modulus (GPa) = 779.61580 10.79904 395.20742
#
# Velocity S-wave (km/s) = 20.48643 2.41112 14.58608
# Velocity P-wave (km/s) = 24.26811 7.32730 17.92527
#
# Compressibility (1/GPa) = 0.01834220
#
# Stress axis : x y z
#
# Youngs Moduli (GPa) = 59.08278 141.22709 54.15539
#
# Poissons Ratio (x) = 0.31343 0.17940
# Poissons Ratio (y) = 0.13113 0.35378
# Poissons Ratio (z) = 0.19572 0.92259
#
# Static dielectric constant tensor:
#      x y z
#    x 1.628990 0.000000 0.000000 
#    y 0.000000 1.704150 0.000000 
#    z 0.000000 0.000000 1.579730 
# 
# From -- ./inp_files/5887.got.cif
#   From: 2010.05.17/outbox.cif.g08.bks.cpg/sg51_3_cif.got.tgz:5887.got - 2010.06.03 11:52:47.
