data_PCOD9402770
_publ_section_title
;
Structure prediction by ZEFSAII (Michael W. Deem and Ramdas Pophale) SiO2 
 PCOD9402770
Probable space group: P M M A
;
_chemical_formula_sum "Si O2"
_cell_formula_units_Z 56
_cell_length_a 8.875900
_cell_length_b 15.441557
_cell_length_c 20.916294
_cell_angle_alpha 90.000000
_cell_angle_beta 90.000000
_cell_angle_gamma 90.000000
_cell_volume 2866.739478
_symmetry_space_group_name_H-M "P M M A"
_symmetry_group_IT_number 51
_symmetry_cell_setting 'orthorhombic'
loop_
_space_group_symop_operation_xyz
x,y,z
1/2-x,-y,z
1/2+x,-y,-z
-x,y,-z
-x,-y,-z
1/2+x,y,-z
1/2-x,y,z
x,-y,z
loop_
_atom_site_type_symbol
_atom_site_label
_atom_site_fract_x
_atom_site_fract_y
_atom_site_fract_z
Si Si1 0.931393 0.289874 0.682251
Si Si2 0.921248 0.623645 0.934687
Si Si3 0.926929 0.603877 0.432228
Si Si4 0.418658 0.900930 0.817299
Si Si5 0.419658 0.830298 0.063263
Si Si6 0.428841 0.904271 0.316596
Si Si7 0.569734 0.599200 0.203984
O O1 0.750000 0.289143 0.687899
O O2 0.982169 0.191676 0.662964
O O3 0.986876 0.351886 0.625927
O O4 0.997669 0.329374 0.748466
O O5 0.750000 0.592367 0.929364
O O6 0.911066 0.727135 0.942237
O O7 0.008845 0.605746 0.868668
O O8 0.000000 0.592733 0.000000
O O9 0.750000 0.626354 0.430613
O O10 0.939121 0.500000 0.426471
O O11 0.000000 0.628988 0.500000
O O12 0.250000 0.874958 0.796610
O O13 0.479407 0.846674 0.875358
O O14 0.531992 0.899519 0.758339
O O15 0.411761 0.000000 0.839594
O O16 0.250000 0.864908 0.070913
O O17 0.500000 0.865642 0.000000
O O18 0.250000 0.906572 0.327322
O O19 0.488913 0.000000 0.338597
O O20 0.750000 0.610330 0.204103
O O21 0.536680 0.500000 0.226532
#
# Coordination Sequence:
#
# PCOD9402770 Si02
#       7
#     8   8   8   8   8   8   8
#     4  11  22  36  59  89 119 153 192 236 285 334
#     4  10  21  37  56  76  99 133 179 229 281 338
#     4  10  21  38  61  90 125 163 199 235 278 331
#     4  10  20  32  47  69  96 127 166 214 270 330
#     4  10  20  33  49  68  90 120 161 210 267 330
#     4   9  19  36  56  79 109 145 184 226 274 328
#     4  11  24  39  55  79 112 149 188 232 284 340
#
# _framework density 19.534386999999999
#
# number of rings (size 3 to 8) (size 9 to 14) (size 15 to 20)
#    0.000    1.857    0.000    3.857    0.000   11.429 
#    0.000    0.000    0.000    0.429    0.000    0.000 
#    0.000    0.000    0.000    0.000    0.000    0.000 
#
# Total GULP energy -312343.415624 kJ/mol
# GULP energy per Si atom -5577.560993 kJ/mol
# Density = 1.948993 g / cm^3
# Si number density = 19.534387 Si / 1000 Ang^3
#
#
#
# Elastic Constant Matrix: (Units=GPa)
#
#
# Indices 1 2 3 4 5 6 
#
# 1 53.3624 31.7447 20.6805 0.0000 0.0000 0.0000
# 2 31.7447 57.2758 26.1090 0.0000 0.0000 0.0000
# 3 20.6805 26.1090 79.4919 0.0000 0.0000 0.0000
# 4 0.0000 0.0000 0.0000 13.4452 0.0000 0.0000
# 5 0.0000 0.0000 0.0000 0.0000 29.2622 0.0000
# 6 0.0000 0.0000 0.0000 0.0000 0.0000 15.8049
#
#
#
# Elastic Compliance Matrix: (Units=1/GPa)
#
#
# Indices 1 2 3 4 5 6 
#
# 1 0.028411 -0.014557 -0.002610 0.000000 0.000000 0.000000
# 2 -0.014557 0.027992 -0.005407 0.000000 0.000000 0.000000
# 3 -0.002610 -0.005407 0.015035 0.000000 0.000000 0.000000
# 4 0.000000 0.000000 0.000000 0.074376 0.000000 0.000000
# 5 0.000000 0.000000 0.000000 0.000000 0.034174 0.000000
# 6 0.000000 0.000000 0.000000 0.000000 0.000000 0.063271
#
#
# Mechanical properties :
#
#
# Convention : Reuss Voigt Hill
#
# Bulk Modulus (GPa) = 38.03695 38.57759 38.30727
# Shear Modulus (GPa) = 16.82539 19.14221 17.98380
#
# Velocity S-wave (km/s) = 2.93801 3.13377 3.03747
# Velocity P-wave (km/s) = 5.56985 5.73458 5.65282
#
# Compressibility (1/GPa) = 0.02629023
#
# Stress axis : x y z
#
# Youngs Moduli (GPa) = 35.19765 35.72444 66.51215
#
# Poissons Ratio (x) = 0.52003 0.17361
# Poissons Ratio (y) = 0.51236 0.35962
# Poissons Ratio (z) = 0.09187 0.19316
#
# Static dielectric constant tensor:
#      x y z
#    x 1.684200 0.000000 0.000000 
#    y 0.000000 1.753770 0.000000 
#    z 0.000000 0.000000 1.628130 
# 
# From -- ./inp_files/32001.got.cif
#   From: 2010.05.17/outbox.cif.g08.bks.cpg/sg51_17_cif.got.tgz:32001.got - 2010.06.03 11:52:47.
