data_PCOD9402371
_publ_section_title
;
Structure prediction by ZEFSAII (Michael W. Deem and Ramdas Pophale) SiO2 
 PCOD9402371
Probable space group: P M M A
;
_chemical_formula_sum "Si O2"
_cell_formula_units_Z 52
_cell_length_a 9.205939
_cell_length_b 15.401468
_cell_length_c 20.618405
_cell_angle_alpha 90.000000
_cell_angle_beta 90.000000
_cell_angle_gamma 90.000000
_cell_volume 2923.380036
_symmetry_space_group_name_H-M "P M M A"
_symmetry_group_IT_number 51
_symmetry_cell_setting 'orthorhombic'
loop_
_space_group_symop_operation_xyz
x,y,z
1/2-x,-y,z
1/2+x,-y,-z
-x,y,-z
-x,-y,-z
1/2+x,y,-z
1/2-x,y,z
x,-y,z
loop_
_atom_site_type_symbol
_atom_site_label
_atom_site_fract_x
_atom_site_fract_y
_atom_site_fract_z
Si Si1 0.082712 0.329804 0.644861
Si Si2 0.424579 0.216778 0.177463
Si Si3 0.401609 0.500000 0.559698
Si Si4 0.923985 0.398856 0.772915
Si Si5 0.076778 0.898833 0.930727
Si Si6 0.425488 0.905006 0.295808
Si Si7 0.574737 0.175536 0.569899
O O1 0.250000 0.298826 0.654781
O O2 0.087602 0.416355 0.603078
O O3 0.007375 0.362137 0.710488
O O4 0.988160 0.262690 0.603000
O O5 0.250000 0.204645 0.171245
O O6 0.452185 0.320531 0.176308
O O7 0.507148 0.164726 0.121929
O O8 0.469715 0.171788 0.246511
O O9 0.250000 0.500000 0.525275
O O10 0.500000 0.500000 0.500000
O O11 0.750000 0.397918 0.760674
O O12 0.963345 0.500000 0.787242
O O13 0.250000 0.886163 0.936047
O O14 0.050944 0.000000 0.912322
O O15 0.000000 0.885094 0.000000
O O16 0.250000 0.904586 0.293750
O O17 0.461839 0.891216 0.371572
O O18 0.477144 0.000000 0.273626
O O19 0.500000 0.160230 0.500000
O O20 0.750000 0.179308 0.562093
#
# Coordination Sequence:
#
# PCOD9402371 Si02
#       7
#     8   8   4   8   8   8   8
#     4  11  21  35  52  73 101 135 177 226 283 340
#     4  10  19  35  59  86 116 153 190 228 278 331
#     4  10  22  34  46  68  94 126 167 216 277 340
#     4  10  20  35  57  84 112 146 187 230 276 330
#     4  10  21  37  59  91 127 160 192 228 272 324
#     4   9  18  33  54  78 105 140 184 229 277 338
#     4  11  22  37  53  73 100 136 183 231 286 344
#
# _framework density 17.787628999999999
#
# number of rings (size 3 to 8) (size 9 to 14) (size 15 to 20)
#    0.000    1.846    2.308    2.308    0.000    4.923 
#    0.000    0.000    0.000    2.769    0.000    0.000 
#    0.000    0.000    0.000    0.000    0.000    0.000 
#
# Total GULP energy -289596.221635 kJ/mol
# GULP energy per Si atom -5569.158108 kJ/mol
# Density = 1.774714 g / cm^3
# Si number density = 17.787629 Si / 1000 Ang^3
#
#
#
# Elastic Constant Matrix: (Units=GPa)
#
#
# Indices 1 2 3 4 5 6 
#
# 1 56.8256 44.1263 48.7744 0.0000 0.0000 0.0000
# 2 44.1263 125.8956 58.0685 0.0000 0.0000 0.0000
# 3 48.7744 58.0685 101.9472 0.0000 0.0000 0.0000
# 4 0.0000 0.0000 0.0000 52.5288 0.0000 0.0000
# 5 0.0000 0.0000 0.0000 0.0000 33.2258 0.0000
# 6 0.0000 0.0000 0.0000 0.0000 0.0000 20.1203
#
#
#
# Elastic Compliance Matrix: (Units=1/GPa)
#
#
# Indices 1 2 3 4 5 6 
#
# 1 0.032666 -0.005752 -0.012352 0.000000 0.000000 0.000000
# 2 -0.005752 0.011786 -0.003961 0.000000 0.000000 0.000000
# 3 -0.012352 -0.003961 0.017975 0.000000 0.000000 0.000000
# 4 0.000000 0.000000 0.000000 0.019037 0.000000 0.000000
# 5 0.000000 0.000000 0.000000 0.000000 0.030097 0.000000
# 6 0.000000 0.000000 0.000000 0.000000 0.000000 0.049701
#
#
# Mechanical properties :
#
#
# Convention : Reuss Voigt Hill
#
# Bulk Modulus (GPa) = 54.65580 65.17853 59.91717
# Shear Modulus (GPa) = 23.64138 30.08825 26.86481
#
# Velocity S-wave (km/s) = 3.64963 4.11728 3.89049
# Velocity P-wave (km/s) = 6.96802 7.70226 7.34432
#
# Compressibility (1/GPa) = 0.01829632
#
# Stress axis : x y z
#
# Youngs Moduli (GPa) = 30.61241 84.84323 55.63281
#
# Poissons Ratio (x) = 0.48804 0.68718
# Poissons Ratio (y) = 0.17609 0.22039
# Poissons Ratio (z) = 0.37813 0.33610
#
# Static dielectric constant tensor:
#      x y z
#    x 1.612200 0.000000 0.000000 
#    y 0.000000 1.645020 0.000000 
#    z 0.000000 0.000000 1.574830 
# 
# From -- ./inp_files/31799.got.cif
#   From: 2010.05.17/outbox.cif.g08.bks.cpg/sg51_16_cif.got.tgz:31799.got - 2010.06.03 11:52:47.
