data_PCOD9402778
_publ_section_title
;
Structure prediction by ZEFSAII (Michael W. Deem and Ramdas Pophale) SiO2 
 PCOD9402778
Probable space group: P M M A
;
_chemical_formula_sum "Si O2"
_cell_formula_units_Z 64
_cell_length_a 8.953558
_cell_length_b 19.498385
_cell_length_c 24.135631
_cell_angle_alpha 90.000000
_cell_angle_beta 90.000000
_cell_angle_gamma 90.000000
_cell_volume 4213.596553
_symmetry_space_group_name_H-M "P M M A"
_symmetry_group_IT_number 51
_symmetry_cell_setting 'orthorhombic'
loop_
_space_group_symop_operation_xyz
x,y,z
1/2-x,-y,z
1/2+x,-y,-z
-x,y,-z
-x,-y,-z
1/2+x,y,-z
1/2-x,y,z
x,-y,z
loop_
_atom_site_type_symbol
_atom_site_label
_atom_site_fract_x
_atom_site_fract_y
_atom_site_fract_z
Si Si1 0.429380 0.300373 0.335399
Si Si2 0.929588 0.348977 0.834778
Si Si3 0.928802 0.789186 0.558676
Si Si4 0.070515 0.921851 0.612116
Si Si5 0.570697 0.923443 0.257304
Si Si6 0.071749 0.420077 0.727769
Si Si7 0.928271 0.213155 0.773829
Si Si8 0.428037 0.418947 0.940489
O O1 0.250000 0.310443 0.333491
O O2 0.469589 0.264961 0.393159
O O3 0.510310 0.371048 0.320590
O O4 0.467840 0.248224 0.285242
O O5 0.750000 0.354732 0.835479
O O6 0.968650 0.270189 0.819511
O O7 0.993654 0.394384 0.784253
O O8 0.998937 0.375169 0.891684
O O9 0.750000 0.791372 0.554708
O O10 0.000000 0.771075 0.500000
O O11 0.988894 0.863378 0.577822
O O12 0.250000 0.913833 0.607174
O O13 0.031866 0.914954 0.677426
O O14 0.033174 0.000000 0.595335
O O15 0.750000 0.921446 0.254137
O O16 0.503799 0.860543 0.223541
O O17 0.521301 0.000000 0.240397
O O18 0.250000 0.411729 0.733342
O O19 0.039215 0.500000 0.718379
O O20 0.750000 0.204586 0.774737
O O21 0.250000 0.408838 0.942203
O O22 0.455896 0.500000 0.929442
O O23 0.500000 0.402963 0.000000
#
# Coordination Sequence:
#
# PCOD9402778 Si02
#       8
#     8   8   8   8   8   8   8   8
#     4   9  19  34  49  67  91 117 148 185 229 283
#     4  10  20  32  47  70 101 132 164 200 235 274
#     4  11  22  35  50  68  89 115 151 190 230 279
#     4   9  18  32  48  67  91 119 152 188 227 273
#     4   9  17  28  44  67  93 121 153 188 229 278
#     4  10  20  32  49  74  98 120 150 189 232 279
#     4   9  17  30  46  67  93 121 155 193 233 277
#     4  10  20  33  49  70  98 134 174 208 239 277
#
# _framework density 15.188924
#
# number of rings (size 3 to 8) (size 9 to 14) (size 15 to 20)
#    0.000    2.375    1.250    3.375    0.000    7.500 
#    0.000    1.250    0.000    0.375    0.000    0.000 
#    0.000    0.500    0.000    1.625    0.000    2.375 
#
# Total GULP energy -356947.184868 kJ/mol
# GULP energy per Si atom -5577.299764 kJ/mol
# Density = 1.515435 g / cm^3
# Si number density = 15.188924 Si / 1000 Ang^3
#
#
#
# Elastic Constant Matrix: (Units=GPa)
#
#
# Indices 1 2 3 4 5 6 
#
# 1 44.2096 53.9963 47.0774 0.0000 0.0000 0.0000
# 2 53.9963 128.5928 72.3426 0.0000 0.0000 0.0000
# 3 47.0774 72.3426 108.1672 0.0000 0.0000 0.0000
# 4 0.0000 0.0000 0.0000 24.4630 0.0000 0.0000
# 5 0.0000 0.0000 0.0000 0.0000 23.7422 0.0000
# 6 0.0000 0.0000 0.0000 0.0000 0.0000 27.0677
#
#
#
# Elastic Compliance Matrix: (Units=1/GPa)
#
#
# Indices 1 2 3 4 5 6 
#
# 1 0.057463 -0.016127 -0.014224 0.000000 0.000000 0.000000
# 2 -0.016127 0.016993 -0.004346 0.000000 0.000000 0.000000
# 3 -0.014224 -0.004346 0.018342 0.000000 0.000000 0.000000
# 4 0.000000 0.000000 0.000000 0.040878 0.000000 0.000000
# 5 0.000000 0.000000 0.000000 0.000000 0.042119 0.000000
# 6 0.000000 0.000000 0.000000 0.000000 0.000000 0.036944
#
#
# Mechanical properties :
#
#
# Convention : Reuss Voigt Hill
#
# Bulk Modulus (GPa) = 42.72658 69.75581 56.24120
# Shear Modulus (GPa) = 17.24523 22.22478 19.73501
#
# Velocity S-wave (km/s) = 3.37320 3.82936 3.60849
# Velocity P-wave (km/s) = 6.58502 8.09797 7.38037
#
# Compressibility (1/GPa) = 0.02340463
#
# Stress axis : x y z
#
# Youngs Moduli (GPa) = 17.40258 58.84682 54.51874
#
# Poissons Ratio (x) = 0.94901 0.77546
# Poissons Ratio (y) = 0.28065 0.23695
# Poissons Ratio (z) = 0.24753 0.25577
#
# Static dielectric constant tensor:
#      x y z
#    x 1.505540 0.000000 0.000000 
#    y 0.000000 1.503600 0.000000 
#    z 0.000000 0.000000 1.483530 
# 
# From -- ./inp_files/35115.got.cif
#   From: 2010.05.17/outbox.cif.g08.bks.cpg/sg51_18_cif.got.tgz:35115.got - 2010.06.03 11:52:47.
