data_PCOD9402501
_publ_section_title
;
Structure prediction by ZEFSAII (Michael W. Deem and Ramdas Pophale) SiO2 
 PCOD9402501
Probable space group: P M M A
;
_chemical_formula_sum "Si O2"
_cell_formula_units_Z 64
_cell_length_a 15.138271
_cell_length_b 18.438766
_cell_length_c 12.078612
_cell_angle_alpha 90.000000
_cell_angle_beta 90.000000
_cell_angle_gamma 90.000000
_cell_volume 3371.515488
_symmetry_space_group_name_H-M "P M M A"
_symmetry_group_IT_number 51
_symmetry_cell_setting 'orthorhombic'
loop_
_space_group_symop_operation_xyz
x,y,z
1/2-x,-y,z
1/2+x,-y,-z
-x,y,-z
-x,-y,-z
1/2+x,y,-z
1/2-x,y,z
x,-y,z
loop_
_atom_site_type_symbol
_atom_site_label
_atom_site_fract_x
_atom_site_fract_y
_atom_site_fract_z
Si Si1 0.652846 0.195106 0.320655
Si Si2 0.506914 0.084408 0.372178
Si Si3 0.959185 0.584316 0.252206
Si Si4 0.103575 0.235570 0.121478
Si Si5 0.647031 0.917983 0.798601
Si Si6 0.146488 0.660843 0.555058
Si Si7 0.099516 0.283314 0.883854
Si Si8 0.850280 0.644877 0.708203
O O1 0.750000 0.165875 0.345764
O O2 0.580171 0.133701 0.316036
O O3 0.628542 0.255940 0.411461
O O4 0.654086 0.239859 0.206850
O O5 0.500000 0.105646 0.500000
O O6 0.414895 0.092161 0.308033
O O7 0.532279 0.000000 0.367758
O O8 0.941686 0.500000 0.237578
O O9 0.917236 0.612242 0.368636
O O10 0.914416 0.634820 0.158551
O O11 0.064742 0.599509 0.251004
O O12 0.126310 0.150671 0.123834
O O13 0.141683 0.278241 0.227494
O O14 0.998319 0.247845 0.123384
O O15 0.134000 0.273185 0.007543
O O16 0.750000 0.915022 0.769627
O O17 0.629170 0.000000 0.842803
O O18 0.250000 0.646187 0.583420
O O19 0.137273 0.651664 0.423989
O O20 0.750000 0.616876 0.727367
#
# Coordination Sequence:
#
# PCOD9402501 Si02
#       8
#     8   8   8   8   8   8   8   8
#     4  10  20  35  57  81 111 151 194 242 288 336
#     4  10  22  37  54  81 120 158 192 236 287 340
#     4  10  21  38  61  86 115 151 188 234 290 348
#     4  10  19  37  60  83 112 153 194 237 288 336
#     4  10  21  37  58  86 118 153 196 241 289 345
#     4   9  20  36  55  83 115 149 195 242 285 337
#     4   9  20  38  59  85 112 144 192 239 284 340
#     4  10  21  35  55  86 119 153 191 235 286 343
#
# _framework density 18.982561
#
# number of rings (size 3 to 8) (size 9 to 14) (size 15 to 20)
#    0.000    2.250    1.250    0.750    1.750    3.250 
#    0.000    9.375    0.000    0.000    0.000    0.000 
#    0.000    0.000    0.000    0.000    0.000    0.000 
#
# Total GULP energy -356939.648869 kJ/mol
# GULP energy per Si atom -5577.182014 kJ/mol
# Density = 1.893936 g / cm^3
# Si number density = 18.982561 Si / 1000 Ang^3
#
#
#
# Elastic Constant Matrix: (Units=GPa)
#
#
# Indices 1 2 3 4 5 6 
#
# 1 77.1787 52.7766 16.7074 0.0000 0.0000 0.0000
# 2 52.7766 110.5335 57.8991 0.0000 0.0000 0.0000
# 3 16.7074 57.8991 82.4582 0.0000 0.0000 0.0000
# 4 0.0000 0.0000 0.0000 6.3097 0.0000 0.0000
# 5 0.0000 0.0000 0.0000 0.0000 3.6276 0.0000
# 6 0.0000 0.0000 0.0000 0.0000 0.0000 6.5174
#
#
#
# Elastic Compliance Matrix: (Units=1/GPa)
#
#
# Indices 1 2 3 4 5 6 
#
# 1 0.020127 -0.011822 0.004223 0.000000 0.000000 0.000000
# 2 -0.011822 0.021255 -0.012529 0.000000 0.000000 0.000000
# 3 0.004223 -0.012529 0.020069 0.000000 0.000000 0.000000
# 4 0.000000 0.000000 0.000000 0.158487 0.000000 0.000000
# 5 0.000000 0.000000 0.000000 0.000000 0.275668 0.000000
# 6 0.000000 0.000000 0.000000 0.000000 0.000000 0.153436
#
#
# Mechanical properties :
#
#
# Convention : Reuss Voigt Hill
#
# Bulk Modulus (GPa) = 47.18170 58.32631 52.75401
# Shear Modulus (GPa) = 7.18017 12.81006 9.99512
#
# Velocity S-wave (km/s) = 1.94698 2.60057 2.29714
# Velocity P-wave (km/s) = 5.47390 6.30954 5.90651
#
# Compressibility (1/GPa) = 0.02119466
#
# Stress axis : x y z
#
# Youngs Moduli (GPa) = 49.68439 47.04867 49.82813
#
# Poissons Ratio (x) = 0.55622 -0.21043
# Poissons Ratio (y) = 0.58738 0.62429
# Poissons Ratio (z) = -0.20982 0.58946
#
# Static dielectric constant tensor:
#      x y z
#    x 1.679860 0.000000 0.000000 
#    y 0.000000 1.642930 0.000000 
#    z 0.000000 0.000000 1.669900 
# 
# From -- ./inp_files/16891.got.cif
#   From: 2010.05.17/outbox.cif.g08.bks.cpg/sg51_9_cif.got.tgz:16891.got - 2010.06.03 11:52:47.
