data_PCOD9402114
_publ_section_title
;
Structure prediction by ZEFSAII (Michael W. Deem and Ramdas Pophale) SiO2 
 PCOD9402114
Probable space group: P M M A
;
_chemical_formula_sum "Si O2"
_cell_formula_units_Z 56
_cell_length_a 16.681022
_cell_length_b 9.075072
_cell_length_c 19.053698
_cell_angle_alpha 90.000000
_cell_angle_beta 90.000000
_cell_angle_gamma 90.000000
_cell_volume 2884.376920
_symmetry_space_group_name_H-M "P M M A"
_symmetry_group_IT_number 51
_symmetry_cell_setting 'orthorhombic'
loop_
_space_group_symop_operation_xyz
x,y,z
1/2-x,-y,z
1/2+x,-y,-z
-x,y,-z
-x,-y,-z
1/2+x,y,-z
1/2-x,y,z
x,-y,z
loop_
_atom_site_type_symbol
_atom_site_label
_atom_site_fract_x
_atom_site_fract_y
_atom_site_fract_z
Si Si1 0.506197 0.679427 0.420165
Si Si2 0.508933 0.330737 0.164063
Si Si3 0.097640 0.322868 0.292523
Si Si4 0.750000 0.823326 0.780992
Si Si5 0.159942 0.675650 0.669588
Si Si6 0.413461 0.327649 0.030077
Si Si7 0.250000 0.175906 0.051615
Si Si8 0.337209 0.175432 0.822446
O O1 0.500000 0.731696 0.500000
O O2 0.506250 0.500000 0.421373
O O3 0.431960 0.721543 0.369881
O O4 0.589382 0.722903 0.382577
O O5 0.535360 0.500000 0.163549
O O6 0.477532 0.292765 0.241051
O O7 0.433142 0.319213 0.113090
O O8 0.584333 0.236255 0.139955
O O9 0.111396 0.500000 0.290912
O O10 0.173126 0.241506 0.259479
O O11 0.750000 0.785898 0.864462
O O12 0.750000 0.000000 0.777028
O O13 0.250000 0.696675 0.640311
O O14 0.149978 0.500000 0.683289
O O15 0.157331 0.759491 0.743653
O O16 0.403682 0.500000 0.010134
O O17 0.331630 0.240671 0.018519
O O18 0.500000 0.277804 0.000000
O O19 0.250000 0.000000 0.044691
O O20 0.250000 0.221084 0.851125
O O21 0.339915 0.000000 0.820510
#
# Coordination Sequence:
#
# PCOD9402114 Si02
#       8
#     8   8   8   4   8   8   4   8
#     4   9  17  31  50  77 109 137 175 228 282 335
#     4  10  19  34  58  84 108 139 184 234 281 332
#     4  10  19  34  57  83 108 141 183 232 288 335
#     4  11  23  37  57  87 117 146 187 234 284 338
#     4   9  16  29  50  73  98 132 174 217 262 314
#     4  10  22  41  64  88 117 154 197 244 291 343
#     4  11  23  39  63  93 123 160 197 238 296 354
#     4  10  20  32  49  76 108 142 178 219 269 324
#
# _framework density 19.414939
#
# number of rings (size 3 to 8) (size 9 to 14) (size 15 to 20)
#    0.000    2.143    2.857    0.857    0.000    2.857 
#    2.571    0.000    0.000    1.714    0.000    0.000 
#    0.000    0.000    0.000    0.000    0.000    0.000 
#
# Total GULP energy -312369.581670 kJ/mol
# GULP energy per Si atom -5578.028244 kJ/mol
# Density = 1.937075 g / cm^3
# Si number density = 19.414939 Si / 1000 Ang^3
#
#
#
# Elastic Constant Matrix: (Units=GPa)
#
#
# Indices 1 2 3 4 5 6 
#
# 1 163.6160 65.7940 38.2277 0.0000 0.0000 0.0000
# 2 65.7940 31.3672 13.0017 0.0000 0.0000 0.0000
# 3 38.2277 13.0017 74.4461 0.0000 0.0000 0.0000
# 4 0.0000 0.0000 0.0000 9.1811 0.0000 0.0000
# 5 0.0000 0.0000 0.0000 0.0000 26.3719 0.0000
# 6 0.0000 0.0000 0.0000 0.0000 0.0000 11.9495
#
#
#
# Elastic Compliance Matrix: (Units=1/GPa)
#
#
# Indices 1 2 3 4 5 6 
#
# 1 0.041890 -0.085112 -0.006646 0.000000 0.000000 0.000000
# 2 -0.085112 0.207297 0.007501 0.000000 0.000000 0.000000
# 3 -0.006646 0.007501 0.015535 0.000000 0.000000 0.000000
# 4 0.000000 0.000000 0.000000 0.108919 0.000000 0.000000
# 5 0.000000 0.000000 0.000000 0.000000 0.037919 0.000000
# 6 0.000000 0.000000 0.000000 0.000000 0.000000 0.083686
#
#
# Mechanical properties :
#
#
# Convention : Reuss Voigt Hill
#
# Bulk Modulus (GPa) = 10.39407 55.94177 33.16792
# Shear Modulus (GPa) = 7.18567 19.66089 13.42328
#
# Velocity S-wave (km/s) = 1.92591 3.18570 2.63228
# Velocity P-wave (km/s) = 3.21104 6.51213 5.13413
#
# Compressibility (1/GPa) = 0.09620870
#
# Stress axis : x y z
#
# Youngs Moduli (GPa) = 23.87195 4.82400 64.36985
#
# Poissons Ratio (x) = 0.41058 0.42780
# Poissons Ratio (y) = 2.03178 -0.48283
# Poissons Ratio (z) = 0.15865 -0.03618
#
# Static dielectric constant tensor:
#      x y z
#    x 1.702270 0.000000 0.000000 
#    y 0.000000 1.654710 0.000000 
#    z 0.000000 0.000000 1.714560 
# 
# From -- ./inp_files/33609.got.cif
#   From: 2010.05.17/outbox.cif.g08.bks.cpg/sg51_17_cif.got.tgz:33609.got - 2010.06.03 11:52:47.
