data_PCOD9402275
_publ_section_title
;
Structure prediction by ZEFSAII (Michael W. Deem and Ramdas Pophale) SiO2 
 PCOD9402275
Probable space group: P M M A
;
_chemical_formula_sum "Si O2"
_cell_formula_units_Z 48
_cell_length_a 22.603177
_cell_length_b 7.501011
_cell_length_c 12.348173
_cell_angle_alpha 90.000000
_cell_angle_beta 90.000000
_cell_angle_gamma 90.000000
_cell_volume 2093.591728
_symmetry_space_group_name_H-M "P M M A"
_symmetry_group_IT_number 51
_symmetry_cell_setting 'orthorhombic'
loop_
_space_group_symop_operation_xyz
x,y,z
1/2-x,-y,z
1/2+x,-y,-z
-x,y,-z
-x,-y,-z
1/2+x,y,-z
1/2-x,y,z
x,-y,z
loop_
_atom_site_type_symbol
_atom_site_label
_atom_site_fract_x
_atom_site_fract_y
_atom_site_fract_z
Si Si1 0.972998 0.784211 0.116272
Si Si2 0.919418 0.783206 0.739743
Si Si3 0.315427 0.281552 0.629803
Si Si4 0.186840 0.207420 0.112848
Si Si5 0.067447 0.294855 0.504012
Si Si6 0.338104 0.297411 0.869908
O O1 0.908843 0.706977 0.132998
O O2 0.017643 0.730571 0.210510
O O3 0.967776 0.000000 0.115726
O O4 0.000000 0.733543 0.000000
O O5 0.869179 0.719452 0.823098
O O6 0.911321 0.712675 0.619899
O O7 0.919221 0.000000 0.735892
O O8 0.250000 0.230999 0.584584
O O9 0.317289 0.500000 0.627563
O O10 0.376829 0.220231 0.573055
O O11 0.317119 0.222867 0.755344
O O12 0.250000 0.289646 0.141329
O O13 0.188688 0.000000 0.143537
O O14 0.179349 0.212029 0.983563
O O15 0.059961 0.500000 0.540696
O O16 0.000000 0.216331 0.500000
O O17 0.317146 0.500000 0.875988
#
# Coordination Sequence:
#
# PCOD9402275 Si02
#       6
#     8   8   8   8   8   8
#     4  10  19  35  56  78 112 151 184 220 275 346
#     4  10  21  37  57  82 111 144 184 229 278 332
#     4   9  19  36  56  79 111 152 190 230 288 347
#     4  10  21  38  57  78 112 155 189 222 277 342
#     4  10  21  38  59  82 111 145 187 237 287 341
#     4  11  21  34  57  86 115 144 186 240 284 332
#
# _framework density 22.927106999999999
#
# number of rings (size 3 to 8) (size 9 to 14) (size 15 to 20)
#    0.000    2.000    1.667    2.000    0.000    5.000 
#    0.000    1.667    0.000    2.000    0.000    0.000 
#    0.000    0.000    0.000    0.000    0.000    0.000 
#
# Total GULP energy -268062.746798 kJ/mol
# GULP energy per Si atom -5584.640558 kJ/mol
# Density = 2.287492 g / cm^3
# Si number density = 22.927107 Si / 1000 Ang^3
#
#
#
# Elastic Constant Matrix: (Units=GPa)
#
#
# Indices 1 2 3 4 5 6 
#
# 1 207.6832 7.7713 46.2384 0.0000 0.0000 0.0000
# 2 7.7713 59.8271 -6.8521 0.0000 0.0000 0.0000
# 3 46.2384 -6.8521 96.1590 0.0000 0.0000 0.0000
# 4 0.0000 0.0000 0.0000 17.7630 0.0000 0.0000
# 5 0.0000 0.0000 0.0000 0.0000 9.5002 0.0000
# 6 0.0000 0.0000 0.0000 0.0000 0.0000 -76.9336
#
#
#
# Elastic Compliance Matrix: (Units=1/GPa)
#
#
# Indices 1 2 3 4 5 6 
#
# 1 0.005453 -0.001017 -0.002695 0.000000 0.000000 0.000000
# 2 -0.001017 0.017042 0.001703 0.000000 0.000000 0.000000
# 3 -0.002695 0.001703 0.011817 0.000000 0.000000 0.000000
# 4 0.000000 0.000000 0.000000 0.056297 0.000000 0.000000
# 5 0.000000 0.000000 0.000000 0.000000 0.105261 0.000000
# 6 0.000000 0.000000 0.000000 0.000000 0.000000 -0.012998
#
#
# Mechanical properties :
#
#
# Convention : Reuss Voigt Hill
#
# Bulk Modulus (GPa) = 33.00844 50.88717 41.94781
# Shear Modulus (GPa) = 25.38258 11.16670 18.27464
#
# Velocity S-wave (km/s) = 3.33092 2.20932 2.82632
# Velocity P-wave (km/s) = 5.40571 5.36204 5.38392
#
# Compressibility (1/GPa) = 0.03029528
#
# Stress axis : x y z
#
# Youngs Moduli (GPa) = 183.38563 58.67852 84.62738
#
# Poissons Ratio (x) = 0.05967 0.22803
# Poissons Ratio (y) = 0.18649 -0.14415
# Poissons Ratio (z) = 0.49414 -0.09995
#
# Static dielectric constant tensor:
#      x y z
#    x 1.870370 0.000000 0.000000 
#    y 0.000000 1.875350 0.000000 
#    z 0.000000 0.000000 1.808870 
# 
# From -- ./inp_files/18575.got.cif
#   From: 2010.05.17/outbox.cif.g08.bks.cpg/sg51_10_cif.got.tgz:18575.got - 2010.06.03 11:52:47.
