data_PCOD9402302
_publ_section_title
;
Structure prediction by ZEFSAII (Michael W. Deem and Ramdas Pophale) SiO2 
 PCOD9402302
Probable space group: P M M A
;
_chemical_formula_sum "Si O2"
_cell_formula_units_Z 48
_cell_length_a 22.035751
_cell_length_b 9.256578
_cell_length_c 12.567041
_cell_angle_alpha 90.000000
_cell_angle_beta 90.000000
_cell_angle_gamma 90.000000
_cell_volume 2563.370330
_symmetry_space_group_name_H-M "P M M A"
_symmetry_group_IT_number 51
_symmetry_cell_setting 'orthorhombic'
loop_
_space_group_symop_operation_xyz
x,y,z
1/2-x,-y,z
1/2+x,-y,-z
-x,y,-z
-x,-y,-z
1/2+x,y,-z
1/2-x,y,z
x,-y,z
loop_
_atom_site_type_symbol
_atom_site_label
_atom_site_fract_x
_atom_site_fract_y
_atom_site_fract_z
Si Si1 0.429576 0.324448 0.486199
Si Si2 0.317525 0.325905 0.635083
Si Si3 0.986925 0.834046 0.123419
Si Si4 0.180826 0.169631 0.092107
Si Si5 0.086882 0.328065 0.243859
Si Si6 0.657001 0.832203 0.147876
O O1 0.500000 0.275227 0.500000
O O2 0.431470 0.500000 0.493564
O O3 0.376993 0.275930 0.568428
O O4 0.408458 0.286028 0.367240
O O5 0.250000 0.289099 0.590166
O O6 0.320606 0.500000 0.640176
O O7 0.321071 0.260144 0.752960
O O8 0.022842 0.727400 0.199318
O O9 0.915830 0.827677 0.144588
O O10 0.007622 0.000000 0.140232
O O11 0.000000 0.798884 0.000000
O O12 0.250000 0.181558 0.128554
O O13 0.136700 0.255771 0.168623
O O14 0.163205 0.000000 0.091172
O O15 0.177347 0.218347 0.969089
O O16 0.090813 0.500000 0.236689
O O17 0.675947 0.000000 0.160219
#
# Coordination Sequence:
#
# PCOD9402302 Si02
#       6
#     8   8   8   8   8   8
#     4   9  19  37  58  80 111 150 189 232 286 345
#     4  10  21  37  58  83 112 149 192 239 292 346
#     4  10  19  35  57  80 112 150 184 221 274 341
#     4  10  21  38  57  77 110 155 191 223 275 340
#     4  11  22  35  57  87 114 142 183 235 282 331
#     4  10  20  36  59  83 110 147 188 231 277 333
#
# _framework density 18.725346999999999
#
# number of rings (size 3 to 8) (size 9 to 14) (size 15 to 20)
#    0.000    2.000    1.667    2.000    0.000    5.000 
#    0.000    3.333    0.000    4.500    0.000    0.000 
#    0.000    0.000    0.000    0.000    0.000    0.000 
#
# Total GULP energy -267846.499036 kJ/mol
# GULP energy per Si atom -5580.135397 kJ/mol
# Density = 1.868273 g / cm^3
# Si number density = 18.725347 Si / 1000 Ang^3
#
#
#
# Elastic Constant Matrix: (Units=GPa)
#
#
# Indices 1 2 3 4 5 6 
#
# 1 133.5235 26.1278 57.1426 0.0000 0.0000 0.0000
# 2 26.1278 23.1653 33.0932 0.0000 0.0000 0.0000
# 3 57.1426 33.0932 112.6048 0.0000 0.0000 0.0000
# 4 0.0000 0.0000 0.0000 91.3722 0.0000 0.0000
# 5 0.0000 0.0000 0.0000 0.0000 11.7286 0.0000
# 6 0.0000 0.0000 0.0000 0.0000 0.0000 10.3980
#
#
#
# Elastic Compliance Matrix: (Units=1/GPa)
#
#
# Indices 1 2 3 4 5 6 
#
# 1 0.010200 -0.007084 -0.003094 0.000000 0.000000 0.000000
# 2 -0.007084 0.079327 -0.019719 0.000000 0.000000 0.000000
# 3 -0.003094 -0.019719 0.016246 0.000000 0.000000 0.000000
# 4 0.000000 0.000000 0.000000 0.010944 0.000000 0.000000
# 5 0.000000 0.000000 0.000000 0.000000 0.085261 0.000000
# 6 0.000000 0.000000 0.000000 0.000000 0.000000 0.096172
#
#
# Mechanical properties :
#
#
# Convention : Reuss Voigt Hill
#
# Bulk Modulus (GPa) = 21.74875 55.78010 38.76442
# Shear Modulus (GPa) = 13.39512 32.89509 23.14511
#
# Velocity S-wave (km/s) = 2.67750 4.19587 3.51954
# Velocity P-wave (km/s) = 4.60418 7.30253 6.10432
#
# Compressibility (1/GPa) = 0.04597966
#
# Stress axis : x y z
#
# Youngs Moduli (GPa) = 98.04278 12.60598 61.55458
#
# Poissons Ratio (x) = 0.08930 0.19045
# Poissons Ratio (y) = 0.69454 1.21377
# Poissons Ratio (z) = 0.30334 0.24857
#
# Static dielectric constant tensor:
#      x y z
#    x 1.684790 0.000000 0.000000 
#    y 0.000000 1.624050 0.000000 
#    z 0.000000 0.000000 1.631690 
# 
# From -- ./inp_files/18605.got.cif
#   From: 2010.05.17/outbox.cif.g08.bks.cpg/sg51_10_cif.got.tgz:18605.got - 2010.06.03 11:52:47.
