data_PCOD9402717
_publ_section_title
;
Structure prediction by ZEFSAII (Michael W. Deem and Ramdas Pophale) SiO2 
 PCOD9402717
Probable space group: P M M A
;
_chemical_formula_sum "Si O2"
_cell_formula_units_Z 56
_cell_length_a 17.593118
_cell_length_b 7.411940
_cell_length_c 19.645134
_cell_angle_alpha 90.000000
_cell_angle_beta 90.000000
_cell_angle_gamma 90.000000
_cell_volume 2561.708481
_symmetry_space_group_name_H-M "P M M A"
_symmetry_group_IT_number 51
_symmetry_cell_setting 'orthorhombic'
loop_
_space_group_symop_operation_xyz
x,y,z
1/2-x,-y,z
1/2+x,-y,-z
-x,y,-z
-x,-y,-z
1/2+x,y,-z
1/2-x,y,z
x,-y,z
loop_
_atom_site_type_symbol
_atom_site_label
_atom_site_fract_x
_atom_site_fract_y
_atom_site_fract_z
Si Si1 0.919835 0.718307 0.717784
Si Si2 0.509212 0.212777 0.924429
Si Si3 0.834058 0.717240 0.851415
Si Si4 0.164032 0.281644 0.415658
Si Si5 0.929890 0.793411 0.457716
Si Si6 0.925911 0.206870 0.207034
Si Si7 0.163732 0.778378 0.668605
O O1 0.925581 0.500000 0.717546
O O2 0.857246 0.768830 0.774514
O O3 0.893608 0.777130 0.643494
O O4 0.999028 0.791808 0.745346
O O5 0.595923 0.227767 0.898884
O O6 0.454870 0.288299 0.864387
O O7 0.491533 0.000000 0.928135
O O8 0.500000 0.289019 0.000000
O O9 0.750000 0.783239 0.869597
O O10 0.832386 0.500000 0.852994
O O11 0.250000 0.229588 0.398575
O O12 0.161433 0.500000 0.418426
O O13 0.138595 0.209728 0.488342
O O14 0.896898 0.714796 0.387987
O O15 0.000000 0.709142 0.500000
O O16 0.952327 0.000000 0.442559
O O17 0.861330 0.283608 0.256183
O O18 0.904067 0.000000 0.193131
O O19 0.250000 0.725785 0.652279
O O20 0.161422 0.000000 0.667738
#
# Coordination Sequence:
#
# PCOD9402717 Si02
#       7
#     8   8   8   8   8   8   8
#     4   9  17  30  48  69  95 125 154 188 232 280
#     4   9  18  32  49  72 101 127 153 192 241 287
#     4   9  17  30  49  72  96 125 161 195 229 277
#     4  10  20  32  46  67  95 124 153 188 233 283
#     4  10  20  33  49  68  90 118 156 201 244 283
#     4   9  17  31  51  71  91 119 157 194 227 275
#     4   9  17  30  48  68  90 119 157 199 238 277
#
# _framework density 21.860410999999999
#
# number of rings (size 3 to 8) (size 9 to 14) (size 15 to 20)
#    0.000    2.714    0.000    1.714    0.000    5.143 
#    0.000    1.429    0.000    6.429    0.000    0.000 
#    0.000    0.000    0.000    0.000    0.000    0.000 
#
# Total GULP energy -312540.128874 kJ/mol
# GULP energy per Si atom -5581.073730 kJ/mol
# Density = 2.181066 g / cm^3
# Si number density = 21.860411 Si / 1000 Ang^3
#
#
#
# Elastic Constant Matrix: (Units=GPa)
#
#
# Indices 1 2 3 4 5 6 
#
# 1 74.0670 0.1231 37.5083 0.0000 0.0000 0.0000
# 2 0.1231 73.8161 4.8435 0.0000 0.0000 0.0000
# 3 37.5083 4.8435 152.7651 0.0000 0.0000 0.0000
# 4 0.0000 0.0000 0.0000 -2.2580 0.0000 0.0000
# 5 0.0000 0.0000 0.0000 0.0000 20.2634 0.0000
# 6 0.0000 0.0000 0.0000 0.0000 0.0000 15.1617
#
#
#
# Elastic Compliance Matrix: (Units=1/GPa)
#
#
# Indices 1 2 3 4 5 6 
#
# 1 0.015422 0.000223 -0.003794 0.000000 0.000000 0.000000
# 2 0.000223 0.013579 -0.000485 0.000000 0.000000 0.000000
# 3 -0.003794 -0.000485 0.007493 0.000000 0.000000 0.000000
# 4 0.000000 0.000000 0.000000 -0.442871 0.000000 0.000000
# 5 0.000000 0.000000 0.000000 0.000000 0.049350 0.000000
# 6 0.000000 0.000000 0.000000 0.000000 0.000000 0.065956
#
#
# Mechanical properties :
#
#
# Convention : Reuss Voigt Hill
#
# Bulk Modulus (GPa) = 35.23356 42.84422 39.03889
# Shear Modulus (GPa) = -18.28155 23.84497 2.78171
#
# Velocity S-wave (km/s) = -2.89500 3.30628 1.12927
# Velocity P-wave (km/s) = 2.23110 5.84952 4.42689
#
# Compressibility (1/GPa) = 0.02838203
#
# Stress axis : x y z
#
# Youngs Moduli (GPa) = 64.84221 73.64501 133.46076
#
# Poissons Ratio (x) = -0.01644 0.50630
# Poissons Ratio (y) = -0.01447 0.06477
# Poissons Ratio (z) = 0.24599 0.03574
#
# Static dielectric constant tensor:
#      x y z
#    x 1.791960 0.000000 0.000000 
#    y 0.000000 1.832680 0.000000 
#    z 0.000000 0.000000 1.797060 
# 
# From -- ./inp_files/33484.got.cif
#   From: 2010.05.17/outbox.cif.g08.bks.cpg/sg51_17_cif.got.tgz:33484.got - 2010.06.03 11:52:47.
