data_PCOD9402161
_publ_section_title
;
Structure prediction by ZEFSAII (Michael W. Deem and Ramdas Pophale) SiO2 
 PCOD9402161
Probable space group: P M M A
;
_chemical_formula_sum "Si O2"
_cell_formula_units_Z 48
_cell_length_a 24.079658
_cell_length_b 9.000701
_cell_length_c 11.039416
_cell_angle_alpha 90.000000
_cell_angle_beta 90.000000
_cell_angle_gamma 90.000000
_cell_volume 2392.614600
_symmetry_space_group_name_H-M "P M M A"
_symmetry_group_IT_number 51
_symmetry_cell_setting 'orthorhombic'
loop_
_space_group_symop_operation_xyz
x,y,z
1/2-x,-y,z
1/2+x,-y,-z
-x,y,-z
-x,-y,-z
1/2+x,y,-z
1/2-x,y,z
x,-y,z
loop_
_atom_site_type_symbol
_atom_site_label
_atom_site_fract_x
_atom_site_fract_y
_atom_site_fract_z
Si Si1 0.685744 0.824167 0.697012
Si Si2 0.579008 0.323381 0.301409
Si Si3 0.686910 0.319407 0.170553
Si Si4 0.022292 0.825502 0.190466
Si Si5 0.374235 0.677590 0.077745
Si Si6 0.418184 0.827647 0.451705
O O1 0.750000 0.794988 0.673190
O O2 0.663151 0.728917 0.808746
O O3 0.645748 0.796777 0.583325
O O4 0.678803 0.000000 0.727383
O O5 0.575015 0.500000 0.291250
O O6 0.642086 0.275503 0.271684
O O7 0.536966 0.251581 0.205149
O O8 0.564101 0.271728 0.436385
O O9 0.750000 0.264277 0.183322
O O10 0.689506 0.500000 0.171355
O O11 0.658598 0.276942 0.043066
O O12 0.065707 0.752059 0.098179
O O13 0.049978 0.807414 0.324654
O O14 0.017005 0.000000 0.165924
O O15 0.380803 0.500000 0.077082
O O16 0.425127 0.000000 0.487528
#
# Coordination Sequence:
#
# PCOD9402161 Si02
#       6
#     8   8   8   8   8   8
#     4   9  18  33  53  78 110 145 179 221 275 327
#     4  11  22  35  55  81 108 141 183 225 261 311
#     4   9  20  38  56  77 110 148 178 212 266 319
#     4  10  21  38  58  80 110 142 172 217 278 331
#     4  10  19  34  58  83 106 136 180 227 267 315
#     4   9  19  35  53  75 107 146 180 215 269 326
#
# _framework density 20.061734999999999
#
# number of rings (size 3 to 8) (size 9 to 14) (size 15 to 20)
#    0.000    2.333    0.000    3.500    0.000    7.667 
#    0.000    6.667    0.000    5.500    0.000    0.000 
#    0.000    0.000    0.000    0.000    0.000    0.000 
#
# Total GULP energy -268013.288494 kJ/mol
# GULP energy per Si atom -5583.610177 kJ/mol
# Density = 2.001607 g / cm^3
# Si number density = 20.061735 Si / 1000 Ang^3
#
#
#
# Elastic Constant Matrix: (Units=GPa)
#
#
# Indices 1 2 3 4 5 6 
#
# 1 102.9385 30.7443 24.6577 0.0000 0.0000 0.0000
# 2 30.7443 45.9257 20.8438 0.0000 0.0000 0.0000
# 3 24.6577 20.8438 44.8410 0.0000 0.0000 0.0000
# 4 0.0000 0.0000 0.0000 37.3938 0.0000 0.0000
# 5 0.0000 0.0000 0.0000 0.0000 21.2819 0.0000
# 6 0.0000 0.0000 0.0000 0.0000 0.0000 28.1174
#
#
#
# Elastic Compliance Matrix: (Units=1/GPa)
#
#
# Indices 1 2 3 4 5 6 
#
# 1 0.012639 -0.006726 -0.003824 0.000000 0.000000 0.000000
# 2 -0.006726 0.031175 -0.010793 0.000000 0.000000 0.000000
# 3 -0.003824 -0.010793 0.029421 0.000000 0.000000 0.000000
# 4 0.000000 0.000000 0.000000 0.026742 0.000000 0.000000
# 5 0.000000 0.000000 0.000000 0.000000 0.046988 0.000000
# 6 0.000000 0.000000 0.000000 0.000000 0.000000 0.035565
#
#
# Mechanical properties :
#
#
# Convention : Reuss Voigt Hill
#
# Bulk Modulus (GPa) = 32.73314 38.46632 35.59973
# Shear Modulus (GPa) = 21.24049 25.18925 23.21487
#
# Velocity S-wave (km/s) = 3.25738 3.54727 3.40541
# Velocity P-wave (km/s) = 5.52259 5.99943 5.76594
#
# Compressibility (1/GPa) = 0.03055008
#
# Stress axis : x y z
#
# Youngs Moduli (GPa) = 79.11871 32.07675 33.98967
#
# Poissons Ratio (x) = 0.21574 0.12997
# Poissons Ratio (y) = 0.53213 0.36685
# Poissons Ratio (z) = 0.30254 0.34620
#
# Static dielectric constant tensor:
#      x y z
#    x 1.746670 0.000000 0.000000 
#    y 0.000000 1.672550 0.000000 
#    z 0.000000 0.000000 1.698700 
# 
# From -- ./inp_files/18561.got.cif
#   From: 2010.05.17/outbox.cif.g08.bks.cpg/sg51_10_cif.got.tgz:18561.got - 2010.06.03 11:52:47.
