data_PCOD9402779
_publ_section_title
;
Structure prediction by ZEFSAII (Michael W. Deem and Ramdas Pophale) SiO2 
 PCOD9402779
Probable space group: P M M A
;
_chemical_formula_sum "Si O2"
_cell_formula_units_Z 40
_cell_length_a 25.356952
_cell_length_b 16.607260
_cell_length_c 5.262283
_cell_angle_alpha 90.000000
_cell_angle_beta 90.000000
_cell_angle_gamma 90.000000
_cell_volume 2215.997335
_symmetry_space_group_name_H-M "P M M A"
_symmetry_group_IT_number 51
_symmetry_cell_setting 'orthorhombic'
loop_
_space_group_symop_operation_xyz
x,y,z
1/2-x,-y,z
1/2+x,-y,-z
-x,y,-z
-x,-y,-z
1/2+x,y,-z
1/2-x,y,z
x,-y,z
loop_
_atom_site_type_symbol
_atom_site_label
_atom_site_fract_x
_atom_site_fract_y
_atom_site_fract_z
Si Si1 0.977628 0.408493 0.252034
Si Si2 0.687953 0.595539 0.603225
Si Si3 0.869474 0.349999 0.119884
Si Si4 0.935698 0.811219 0.998619
Si Si5 0.063712 0.091159 0.501775
O O1 0.998920 0.500000 0.256586
O O2 0.915659 0.407734 0.227212
O O3 0.000000 0.365907 0.500000
O O4 0.000000 0.370433 0.000000
O O5 0.750000 0.606823 0.653906
O O6 0.679643 0.500000 0.551582
O O7 0.671195 0.646883 0.354682
O O8 0.655525 0.619512 0.856248
O O9 0.901206 0.267690 0.062407
O O10 0.921071 0.848836 0.725796
O O11 0.922454 0.873920 0.223316
O O12 0.000000 0.800974 0.000000
O O13 0.000000 0.087823 0.500000
O O14 0.083130 0.000000 0.461948
#
# Coordination Sequence:
#
# PCOD9402779 Si02
#       5
#     8   8   8   8   8
#     4  10  20  32  47  70 101 138 174 202 240 307
#     4  11  24  41  59  77  99 135 186 238 283 324
#     4  12  22  36  56  78 108 138 174 224 280 321
#     4  10  20  32  50  80 114 145 175 210 257 314
#     4   9  17  31  50  73 108 151 184 208 241 297
#
# _framework density 18.050564999999999
#
# number of rings (size 3 to 8) (size 9 to 14) (size 15 to 20)
#    0.000    1.600    0.000    6.000    0.000    8.000 
#    0.000    0.000    0.000    0.000    0.000    0.000 
#    0.000   56.000    0.000    0.000    0.000    0.000 
#
# Total GULP energy -223025.089795 kJ/mol
# GULP energy per Si atom -5575.627245 kJ/mol
# Density = 1.800948 g / cm^3
# Si number density = 18.050565 Si / 1000 Ang^3
#
#
#
# Elastic Constant Matrix: (Units=GPa)
#
#
# Indices 1 2 3 4 5 6 
#
# 1 69.2077 23.1760 33.5856 0.0000 0.0000 0.0000
# 2 23.1760 81.3735 32.9681 0.0000 0.0000 0.0000
# 3 33.5856 32.9681 141.4891 0.0000 0.0000 0.0000
# 4 0.0000 0.0000 0.0000 33.4992 0.0000 0.0000
# 5 0.0000 0.0000 0.0000 0.0000 30.6173 0.0000
# 6 0.0000 0.0000 0.0000 0.0000 0.0000 13.9474
#
#
#
# Elastic Compliance Matrix: (Units=1/GPa)
#
#
# Indices 1 2 3 4 5 6 
#
# 1 0.017230 -0.003589 -0.003254 0.000000 0.000000 0.000000
# 2 -0.003589 0.014318 -0.002484 0.000000 0.000000 0.000000
# 3 -0.003254 -0.002484 0.008419 0.000000 0.000000 0.000000
# 4 0.000000 0.000000 0.000000 0.029851 0.000000 0.000000
# 5 0.000000 0.000000 0.000000 0.000000 0.032661 0.000000
# 6 0.000000 0.000000 0.000000 0.000000 0.000000 0.071698
#
#
# Mechanical properties :
#
#
# Convention : Reuss Voigt Hill
#
# Bulk Modulus (GPa) = 46.92028 52.39219 49.65623
# Shear Modulus (GPa) = 25.00807 29.10215 27.05511
#
# Velocity S-wave (km/s) = 3.72620 4.01965 3.87570
# Velocity P-wave (km/s) = 6.67555 7.11559 6.89908
#
# Compressibility (1/GPa) = 0.02131275
#
# Stress axis : x y z
#
# Youngs Moduli (GPa) = 58.03785 69.84369 118.78117
#
# Poissons Ratio (x) = 0.25068 0.38647
# Poissons Ratio (y) = 0.20830 0.29507
# Poissons Ratio (z) = 0.18884 0.17350
#
# Static dielectric constant tensor:
#      x y z
#    x 1.615360 0.000000 0.000000 
#    y 0.000000 1.635810 0.000000 
#    z 0.000000 0.000000 1.662790 
# 
# From -- ./inp_files/3009.got.cif
#   From: 2010.05.17/outbox.cif.g08.bks.cpg/sg51_2_cif.got.tgz:3009.got - 2010.06.03 11:52:47.
