data_PCOD9402380
_publ_section_title
;
Structure prediction by ZEFSAII (Michael W. Deem and Ramdas Pophale) SiO2 
 PCOD9402380
Probable space group: P M M A
;
_chemical_formula_sum "Si O2"
_cell_formula_units_Z 48
_cell_length_a 21.162775
_cell_length_b 8.495088
_cell_length_c 14.482041
_cell_angle_alpha 90.000000
_cell_angle_beta 90.000000
_cell_angle_gamma 90.000000
_cell_volume 2603.576059
_symmetry_space_group_name_H-M "P M M A"
_symmetry_group_IT_number 51
_symmetry_cell_setting 'orthorhombic'
loop_
_space_group_symop_operation_xyz
x,y,z
1/2-x,-y,z
1/2+x,-y,-z
-x,y,-z
-x,-y,-z
1/2+x,y,-z
1/2-x,y,z
x,-y,z
loop_
_atom_site_type_symbol
_atom_site_label
_atom_site_fract_x
_atom_site_fract_y
_atom_site_fract_z
Si Si1 0.125081 0.309445 0.215435
Si Si2 0.627123 0.309468 0.211100
Si Si3 0.000255 0.691878 0.894200
Si Si4 0.750000 0.309579 0.895833
Si Si5 0.932018 0.186045 0.604400
Si Si6 0.927060 0.311909 0.403345
Si Si7 0.250000 0.186750 0.894479
O O1 0.125217 0.500000 0.220424
O O2 0.062807 0.258618 0.158867
O O3 0.187576 0.259956 0.160375
O O4 0.116535 0.243093 0.318003
O O5 0.629553 0.500000 0.208092
O O6 0.563894 0.258252 0.157144
O O7 0.617008 0.263601 0.317916
O O8 0.688424 0.245010 0.160608
O O9 0.000069 0.500000 0.894039
O O10 0.000000 0.744229 0.000000
O O11 0.750000 0.500000 0.899332
O O12 0.750000 0.251115 0.000868
O O13 0.912021 0.232164 0.500812
O O14 0.000112 0.268974 0.620271
O O15 0.941374 0.000000 0.610116
O O16 0.923562 0.500000 0.414159
O O17 0.250000 0.000000 0.898305
#
# Coordination Sequence:
#
# PCOD9402380 Si02
#       7
#     8   8   8   4   8   8   4
#     4  10  19  36  59  86 114 148 197 242 284 331
#     4  10  20  37  60  84 110 149 197 243 284 333
#     4   9  16  29  54  84 110 136 181 244 291 325
#     4  10  22  40  65  86 111 154 201 244 278 334
#     4  11  21  33  54  86 123 156 184 228 292 356
#     4  10  19  35  60  86 113 148 194 245 285 333
#     4  12  26  40  57  82 121 160 187 232 292 356
#
# _framework density 18.436183
#
# number of rings (size 3 to 8) (size 9 to 14) (size 15 to 20)
#    0.000    1.833    1.667    4.750    0.000    4.667 
#    0.000    0.833    0.000    4.000    0.000    0.000 
#    0.000    0.000    0.000    0.000    0.000    0.000 
#
# Total GULP energy -268068.217718 kJ/mol
# GULP energy per Si atom -5584.754536 kJ/mol
# Density = 1.839422 g / cm^3
# Si number density = 18.436183 Si / 1000 Ang^3
#
#
#
# Elastic Constant Matrix: (Units=GPa)
#
#
# Indices 1 2 3 4 5 6 
#
# 1 144.6049 15.3361 85.2845 0.0000 0.0000 0.0000
# 2 15.3361 16.0150 13.5495 0.0000 0.0000 0.0000
# 3 85.2845 13.5495 159.4016 0.0000 0.0000 0.0000
# 4 0.0000 0.0000 0.0000 -8.1748 0.0000 0.0000
# 5 0.0000 0.0000 0.0000 0.0000 33.3829 0.0000
# 6 0.0000 0.0000 0.0000 0.0000 0.0000 -10.1410
#
#
#
# Elastic Compliance Matrix: (Units=1/GPa)
#
#
# Indices 1 2 3 4 5 6 
#
# 1 0.010574 -0.005753 -0.005168 0.000000 0.000000 0.000000
# 2 -0.005753 0.070410 -0.002907 0.000000 0.000000 0.000000
# 3 -0.005168 -0.002907 0.009286 0.000000 0.000000 0.000000
# 4 0.000000 0.000000 0.000000 -0.122327 0.000000 0.000000
# 5 0.000000 0.000000 0.000000 0.000000 0.029955 0.000000
# 6 0.000000 0.000000 0.000000 0.000000 0.000000 -0.098610
#
#
# Mechanical properties :
#
#
# Convention : Reuss Voigt Hill
#
# Bulk Modulus (GPa) = 15.97111 60.92908 38.45010
# Shear Modulus (GPa) = -95.81314 16.73686 -39.53814
#
# Velocity S-wave (km/s) = -7.21685 3.01628 -4.63600
# Velocity P-wave (km/s) = 7.79502 6.72689 2.78489
#
# Compressibility (1/GPa) = 0.06261307
#
# Stress axis : x y z
#
# Youngs Moduli (GPa) = 94.57542 14.20254 107.69263
#
# Poissons Ratio (x) = 0.08170 0.55657
# Poissons Ratio (y) = 0.54408 0.31307
# Poissons Ratio (z) = 0.48878 0.04129
#
# Static dielectric constant tensor:
#      x y z
#    x 1.610440 0.000000 0.000000 
#    y 0.000000 1.616660 0.000000 
#    z 0.000000 0.000000 1.635100 
# 
# From -- ./inp_files/24991.got.cif
#   From: 2010.05.17/outbox.cif.g08.bks.cpg/sg51_13_cif.got.tgz:24991.got - 2010.06.03 11:52:47.
