data_PCOD9402104
_publ_section_title
;
Structure prediction by ZEFSAII (Michael W. Deem and Ramdas Pophale) SiO2 
 PCOD9402104
Probable space group: P M M A
;
_chemical_formula_sum "Si O2"
_cell_formula_units_Z 48
_cell_length_a 15.125862
_cell_length_b 18.274758
_cell_length_c 9.168258
_cell_angle_alpha 90.000000
_cell_angle_beta 90.000000
_cell_angle_gamma 90.000000
_cell_volume 2534.303332
_symmetry_space_group_name_H-M "P M M A"
_symmetry_group_IT_number 51
_symmetry_cell_setting 'orthorhombic'
loop_
_space_group_symop_operation_xyz
x,y,z
1/2-x,-y,z
1/2+x,-y,-z
-x,y,-z
-x,-y,-z
1/2+x,y,-z
1/2-x,y,z
x,-y,z
loop_
_atom_site_type_symbol
_atom_site_label
_atom_site_fract_x
_atom_site_fract_y
_atom_site_fract_z
Si Si1 0.994123 0.823151 0.165495
Si Si2 0.486334 0.655260 0.838104
Si Si3 0.149920 0.208486 0.394795
Si Si4 0.148868 0.418053 0.290861
Si Si5 0.648304 0.348852 0.408137
Si Si6 0.908078 0.917360 0.409287
O O1 0.084027 0.810087 0.260913
O O2 0.959239 0.740275 0.149694
O O3 0.932456 0.875876 0.260291
O O4 0.000000 0.851622 0.000000
O O5 0.582231 0.641775 0.769295
O O6 0.414399 0.626963 0.723324
O O7 0.500000 0.624349 0.000000
O O8 0.250000 0.227715 0.347716
O O9 0.119168 0.273857 0.505816
O O10 0.151196 0.135903 0.493895
O O11 0.250000 0.406532 0.243276
O O12 0.121190 0.500000 0.248968
O O13 0.147124 0.409012 0.464895
O O14 0.750000 0.337294 0.360920
O O15 0.000000 0.921127 0.500000
O O16 0.875590 0.000000 0.388757
#
# Coordination Sequence:
#
# PCOD9402104 Si02
#       6
#     8   8   8   8   8   8
#     4  10  20  34  53  83 116 148 189 228 277 343
#     4  11  22  35  57  85 118 153 189 228 280 344
#     4  10  19  34  57  81 108 147 193 236 277 327
#     4  10  22  39  60  86 113 146 192 241 285 332
#     4  10  20  36  58  84 112 146 189 236 279 328
#     4   9  18  33  55  80 108 145 187 231 277 326
#
# _framework density 18.940114999999999
#
# number of rings (size 3 to 8) (size 9 to 14) (size 15 to 20)
#    0.000    2.000    3.333    0.500    0.000    3.000 
#    0.000    3.333    0.000    2.000    0.000    0.000 
#    0.000    0.000    0.000    0.000    0.000    0.000 
#
# Total GULP energy -267294.062101 kJ/mol
# GULP energy per Si atom -5568.626294 kJ/mol
# Density = 1.889701 g / cm^3
# Si number density = 18.940115 Si / 1000 Ang^3
#
#
#
# Elastic Constant Matrix: (Units=GPa)
#
#
# Indices 1 2 3 4 5 6 
#
# 1 56.4290 -3.7609 35.1133 0.0000 0.0000 0.0000
# 2 -3.7609 72.4197 -3.0011 0.0000 0.0000 0.0000
# 3 35.1133 -3.0011 110.3619 0.0000 0.0000 0.0000
# 4 0.0000 0.0000 0.0000 11.7610 0.0000 0.0000
# 5 0.0000 0.0000 0.0000 0.0000 -26.0354 0.0000
# 6 0.0000 0.0000 0.0000 0.0000 0.0000 16.1736
#
#
#
# Elastic Compliance Matrix: (Units=1/GPa)
#
#
# Indices 1 2 3 4 5 6 
#
# 1 0.022149 0.000859 -0.007024 0.000000 0.000000 0.000000
# 2 0.000859 0.013857 0.000103 0.000000 0.000000 0.000000
# 3 -0.007024 0.000103 0.011299 0.000000 0.000000 0.000000
# 4 0.000000 0.000000 0.000000 0.085027 0.000000 0.000000
# 5 0.000000 0.000000 0.000000 0.000000 -0.038409 0.000000
# 6 0.000000 0.000000 0.000000 0.000000 0.000000 0.061829
#
#
# Mechanical properties :
#
#
# Convention : Reuss Voigt Hill
#
# Bulk Modulus (GPa) = 28.42284 32.87923 30.65103
# Shear Modulus (GPa) = 27.83938 14.43713 21.13826
#
# Velocity S-wave (km/s) = 3.83804 2.76389 3.34437
# Velocity P-wave (km/s) = 5.88897 5.25192 5.57955
#
# Compressibility (1/GPa) = 0.03518297
#
# Stress axis : x y z
#
# Youngs Moduli (GPa) = 45.14835 72.16413 88.50645
#
# Poissons Ratio (x) = -0.06200 0.62165
# Poissons Ratio (y) = -0.03879 -0.00916
# Poissons Ratio (z) = 0.31711 -0.00747
#
# Static dielectric constant tensor:
#      x y z
#    x 1.671520 0.000000 0.000000 
#    y 0.000000 1.681600 0.000000 
#    z 0.000000 0.000000 1.680460 
# 
# From -- ./inp_files/8259.got.cif
#   From: 2010.05.17/outbox.cif.g08.bks.cpg/sg51_5_cif.got.tgz:8259.got - 2010.06.03 11:52:47.
