data_PCOD9402334
_publ_section_title
;
Structure prediction by ZEFSAII (Michael W. Deem and Ramdas Pophale) SiO2 
 PCOD9402334
Probable space group: P M M A
;
_chemical_formula_sum "Si O2"
_cell_formula_units_Z 48
_cell_length_a 28.740414
_cell_length_b 7.685046
_cell_length_c 10.057300
_cell_angle_alpha 90.000000
_cell_angle_beta 90.000000
_cell_angle_gamma 90.000000
_cell_volume 2221.369968
_symmetry_space_group_name_H-M "P M M A"
_symmetry_group_IT_number 51
_symmetry_cell_setting 'orthorhombic'
loop_
_space_group_symop_operation_xyz
x,y,z
1/2-x,-y,z
1/2+x,-y,-z
-x,y,-z
-x,-y,-z
1/2+x,y,-z
1/2-x,y,z
x,-y,z
loop_
_atom_site_type_symbol
_atom_site_label
_atom_site_fract_x
_atom_site_fract_y
_atom_site_fract_z
Si Si1 0.697735 0.788992 0.388058
Si Si2 0.462477 0.794462 0.676212
Si Si3 0.699420 0.705547 0.967251
Si Si4 0.563074 0.787144 0.619618
Si Si5 0.624583 0.300225 0.164113
Si Si6 0.334300 0.789361 0.318946
O O1 0.750000 0.737400 0.349089
O O2 0.658755 0.715435 0.290936
O O3 0.688043 0.738047 0.540395
O O4 0.694421 0.000000 0.381511
O O5 0.515391 0.729380 0.691091
O O6 0.442073 0.729846 0.534685
O O7 0.425363 0.770047 0.792100
O O8 0.467290 0.000000 0.657004
O O9 0.750000 0.780125 0.004607
O O10 0.700700 0.500000 0.999942
O O11 0.691731 0.723864 0.810660
O O12 0.655244 0.781899 0.045919
O O13 0.611939 0.729481 0.679518
O O14 0.565187 0.000000 0.620613
O O15 0.615993 0.500000 0.130634
O O16 0.332997 0.000000 0.314210
#
# Coordination Sequence:
#
# PCOD9402334 Si02
#       6
#     8   8   8   8   8   8
#     4  10  20  34  55  82 108 134 174 229 278 322
#     4   9  16  32  57  82 109 142 176 217 268 322
#     4  10  23  41  55  71 105 151 189 220 264 322
#     4   8  15  30  56  84 110 139 171 215 273 324
#     4  11  22  36  54  78 109 146 184 224 268 316
#     4  10  19  35  58  84 108 134 176 226 272 319
#
# _framework density 21.608288000000002
#
# number of rings (size 3 to 8) (size 9 to 14) (size 15 to 20)
#    0.000    2.333    1.667    2.500    0.000    4.000 
#    0.000    3.333    0.000    5.000    0.000    0.000 
#    0.000    0.000    0.000    0.000    0.000    0.000 
#
# Total GULP energy -267905.387975 kJ/mol
# GULP energy per Si atom -5581.362249 kJ/mol
# Density = 2.155911 g / cm^3
# Si number density = 21.608288 Si / 1000 Ang^3
#
#
#
# Elastic Constant Matrix: (Units=GPa)
#
#
# Indices 1 2 3 4 5 6 
#
# 1 99.4299 0.6634 -10.1616 0.0000 0.0000 0.0000
# 2 0.6634 29.7011 -10.8464 0.0000 0.0000 0.0000
# 3 -10.1616 -10.8464 44.4975 0.0000 0.0000 0.0000
# 4 0.0000 0.0000 0.0000 17.0808 0.0000 0.0000
# 5 0.0000 0.0000 0.0000 0.0000 17.5342 0.0000
# 6 0.0000 0.0000 0.0000 0.0000 0.0000 0.6827
#
#
#
# Elastic Compliance Matrix: (Units=1/GPa)
#
#
# Indices 1 2 3 4 5 6 
#
# 1 0.010311 0.000691 0.002523 0.000000 0.000000 0.000000
# 2 0.000691 0.037005 0.009178 0.000000 0.000000 0.000000
# 3 0.002523 0.009178 0.025286 0.000000 0.000000 0.000000
# 4 0.000000 0.000000 0.000000 0.058545 0.000000 0.000000
# 5 0.000000 0.000000 0.000000 0.000000 0.057031 0.000000
# 6 0.000000 0.000000 0.000000 0.000000 0.000000 1.464696
#
#
# Mechanical properties :
#
#
# Convention : Reuss Voigt Hill
#
# Bulk Modulus (GPa) = 10.26843 14.77104 12.51974
# Shear Modulus (GPa) = 3.01105 19.99108 11.50106
#
# Velocity S-wave (km/s) = 1.18173 3.04494 2.30956
# Velocity P-wave (km/s) = 2.57379 4.38325 3.59425
#
# Compressibility (1/GPa) = 0.09738588
#
# Stress axis : x y z
#
# Youngs Moduli (GPa) = 96.98781 27.02341 39.54681
#
# Poissons Ratio (x) = -0.01867 -0.09978
# Poissons Ratio (y) = -0.06702 -0.36296
# Poissons Ratio (z) = -0.24470 -0.24802
#
# Static dielectric constant tensor:
#      x y z
#    x 1.831770 0.000000 0.000000 
#    y 0.000000 1.794410 0.000000 
#    z 0.000000 0.000000 1.760360 
# 
# From -- ./inp_files/12724.got.cif
#   From: 2010.05.17/outbox.cif.g08.bks.cpg/sg51_7_cif.got.tgz:12724.got - 2010.06.03 11:52:47.
