data_PCOD9402959
_publ_section_title
;
Structure prediction by ZEFSAII (Michael W. Deem and Ramdas Pophale) SiO2 
 PCOD9402959
Probable space group: P M M A
;
_chemical_formula_sum "Si O2"
_cell_formula_units_Z 64
_cell_length_a 29.880299
_cell_length_b 8.867827
_cell_length_c 13.399159
_cell_angle_alpha 90.000000
_cell_angle_beta 90.000000
_cell_angle_gamma 90.000000
_cell_volume 3550.419675
_symmetry_space_group_name_H-M "P M M A"
_symmetry_group_IT_number 51
_symmetry_cell_setting 'orthorhombic'
loop_
_space_group_symop_operation_xyz
x,y,z
1/2-x,-y,z
1/2+x,-y,-z
-x,y,-z
-x,-y,-z
1/2+x,y,-z
1/2-x,y,z
x,-y,z
loop_
_atom_site_type_symbol
_atom_site_label
_atom_site_fract_x
_atom_site_fract_y
_atom_site_fract_z
Si Si1 0.039725 0.322350 0.934759
Si Si2 0.196275 0.822558 0.074157
Si Si3 0.525953 0.172203 0.266636
Si Si4 0.802625 0.182095 0.700847
Si Si5 0.138866 0.318736 0.901330
Si Si6 0.361910 0.320353 0.475383
Si Si7 0.463588 0.328324 0.411725
Si Si8 0.128703 0.823113 0.685029
O O1 0.042275 0.500000 0.956882
O O2 0.026230 0.291887 0.821650
O O3 0.090312 0.263600 0.942294
O O4 0.000000 0.253827 0.000000
O O5 0.250000 0.810167 0.070423
O O6 0.182736 0.772128 0.186474
O O7 0.184953 0.000000 0.064374
O O8 0.174538 0.734004 0.982754
O O9 0.484022 0.209448 0.335274
O O10 0.574349 0.191262 0.319078
O O11 0.524473 0.000000 0.229603
O O12 0.750000 0.220860 0.689721
O O13 0.831502 0.253048 0.612535
O O14 0.805897 0.000000 0.696741
O O15 0.138336 0.500000 0.893243
O O16 0.143785 0.251747 0.789675
O O17 0.356164 0.500000 0.480158
O O18 0.414033 0.290258 0.448694
O O19 0.352508 0.251012 0.584471
O O20 0.500000 0.330817 0.500000
O O21 0.462192 0.500000 0.370235
O O22 0.139442 0.000000 0.687729
#
# Coordination Sequence:
#
# PCOD9402959 Si02
#       8
#     8   8   8   8   8   8   8   8
#     4   9  19  35  52  71 103 146 182 214 262 324
#     4   9  19  38  62  84 109 143 180 220 273 334
#     4  10  20  32  50  75 103 138 181 228 268 307
#     4   9  20  40  62  83 111 147 182 221 277 337
#     4  10  20  34  56  83 110 141 181 228 273 320
#     4  11  22  35  56  84 112 146 189 233 277 326
#     4  10  20  34  51  73 107 147 182 218 265 321
#     4  10  20  35  54  77 109 148 185 222 271 328
#
# _framework density 18.026038
#
# number of rings (size 3 to 8) (size 9 to 14) (size 15 to 20)
#    0.000    2.250    1.250    2.250    0.000    5.000 
#    0.000    5.625    0.000    3.750    0.000    0.000 
#    0.000    0.000    0.000    0.000    0.000    0.000 
#
# Total GULP energy -356705.623109 kJ/mol
# GULP energy per Si atom -5573.525361 kJ/mol
# Density = 1.798501 g / cm^3
# Si number density = 18.026038 Si / 1000 Ang^3
#
#
#
# Elastic Constant Matrix: (Units=GPa)
#
#
# Indices 1 2 3 4 5 6 
#
# 1 56.7137 31.5903 57.8683 0.0000 0.0000 0.0000
# 2 31.5903 36.3276 44.8842 0.0000 0.0000 0.0000
# 3 57.8683 44.8842 117.8021 0.0000 0.0000 0.0000
# 4 0.0000 0.0000 0.0000 29.1704 0.0000 0.0000
# 5 0.0000 0.0000 0.0000 0.0000 33.8455 0.0000
# 6 0.0000 0.0000 0.0000 0.0000 0.0000 18.3992
#
#
#
# Elastic Compliance Matrix: (Units=1/GPa)
#
#
# Indices 1 2 3 4 5 6 
#
# 1 0.042460 -0.021072 -0.012829 0.000000 0.000000 0.000000
# 2 -0.021072 0.062470 -0.013451 0.000000 0.000000 0.000000
# 3 -0.012829 -0.013451 0.019916 0.000000 0.000000 0.000000
# 4 0.000000 0.000000 0.000000 0.034281 0.000000 0.000000
# 5 0.000000 0.000000 0.000000 0.000000 0.029546 0.000000
# 6 0.000000 0.000000 0.000000 0.000000 0.000000 0.054350
#
#
# Mechanical properties :
#
#
# Convention : Reuss Voigt Hill
#
# Bulk Modulus (GPa) = 33.17595 53.28099 43.22847
# Shear Modulus (GPa) = 14.37710 21.38306 17.88008
#
# Velocity S-wave (km/s) = 2.82720 3.44791 3.15287
# Velocity P-wave (km/s) = 5.39461 6.74335 6.10633
#
# Compressibility (1/GPa) = 0.03014231
#
# Stress axis : x y z
#
# Youngs Moduli (GPa) = 23.55146 16.00760 50.21166
#
# Poissons Ratio (x) = 0.33732 0.64417
# Poissons Ratio (y) = 0.49629 0.67538
# Poissons Ratio (z) = 0.30214 0.21531
#
# Static dielectric constant tensor:
#      x y z
#    x 1.620880 0.000000 0.000000 
#    y 0.000000 1.617160 0.000000 
#    z 0.000000 0.000000 1.619460 
# 
# From -- ./inp_files/19562.got.cif
#   From: 2010.05.17/outbox.cif.g08.bks.cpg/sg51_10_cif.got.tgz:19562.got - 2010.06.03 11:52:47.
