data_PCOD9402942
_publ_section_title
;
Structure prediction by ZEFSAII (Michael W. Deem and Ramdas Pophale) SiO2 
 PCOD9402942
Probable space group: P M M A
;
_chemical_formula_sum "Si O2"
_cell_formula_units_Z 48
_cell_length_a 18.271778
_cell_length_b 9.321931
_cell_length_c 16.838382
_cell_angle_alpha 90.000000
_cell_angle_beta 90.000000
_cell_angle_gamma 90.000000
_cell_volume 2868.052202
_symmetry_space_group_name_H-M "P M M A"
_symmetry_group_IT_number 51
_symmetry_cell_setting 'orthorhombic'
loop_
_space_group_symop_operation_xyz
x,y,z
1/2-x,-y,z
1/2+x,-y,-z
-x,y,-z
-x,-y,-z
1/2+x,y,-z
1/2-x,y,z
x,-y,z
loop_
_atom_site_type_symbol
_atom_site_label
_atom_site_fract_x
_atom_site_fract_y
_atom_site_fract_z
Si Si1 0.163847 0.170233 0.848744
Si Si2 0.662182 0.332173 0.990830
Si Si3 0.966475 0.671758 0.585569
Si Si4 0.665628 0.828918 0.666353
Si Si5 0.448311 0.667582 0.744260
Si Si6 0.106513 0.330251 0.181310
O O1 0.250000 0.202670 0.837679
O O2 0.140888 0.241352 0.932357
O O3 0.115780 0.236850 0.778973
O O4 0.154970 0.000000 0.852530
O O5 0.750000 0.320238 0.980730
O O6 0.644879 0.500000 0.004962
O O7 0.625324 0.287305 0.908285
O O8 0.952089 0.500000 0.589571
O O9 0.892594 0.755691 0.607378
O O10 0.000000 0.705722 0.500000
O O11 0.024535 0.703803 0.655618
O O12 0.750000 0.801469 0.644336
O O13 0.649700 0.759875 0.752727
O O14 0.654104 0.000000 0.669350
O O15 0.427257 0.500000 0.746257
O O16 0.520950 0.684975 0.798272
O O17 0.125091 0.500000 0.189896
#
# Coordination Sequence:
#
# PCOD9402942 Si02
#       6
#     8   8   8   8   8   8
#     4  10  21  35  49  67  95 132 171 208 246 291
#     4   9  17  30  49  71  96 130 170 209 248 287
#     4   9  19  37  59  80 101 128 165 207 251 300
#     4  10  20  32  49  77 110 140 168 199 242 298
#     4   9  18  33  53  75  97 123 158 202 250 298
#     4   9  18  32  51  75 101 131 168 208 249 294
#
# _framework density 16.736097000000001
#
# number of rings (size 3 to 8) (size 9 to 14) (size 15 to 20)
#    0.000    2.667    0.000    2.500    0.000    7.333 
#    0.000    5.833    0.000    5.000    0.000    0.000 
#    0.000    0.000    0.000    0.000    0.000    0.000 
#
# Total GULP energy -267711.238060 kJ/mol
# GULP energy per Si atom -5577.317460 kJ/mol
# Density = 1.669801 g / cm^3
# Si number density = 16.736097 Si / 1000 Ang^3
#
#
#
# Elastic Constant Matrix: (Units=GPa)
#
#
# Indices 1 2 3 4 5 6 
#
# 1 80.6085 65.1305 83.5924 0.0000 0.0000 0.0000
# 2 65.1305 64.6321 67.5591 0.0000 0.0000 0.0000
# 3 83.5924 67.5591 132.7753 0.0000 0.0000 0.0000
# 4 0.0000 0.0000 0.0000 9.7745 0.0000 0.0000
# 5 0.0000 0.0000 0.0000 0.0000 17.5075 0.0000
# 6 0.0000 0.0000 0.0000 0.0000 0.0000 28.2385
#
#
#
# Elastic Compliance Matrix: (Units=1/GPa)
#
#
# Indices 1 2 3 4 5 6 
#
# 1 0.090055 -0.067256 -0.022475 0.000000 0.000000 0.000000
# 2 -0.067256 0.083280 -0.000032 0.000000 0.000000 0.000000
# 3 -0.022475 -0.000032 0.021697 0.000000 0.000000 0.000000
# 4 0.000000 0.000000 0.000000 0.102307 0.000000 0.000000
# 5 0.000000 0.000000 0.000000 0.000000 0.057119 0.000000
# 6 0.000000 0.000000 0.000000 0.000000 0.000000 0.035413
#
#
# Mechanical properties :
#
#
# Convention : Reuss Voigt Hill
#
# Bulk Modulus (GPa) = 64.48977 78.95334 71.72155
# Shear Modulus (GPa) = 8.70224 15.21969 11.96096
#
# Velocity S-wave (km/s) = 2.28275 3.01889 2.67625
# Velocity P-wave (km/s) = 6.75018 7.70905 7.24550
#
# Compressibility (1/GPa) = 0.01550634
#
# Stress axis : x y z
#
# Youngs Moduli (GPa) = 11.10439 12.00765 46.08843
#
# Poissons Ratio (x) = 0.80759 1.03583
# Poissons Ratio (y) = 0.74684 0.00147
# Poissons Ratio (z) = 0.24957 0.00038
#
# Static dielectric constant tensor:
#      x y z
#    x 1.553910 0.000000 0.000000 
#    y 0.000000 1.556660 0.000000 
#    z 0.000000 0.000000 1.546740 
# 
# From -- ./inp_files/24781.got.cif
#   From: 2010.05.17/outbox.cif.g08.bks.cpg/sg51_13_cif.got.tgz:24781.got - 2010.06.03 11:52:47.
