data_PCOD9402390
_publ_section_title
;
Structure prediction by ZEFSAII (Michael W. Deem and Ramdas Pophale) SiO2 
 PCOD9402390
Probable space group: P M M A
;
_chemical_formula_sum "Si O2"
_cell_formula_units_Z 48
_cell_length_a 17.252375
_cell_length_b 15.834545
_cell_length_c 9.120158
_cell_angle_alpha 90.000000
_cell_angle_beta 90.000000
_cell_angle_gamma 90.000000
_cell_volume 2491.476759
_symmetry_space_group_name_H-M "P M M A"
_symmetry_group_IT_number 51
_symmetry_cell_setting 'orthorhombic'
loop_
_space_group_symop_operation_xyz
x,y,z
1/2-x,-y,z
1/2+x,-y,-z
-x,y,-z
-x,-y,-z
1/2+x,y,-z
1/2-x,y,z
x,-y,z
loop_
_atom_site_type_symbol
_atom_site_label
_atom_site_fract_x
_atom_site_fract_y
_atom_site_fract_z
Si Si1 0.081577 0.673340 0.590660
Si Si2 0.158924 0.500000 0.630198
Si Si3 0.403006 0.843184 0.128709
Si Si4 0.841828 0.318767 0.712726
Si Si5 0.655684 0.000000 0.368210
Si Si6 0.160326 0.000000 0.301064
Si Si7 0.918612 0.160218 0.205455
Si Si8 0.839255 0.500000 0.725373
O O1 0.110977 0.585744 0.664932
O O2 0.142481 0.691184 0.460082
O O3 0.080946 0.752488 0.701728
O O4 0.000000 0.663875 0.500000
O O5 0.250000 0.500000 0.679894
O O6 0.162463 0.500000 0.452050
O O7 0.382477 0.755619 0.203837
O O8 0.358469 0.918402 0.206442
O O9 0.492506 0.861495 0.166565
O O10 0.383369 0.834126 0.957554
O O11 0.750000 0.317286 0.737476
O O12 0.874286 0.409943 0.764462
O O13 0.622455 0.084382 0.292006
O O14 0.750000 0.000000 0.358572
O O15 0.624785 0.000000 0.536192
O O16 0.250000 0.000000 0.332389
O O17 0.750000 0.500000 0.776621
#
# Coordination Sequence:
#
# PCOD9402390 Si02
#       8
#     8   4   8   8   4   4   8   4
#     4  11  20  37  62  93 122 162 203 255 304 361
#     4   9  19  35  58  90 126 158 201 257 307 353
#     4  11  23  41  59  85 124 160 200 247 301 372
#     4  10  19  35  60  88 119 159 205 251 297 355
#     4  11  26  43  64  92 120 152 202 259 305 358
#     4  11  24  41  64  90 115 153 202 247 298 361
#     4  11  25  41  60  89 122 160 201 247 309 366
#     4   7  14  29  52  82 113 147 193 243 287 338
#
# _framework density 19.265682999999999
#
# number of rings (size 3 to 8) (size 9 to 14) (size 15 to 20)
#    0.000    1.667    1.667    4.250    0.000    6.667 
#    0.000    0.833    0.000    3.000    0.000    0.000 
#    0.000    0.000    0.000    0.000    0.000    0.000 
#
# Total GULP energy -267623.738738 kJ/mol
# GULP energy per Si atom -5575.494557 kJ/mol
# Density = 1.922183 g / cm^3
# Si number density = 19.265683 Si / 1000 Ang^3
#
#
#
# Elastic Constant Matrix: (Units=GPa)
#
#
# Indices 1 2 3 4 5 6 
#
# 1 57.6056 37.4341 16.5416 0.0000 0.0000 0.0000
# 2 37.4341 164.4873 68.3398 0.0000 0.0000 0.0000
# 3 16.5416 68.3398 96.5411 0.0000 0.0000 0.0000
# 4 0.0000 0.0000 0.0000 -103.6131 0.0000 0.0000
# 5 0.0000 0.0000 0.0000 0.0000 698.1526 0.0000
# 6 0.0000 0.0000 0.0000 0.0000 0.0000 33.3779
#
#
#
# Elastic Compliance Matrix: (Units=1/GPa)
#
#
# Indices 1 2 3 4 5 6 
#
# 1 0.020378 -0.004515 -0.000296 0.000000 0.000000 0.000000
# 2 -0.004515 0.009613 -0.006031 0.000000 0.000000 0.000000
# 3 -0.000296 -0.006031 0.014678 0.000000 0.000000 0.000000
# 4 0.000000 0.000000 0.000000 -0.009651 0.000000 0.000000
# 5 0.000000 0.000000 0.000000 0.000000 0.001432 0.000000
# 6 0.000000 0.000000 0.000000 0.000000 0.000000 0.029960
#
#
# Mechanical properties :
#
#
# Convention : Reuss Voigt Hill
#
# Bulk Modulus (GPa) = 43.50481 62.58500 53.04491
# Shear Modulus (GPa) = 52.21633 138.67139 95.44386
#
# Velocity S-wave (km/s) = 5.21173 8.49321 7.04616
# Velocity P-wave (km/s) = 7.67116 11.34616 9.68458
#
# Compressibility (1/GPa) = 0.02298597
#
# Stress axis : x y z
#
# Youngs Moduli (GPa) = 49.07199 104.02861 68.12795
#
# Poissons Ratio (x) = 0.46967 0.02014
# Poissons Ratio (y) = 0.22155 0.41089
# Poissons Ratio (z) = 0.01451 0.62741
#
# Static dielectric constant tensor:
#      x y z
#    x 1.700280 0.000000 0.000000 
#    y 0.000000 1.689860 0.000000 
#    z 0.000000 0.000000 1.685080 
# 
# From -- ./inp_files/9737.got.cif
#   From: 2010.05.17/outbox.cif.g08.bks.cpg/sg51_5_cif.got.tgz:9737.got - 2010.06.03 11:52:47.
