data_PCOD9402145
_publ_section_title
;
Structure prediction by ZEFSAII (Michael W. Deem and Ramdas Pophale) SiO2 
 PCOD9402145
Probable space group: P M M A
;
_chemical_formula_sum "Si O2"
_cell_formula_units_Z 56
_cell_length_a 14.736989
_cell_length_b 15.178740
_cell_length_c 12.305205
_cell_angle_alpha 90.000000
_cell_angle_beta 90.000000
_cell_angle_gamma 90.000000
_cell_volume 2752.538071
_symmetry_space_group_name_H-M "P M M A"
_symmetry_group_IT_number 51
_symmetry_cell_setting 'orthorhombic'
loop_
_space_group_symop_operation_xyz
x,y,z
1/2-x,-y,z
1/2+x,-y,-z
-x,y,-z
-x,-y,-z
1/2+x,y,-z
1/2-x,y,z
x,-y,z
loop_
_atom_site_type_symbol
_atom_site_label
_atom_site_fract_x
_atom_site_fract_y
_atom_site_fract_z
Si Si1 0.351278 0.267901 0.558639
Si Si2 0.395094 0.407371 0.721256
Si Si3 0.521816 0.836791 0.118818
Si Si4 0.641327 0.899789 0.316268
Si Si5 0.857300 0.332121 0.062372
Si Si6 0.402208 0.398549 0.370276
Si Si7 0.648001 0.716396 0.829720
O O1 0.250000 0.253242 0.515695
O O2 0.348239 0.322717 0.670660
O O3 0.388852 0.173250 0.594878
O O4 0.397242 0.334690 0.474283
O O5 0.353416 0.500000 0.686461
O O6 0.394102 0.400567 0.850614
O O7 0.495971 0.404625 0.674533
O O8 0.577294 0.889549 0.210278
O O9 0.589424 0.757133 0.088325
O O10 0.430472 0.791057 0.168160
O O11 0.500000 0.879168 0.000000
O O12 0.750000 0.883297 0.292644
O O13 0.634714 0.000000 0.355974
O O14 0.750000 0.324197 0.080857
O O15 0.871178 0.345443 0.934496
O O16 0.371517 0.500000 0.390995
O O17 0.352734 0.344837 0.275471
O O18 0.750000 0.753958 0.843909
#
# Coordination Sequence:
#
# PCOD9402145 Si02
#       7
#     8   8   8   8   8   8   8
#     4  11  22  37  58  84 119 157 201 257 309 361
#     4  11  22  35  56  85 117 157 205 255 308 363
#     4  10  19  35  60  89 126 161 198 244 306 360
#     4  10  21  39  66  97 124 156 203 257 313 370
#     4  10  19  34  57  86 119 160 207 254 300 355
#     4  11  23  38  56  82 120 167 214 254 304 369
#     4  10  21  36  57  84 119 170 217 249 296 361
#
# _framework density 20.344859
#
# number of rings (size 3 to 8) (size 9 to 14) (size 15 to 20)
#    0.000    1.571    2.857    2.143    0.000    5.429 
#    0.000    2.857    0.000    7.286    0.000    0.000 
#    0.000    0.000    0.000    0.000    0.000    0.000 
#
# Total GULP energy -312163.399247 kJ/mol
# GULP energy per Si atom -5574.346415 kJ/mol
# Density = 2.029855 g / cm^3
# Si number density = 20.344859 Si / 1000 Ang^3
#
#
#
# Elastic Constant Matrix: (Units=GPa)
#
#
# Indices 1 2 3 4 5 6 
#
# 1 76.5433 25.0994 33.3427 0.0000 0.0000 0.0000
# 2 25.0994 111.2745 40.2067 0.0000 0.0000 0.0000
# 3 33.3427 40.2067 98.5696 0.0000 0.0000 0.0000
# 4 0.0000 0.0000 0.0000 44.8982 0.0000 0.0000
# 5 0.0000 0.0000 0.0000 0.0000 29.3438 0.0000
# 6 0.0000 0.0000 0.0000 0.0000 0.0000 16.0506
#
#
#
# Elastic Compliance Matrix: (Units=1/GPa)
#
#
# Indices 1 2 3 4 5 6 
#
# 1 0.015657 -0.001898 -0.004522 0.000000 0.000000 0.000000
# 2 -0.001898 0.010770 -0.003751 0.000000 0.000000 0.000000
# 3 -0.004522 -0.003751 0.013205 0.000000 0.000000 0.000000
# 4 0.000000 0.000000 0.000000 0.022273 0.000000 0.000000
# 5 0.000000 0.000000 0.000000 0.000000 0.034079 0.000000
# 6 0.000000 0.000000 0.000000 0.000000 0.000000 0.062303
#
#
# Mechanical properties :
#
#
# Convention : Reuss Voigt Hill
#
# Bulk Modulus (GPa) = 51.84072 53.74278 52.79175
# Shear Modulus (GPa) = 27.01857 30.57443 28.79650
#
# Velocity S-wave (km/s) = 3.64817 3.88081 3.76629
# Velocity P-wave (km/s) = 6.57889 6.82306 6.70209
#
# Compressibility (1/GPa) = 0.01928986
#
# Stress axis : x y z
#
# Youngs Moduli (GPa) = 63.87096 92.84817 75.72920
#
# Poissons Ratio (x) = 0.17619 0.34245
# Poissons Ratio (y) = 0.12120 0.28408
# Poissons Ratio (z) = 0.28883 0.34830
#
# Static dielectric constant tensor:
#      x y z
#    x 1.791170 0.000000 0.000000 
#    y 0.000000 1.715860 0.000000 
#    z 0.000000 0.000000 1.782820 
# 
# From -- ./inp_files/16579.got.cif
#   From: 2010.05.17/outbox.cif.g08.bks.cpg/sg51_9_cif.got.tgz:16579.got - 2010.06.03 11:52:47.
