data_PCOD9402699
_publ_section_title
;
Structure prediction by ZEFSAII (Michael W. Deem and Ramdas Pophale) SiO2 
 PCOD9402699
Probable space group: P M M A
;
_chemical_formula_sum "Si O2"
_cell_formula_units_Z 64
_cell_length_a 14.303270
_cell_length_b 8.966717
_cell_length_c 32.495812
_cell_angle_alpha 90.000000
_cell_angle_beta 90.000000
_cell_angle_gamma 90.000000
_cell_volume 4167.697538
_symmetry_space_group_name_H-M "P M M A"
_symmetry_group_IT_number 51
_symmetry_cell_setting 'orthorhombic'
loop_
_space_group_symop_operation_xyz
x,y,z
1/2-x,-y,z
1/2+x,-y,-z
-x,y,-z
-x,-y,-z
1/2+x,y,-z
1/2-x,y,z
x,-y,z
loop_
_atom_site_type_symbol
_atom_site_label
_atom_site_fract_x
_atom_site_fract_y
_atom_site_fract_z
Si Si1 0.538396 0.677429 0.894998
Si Si2 0.859846 0.821767 0.818031
Si Si3 0.644518 0.181775 0.480209
Si Si4 0.137358 0.172616 0.027986
Si Si5 0.541239 0.181570 0.563816
Si Si6 0.360205 0.179556 0.352836
Si Si7 0.636494 0.671612 0.732510
Si Si8 0.857906 0.678174 0.058615
O O1 0.548426 0.500000 0.890502
O O2 0.579975 0.756783 0.855182
O O3 0.593766 0.732670 0.935301
O O4 0.430317 0.713011 0.905218
O O5 0.750000 0.780827 0.824234
O O6 0.891056 0.756929 0.774009
O O7 0.865225 0.000000 0.817446
O O8 0.750000 0.233432 0.472326
O O9 0.608277 0.224801 0.525736
O O10 0.563791 0.228855 0.448294
O O11 0.645721 0.000000 0.479598
O O12 0.250000 0.179192 0.031383
O O13 0.108552 0.000000 0.031400
O O14 0.113546 0.237941 0.983194
O O15 0.581237 0.230935 0.607550
O O16 0.541630 0.000000 0.564465
O O17 0.250000 0.214652 0.359122
O O18 0.392653 0.251327 0.310032
O O19 0.366947 0.000000 0.349598
O O20 0.750000 0.675132 0.732032
O O21 0.606677 0.500000 0.734084
O O22 0.750000 0.715310 0.067868
O O23 0.863307 0.500000 0.050838
#
# Coordination Sequence:
#
# PCOD9402699 Si02
#       8
#     8   8   8   8   8   8   8   8
#     4  11  21  31  47  69  90 116 148 178 211 252
#     4  10  20  33  48  67  92 118 141 168 207 256
#     4   8  12  18  28  45  74 109 141 174 210 244
#     4  10  20  32  46  66  92 120 148 179 215 252
#     4   8  13  19  29  49  76 106 139 172 207 247
#     4   9  15  23  37  57  81 108 136 167 205 247
#     4   9  17  29  44  62  85 111 137 167 205 250
#     4   9  19  35  50  64  86 116 149 183 216 250
#
# _framework density 15.356199999999999
#
# number of rings (size 3 to 8) (size 9 to 14) (size 15 to 20)
#    0.000    2.750    0.000    3.375    0.000    8.500 
#    0.000    0.000    0.000    0.000    0.000    2.625 
#    0.000    4.500    0.000    0.000    0.000    0.000 
#
# Total GULP energy -356678.889201 kJ/mol
# GULP energy per Si atom -5573.107644 kJ/mol
# Density = 1.532125 g / cm^3
# Si number density = 15.356200 Si / 1000 Ang^3
#
#
#
# Elastic Constant Matrix: (Units=GPa)
#
#
# Indices 1 2 3 4 5 6 
#
# 1 80.4218 29.5015 67.3915 0.0000 0.0000 0.0000
# 2 29.5015 32.8498 44.4807 0.0000 0.0000 0.0000
# 3 67.3915 44.4807 144.3565 0.0000 0.0000 0.0000
# 4 0.0000 0.0000 0.0000 -58.2410 0.0000 0.0000
# 5 0.0000 0.0000 0.0000 0.0000 25.1075 0.0000
# 6 0.0000 0.0000 0.0000 0.0000 0.0000 11.1201
#
#
#
# Elastic Compliance Matrix: (Units=1/GPa)
#
#
# Indices 1 2 3 4 5 6 
#
# 1 0.022235 -0.010147 -0.007254 0.000000 0.000000 0.000000
# 2 -0.010147 0.056866 -0.012785 0.000000 0.000000 0.000000
# 3 -0.007254 -0.012785 0.014253 0.000000 0.000000 0.000000
# 4 0.000000 0.000000 0.000000 -0.017170 0.000000 0.000000
# 5 0.000000 0.000000 0.000000 0.000000 0.039829 0.000000
# 6 0.000000 0.000000 0.000000 0.000000 0.000000 0.089927
#
#
# Mechanical properties :
#
#
# Convention : Reuss Voigt Hill
#
# Bulk Modulus (GPa) = 30.31871 60.04173 45.18022
# Shear Modulus (GPa) = 18.03062 3.34762 10.68912
#
# Velocity S-wave (km/s) = 3.43032 1.47808 2.64119
# Velocity P-wave (km/s) = 5.95617 6.48823 6.22789
#
# Compressibility (1/GPa) = 0.03298293
#
# Stress axis : x y z
#
# Youngs Moduli (GPa) = 44.97410 17.58511 70.15982
#
# Poissons Ratio (x) = 0.17843 0.50892
# Poissons Ratio (y) = 0.45634 0.89702
# Poissons Ratio (z) = 0.32623 0.22483
#
# Static dielectric constant tensor:
#      x y z
#    x 1.521490 0.000000 0.000000 
#    y 0.000000 1.513250 0.000000 
#    z 0.000000 0.000000 1.489510 
# 
# From -- ./inp_files/37842.got.cif
#   From: 2010.05.17/outbox.cif.g08.bks.cpg/sg51_19_cif.got.tgz:37842.got - 2010.06.03 11:52:47.
