data_PCOD9402349
_publ_section_title
;
Structure prediction by ZEFSAII (Michael W. Deem and Ramdas Pophale) SiO2 
 PCOD9402349
Probable space group: P M M A
;
_chemical_formula_sum "Si O2"
_cell_formula_units_Z 40
_cell_length_a 10.179626
_cell_length_b 9.271973
_cell_length_c 25.233631
_cell_angle_alpha 90.000000
_cell_angle_beta 90.000000
_cell_angle_gamma 90.000000
_cell_volume 2381.681748
_symmetry_space_group_name_H-M "P M M A"
_symmetry_group_IT_number 51
_symmetry_cell_setting 'orthorhombic'
loop_
_space_group_symop_operation_xyz
x,y,z
1/2-x,-y,z
1/2+x,-y,-z
-x,y,-z
-x,-y,-z
1/2+x,y,-z
1/2-x,y,z
x,-y,z
loop_
_atom_site_type_symbol
_atom_site_label
_atom_site_fract_x
_atom_site_fract_y
_atom_site_fract_z
Si Si1 0.098092 0.675733 0.729325
Si Si2 0.409619 0.666080 0.845734
Si Si3 0.485459 0.329669 0.381856
Si Si4 0.750000 0.171529 0.559809
Si Si5 0.096746 0.173475 0.952717
Si Si6 0.750000 0.665440 0.450214
O O1 0.250000 0.722466 0.722158
O O2 0.101006 0.500000 0.730211
O O3 0.048733 0.720739 0.787536
O O4 0.013027 0.717058 0.678603
O O5 0.250000 0.665372 0.843307
O O6 0.452074 0.500000 0.852434
O O7 0.445846 0.758718 0.896736
O O8 0.449063 0.500000 0.382019
O O9 0.376178 0.236932 0.410705
O O10 0.621748 0.317315 0.413946
O O11 0.750000 0.228303 0.499584
O O12 0.750000 0.000000 0.561295
O O13 0.250000 0.214003 0.962533
O O14 0.092089 0.000000 0.948975
O O15 0.000000 0.218876 0.000000
O O16 0.750000 0.500000 0.470792
#
# Coordination Sequence:
#
# PCOD9402349 Si02
#       6
#     8   8   8   4   8   4
#     4   8  13  26  51  80 101 118 152 205 254 291
#     4   8  14  25  45  73 100 122 148 191 246 291
#     4  10  19  35  59  81  99 127 169 212 250 295
#     4  12  26  38  48  70 110 146 167 196 249 306
#     4   9  17  29  45  65  91 125 164 198 230 272
#     4  10  20  36  60  84  98 120 171 220 249 290
#
# _framework density 16.794855999999999
#
# number of rings (size 3 to 8) (size 9 to 14) (size 15 to 20)
#    0.000    2.800    1.000    2.700    0.000    3.600 
#    0.000    1.000    2.200    1.200    0.000    0.000 
#    0.000    0.000    0.000    0.000    0.000    0.000 
#
# Total GULP energy -222872.172612 kJ/mol
# GULP energy per Si atom -5571.804315 kJ/mol
# Density = 1.675663 g / cm^3
# Si number density = 16.794856 Si / 1000 Ang^3
#
#
#
# Elastic Constant Matrix: (Units=GPa)
#
#
# Indices 1 2 3 4 5 6 
#
# 1 56.6705 38.6812 42.1787 0.0000 0.0000 0.0000
# 2 38.6812 50.8523 55.7660 0.0000 0.0000 0.0000
# 3 42.1787 55.7660 161.0073 0.0000 0.0000 0.0000
# 4 0.0000 0.0000 0.0000 -15.6130 0.0000 0.0000
# 5 0.0000 0.0000 0.0000 0.0000 15.9031 0.0000
# 6 0.0000 0.0000 0.0000 0.0000 0.0000 6.4096
#
#
#
# Elastic Compliance Matrix: (Units=1/GPa)
#
#
# Indices 1 2 3 4 5 6 
#
# 1 0.036702 -0.028014 0.000088 0.000000 0.000000 0.000000
# 2 -0.028014 0.053092 -0.011050 0.000000 0.000000 0.000000
# 3 0.000088 -0.011050 0.010015 0.000000 0.000000 0.000000
# 4 0.000000 0.000000 0.000000 -0.064049 0.000000 0.000000
# 5 0.000000 0.000000 0.000000 0.000000 0.062881 0.000000
# 6 0.000000 0.000000 0.000000 0.000000 0.000000 0.156015
#
#
# Mechanical properties :
#
#
# Convention : Reuss Voigt Hill
#
# Bulk Modulus (GPa) = 45.75262 60.19798 52.97530
# Shear Modulus (GPa) = 14.71059 10.13357 12.42208
#
# Velocity S-wave (km/s) = 2.96277 2.45903 2.72258
# Velocity P-wave (km/s) = 6.24541 6.63200 6.44160
#
# Compressibility (1/GPa) = 0.02185667
#
# Stress axis : x y z
#
# Youngs Moduli (GPa) = 27.24680 18.83540 99.85054
#
# Poissons Ratio (x) = 0.52766 -0.00881
# Poissons Ratio (y) = 0.76330 1.10333
# Poissons Ratio (z) = -0.00240 0.20813
#
# Static dielectric constant tensor:
#      x y z
#    x 1.556080 0.000000 0.000000 
#    y 0.000000 1.556980 0.000000 
#    z 0.000000 0.000000 1.581210 
# 
# From -- ./inp_files/36036.got.cif
#   From: 2010.05.17/outbox.cif.g08.bks.cpg/sg51_19_cif.got.tgz:36036.got - 2010.06.03 11:52:47.
