data_PCOD9402254
_publ_section_title
;
Structure prediction by ZEFSAII (Michael W. Deem and Ramdas Pophale) SiO2 
 PCOD9402254
Probable space group: P M M A
;
_chemical_formula_sum "Si O2"
_cell_formula_units_Z 64
_cell_length_a 21.288859
_cell_length_b 7.881855
_cell_length_c 21.558594
_cell_angle_alpha 90.000000
_cell_angle_beta 90.000000
_cell_angle_gamma 90.000000
_cell_volume 3617.439366
_symmetry_space_group_name_H-M "P M M A"
_symmetry_group_IT_number 51
_symmetry_cell_setting 'orthorhombic'
loop_
_space_group_symop_operation_xyz
x,y,z
1/2-x,-y,z
1/2+x,-y,-z
-x,y,-z
-x,-y,-z
1/2+x,y,-z
1/2-x,y,z
x,-y,z
loop_
_atom_site_type_symbol
_atom_site_label
_atom_site_fract_x
_atom_site_fract_y
_atom_site_fract_z
Si Si1 0.817633 0.197477 0.077814
Si Si2 0.661696 0.305577 0.213741
Si Si3 0.996021 0.704596 0.675607
Si Si4 0.523002 0.199889 0.195559
Si Si5 0.318854 0.799719 0.517408
Si Si6 0.959286 0.206866 0.058104
Si Si7 0.641566 0.294363 0.346025
Si Si8 0.553259 0.298531 0.547064
O O1 0.750000 0.272101 0.056991
O O2 0.817725 0.207921 0.152752
O O3 0.886297 0.267894 0.058519
O O4 0.817699 0.000000 0.059526
O O5 0.682311 0.500000 0.208332
O O6 0.586135 0.301764 0.210780
O O7 0.675350 0.238239 0.282463
O O8 0.994045 0.500000 0.678933
O O9 0.979751 0.769490 0.744600
O O10 0.067974 0.754799 0.658478
O O11 0.955110 0.766008 0.617289
O O12 0.508238 0.247433 0.124480
O O13 0.538712 0.000000 0.194641
O O14 0.250000 0.730482 0.500250
O O15 0.329536 0.769827 0.590551
O O16 0.378217 0.725805 0.481312
O O17 0.319035 0.000000 0.505953
O O18 0.956583 0.000000 0.054951
O O19 0.000000 0.267050 0.000000
O O20 0.643930 0.500000 0.346518
O O21 0.500000 0.228410 0.500000
O O22 0.541152 0.500000 0.551093
#
# Coordination Sequence:
#
# PCOD9402254 Si02
#       8
#     8   8   8   8   8   8   8   8
#     4   9  17  28  42  62  87 114 147 188 227 261
#     4   9  17  28  42  60  86 120 155 187 218 259
#     4   9  17  30  49  71  94 117 148 197 241 275
#     4   9  16  26  43  68  94 119 150 187 227 271
#     4  11  24  36  45  65  96 124 153 194 243 290
#     4   8  14  26  44  65  90 121 153 183 216 262
#     4   9  17  31  47  63  86 120 157 190 223 268
#     4  10  19  35  55  72  90 117 159 201 237 282
#
# _framework density 17.692073000000001
#
# number of rings (size 3 to 8) (size 9 to 14) (size 15 to 20)
#    0.000    2.750    1.250    2.625    0.000    5.000 
#    0.000    2.500    0.000    9.375    0.000    0.875 
#    0.000    3.000    0.000    0.000    0.000    0.000 
#
# Total GULP energy -356341.964430 kJ/mol
# GULP energy per Si atom -5567.843194 kJ/mol
# Density = 1.765180 g / cm^3
# Si number density = 17.692073 Si / 1000 Ang^3
#
#
#
# Elastic Constant Matrix: (Units=GPa)
#
#
# Indices 1 2 3 4 5 6 
#
# 1 86.4787 -0.8309 66.0149 0.0000 0.0000 0.0000
# 2 -0.8309 23.7110 8.0604 0.0000 0.0000 0.0000
# 3 66.0149 8.0604 138.6229 0.0000 0.0000 0.0000
# 4 0.0000 0.0000 0.0000 21.2765 0.0000 0.0000
# 5 0.0000 0.0000 0.0000 0.0000 -2.4914 0.0000
# 6 0.0000 0.0000 0.0000 0.0000 0.0000 -20.0744
#
#
#
# Elastic Compliance Matrix: (Units=1/GPa)
#
#
# Indices 1 2 3 4 5 6 
#
# 1 0.018483 0.003713 -0.009018 0.000000 0.000000 0.000000
# 2 0.003713 0.043771 -0.004313 0.000000 0.000000 0.000000
# 3 -0.009018 -0.004313 0.011759 0.000000 0.000000 0.000000
# 4 0.000000 0.000000 0.000000 0.047000 0.000000 0.000000
# 5 0.000000 0.000000 0.000000 0.000000 -0.401380 0.000000
# 6 0.000000 0.000000 0.000000 0.000000 0.000000 -0.049815
#
#
# Mechanical properties :
#
#
# Convention : Reuss Voigt Hill
#
# Bulk Modulus (GPa) = 18.25582 43.92238 31.08910
# Shear Modulus (GPa) = -17.08319 11.44668 -2.81826
#
# Velocity S-wave (km/s) = -3.11076 2.54637 -1.26349
# Velocity P-wave (km/s) = 1.60043 5.79010 3.93471
#
# Compressibility (1/GPa) = 0.05477704
#
# Stress axis : x y z
#
# Youngs Moduli (GPa) = 54.10301 22.84622 85.04004
#
# Poissons Ratio (x) = -0.08483 0.76689
# Poissons Ratio (y) = -0.20090 0.36682
# Poissons Ratio (z) = 0.48790 0.09855
#
# Static dielectric constant tensor:
#      x y z
#    x 1.632960 0.000000 0.000000 
#    y 0.000000 1.645720 0.000000 
#    z 0.000000 0.000000 1.633480 
# 
# From -- ./inp_files/34200.got.cif
#   From: 2010.05.17/outbox.cif.g08.bks.cpg/sg51_18_cif.got.tgz:34200.got - 2010.06.03 11:52:47.
