data_PCOD9402043
_publ_section_title
;
Structure prediction by ZEFSAII (Michael W. Deem and Ramdas Pophale) SiO2 
 PCOD9402043
Probable space group: P M M A
;
_chemical_formula_sum "Si O2"
_cell_formula_units_Z 36
_cell_length_a 9.058360
_cell_length_b 13.858159
_cell_length_c 14.599569
_cell_angle_alpha 90.000000
_cell_angle_beta 90.000000
_cell_angle_gamma 90.000000
_cell_volume 1832.715916
_symmetry_space_group_name_H-M "P M M A"
_symmetry_group_IT_number 51
_symmetry_cell_setting 'orthorhombic'
loop_
_space_group_symop_operation_xyz
x,y,z
1/2-x,-y,z
1/2+x,-y,-z
-x,y,-z
-x,-y,-z
1/2+x,y,-z
1/2-x,y,z
x,-y,z
loop_
_atom_site_type_symbol
_atom_site_label
_atom_site_fract_x
_atom_site_fract_y
_atom_site_fract_z
Si Si1 0.071958 0.000000 0.900976
Si Si2 0.587530 0.385616 0.414751
Si Si3 0.928395 0.814314 0.217761
Si Si4 0.923502 0.115173 0.598184
Si Si5 0.070107 0.394242 0.792860
O O1 0.028212 0.904779 0.844430
O O2 0.250000 0.000000 0.908828
O O3 0.000000 0.000000 0.000000
O O4 0.500000 0.344442 0.500000
O O5 0.750000 0.341311 0.410300
O O6 0.604487 0.500000 0.433384
O O7 0.521577 0.385186 0.313466
O O8 0.750000 0.815529 0.227720
O O9 0.970482 0.711582 0.170888
O O10 0.998912 0.829376 0.318058
O O11 0.750000 0.139259 0.593713
O O12 0.000000 0.130553 0.500000
O O13 0.936936 0.000000 0.617505
O O14 0.250000 0.398679 0.793093
O O15 0.019735 0.500000 0.828147
#
# Coordination Sequence:
#
# PCOD9402043 Si02
#       5
#     4   8   8   8   8
#     4  10  22  38  59  84 107 134 169 216 274 328
#     4   8  13  22  36  55  82 119 162 203 238 274
#     4  10  19  34  56  81 109 139 177 224 269 317
#     4  10  20  33  51  76 109 149 187 224 268 319
#     4   8  15  28  47  71  99 133 171 211 258 311
#
# _framework density 19.642979
#
# number of rings (size 3 to 8) (size 9 to 14) (size 15 to 20)
#    0.000    2.889    1.111    2.000    0.000    2.667 
#    0.000    3.333    0.000    2.667    0.000    0.000 
#    0.000    0.000    0.000    0.000    0.000    0.000 
#
# Total GULP energy -200454.226040 kJ/mol
# GULP energy per Si atom -5568.172946 kJ/mol
# Density = 1.959827 g / cm^3
# Si number density = 19.642979 Si / 1000 Ang^3
#
#
#
# Elastic Constant Matrix: (Units=GPa)
#
#
# Indices 1 2 3 4 5 6 
#
# 1 24.4780 25.9049 14.7764 0.0000 0.0000 0.0000
# 2 25.9049 187.5565 41.7142 0.0000 0.0000 0.0000
# 3 14.7764 41.7142 57.1656 0.0000 0.0000 0.0000
# 4 0.0000 0.0000 0.0000 1.9679 0.0000 0.0000
# 5 0.0000 0.0000 0.0000 0.0000 24.0749 0.0000
# 6 0.0000 0.0000 0.0000 0.0000 0.0000 9.7908
#
#
#
# Elastic Compliance Matrix: (Units=1/GPa)
#
#
# Indices 1 2 3 4 5 6 
#
# 1 0.052075 -0.005012 -0.009803 0.000000 0.000000 0.000000
# 2 -0.005012 0.006847 -0.003701 0.000000 0.000000 0.000000
# 3 -0.009803 -0.003701 0.022728 0.000000 0.000000 0.000000
# 4 0.000000 0.000000 0.000000 0.508153 0.000000 0.000000
# 5 0.000000 0.000000 0.000000 0.000000 0.041537 0.000000
# 6 0.000000 0.000000 0.000000 0.000000 0.000000 0.102137
#
#
# Mechanical properties :
#
#
# Convention : Reuss Voigt Hill
#
# Bulk Modulus (GPa) = 22.41280 48.22126 35.31703
# Shear Modulus (GPa) = 6.36634 19.62036 12.99335
#
# Velocity S-wave (km/s) = 1.80224 3.16388 2.57471
# Velocity P-wave (km/s) = 3.97059 6.16028 5.18240
#
# Compressibility (1/GPa) = 0.04461736
#
# Stress axis : x y z
#
# Youngs Moduli (GPa) = 19.20305 146.04742 43.99954
#
# Poissons Ratio (x) = 0.73202 0.43133
# Poissons Ratio (y) = 0.09625 0.16283
# Poissons Ratio (z) = 0.18825 0.54049
#
# Static dielectric constant tensor:
#      x y z
#    x 1.691340 0.000000 0.000000 
#    y 0.000000 1.796050 0.000000 
#    z 0.000000 0.000000 1.647710 
# 
# From -- ./inp_files/20350.got.cif
#   From: 2010.05.17/outbox.cif.g08.bks.cpg/sg51_11_cif.got.tgz:20350.got - 2010.06.03 11:52:47.
