data_PCOD9402427
_publ_section_title
;
Structure prediction by ZEFSAII (Michael W. Deem and Ramdas Pophale) SiO2 
 PCOD9402427
Probable space group: P M M A
;
_chemical_formula_sum "Si O2"
_cell_formula_units_Z 48
_cell_length_a 8.187377
_cell_length_b 17.839234
_cell_length_c 16.006484
_cell_angle_alpha 90.000000
_cell_angle_beta 90.000000
_cell_angle_gamma 90.000000
_cell_volume 2337.851577
_symmetry_space_group_name_H-M "P M M A"
_symmetry_group_IT_number 51
_symmetry_cell_setting 'orthorhombic'
loop_
_space_group_symop_operation_xyz
x,y,z
1/2-x,-y,z
1/2+x,-y,-z
-x,y,-z
-x,-y,-z
1/2+x,y,-z
1/2-x,y,z
x,-y,z
loop_
_atom_site_type_symbol
_atom_site_label
_atom_site_fract_x
_atom_site_fract_y
_atom_site_fract_z
Si Si1 0.438018 0.000000 0.157569
Si Si2 0.052228 0.836033 0.594458
Si Si3 0.937812 0.582536 0.238772
Si Si4 0.068904 0.410646 0.415365
Si Si5 0.444939 0.847120 0.911330
Si Si6 0.949994 0.743638 0.243083
Si Si7 0.942669 0.000000 0.344934
O O1 0.478459 0.071958 0.102863
O O2 0.250000 0.000000 0.182163
O O3 0.536332 0.000000 0.244763
O O4 0.250000 0.836461 0.597709
O O5 0.997817 0.777461 0.667037
O O6 0.000000 0.818076 0.500000
O O7 0.993063 0.920782 0.618514
O O8 0.750000 0.579458 0.210762
O O9 0.012326 0.500000 0.221180
O O10 0.013111 0.661831 0.213975
O O11 0.945572 0.593762 0.338970
O O12 0.250000 0.382091 0.394254
O O13 0.086574 0.500000 0.429033
O O14 0.000000 0.376384 0.500000
O O15 0.250000 0.853437 0.910842
O O16 0.494425 0.800098 0.830274
O O17 0.500000 0.814766 0.000000
O O18 0.750000 0.738560 0.246259
O O19 0.750000 0.000000 0.363639
#
# Coordination Sequence:
#
# PCOD9402427 Si02
#       7
#     4   8   8   8   8   8   4
#     4  12  23  36  59  91 120 147 185 227 272 327
#     4  10  20  35  54  77 107 148 193 230 276 323
#     4   9  17  31  52  76 100 132 178 226 276 335
#     4   9  16  26  41  63  92 127 167 214 267 320
#     4  11  22  40  62  85 116 150 185 224 274 333
#     4   9  19  36  57  79 110 148 183 228 284 335
#     4  10  19  36  58  77 108 155 190 229 280 325
#
# _framework density 20.531672
#
# number of rings (size 3 to 8) (size 9 to 14) (size 15 to 20)
#    0.000    2.167    1.667    2.250    0.000    3.333 
#    0.000    4.167    0.000    0.500    0.000    0.000 
#    0.000    0.000    0.000    0.000    0.000    0.167 
#
# Total GULP energy -267532.256835 kJ/mol
# GULP energy per Si atom -5573.588684 kJ/mol
# Density = 2.048494 g / cm^3
# Si number density = 20.531672 Si / 1000 Ang^3
#
#
#
# Elastic Constant Matrix: (Units=GPa)
#
#
# Indices 1 2 3 4 5 6 
#
# 1 20.3137 10.5579 -5.9979 0.0000 0.0000 0.0000
# 2 10.5579 136.1858 31.0656 0.0000 0.0000 0.0000
# 3 -5.9979 31.0656 85.9451 0.0000 0.0000 0.0000
# 4 0.0000 0.0000 0.0000 -7.6814 0.0000 0.0000
# 5 0.0000 0.0000 0.0000 0.0000 21.8819 0.0000
# 6 0.0000 0.0000 0.0000 0.0000 0.0000 -0.1177
#
#
#
# Elastic Compliance Matrix: (Units=1/GPa)
#
#
# Indices 1 2 3 4 5 6 
#
# 1 0.053766 -0.005476 0.005731 0.000000 0.000000 0.000000
# 2 -0.005476 0.008560 -0.003476 0.000000 0.000000 0.000000
# 3 0.005731 -0.003476 0.013292 0.000000 0.000000 0.000000
# 4 0.000000 0.000000 0.000000 -0.130184 0.000000 0.000000
# 5 0.000000 0.000000 0.000000 0.000000 0.045700 0.000000
# 6 0.000000 0.000000 0.000000 0.000000 0.000000 -8.493322
#
#
# Mechanical properties :
#
#
# Convention : Reuss Voigt Hill
#
# Bulk Modulus (GPa) = 14.45565 34.85510 24.65537
# Shear Modulus (GPa) = -0.59013 16.60449 8.00718
#
# Velocity S-wave (km/s) = -0.53670 2.84690 1.97696
# Velocity P-wave (km/s) = 2.58300 5.27442 4.15279
#
# Compressibility (1/GPa) = 0.06917709
#
# Stress axis : x y z
#
# Youngs Moduli (GPa) = 18.59909 116.81675 75.23398
#
# Poissons Ratio (x) = 0.63965 -0.43120
# Poissons Ratio (y) = 0.10184 0.26154
# Poissons Ratio (z) = -0.10660 0.40610
#
# Static dielectric constant tensor:
#      x y z
#    x 1.727900 0.000000 0.000000 
#    y 0.000000 1.814350 0.000000 
#    z 0.000000 0.000000 1.796640 
# 
# From -- ./inp_files/21190.got.cif
#   From: 2010.05.17/outbox.cif.g08.bks.cpg/sg51_11_cif.got.tgz:21190.got - 2010.06.03 11:52:47.
