data_PCOD9402806
_publ_section_title
;
Structure prediction by ZEFSAII (Michael W. Deem and Ramdas Pophale) SiO2 
 PCOD9402806
Probable space group: P M M A
;
_chemical_formula_sum "Si O2"
_cell_formula_units_Z 48
_cell_length_a 7.686901
_cell_length_b 15.703574
_cell_length_c 18.135779
_cell_angle_alpha 90.000000
_cell_angle_beta 90.000000
_cell_angle_gamma 90.000000
_cell_volume 2189.202866
_symmetry_space_group_name_H-M "P M M A"
_symmetry_group_IT_number 51
_symmetry_cell_setting 'orthorhombic'
loop_
_space_group_symop_operation_xyz
x,y,z
1/2-x,-y,z
1/2+x,-y,-z
-x,y,-z
-x,-y,-z
1/2+x,y,-z
1/2-x,y,z
x,-y,z
loop_
_atom_site_type_symbol
_atom_site_label
_atom_site_fract_x
_atom_site_fract_y
_atom_site_fract_z
Si Si1 0.537824 0.094212 0.373268
Si Si2 0.461782 0.094848 0.798372
Si Si3 0.456273 0.724354 0.580308
Si Si4 0.959407 0.226627 0.080508
Si Si5 0.545678 0.404693 0.709622
Si Si6 0.548351 0.593930 0.123816
O O1 0.750000 0.092705 0.376916
O O2 0.489488 0.105514 0.287100
O O3 0.473209 0.178853 0.413684
O O4 0.478040 0.000000 0.397962
O O5 0.250000 0.096681 0.799307
O O6 0.525088 0.167273 0.853446
O O7 0.515624 0.000000 0.821952
O O8 0.500000 0.688513 0.500000
O O9 0.250000 0.729811 0.586758
O O10 0.515091 0.665137 0.647342
O O11 0.750000 0.231184 0.088408
O O12 0.031275 0.322698 0.086912
O O13 0.000000 0.191152 0.000000
O O14 0.750000 0.405995 0.726070
O O15 0.493586 0.500000 0.684029
O O16 0.455282 0.389286 0.788033
O O17 0.750000 0.589170 0.100984
O O18 0.470120 0.500000 0.110709
#
# Coordination Sequence:
#
# PCOD9402806 Si02
#       6
#     8   8   8   8   8   8
#     4   8  15  30  53  78 101 130 172 217 258 303
#     4   8  14  27  48  71  94 124 165 209 249 293
#     4  11  22  35  53  78 109 143 175 210 255 306
#     4  10  20  32  47  71 102 135 169 205 249 299
#     4  10  21  37  57  80 104 132 170 216 263 310
#     4   9  18  34  55  76  98 128 168 211 254 304
#
# _framework density 21.925788000000001
#
# number of rings (size 3 to 8) (size 9 to 14) (size 15 to 20)
#    0.000    2.667    0.000    3.000    0.000    5.667 
#    0.000    0.000    0.000    1.500    0.000    4.667 
#    0.000    0.000    0.000    0.000    0.000    0.000 
#
# Total GULP energy -267919.879692 kJ/mol
# GULP energy per Si atom -5581.664160 kJ/mol
# Density = 2.187588 g / cm^3
# Si number density = 21.925788 Si / 1000 Ang^3
#
#
#
# Elastic Constant Matrix: (Units=GPa)
#
#
# Indices 1 2 3 4 5 6 
#
# 1 44.8009 0.7801 -10.6684 0.0000 0.0000 0.0000
# 2 0.7801 80.6920 22.1322 0.0000 0.0000 0.0000
# 3 -10.6684 22.1322 37.5155 0.0000 0.0000 0.0000
# 4 0.0000 0.0000 0.0000 -20.1748 0.0000 0.0000
# 5 0.0000 0.0000 0.0000 0.0000 14.7014 0.0000
# 6 0.0000 0.0000 0.0000 0.0000 0.0000 -14.3938
#
#
#
# Elastic Compliance Matrix: (Units=1/GPa)
#
#
# Indices 1 2 3 4 5 6 
#
# 1 0.024374 -0.002549 0.008435 0.000000 0.000000 0.000000
# 2 -0.002549 0.015052 -0.009605 0.000000 0.000000 0.000000
# 3 0.008435 -0.009605 0.034721 0.000000 0.000000 0.000000
# 4 0.000000 0.000000 0.000000 -0.049567 0.000000 0.000000
# 5 0.000000 0.000000 0.000000 0.000000 0.068021 0.000000
# 6 0.000000 0.000000 0.000000 0.000000 0.000000 -0.069474
#
#
# Mechanical properties :
#
#
# Convention : Reuss Voigt Hill
#
# Bulk Modulus (GPa) = 14.99045 20.83288 17.91167
# Shear Modulus (GPa) = 94.69682 6.07753 50.38717
#
# Velocity S-wave (km/s) = 6.57902 1.66670 4.79903
# Velocity P-wave (km/s) = 8.03511 3.63676 6.23655
#
# Compressibility (1/GPa) = 0.06670915
#
# Stress axis : x y z
#
# Youngs Moduli (GPa) = 41.02725 66.43711 28.80127
#
# Poissons Ratio (x) = 0.16936 -0.24295
# Poissons Ratio (y) = 0.10459 0.27663
# Poissons Ratio (z) = -0.34608 0.63811
#
# Static dielectric constant tensor:
#      x y z
#    x 1.813880 0.000000 0.000000 
#    y 0.000000 1.839900 0.000000 
#    z 0.000000 0.000000 1.701270 
# 
# From -- ./inp_files/27521.got.cif
#   From: 2010.05.17/outbox.cif.g08.bks.cpg/sg51_14_cif.got.tgz:27521.got - 2010.06.03 11:52:47.
