data_PCOD9402274
_publ_section_title
;
Structure prediction by ZEFSAII (Michael W. Deem and Ramdas Pophale) SiO2 
 PCOD9402274
Probable space group: P M M A
;
_chemical_formula_sum "Si O2"
_cell_formula_units_Z 48
_cell_length_a 31.338153
_cell_length_b 8.730876
_cell_length_c 9.875510
_cell_angle_alpha 90.000000
_cell_angle_beta 90.000000
_cell_angle_gamma 90.000000
_cell_volume 2702.033629
_symmetry_space_group_name_H-M "P M M A"
_symmetry_group_IT_number 51
_symmetry_cell_setting 'orthorhombic'
loop_
_space_group_symop_operation_xyz
x,y,z
1/2-x,-y,z
1/2+x,-y,-z
-x,y,-z
-x,-y,-z
1/2+x,y,-z
1/2-x,y,z
x,-y,z
loop_
_atom_site_type_symbol
_atom_site_label
_atom_site_fract_x
_atom_site_fract_y
_atom_site_fract_z
Si Si1 0.015567 0.683114 0.347376
Si Si2 0.109335 0.183804 0.301560
Si Si3 0.435071 0.816670 0.796845
Si Si4 0.641715 0.816339 0.408564
Si Si5 0.701596 0.684462 0.190162
Si Si6 0.373196 0.316181 0.013157
O O1 0.019876 0.500000 0.337281
O O2 0.060717 0.761285 0.319590
O O3 0.000000 0.720928 0.500000
O O4 0.979710 0.742367 0.244013
O O5 0.134675 0.231736 0.436994
O O6 0.110257 0.000000 0.293290
O O7 0.127565 0.255584 0.165017
O O8 0.400929 0.778341 0.677787
O O9 0.413797 0.752324 0.933125
O O10 0.439104 0.000000 0.804554
O O11 0.680999 0.742064 0.329839
O O12 0.353767 0.000000 0.595592
O O13 0.750000 0.738741 0.171051
O O14 0.701889 0.500000 0.191213
O O15 0.668763 0.732338 0.071888
O O16 0.375896 0.500000 0.011275
#
# Coordination Sequence:
#
# PCOD9402274 Si02
#       6
#     8   8   8   8   8   8
#     4  11  22  34  53  81 111 145 188 233 275 319
#     4  11  22  37  55  79 112 148 185 224 273 327
#     4  10  19  35  56  78 107 147 189 227 271 320
#     4   9  19  34  55  81 109 140 177 222 268 320
#     4   9  19  37  61  85 108 138 177 220 270 331
#     4  10  21  37  56  81 113 146 182 228 277 325
#
# _framework density 17.764396999999999
#
# number of rings (size 3 to 8) (size 9 to 14) (size 15 to 20)
#    0.000    2.000    1.667    2.000    0.000    4.333 
#    0.000    4.167    0.000    3.000    0.000    0.000 
#    0.000    0.000    0.000    0.000    0.000    0.000 
#
# Total GULP energy -268030.448971 kJ/mol
# GULP energy per Si atom -5583.967687 kJ/mol
# Density = 1.772396 g / cm^3
# Si number density = 17.764397 Si / 1000 Ang^3
#
#
#
# Elastic Constant Matrix: (Units=GPa)
#
#
# Indices 1 2 3 4 5 6 
#
# 1 92.1929 14.5998 41.2891 0.0000 0.0000 0.0000
# 2 14.5998 26.2346 26.7570 0.0000 0.0000 0.0000
# 3 41.2891 26.7570 133.1550 0.0000 0.0000 0.0000
# 4 0.0000 0.0000 0.0000 30.7949 0.0000 0.0000
# 5 0.0000 0.0000 0.0000 0.0000 15.0958 0.0000
# 6 0.0000 0.0000 0.0000 0.0000 0.0000 20.2842
#
#
#
# Elastic Compliance Matrix: (Units=1/GPa)
#
#
# Indices 1 2 3 4 5 6 
#
# 1 0.012906 -0.003900 -0.003218 0.000000 0.000000 0.000000
# 2 -0.003900 0.049122 -0.008662 0.000000 0.000000 0.000000
# 3 -0.003218 -0.008662 0.010248 0.000000 0.000000 0.000000
# 4 0.000000 0.000000 0.000000 0.032473 0.000000 0.000000
# 5 0.000000 0.000000 0.000000 0.000000 0.066243 0.000000
# 6 0.000000 0.000000 0.000000 0.000000 0.000000 0.049299
#
#
# Mechanical properties :
#
#
# Convention : Reuss Voigt Hill
#
# Bulk Modulus (GPa) = 24.55984 46.31935 35.43959
# Shear Modulus (GPa) = 18.83781 24.49743 21.66762
#
# Velocity S-wave (km/s) = 3.25995 3.71754 3.49624
# Velocity P-wave (km/s) = 5.29387 6.67516 6.02423
#
# Compressibility (1/GPa) = 0.04071688
#
# Stress axis : x y z
#
# Youngs Moduli (GPa) = 77.48518 20.35744 97.57564
#
# Poissons Ratio (x) = 0.07939 0.31401
# Poissons Ratio (y) = 0.30219 0.84516
# Poissons Ratio (z) = 0.24936 0.17633
#
# Static dielectric constant tensor:
#      x y z
#    x 1.585420 0.000000 0.000000 
#    y 0.000000 1.593490 0.000000 
#    z 0.000000 0.000000 1.602880 
# 
# From -- ./inp_files/12768.got.cif
#   From: 2010.05.17/outbox.cif.g08.bks.cpg/sg51_7_cif.got.tgz:12768.got - 2010.06.03 11:52:47.
