data_PCOD9402011
_publ_section_title
;
Structure prediction by ZEFSAII (Michael W. Deem and Ramdas Pophale) SiO2 
 PCOD9402011
Probable space group: P M M A
;
_chemical_formula_sum "Si O2"
_cell_formula_units_Z 32
_cell_length_a 14.101799
_cell_length_b 11.040153
_cell_length_c 9.998113
_cell_angle_alpha 90.000000
_cell_angle_beta 90.000000
_cell_angle_gamma 90.000000
_cell_volume 1556.566406
_symmetry_space_group_name_H-M "P M M A"
_symmetry_group_IT_number 51
_symmetry_cell_setting 'orthorhombic'
loop_
_space_group_symop_operation_xyz
x,y,z
1/2-x,-y,z
1/2+x,-y,-z
-x,y,-z
-x,-y,-z
1/2+x,y,-z
1/2-x,y,z
x,-y,z
loop_
_atom_site_type_symbol
_atom_site_label
_atom_site_fract_x
_atom_site_fract_y
_atom_site_fract_z
Si Si1 0.021050 0.215463 0.208129
Si Si2 0.142723 0.864007 0.460733
Si Si3 0.642473 0.862042 0.024306
Si Si4 0.082079 0.369639 0.610666
O O1 0.068535 0.158718 0.340707
O O2 0.933397 0.143358 0.143423
O O3 0.973149 0.340730 0.252901
O O4 0.100878 0.220212 0.094232
O O5 0.250000 0.860642 0.405612
O O6 0.135212 0.753303 0.565816
O O7 0.127653 0.000000 0.516456
O O8 0.750000 0.831564 0.063502
O O9 0.642228 0.000000 0.971569
O O10 0.132348 0.500000 0.614137
O O11 0.000000 0.378869 0.500000
#
# Coordination Sequence:
#
# PCOD9402011 Si02
#       4
#     8   8   8   8
#     4  10  19  34  56  77 109 148 185 228 279 330
#     4  10  20  33  54  85 115 145 186 232 277 331
#     4  10  20  33  52  81 114 147 185 230 282 337
#     4   9  20  37  55  77 108 146 186 229 279 334
#
# _framework density 20.558067999999999
#
# number of rings (size 3 to 8) (size 9 to 14) (size 15 to 20)
#    0.000    2.250    0.000    3.750    0.000   10.000 
#    0.000    5.000    0.000    3.750    0.000    0.000 
#    0.000    0.000    0.000    0.000    0.000    0.000 
#
# Total GULP energy -178229.010287 kJ/mol
# GULP energy per Si atom -5569.656571 kJ/mol
# Density = 2.051128 g / cm^3
# Si number density = 20.558068 Si / 1000 Ang^3
#
#
#
# Elastic Constant Matrix: (Units=GPa)
#
#
# Indices 1 2 3 4 5 6 
#
# 1 129.5382 33.9600 24.8774 0.0000 0.0000 0.0000
# 2 33.9600 140.1061 40.6990 0.0000 0.0000 0.0000
# 3 24.8774 40.6990 59.8712 0.0000 0.0000 0.0000
# 4 0.0000 0.0000 0.0000 -20.9337 0.0000 0.0000
# 5 0.0000 0.0000 0.0000 0.0000 21.5828 0.0000
# 6 0.0000 0.0000 0.0000 0.0000 0.0000 17.3036
#
#
#
# Elastic Compliance Matrix: (Units=1/GPa)
#
#
# Indices 1 2 3 4 5 6 
#
# 1 0.008575 -0.001300 -0.002679 0.000000 0.000000 0.000000
# 2 -0.001300 0.009091 -0.005639 0.000000 0.000000 0.000000
# 3 -0.002679 -0.005639 0.021649 0.000000 0.000000 0.000000
# 4 0.000000 0.000000 0.000000 -0.047770 0.000000 0.000000
# 5 0.000000 0.000000 0.000000 0.000000 0.046333 0.000000
# 6 0.000000 0.000000 0.000000 0.000000 0.000000 0.057791
#
#
# Mechanical properties :
#
#
# Convention : Reuss Voigt Hill
#
# Bulk Modulus (GPa) = 49.80712 58.73206 54.26959
# Shear Modulus (GPa) = 41.11829 18.92247 30.02038
#
# Velocity S-wave (km/s) = 4.47710 3.03717 3.82550
# Velocity P-wave (km/s) = 7.14185 6.39766 6.77998
#
# Compressibility (1/GPa) = 0.02007745
#
# Stress axis : x y z
#
# Youngs Moduli (GPa) = 116.61618 110.00138 46.19080
#
# Poissons Ratio (x) = 0.14303 0.12376
# Poissons Ratio (y) = 0.15163 0.26049
# Poissons Ratio (z) = 0.31244 0.62035
#
# Static dielectric constant tensor:
#      x y z
#    x 1.773170 0.000000 0.000000 
#    y 0.000000 1.773900 0.000000 
#    z 0.000000 0.000000 1.761170 
# 
# From -- ./inp_files/7470.got.cif
#   From: 2010.05.17/outbox.cif.g08.bks.cpg/sg51_4_cif.got.tgz:7470.got - 2010.06.03 11:52:47.
