data_PCOD9402534
_publ_section_title
;
Structure prediction by ZEFSAII (Michael W. Deem and Ramdas Pophale) SiO2 
 PCOD9402534
Probable space group: P M M A
;
_chemical_formula_sum "Si O2"
_cell_formula_units_Z 48
_cell_length_a 17.559588
_cell_length_b 14.325477
_cell_length_c 10.032469
_cell_angle_alpha 90.000000
_cell_angle_beta 90.000000
_cell_angle_gamma 90.000000
_cell_volume 2523.662300
_symmetry_space_group_name_H-M "P M M A"
_symmetry_group_IT_number 51
_symmetry_cell_setting 'orthorhombic'
loop_
_space_group_symop_operation_xyz
x,y,z
1/2-x,-y,z
1/2+x,-y,-z
-x,y,-z
-x,-y,-z
1/2+x,y,-z
1/2-x,y,z
x,-y,z
loop_
_atom_site_type_symbol
_atom_site_label
_atom_site_fract_x
_atom_site_fract_y
_atom_site_fract_z
Si Si1 0.163729 0.787780 0.472531
Si Si2 0.573296 0.607396 0.595069
Si Si3 0.553902 0.888768 0.725645
Si Si4 0.972928 0.608058 0.149451
Si Si5 0.836475 0.111520 0.971583
Si Si6 0.392636 0.787883 0.764598
O O1 0.250000 0.806835 0.430128
O O2 0.136917 0.683334 0.434729
O O3 0.103763 0.855220 0.399411
O O4 0.155860 0.796815 0.631140
O O5 0.500000 0.626563 0.500000
O O6 0.596317 0.500000 0.571205
O O7 0.542251 0.616191 0.745552
O O8 0.474251 0.835531 0.734130
O O9 0.542000 0.000000 0.722123
O O10 0.603284 0.864386 0.856884
O O11 0.947519 0.500000 0.153144
O O12 0.909902 0.680745 0.197854
O O13 0.000000 0.630327 0.000000
O O14 0.750000 0.133618 0.929798
O O15 0.856197 0.162076 0.108656
O O16 0.841441 0.000000 0.991939
#
# Coordination Sequence:
#
# PCOD9402534 Si02
#       6
#     8   8   8   8   8   8
#     4  12  25  39  56  86 123 158 198 247 308 362
#     4  10  19  38  63  87 117 154 198 244 289 350
#     4  11  23  41  63  86 115 156 205 254 300 356
#     4  10  20  35  61  93 120 149 192 243 295 348
#     4  10  22  40  61  88 121 156 195 245 308 364
#     4  12  22  38  62  91 117 157 204 251 292 355
#
# _framework density 19.019977999999998
#
# number of rings (size 3 to 8) (size 9 to 14) (size 15 to 20)
#    0.000    1.167    3.333    3.500    0.000    4.667 
#    0.000    0.000    0.000    1.500    0.000    0.000 
#    0.000    0.000    0.000    0.000    0.000    0.000 
#
# Total GULP energy -268344.135282 kJ/mol
# GULP energy per Si atom -5590.502818 kJ/mol
# Density = 1.897669 g / cm^3
# Si number density = 19.019978 Si / 1000 Ang^3
#
#
#
# Elastic Constant Matrix: (Units=GPa)
#
#
# Indices 1 2 3 4 5 6 
#
# 1 66.7952 17.0327 1.4506 0.0000 0.0000 0.0000
# 2 17.0327 46.5076 15.7924 0.0000 0.0000 0.0000
# 3 1.4506 15.7924 104.3690 0.0000 0.0000 0.0000
# 4 0.0000 0.0000 0.0000 82.8973 0.0000 0.0000
# 5 0.0000 0.0000 0.0000 0.0000 16.1986 0.0000
# 6 0.0000 0.0000 0.0000 0.0000 0.0000 20.3046
#
#
#
# Elastic Compliance Matrix: (Units=1/GPa)
#
#
# Indices 1 2 3 4 5 6 
#
# 1 0.016565 -0.006313 0.000725 0.000000 0.000000 0.000000
# 2 -0.006313 0.025072 -0.003706 0.000000 0.000000 0.000000
# 3 0.000725 -0.003706 0.010132 0.000000 0.000000 0.000000
# 4 0.000000 0.000000 0.000000 0.012063 0.000000 0.000000
# 5 0.000000 0.000000 0.000000 0.000000 0.061734 0.000000
# 6 0.000000 0.000000 0.000000 0.000000 0.000000 0.049250
#
#
# Mechanical properties :
#
#
# Convention : Reuss Voigt Hill
#
# Bulk Modulus (GPa) = 30.13712 31.80257 30.96984
# Shear Modulus (GPa) = 24.45412 36.10652 30.28032
#
# Velocity S-wave (km/s) = 3.58957 4.36173 3.99435
# Velocity P-wave (km/s) = 5.74973 6.49024 6.13117
#
# Compressibility (1/GPa) = 0.03318167
#
# Stress axis : x y z
#
# Youngs Moduli (GPa) = 60.36761 39.88467 98.69646
#
# Poissons Ratio (x) = 0.25179 -0.07155
# Poissons Ratio (y) = 0.38110 0.36577
# Poissons Ratio (z) = -0.04377 0.14781
#
# Static dielectric constant tensor:
#      x y z
#    x 1.624060 0.000000 0.000000 
#    y 0.000000 1.662210 0.000000 
#    z 0.000000 0.000000 1.657370 
# 
# From -- ./inp_files/9591.got.cif
#   From: 2010.05.17/outbox.cif.g08.bks.cpg/sg51_5_cif.got.tgz:9591.got - 2010.06.03 11:52:47.
