data_PCOD9402756
_publ_section_title
;
Structure prediction by ZEFSAII (Michael W. Deem and Ramdas Pophale) SiO2 
 PCOD9402756
Probable space group: P M M A
;
_chemical_formula_sum "Si O2"
_cell_formula_units_Z 40
_cell_length_a 8.386373
_cell_length_b 14.183536
_cell_length_c 19.419641
_cell_angle_alpha 90.000000
_cell_angle_beta 90.000000
_cell_angle_gamma 90.000000
_cell_volume 2309.935679
_symmetry_space_group_name_H-M "P M M A"
_symmetry_group_IT_number 51
_symmetry_cell_setting 'orthorhombic'
loop_
_space_group_symop_operation_xyz
x,y,z
1/2-x,-y,z
1/2+x,-y,-z
-x,y,-z
-x,-y,-z
1/2+x,y,-z
1/2-x,y,z
x,-y,z
loop_
_atom_site_type_symbol
_atom_site_label
_atom_site_fract_x
_atom_site_fract_y
_atom_site_fract_z
Si Si1 0.556736 0.293875 0.785800
Si Si2 0.559811 0.209933 0.575169
Si Si3 0.442321 0.390902 0.074643
Si Si4 0.441070 0.606542 0.648552
Si Si5 0.444526 0.105771 0.287114
O O1 0.750000 0.296532 0.784469
O O2 0.502589 0.330293 0.860090
O O3 0.497288 0.360990 0.724358
O O4 0.506290 0.187757 0.765800
O O5 0.500000 0.183268 0.500000
O O6 0.750000 0.208650 0.575260
O O7 0.504605 0.314886 0.596070
O O8 0.504994 0.141427 0.637027
O O9 0.250000 0.390423 0.074634
O O10 0.494933 0.500000 0.082983
O O11 0.500000 0.357483 0.000000
O O12 0.250000 0.608223 0.646607
O O13 0.496115 0.500000 0.634106
O O14 0.250000 0.104469 0.286825
O O15 0.500021 0.000000 0.272578
#
# Coordination Sequence:
#
# PCOD9402756 Si02
#       5
#     8   8   8   8   8
#     4   9  17  30  49  70  93 122 154 191 231 270
#     4  10  20  33  49  68  92 121 152 189 231 274
#     4   9  17  28  43  66  95 125 156 187 222 266
#     4  10  20  32  47  68  93 122 155 189 227 273
#     4   8  15  29  49  71  91 114 149 190 232 277
#
# _framework density 17.316500000000001
#
# number of rings (size 3 to 8) (size 9 to 14) (size 15 to 20)
#    0.000    2.800    0.000    3.000    0.000    4.000 
#    0.000    2.000    0.000   15.000    0.000    0.000 
#    0.000    0.000    0.000    0.000    0.000    0.000 
#
# Total GULP energy -222996.711993 kJ/mol
# GULP energy per Si atom -5574.917800 kJ/mol
# Density = 1.727709 g / cm^3
# Si number density = 17.316500 Si / 1000 Ang^3
#
#
#
# Elastic Constant Matrix: (Units=GPa)
#
#
# Indices 1 2 3 4 5 6 
#
# 1 14.3775 9.8266 10.9148 0.0000 0.0000 0.0000
# 2 9.8266 83.4108 31.3926 0.0000 0.0000 0.0000
# 3 10.9148 31.3926 113.4512 0.0000 0.0000 0.0000
# 4 0.0000 0.0000 0.0000 -40.2694 0.0000 0.0000
# 5 0.0000 0.0000 0.0000 0.0000 27.0933 0.0000
# 6 0.0000 0.0000 0.0000 0.0000 0.0000 8.1855
#
#
#
# Elastic Compliance Matrix: (Units=1/GPa)
#
#
# Indices 1 2 3 4 5 6 
#
# 1 0.078694 -0.007168 -0.005587 0.000000 0.000000 0.000000
# 2 -0.007168 0.014035 -0.003194 0.000000 0.000000 0.000000
# 3 -0.005587 -0.003194 0.010236 0.000000 0.000000 0.000000
# 4 0.000000 0.000000 0.000000 -0.024833 0.000000 0.000000
# 5 0.000000 0.000000 0.000000 0.000000 0.036909 0.000000
# 6 0.000000 0.000000 0.000000 0.000000 0.000000 0.122167
#
#
# Mechanical properties :
#
#
# Convention : Reuss Voigt Hill
#
# Bulk Modulus (GPa) = 14.07143 35.05639 24.56391
# Shear Modulus (GPa) = 17.07671 9.60892 13.34282
#
# Velocity S-wave (km/s) = 3.14371 2.35819 2.77885
# Velocity P-wave (km/s) = 4.61746 5.26338 4.95096
#
# Compressibility (1/GPa) = 0.07106601
#
# Stress axis : x y z
#
# Youngs Moduli (GPa) = 12.70746 71.24826 97.69690
#
# Poissons Ratio (x) = 0.51071 0.54588
# Poissons Ratio (y) = 0.09109 0.31205
# Poissons Ratio (z) = 0.07100 0.22757
#
# Static dielectric constant tensor:
#      x y z
#    x 1.594560 0.000000 0.000000 
#    y 0.000000 1.593130 0.000000 
#    z 0.000000 0.000000 1.574020 
# 
# From -- ./inp_files/27208.got.cif
#   From: 2010.05.17/outbox.cif.g08.bks.cpg/sg51_14_cif.got.tgz:27208.got - 2010.06.03 11:52:47.
