data_PCOD9402259
_publ_section_title
;
Structure prediction by ZEFSAII (Michael W. Deem and Ramdas Pophale) SiO2 
 PCOD9402259
Probable space group: P M M A
;
_chemical_formula_sum "Si O2"
_cell_formula_units_Z 36
_cell_length_a 7.820405
_cell_length_b 15.361783
_cell_length_c 14.749868
_cell_angle_alpha 90.000000
_cell_angle_beta 90.000000
_cell_angle_gamma 90.000000
_cell_volume 1771.980770
_symmetry_space_group_name_H-M "P M M A"
_symmetry_group_IT_number 51
_symmetry_cell_setting 'orthorhombic'
loop_
_space_group_symop_operation_xyz
x,y,z
1/2-x,-y,z
1/2+x,-y,-z
-x,y,-z
-x,-y,-z
1/2+x,y,-z
1/2-x,y,z
x,-y,z
loop_
_atom_site_type_symbol
_atom_site_label
_atom_site_fract_x
_atom_site_fract_y
_atom_site_fract_z
Si Si1 0.040227 0.641066 0.747031
Si Si2 0.955612 0.500000 0.106308
Si Si3 0.045652 0.500000 0.604213
Si Si4 0.056212 0.165805 0.716469
Si Si5 0.943419 0.104501 0.902270
Si Si6 0.043044 0.000000 0.605939
O O1 0.250000 0.645203 0.751972
O O2 0.986424 0.585941 0.836525
O O3 0.987380 0.583372 0.661001
O O4 0.976995 0.738597 0.728441
O O5 0.750000 0.500000 0.112069
O O6 0.000000 0.500000 0.000000
O O7 0.250000 0.500000 0.610834
O O8 0.000000 0.500000 0.500000
O O9 0.250000 0.178492 0.681852
O O10 0.059041 0.130822 0.818922
O O11 0.978230 0.088242 0.655533
O O12 0.750000 0.132565 0.882914
O O13 0.944910 0.000000 0.907458
O O14 0.000000 0.138831 0.000000
O O15 0.000000 0.000000 0.500000
O O16 0.250000 0.000000 0.617314
#
# Coordination Sequence:
#
# PCOD9402259 Si02
#       6
#     8   4   4   8   8   4
#     4   8  17  33  53  74 102 136 170 205 255 312
#     4   9  17  33  54  76 102 137 169 205 250 302
#     4   9  17  33  54  76 100 131 167 209 260 312
#     4  10  19  35  55  76 102 137 177 218 259 306
#     4  10  20  33  51  75 103 136 171 210 252 298
#     4  10  22  36  53  74 101 136 175 216 264 312
#
# _framework density 20.316248999999999
#
# number of rings (size 3 to 8) (size 9 to 14) (size 15 to 20)
#    0.000    2.667    1.111    2.000    0.000    3.556 
#    0.000    6.667    0.000    0.000    0.000    0.000 
#    0.000    0.000    0.000    0.000    0.000    0.000 
#
# Total GULP energy -200546.050687 kJ/mol
# GULP energy per Si atom -5570.723630 kJ/mol
# Density = 2.027001 g / cm^3
# Si number density = 20.316249 Si / 1000 Ang^3
#
#
#
# Elastic Constant Matrix: (Units=GPa)
#
#
# Indices 1 2 3 4 5 6 
#
# 1 31.1338 16.5150 -2.9660 0.0000 0.0000 0.0000
# 2 16.5150 167.7619 91.3932 0.0000 0.0000 0.0000
# 3 -2.9660 91.3932 172.2658 0.0000 0.0000 0.0000
# 4 0.0000 0.0000 0.0000 1.0552 0.0000 0.0000
# 5 0.0000 0.0000 0.0000 0.0000 27.9327 0.0000
# 6 0.0000 0.0000 0.0000 0.0000 0.0000 0.3925
#
#
#
# Elastic Compliance Matrix: (Units=1/GPa)
#
#
# Indices 1 2 3 4 5 6 
#
# 1 0.035286 -0.005351 0.003447 0.000000 0.000000 0.000000
# 2 -0.005351 0.009196 -0.004971 0.000000 0.000000 0.000000
# 3 0.003447 -0.004971 0.008501 0.000000 0.000000 0.000000
# 4 0.000000 0.000000 0.000000 0.947706 0.000000 0.000000
# 5 0.000000 0.000000 0.000000 0.000000 0.035800 0.000000
# 6 0.000000 0.000000 0.000000 0.000000 0.000000 2.547856
#
#
# Mechanical properties :
#
#
# Convention : Reuss Voigt Hill
#
# Bulk Modulus (GPa) = 25.48900 64.56067 45.02483
# Shear Modulus (GPa) = 1.38459 23.62403 12.50431
#
# Velocity S-wave (km/s) = 0.82644 3.41371 2.48359
# Velocity P-wave (km/s) = 3.67206 6.88365 5.51673
#
# Compressibility (1/GPa) = 0.03923261
#
# Stress axis : x y z
#
# Youngs Moduli (GPa) = 28.33948 108.74785 117.62664
#
# Poissons Ratio (x) = 0.58195 -0.40542
# Poissons Ratio (y) = 0.15166 0.58469
# Poissons Ratio (z) = -0.09768 0.54056
#
# Static dielectric constant tensor:
#      x y z
#    x 1.774220 0.000000 0.000000 
#    y 0.000000 1.647450 0.000000 
#    z 0.000000 0.000000 1.696600 
# 
# From -- ./inp_files/20398.got.cif
#   From: 2010.05.17/outbox.cif.g08.bks.cpg/sg51_11_cif.got.tgz:20398.got - 2010.06.03 11:52:47.
