data_PCOD9402476
_publ_section_title
;
Structure prediction by ZEFSAII (Michael W. Deem and Ramdas Pophale) SiO2 
 PCOD9402476
Probable space group: P M M A
;
_chemical_formula_sum "Si O2"
_cell_formula_units_Z 64
_cell_length_a 14.981713
_cell_length_b 16.663793
_cell_length_c 12.710419
_cell_angle_alpha 90.000000
_cell_angle_beta 90.000000
_cell_angle_gamma 90.000000
_cell_volume 3173.183611
_symmetry_space_group_name_H-M "P M M A"
_symmetry_group_IT_number 51
_symmetry_cell_setting 'orthorhombic'
loop_
_space_group_symop_operation_xyz
x,y,z
1/2-x,-y,z
1/2+x,-y,-z
-x,y,-z
-x,-y,-z
1/2+x,y,-z
1/2-x,y,z
x,-y,z
loop_
_atom_site_type_symbol
_atom_site_label
_atom_site_fract_x
_atom_site_fract_y
_atom_site_fract_z
Si Si1 0.858630 0.347998 0.331120
Si Si2 0.355674 0.412814 0.892962
Si Si3 0.643460 0.268496 0.720982
Si Si4 0.518040 0.800206 0.378821
Si Si5 0.649037 0.904912 0.279038
Si Si6 0.644251 0.909263 0.046035
Si Si7 0.600215 0.261131 0.961361
Si Si8 0.858134 0.588192 0.562320
O O1 0.750000 0.335652 0.329342
O O2 0.885912 0.395615 0.226503
O O3 0.915151 0.266549 0.330971
O O4 0.880931 0.390398 0.441916
O O5 0.250000 0.421033 0.885274
O O6 0.391720 0.500000 0.930538
O O7 0.366965 0.334218 0.964926
O O8 0.750000 0.252997 0.710120
O O9 0.576114 0.199614 0.681452
O O10 0.620445 0.285521 0.841884
O O11 0.617634 0.343013 0.645055
O O12 0.500000 0.782670 0.500000
O O13 0.577705 0.878581 0.364394
O O14 0.750000 0.871508 0.294002
O O15 0.611593 0.884153 0.162651
O O16 0.656920 0.000000 0.278390
O O17 0.750000 0.918230 0.059896
O O18 0.611032 0.000000 0.016906
O O19 0.633477 0.830962 0.974206
O O20 0.500000 0.254432 0.000000
O O21 0.750000 0.585565 0.565265
O O22 0.892705 0.500000 0.589972
#
# Coordination Sequence:
#
# PCOD9402476 Si02
#       8
#     8   8   8   8   8   8   8   8
#     4  10  19  36  61  90 120 151 201 269 324 370
#     4  10  21  37  60  88 118 157 205 258 320 380
#     4  11  24  41  58  85 125 168 211 255 308 376
#     4  12  23  37  60  86 119 161 211 256 314 378
#     4   9  19  37  63  94 123 152 195 255 319 381
#     4   9  18  36  63  92 117 146 191 246 307 374
#     4  12  24  39  60  86 126 165 208 259 313 376
#     4   9  18  35  59  84 114 158 209 259 313 371
#
# _framework density 20.169018999999999
#
# number of rings (size 3 to 8) (size 9 to 14) (size 15 to 20)
#    0.000    1.750    1.250    4.875    0.000    5.250 
#    0.000    5.000    0.000    1.125    0.000    0.000 
#    0.000    0.000    0.000    0.000    0.000    0.000 
#
# Total GULP energy -356645.825868 kJ/mol
# GULP energy per Si atom -5572.591029 kJ/mol
# Density = 2.012311 g / cm^3
# Si number density = 20.169019 Si / 1000 Ang^3
#
#
#
# Elastic Constant Matrix: (Units=GPa)
#
#
# Indices 1 2 3 4 5 6 
#
# 1 52.3537 3.4804 38.7396 0.0000 0.0000 0.0000
# 2 3.4804 77.4820 54.8297 0.0000 0.0000 0.0000
# 3 38.7396 54.8297 101.6204 0.0000 0.0000 0.0000
# 4 0.0000 0.0000 0.0000 -11.2816 0.0000 0.0000
# 5 0.0000 0.0000 0.0000 0.0000 25.9691 0.0000
# 6 0.0000 0.0000 0.0000 0.0000 0.0000 19.2272
#
#
#
# Elastic Compliance Matrix: (Units=1/GPa)
#
#
# Indices 1 2 3 4 5 6 
#
# 1 0.032001 0.011640 -0.018480 0.000000 0.000000 0.000000
# 2 0.011640 0.025111 -0.017986 0.000000 0.000000 0.000000
# 3 -0.018480 -0.017986 0.026590 0.000000 0.000000 0.000000
# 4 0.000000 0.000000 0.000000 -0.088640 0.000000 0.000000
# 5 0.000000 0.000000 0.000000 0.000000 0.038507 0.000000
# 6 0.000000 0.000000 0.000000 0.000000 0.000000 0.052010
#
#
# Mechanical properties :
#
#
# Convention : Reuss Voigt Hill
#
# Bulk Modulus (GPa) = 29.36862 47.28392 38.32627
# Shear Modulus (GPa) = 34.11066 15.74335 24.92701
#
# Velocity S-wave (km/s) = 4.11693 2.79690 3.51936
# Velocity P-wave (km/s) = 6.09850 5.82451 5.96308
#
# Compressibility (1/GPa) = 0.03404995
#
# Stress axis : x y z
#
# Youngs Moduli (GPa) = 31.24874 39.82301 37.60843
#
# Poissons Ratio (x) = -0.46352 0.69499
# Poissons Ratio (y) = -0.36372 0.67643
# Poissons Ratio (z) = 0.57747 0.71626
#
# Static dielectric constant tensor:
#      x y z
#    x 1.722200 0.000000 0.000000 
#    y 0.000000 1.748480 0.000000 
#    z 0.000000 0.000000 1.726200 
# 
# From -- ./inp_files/16898.got.cif
#   From: 2010.05.17/outbox.cif.g08.bks.cpg/sg51_9_cif.got.tgz:16898.got - 2010.06.03 11:52:47.
