data_PCOD9402882
_publ_section_title
;
Structure prediction by ZEFSAII (Michael W. Deem and Ramdas Pophale) SiO2 
 PCOD9402882
Probable space group: P M M A
;
_chemical_formula_sum "Si O2"
_cell_formula_units_Z 64
_cell_length_a 24.200880
_cell_length_b 14.215637
_cell_length_c 10.538090
_cell_angle_alpha 90.000000
_cell_angle_beta 90.000000
_cell_angle_gamma 90.000000
_cell_volume 3625.428852
_symmetry_space_group_name_H-M "P M M A"
_symmetry_group_IT_number 51
_symmetry_cell_setting 'orthorhombic'
loop_
_space_group_symop_operation_xyz
x,y,z
1/2-x,-y,z
1/2+x,-y,-z
-x,y,-z
-x,-y,-z
1/2+x,y,-z
1/2-x,y,z
x,-y,z
loop_
_atom_site_type_symbol
_atom_site_label
_atom_site_fract_x
_atom_site_fract_y
_atom_site_fract_z
Si Si1 0.686533 0.716960 0.600251
Si Si2 0.962878 0.795130 0.374116
Si Si3 0.120120 0.390508 0.908268
Si Si4 0.054578 0.894270 0.226967
Si Si5 0.184416 0.611709 0.657220
Si Si6 0.130438 0.106574 0.481144
Si Si7 0.104405 0.704266 0.163185
Si Si8 0.489334 0.608458 0.763180
O O1 0.750000 0.693795 0.629718
O O2 0.668495 0.658748 0.475835
O O3 0.679943 0.825925 0.560153
O O4 0.646150 0.699534 0.718289
O O5 0.904547 0.840330 0.410093
O O6 0.966173 0.686025 0.335018
O O7 0.000000 0.803723 0.500000
O O8 0.994354 0.855709 0.266865
O O9 0.135113 0.500000 0.927277
O O10 0.151807 0.356052 0.782341
O O11 0.054694 0.386792 0.877712
O O12 0.131128 0.333197 0.034819
O O13 0.090166 0.897639 0.357748
O O14 0.083255 0.811567 0.147459
O O15 0.053014 0.000000 0.174758
O O16 0.250000 0.627719 0.674490
O O17 0.174693 0.500000 0.646638
O O18 0.144766 0.000000 0.515561
O O19 0.050264 0.642199 0.197298
O O20 0.489675 0.500000 0.718264
#
# Coordination Sequence:
#
# PCOD9402882 Si02
#       8
#     8   8   8   8   8   8   8   8
#     4  10  21  36  53  76 104 132 169 219 271 315
#     4   9  16  27  46  74 104 136 175 212 248 298
#     4  10  20  34  53  75 100 135 175 210 251 310
#     4   8  15  28  46  69  98 131 166 207 255 304
#     4   9  19  36  55  74 101 138 174 210 258 314
#     4   9  16  28  48  73 101 132 167 209 255 304
#     4  10  20  33  52  76 102 134 173 216 262 312
#     4  10  20  32  48  73 107 142 172 209 260 313
#
# _framework density 17.653084
#
# number of rings (size 3 to 8) (size 9 to 14) (size 15 to 20)
#    0.000    2.625    0.000    2.625    0.000    4.500 
#    0.000    1.250    0.000    9.000    0.000    0.000 
#    0.000    0.000    0.000    0.000    0.000    0.000 
#
# Total GULP energy -356620.510678 kJ/mol
# GULP energy per Si atom -5572.195479 kJ/mol
# Density = 1.761290 g / cm^3
# Si number density = 17.653084 Si / 1000 Ang^3
#
#
#
# Elastic Constant Matrix: (Units=GPa)
#
#
# Indices 1 2 3 4 5 6 
#
# 1 55.7727 28.4279 42.2007 0.0000 0.0000 0.0000
# 2 28.4279 103.3071 49.0776 0.0000 0.0000 0.0000
# 3 42.2007 49.0776 84.3785 0.0000 0.0000 0.0000
# 4 0.0000 0.0000 0.0000 4.5937 0.0000 0.0000
# 5 0.0000 0.0000 0.0000 0.0000 15.3585 0.0000
# 6 0.0000 0.0000 0.0000 0.0000 0.0000 16.5357
#
#
#
# Elastic Compliance Matrix: (Units=1/GPa)
#
#
# Indices 1 2 3 4 5 6 
#
# 1 0.029015 -0.001507 -0.013635 0.000000 0.000000 0.000000
# 2 -0.001507 0.013454 -0.007072 0.000000 0.000000 0.000000
# 3 -0.013635 -0.007072 0.022784 0.000000 0.000000 0.000000
# 4 0.000000 0.000000 0.000000 0.217687 0.000000 0.000000
# 5 0.000000 0.000000 0.000000 0.000000 0.065111 0.000000
# 6 0.000000 0.000000 0.000000 0.000000 0.000000 0.060475
#
#
# Mechanical properties :
#
#
# Convention : Reuss Voigt Hill
#
# Bulk Modulus (GPa) = 48.01740 53.65231 50.83485
# Shear Modulus (GPa) = 10.87205 15.54773 13.20989
#
# Velocity S-wave (km/s) = 2.48437 2.97094 2.73848
# Velocity P-wave (km/s) = 5.95727 6.49825 6.23363
#
# Compressibility (1/GPa) = 0.02082579
#
# Stress axis : x y z
#
# Youngs Moduli (GPa) = 34.46501 74.32695 43.89058
#
# Poissons Ratio (x) = 0.11199 0.59845
# Poissons Ratio (y) = 0.05193 0.31038
# Poissons Ratio (z) = 0.46993 0.52562
#
# Static dielectric constant tensor:
#      x y z
#    x 1.607960 0.000000 0.000000 
#    y 0.000000 1.618520 0.000000 
#    z 0.000000 0.000000 1.594960 
# 
# From -- ./inp_files/11849.got.cif
#   From: 2010.05.17/outbox.cif.g08.bks.cpg/sg51_6_cif.got.tgz:11849.got - 2010.06.03 11:52:47.
