data_PCOD9402167
_publ_section_title
;
Structure prediction by ZEFSAII (Michael W. Deem and Ramdas Pophale) SiO2 
 PCOD9402167
Probable space group: P M M A
;
_chemical_formula_sum "Si O2"
_cell_formula_units_Z 64
_cell_length_a 15.698434
_cell_length_b 7.762868
_cell_length_c 24.915778
_cell_angle_alpha 90.000000
_cell_angle_beta 90.000000
_cell_angle_gamma 90.000000
_cell_volume 3036.358071
_symmetry_space_group_name_H-M "P M M A"
_symmetry_group_IT_number 51
_symmetry_cell_setting 'orthorhombic'
loop_
_space_group_symop_operation_xyz
x,y,z
1/2-x,-y,z
1/2+x,-y,-z
-x,y,-z
-x,-y,-z
1/2+x,y,-z
1/2-x,y,z
x,-y,z
loop_
_atom_site_type_symbol
_atom_site_label
_atom_site_fract_x
_atom_site_fract_y
_atom_site_fract_z
Si Si1 0.656808 0.208508 0.386504
Si Si2 0.853209 0.696632 0.986829
Si Si3 0.347290 0.199547 0.131951
Si Si4 0.657044 0.294225 0.621367
Si Si5 0.000899 0.294920 0.689401
Si Si6 0.849169 0.288487 0.104160
Si Si7 0.401755 0.208037 0.497113
Si Si8 0.015790 0.701633 0.808788
O O1 0.750000 0.264083 0.367852
O O2 0.582152 0.269851 0.348274
O O3 0.642515 0.265819 0.447985
O O4 0.654126 0.000000 0.386893
O O5 0.750000 0.691951 0.990699
O O6 0.884341 0.500000 0.981535
O O7 0.879830 0.768219 0.044701
O O8 0.871792 0.787956 0.930984
O O9 0.250000 0.269543 0.137649
O O10 0.421558 0.285684 0.166095
O O11 0.344958 0.000000 0.147320
O O12 0.750000 0.223369 0.634994
O O13 0.659009 0.500000 0.629310
O O14 0.580849 0.222939 0.657718
O O15 0.638507 0.265943 0.558559
O O16 0.987036 0.500000 0.695475
O O17 0.014949 0.222595 0.748953
O O18 0.750000 0.238802 0.112899
O O19 0.850099 0.500000 0.102154
O O20 0.913653 0.227116 0.150014
O O21 0.500000 0.263975 0.500000
O O22 0.399969 0.000000 0.496653
O O23 0.037935 0.500000 0.803791
#
# Coordination Sequence:
#
# PCOD9402167 Si02
#       8
#     8   8   8   8   8   8   8   8
#     4  10  21  37  57  81 110 143 178 218 265 317
#     4   8  14  28  52  78 103 134 171 213 264 320
#     4  10  21  36  53  76 108 142 175 217 267 318
#     4  10  21  36  54  78 109 143 177 218 270 323
#     4  10  22  38  55  78 108 141 181 226 268 313
#     4   8  15  30  53  80 107 134 171 220 267 313
#     4  10  19  34  58  84 109 139 175 218 265 315
#     4  10  21  36  56  80 104 139 183 224 264 309
#
# _framework density 21.077884000000001
#
# number of rings (size 3 to 8) (size 9 to 14) (size 15 to 20)
#    0.000    2.500    1.250    1.500    0.000    4.500 
#    0.000    5.625    0.000    1.125    0.000    0.000 
#    0.000    0.000    0.000    0.000    0.000    0.000 
#
# Total GULP energy -357175.880425 kJ/mol
# GULP energy per Si atom -5580.873132 kJ/mol
# Density = 2.102991 g / cm^3
# Si number density = 21.077884 Si / 1000 Ang^3
#
#
#
# Elastic Constant Matrix: (Units=GPa)
#
#
# Indices 1 2 3 4 5 6 
#
# 1 92.1628 -7.2635 24.3706 0.0000 0.0000 0.0000
# 2 -7.2635 23.4789 -5.1793 0.0000 0.0000 0.0000
# 3 24.3706 -5.1793 93.9541 0.0000 0.0000 0.0000
# 4 0.0000 0.0000 0.0000 49.3854 0.0000 0.0000
# 5 0.0000 0.0000 0.0000 0.0000 -63.0764 0.0000
# 6 0.0000 0.0000 0.0000 0.0000 0.0000 45.5877
#
#
#
# Elastic Compliance Matrix: (Units=1/GPa)
#
#
# Indices 1 2 3 4 5 6 
#
# 1 0.011858 0.003027 -0.002909 0.000000 0.000000 0.000000
# 2 0.003027 0.043888 0.001634 0.000000 0.000000 0.000000
# 3 -0.002909 0.001634 0.011488 0.000000 0.000000 0.000000
# 4 0.000000 0.000000 0.000000 0.020249 0.000000 0.000000
# 5 0.000000 0.000000 0.000000 0.000000 -0.015854 0.000000
# 6 0.000000 0.000000 0.000000 0.000000 0.000000 0.021936
#
#
# Mechanical properties :
#
#
# Convention : Reuss Voigt Hill
#
# Bulk Modulus (GPa) = 14.13654 25.93904 20.03779
# Shear Modulus (GPa) = 43.99827 19.55723 31.77775
#
# Velocity S-wave (km/s) = 4.57378 3.04938 3.88704
# Velocity P-wave (km/s) = 5.88336 4.97305 5.44726
#
# Compressibility (1/GPa) = 0.07073866
#
# Stress axis : x y z
#
# Youngs Moduli (GPa) = 84.33026 22.78513 87.04627
#
# Poissons Ratio (x) = -0.06897 0.25322
# Poissons Ratio (y) = -0.25525 -0.14226
# Poissons Ratio (z) = 0.24532 -0.03724
#
# Static dielectric constant tensor:
#      x y z
#    x 1.754870 0.000000 0.000000 
#    y 0.000000 1.730710 0.000000 
#    z 0.000000 0.000000 1.748000 
# 
# From -- ./inp_files/35733.got.cif
#   From: 2010.05.17/outbox.cif.g08.bks.cpg/sg51_18_cif.got.tgz:35733.got - 2010.06.03 11:52:47.
