data_PCOD9402602
_publ_section_title
;
Structure prediction by ZEFSAII (Michael W. Deem and Ramdas Pophale) SiO2 
 PCOD9402602
Probable space group: P M M A
;
_chemical_formula_sum "Si O2"
_cell_formula_units_Z 56
_cell_length_a 8.833667
_cell_length_b 15.733737
_cell_length_c 20.778719
_cell_angle_alpha 90.000000
_cell_angle_beta 90.000000
_cell_angle_gamma 90.000000
_cell_volume 2887.963367
_symmetry_space_group_name_H-M "P M M A"
_symmetry_group_IT_number 51
_symmetry_cell_setting 'orthorhombic'
loop_
_space_group_symop_operation_xyz
x,y,z
1/2-x,-y,z
1/2+x,-y,-z
-x,y,-z
-x,-y,-z
1/2+x,y,-z
1/2-x,y,z
x,-y,z
loop_
_atom_site_type_symbol
_atom_site_label
_atom_site_fract_x
_atom_site_fract_y
_atom_site_fract_z
Si Si1 0.426136 0.170616 0.795442
Si Si2 0.574602 0.369413 0.235630
Si Si3 0.068232 0.405563 0.616073
Si Si4 0.431850 0.905745 0.326908
Si Si5 0.431598 0.231646 0.432051
Si Si6 0.070688 0.593530 0.103539
Si Si7 0.568716 0.227891 0.066245
O O1 0.250000 0.145138 0.795980
O O2 0.434004 0.267285 0.768827
O O3 0.515534 0.113671 0.745397
O O4 0.480678 0.177971 0.869219
O O5 0.750000 0.393081 0.221682
O O6 0.537415 0.398738 0.307300
O O7 0.468234 0.403773 0.179554
O O8 0.250000 0.396695 0.608225
O O9 0.023741 0.500000 0.593652
O O10 0.986995 0.327057 0.582587
O O11 0.250000 0.904324 0.328410
O O12 0.484524 0.831919 0.375405
O O13 0.483381 0.000000 0.346608
O O14 0.500000 0.204070 0.500000
O O15 0.250000 0.230295 0.434665
O O16 0.250000 0.604107 0.093547
O O17 0.024777 0.500000 0.079298
O O18 0.984270 0.674249 0.074694
O O19 0.750000 0.226517 0.064497
O O20 0.500000 0.194627 0.000000
#
# Coordination Sequence:
#
# PCOD9402602 Si02
#       7
#     8   8   8   8   8   8   8
#     4   9  18  34  58  86 114 145 185 232 282 340
#     4   9  17  31  52  77 108 145 188 236 289 341
#     4  10  20  35  57  83 114 154 198 243 290 341
#     4  10  22  40  63  92 121 149 186 233 289 350
#     4  11  24  41  61  85 118 157 195 240 290 344
#     4  10  20  31  45  70 105 145 191 241 290 341
#     4  10  21  36  54  78 108 147 192 236 286 346
#
# _framework density 19.390827999999999
#
# number of rings (size 3 to 8) (size 9 to 14) (size 15 to 20)
#    0.000    2.143    1.429    2.571    0.000    7.143 
#    0.000    0.000    0.000    0.429    0.000    0.000 
#    0.000    0.000    0.000    0.000    0.000    0.000 
#
# Total GULP energy -312625.862459 kJ/mol
# GULP energy per Si atom -5582.604687 kJ/mol
# Density = 1.934669 g / cm^3
# Si number density = 19.390828 Si / 1000 Ang^3
#
#
#
# Elastic Constant Matrix: (Units=GPa)
#
#
# Indices 1 2 3 4 5 6 
#
# 1 27.7890 23.0585 28.9951 0.0000 0.0000 0.0000
# 2 23.0585 81.1854 42.5518 0.0000 0.0000 0.0000
# 3 28.9951 42.5518 113.3794 0.0000 0.0000 0.0000
# 4 0.0000 0.0000 0.0000 -6.1994 0.0000 0.0000
# 5 0.0000 0.0000 0.0000 0.0000 32.5576 0.0000
# 6 0.0000 0.0000 0.0000 0.0000 0.0000 16.1707
#
#
#
# Elastic Compliance Matrix: (Units=1/GPa)
#
#
# Indices 1 2 3 4 5 6 
#
# 1 0.055247 -0.010315 -0.010257 0.000000 0.000000 0.000000
# 2 -0.010315 0.017260 -0.003840 0.000000 0.000000 0.000000
# 3 -0.010257 -0.003840 0.012884 0.000000 0.000000 0.000000
# 4 0.000000 0.000000 0.000000 -0.161307 0.000000 0.000000
# 5 0.000000 0.000000 0.000000 0.000000 0.030715 0.000000
# 6 0.000000 0.000000 0.000000 0.000000 0.000000 0.061840
#
#
# Mechanical properties :
#
#
# Convention : Reuss Voigt Hill
#
# Bulk Modulus (GPa) = 27.34734 45.72941 36.53838
# Shear Modulus (GPa) = 64.38899 17.02234 40.70567
#
# Velocity S-wave (km/s) = 5.76871 2.96608 4.58670
# Velocity P-wave (km/s) = 7.64882 5.94679 6.85087
#
# Compressibility (1/GPa) = 0.03656663
#
# Stress axis : x y z
#
# Youngs Moduli (GPa) = 18.10041 57.93825 77.61471
#
# Poissons Ratio (x) = 0.59765 0.79612
# Poissons Ratio (y) = 0.18671 0.29801
# Poissons Ratio (z) = 0.18566 0.22246
#
# Static dielectric constant tensor:
#      x y z
#    x 1.653530 0.000000 0.000000 
#    y 0.000000 1.683600 0.000000 
#    z 0.000000 0.000000 1.685690 
# 
# From -- ./inp_files/31898.got.cif
#   From: 2010.05.17/outbox.cif.g08.bks.cpg/sg51_16_cif.got.tgz:31898.got - 2010.06.03 11:52:47.
