data_PCOD9402017
_publ_section_title
;
Structure prediction by ZEFSAII (Michael W. Deem and Ramdas Pophale) SiO2 
 PCOD9402017
Probable space group: P M M A
;
_chemical_formula_sum "Si O2"
_cell_formula_units_Z 64
_cell_length_a 26.542930
_cell_length_b 7.485861
_cell_length_c 14.780328
_cell_angle_alpha 90.000000
_cell_angle_beta 90.000000
_cell_angle_gamma 90.000000
_cell_volume 2936.802170
_symmetry_space_group_name_H-M "P M M A"
_symmetry_group_IT_number 51
_symmetry_cell_setting 'orthorhombic'
loop_
_space_group_symop_operation_xyz
x,y,z
1/2-x,-y,z
1/2+x,-y,-z
-x,y,-z
-x,-y,-z
1/2+x,y,-z
1/2-x,y,z
x,-y,z
loop_
_atom_site_type_symbol
_atom_site_label
_atom_site_fract_x
_atom_site_fract_y
_atom_site_fract_z
Si Si1 0.976311 0.785793 0.093476
Si Si2 0.693795 0.711176 0.271449
Si Si3 0.862298 0.784027 0.088088
Si Si4 0.806842 0.711578 0.703516
Si Si5 0.192247 0.215189 0.091722
Si Si6 0.900921 0.281011 0.590563
Si Si7 0.597538 0.718743 0.381690
Si Si8 0.494622 0.713018 0.289718
O O1 0.919060 0.719235 0.106057
O O2 0.008219 0.747080 0.182976
O O3 0.973350 0.000000 0.085851
O O4 0.000000 0.718175 0.000000
O O5 0.750000 0.785899 0.283681
O O6 0.696774 0.500000 0.290422
O O7 0.674970 0.731843 0.168583
O O8 0.648980 0.782349 0.334674
O O9 0.863308 0.000000 0.086657
O O10 0.842073 0.721957 0.990784
O O11 0.750000 0.786040 0.695649
O O12 0.803233 0.500000 0.687067
O O13 0.824132 0.734656 0.807345
O O14 0.848758 0.781427 0.635266
O O15 0.250000 0.277868 0.080080
O O16 0.192910 0.000000 0.088160
O O17 0.900812 0.500000 0.592266
O O18 0.905839 0.228720 0.486296
O O19 0.947796 0.219896 0.651624
O O20 0.597814 0.500000 0.378595
O O21 0.548238 0.780493 0.327193
O O22 0.495311 0.500000 0.302143
#
# Coordination Sequence:
#
# PCOD9402017 Si02
#       8
#     8   8   8   8   8   8   8   8
#     4  10  22  37  53  77 108 139 169 209 263 314
#     4  10  20  33  52  80 109 137 173 217 262 305
#     4  10  20  35  54  74 101 138 176 210 253 314
#     4   9  18  32  49  73 104 132 162 207 257 300
#     4   9  18  32  50  71  95 128 169 205 241 295
#     4   9  18  31  52  79 102 132 173 211 253 308
#     4   9  17  32  52  76 105 134 167 212 259 301
#     4  10  19  34  56  79 102 133 174 215 253 302
#
# _framework density 21.792411999999999
#
# number of rings (size 3 to 8) (size 9 to 14) (size 15 to 20)
#    0.000    2.500    1.250    0.750    1.750    3.500 
#    0.000    3.750    0.000    3.750    0.000    1.750 
#    0.000    0.000    0.000    0.000    0.000    0.000 
#
# Total GULP energy -357505.494700 kJ/mol
# GULP energy per Si atom -5586.023355 kJ/mol
# Density = 2.174281 g / cm^3
# Si number density = 21.792412 Si / 1000 Ang^3
#
#
#
# Elastic Constant Matrix: (Units=GPa)
#
#
# Indices 1 2 3 4 5 6 
#
# 1 125.3958 7.1225 82.8868 0.0000 0.0000 0.0000
# 2 7.1225 60.9414 -6.9807 0.0000 0.0000 0.0000
# 3 82.8868 -6.9807 163.5773 0.0000 0.0000 0.0000
# 4 0.0000 0.0000 0.0000 -25.9507 0.0000 0.0000
# 5 0.0000 0.0000 0.0000 0.0000 -49.8866 0.0000
# 6 0.0000 0.0000 0.0000 0.0000 0.0000 3.3967
#
#
#
# Elastic Compliance Matrix: (Units=1/GPa)
#
#
# Indices 1 2 3 4 5 6 
#
# 1 0.012267 -0.002156 -0.006308 0.000000 0.000000 0.000000
# 2 -0.002156 0.016869 0.001812 0.000000 0.000000 0.000000
# 3 -0.006308 0.001812 0.009387 0.000000 0.000000 0.000000
# 4 0.000000 0.000000 0.000000 -0.038535 0.000000 0.000000
# 5 0.000000 0.000000 0.000000 0.000000 -0.020045 0.000000
# 6 0.000000 0.000000 0.000000 0.000000 0.000000 0.294406
#
#
# Mechanical properties :
#
#
# Convention : Reuss Voigt Hill
#
# Bulk Modulus (GPa) = 39.65192 57.33019 48.49106
# Shear Modulus (GPa) = 16.88859 3.30427 10.09643
#
# Velocity S-wave (km/s) = 2.78686 1.23270 2.15478
# Velocity P-wave (km/s) = 5.34698 5.32828 5.33764
#
# Compressibility (1/GPa) = 0.02521946
#
# Stress axis : x y z
#
# Youngs Moduli (GPa) = 81.52226 59.28098 106.53214
#
# Poissons Ratio (x) = 0.12782 0.67197
# Poissons Ratio (y) = 0.17578 -0.19308
# Poissons Ratio (z) = 0.51421 -0.10744
#
# Static dielectric constant tensor:
#      x y z
#    x 1.788080 0.000000 0.000000 
#    y 0.000000 1.827630 0.000000 
#    z 0.000000 0.000000 1.741240 
# 
# From -- ./inp_files/18881.got.cif
#   From: 2010.05.17/outbox.cif.g08.bks.cpg/sg51_10_cif.got.tgz:18881.got - 2010.06.03 11:52:47.
