data_PCOD9402885
_publ_section_title
;
Structure prediction by ZEFSAII (Michael W. Deem and Ramdas Pophale) SiO2 
 PCOD9402885
Probable space group: P M M A
;
_chemical_formula_sum "Si O2"
_cell_formula_units_Z 48
_cell_length_a 9.436917
_cell_length_b 7.523776
_cell_length_c 32.365198
_cell_angle_alpha 90.000000
_cell_angle_beta 90.000000
_cell_angle_gamma 90.000000
_cell_volume 2297.969503
_symmetry_space_group_name_H-M "P M M A"
_symmetry_group_IT_number 51
_symmetry_cell_setting 'orthorhombic'
loop_
_space_group_symop_operation_xyz
x,y,z
1/2-x,-y,z
1/2+x,-y,-z
-x,y,-z
-x,-y,-z
1/2+x,y,-z
1/2-x,y,z
x,-y,z
loop_
_atom_site_type_symbol
_atom_site_label
_atom_site_fract_x
_atom_site_fract_y
_atom_site_fract_z
Si Si1 0.585597 0.217937 0.700304
Si Si2 0.577474 0.794024 0.790591
Si Si3 0.589206 0.786389 0.378905
Si Si4 0.589078 0.287222 0.539047
Si Si5 0.588079 0.214340 0.880188
Si Si6 0.909555 0.712311 0.038554
O O1 0.750000 0.269049 0.693729
O O2 0.537481 0.281036 0.745849
O O3 0.488135 0.277642 0.662673
O O4 0.584304 0.000000 0.701329
O O5 0.750000 0.793297 0.790844
O O6 0.536665 0.717641 0.835226
O O7 0.530865 0.000000 0.790297
O O8 0.750000 0.719579 0.383207
O O9 0.495094 0.746040 0.418828
O O10 0.596091 0.000000 0.375683
O O11 0.500000 0.217606 0.500000
O O12 0.750000 0.217834 0.540456
O O13 0.598573 0.500000 0.534164
O O14 0.750000 0.276277 0.887487
O O15 0.489429 0.257854 0.918463
O O16 0.594007 0.000000 0.876851
O O17 0.750000 0.783754 0.039120
O O18 0.899953 0.500000 0.033013
O O19 0.000000 0.783485 0.000000
#
# Coordination Sequence:
#
# PCOD9402885 Si02
#       6
#     8   8   8   8   8   8
#     4   8  13  24  44  68  95 128 163 198 235 275
#     4   7  11  22  42  68  96 125 157 192 231 277
#     4  10  20  32  48  74 105 133 162 198 240 284
#     4  10  21  37  56  75  95 124 162 201 243 292
#     4   9  17  30  50  76 102 126 155 194 239 285
#     4  10  21  36  52  69  91 123 162 200 239 286
#
# _framework density 20.888006000000001
#
# number of rings (size 3 to 8) (size 9 to 14) (size 15 to 20)
#    0.000    3.000    0.000    3.500    0.000    4.000 
#    0.000    0.833    0.000    4.000    0.000    2.333 
#    0.000    0.000    0.000    0.000    0.000    0.000 
#
# Total GULP energy -267737.091430 kJ/mol
# GULP energy per Si atom -5577.856071 kJ/mol
# Density = 2.084046 g / cm^3
# Si number density = 20.888006 Si / 1000 Ang^3
#
#
#
# Elastic Constant Matrix: (Units=GPa)
#
#
# Indices 1 2 3 4 5 6 
#
# 1 163.6323 7.6546 131.0026 0.0000 0.0000 0.0000
# 2 7.6546 53.8689 1.9819 0.0000 0.0000 0.0000
# 3 131.0026 1.9819 246.4028 0.0000 0.0000 0.0000
# 4 0.0000 0.0000 0.0000 35.8692 0.0000 0.0000
# 5 0.0000 0.0000 0.0000 0.0000 33.0837 0.0000
# 6 0.0000 0.0000 0.0000 0.0000 0.0000 11.5694
#
#
#
# Elastic Compliance Matrix: (Units=1/GPa)
#
#
# Indices 1 2 3 4 5 6 
#
# 1 0.010733 -0.001316 -0.005695 0.000000 0.000000 0.000000
# 2 -0.001316 0.018730 0.000549 0.000000 0.000000 0.000000
# 3 -0.005695 0.000549 0.007082 0.000000 0.000000 0.000000
# 4 0.000000 0.000000 0.000000 0.027879 0.000000 0.000000
# 5 0.000000 0.000000 0.000000 0.000000 0.030226 0.000000
# 6 0.000000 0.000000 0.000000 0.000000 0.000000 0.086435
#
#
# Mechanical properties :
#
#
# Convention : Reuss Voigt Hill
#
# Bulk Modulus (GPa) = 42.33623 82.79801 62.56712
# Shear Modulus (GPa) = 24.76679 37.65546 31.21112
#
# Velocity S-wave (km/s) = 3.44713 4.25046 3.86970
# Velocity P-wave (km/s) = 6.01297 7.98835 7.06999
#
# Compressibility (1/GPa) = 0.02362043
#
# Stress axis : x y z
#
# Youngs Moduli (GPa) = 93.17439 53.38930 141.20207
#
# Poissons Ratio (x) = 0.07023 0.80422
# Poissons Ratio (y) = 0.12257 -0.07749
# Poissons Ratio (z) = 0.53067 -0.02930
#
# Static dielectric constant tensor:
#      x y z
#    x 1.720320 0.000000 0.000000 
#    y 0.000000 1.812050 0.000000 
#    z 0.000000 0.000000 1.749280 
# 
# From -- ./inp_files/36926.got.cif
#   From: 2010.05.17/outbox.cif.g08.bks.cpg/sg51_19_cif.got.tgz:36926.got - 2010.06.03 11:52:47.
