data_PCOD9402863
_publ_section_title
;
Structure prediction by ZEFSAII (Michael W. Deem and Ramdas Pophale) SiO2 
 PCOD9402863
Probable space group: P M M A
;
_chemical_formula_sum "Si O2"
_cell_formula_units_Z 48
_cell_length_a 14.948398
_cell_length_b 9.739647
_cell_length_c 15.827460
_cell_angle_alpha 90.000000
_cell_angle_beta 90.000000
_cell_angle_gamma 90.000000
_cell_volume 2304.353451
_symmetry_space_group_name_H-M "P M M A"
_symmetry_group_IT_number 51
_symmetry_cell_setting 'orthorhombic'
loop_
_space_group_symop_operation_xyz
x,y,z
1/2-x,-y,z
1/2+x,-y,-z
-x,y,-z
-x,-y,-z
1/2+x,y,-z
1/2-x,y,z
x,-y,z
loop_
_atom_site_type_symbol
_atom_site_label
_atom_site_fract_x
_atom_site_fract_y
_atom_site_fract_z
Si Si1 0.140867 0.158708 0.044993
Si Si2 0.357885 0.158237 0.233839
Si Si3 0.140064 0.342135 0.887167
Si Si4 0.383006 0.343058 0.579022
Si Si5 0.853632 0.846193 0.264377
Si Si6 0.095658 0.344973 0.391164
O O1 0.250000 0.158322 0.044186
O O2 0.112599 0.201034 0.139512
O O3 0.113701 0.000000 0.029709
O O4 0.112226 0.260679 0.971222
O O5 0.250000 0.162172 0.233211
O O6 0.388237 0.248237 0.312226
O O7 0.384915 0.000000 0.245377
O O8 0.250000 0.345596 0.886058
O O9 0.110227 0.500000 0.884750
O O10 0.107337 0.255395 0.806235
O O11 0.351377 0.500000 0.595283
O O12 0.353288 0.231362 0.646459
O O13 0.489926 0.348110 0.590862
O O14 0.362203 0.305606 0.481896
O O15 0.750000 0.861839 0.239597
O O16 0.892822 0.000000 0.267556
O O17 0.125698 0.500000 0.371650
#
# Coordination Sequence:
#
# PCOD9402863 Si02
#       6
#     8   8   8   8   8   8
#     4   8  14  26  43  64  94 129 159 189 229 277
#     4   9  18  31  48  73 103 131 159 195 239 284
#     4   9  16  26  43  68  96 126 159 194 233 278
#     4   9  19  36  53  69  93 126 163 200 241 289
#     4  10  20  32  48  73 101 127 158 197 240 285
#     4   9  19  35  53  71  93 125 163 201 241 287
#
# _framework density 20.830138000000002
#
# number of rings (size 3 to 8) (size 9 to 14) (size 15 to 20)
#    0.000    3.000    0.000    3.000    0.000    6.000 
#    0.000    6.667    0.000    1.000    0.000    7.000 
#    0.000    0.000    0.000    0.000    0.000    0.000 
#
# Total GULP energy -267781.269713 kJ/mol
# GULP energy per Si atom -5578.776452 kJ/mol
# Density = 2.078273 g / cm^3
# Si number density = 20.830138 Si / 1000 Ang^3
#
#
#
# Elastic Constant Matrix: (Units=GPa)
#
#
# Indices 1 2 3 4 5 6 
#
# 1 37.4362 3.8444 2.0287 0.0000 0.0000 0.0000
# 2 3.8444 162.0549 133.0657 0.0000 0.0000 0.0000
# 3 2.0287 133.0657 182.4611 0.0000 0.0000 0.0000
# 4 0.0000 0.0000 0.0000 32.5904 0.0000 0.0000
# 5 0.0000 0.0000 0.0000 0.0000 37.6520 0.0000
# 6 0.0000 0.0000 0.0000 0.0000 0.0000 20.3963
#
#
#
# Elastic Compliance Matrix: (Units=1/GPa)
#
#
# Indices 1 2 3 4 5 6 
#
# 1 0.026790 -0.000975 0.000413 0.000000 0.000000 0.000000
# 2 -0.000975 0.015417 -0.011233 0.000000 0.000000 0.000000
# 3 0.000413 -0.011233 0.013668 0.000000 0.000000 0.000000
# 4 0.000000 0.000000 0.000000 0.030684 0.000000 0.000000
# 5 0.000000 0.000000 0.000000 0.000000 0.026559 0.000000
# 6 0.000000 0.000000 0.000000 0.000000 0.000000 0.049029
#
#
# Mechanical properties :
#
#
# Convention : Reuss Voigt Hill
#
# Bulk Modulus (GPa) = 30.97303 73.31443 52.14373
# Shear Modulus (GPa) = 25.44570 34.32862 29.88716
#
# Velocity S-wave (km/s) = 3.49890 4.06399 3.79199
# Velocity P-wave (km/s) = 5.58791 7.56929 6.65278
#
# Compressibility (1/GPa) = 0.03228616
#
# Stress axis : x y z
#
# Youngs Moduli (GPa) = 37.32758 64.86296 73.16484
#
# Poissons Ratio (x) = 0.06321 -0.03020
# Poissons Ratio (y) = 0.03638 0.82183
# Poissons Ratio (z) = -0.01541 0.72858
#
# Static dielectric constant tensor:
#      x y z
#    x 1.814270 0.000000 0.000000 
#    y 0.000000 1.716330 0.000000 
#    z 0.000000 0.000000 1.733500 
# 
# From -- ./inp_files/24719.got.cif
#   From: 2010.05.17/outbox.cif.g08.bks.cpg/sg51_13_cif.got.tgz:24719.got - 2010.06.03 11:52:47.
