data_PCOD9402828
_publ_section_title
;
Structure prediction by ZEFSAII (Michael W. Deem and Ramdas Pophale) SiO2 
 PCOD9402828
Probable space group: P M M A
;
_chemical_formula_sum "Si O2"
_cell_formula_units_Z 64
_cell_length_a 9.080349
_cell_length_b 30.249813
_cell_length_c 15.101495
_cell_angle_alpha 90.000000
_cell_angle_beta 90.000000
_cell_angle_gamma 90.000000
_cell_volume 4148.061419
_symmetry_space_group_name_H-M "P M M A"
_symmetry_group_IT_number 51
_symmetry_cell_setting 'orthorhombic'
loop_
_space_group_symop_operation_xyz
x,y,z
1/2-x,-y,z
1/2+x,-y,-z
-x,y,-z
-x,-y,-z
1/2+x,y,-z
1/2-x,y,z
x,-y,z
loop_
_atom_site_type_symbol
_atom_site_label
_atom_site_fract_x
_atom_site_fract_y
_atom_site_fract_z
Si Si1 0.424864 0.234985 0.597902
Si Si2 0.426207 0.951266 0.402173
Si Si3 0.924790 0.865731 0.403417
Si Si4 0.919159 0.698462 0.732116
Si Si5 0.571655 0.647079 0.908193
Si Si6 0.921926 0.450621 0.344317
Si Si7 0.072535 0.548986 0.152442
Si Si8 0.915975 0.370394 0.576947
O O1 0.500000 0.239690 0.500000
O O2 0.250000 0.242617 0.586418
O O3 0.446459 0.184124 0.630264
O O4 0.489384 0.266423 0.674532
O O5 0.500000 0.953126 0.500000
O O6 0.250000 0.945720 0.410291
O O7 0.498304 0.907991 0.357828
O O8 0.453689 0.000000 0.361653
O O9 0.750000 0.873634 0.410714
O O10 0.000000 0.863944 0.500000
O O11 0.750000 0.714379 0.742689
O O12 0.972546 0.678924 0.826167
O O13 0.914376 0.656130 0.667674
O O14 0.750000 0.648070 0.912194
O O15 0.527785 0.595341 0.892500
O O16 0.500000 0.661621 0.000000
O O17 0.750000 0.441191 0.330548
O O18 0.936329 0.500000 0.380919
O O19 0.004052 0.449610 0.250198
O O20 0.995384 0.414611 0.405339
O O21 0.250000 0.549790 0.158243
O O22 0.031197 0.500000 0.114452
O O23 0.750000 0.379137 0.549170
O O24 0.000000 0.344295 0.500000
#
# Coordination Sequence:
#
# PCOD9402828 Si02
#       8
#     8   8   8   8   8   8   8   8
#     4  10  20  32  48  70  93 121 157 195 238 279
#     4   9  15  21  31  49  74 107 148 191 233 273
#     4   9  16  25  37  55  80 110 148 191 231 274
#     4  10  21  37  53  70  93 118 149 186 225 269
#     4  10  21  37  54  77  99 120 148 178 218 268
#     4  10  20  33  50  72  94 117 147 178 211 254
#     4   9  17  33  55  74  96 123 146 173 212 257
#     4  11  22  36  52  71  93 119 149 182 218 261
#
# _framework density 15.428894
#
# number of rings (size 3 to 8) (size 9 to 14) (size 15 to 20)
#    0.000    2.250    1.250    3.000    0.000    6.500 
#    0.000    0.000    0.000    0.000    0.000    0.000 
#    0.000    0.000    0.000    0.000    0.000    0.625 
#
# Total GULP energy -356339.411228 kJ/mol
# GULP energy per Si atom -5567.803300 kJ/mol
# Density = 1.539378 g / cm^3
# Si number density = 15.428894 Si / 1000 Ang^3
#
#
#
# Elastic Constant Matrix: (Units=GPa)
#
#
# Indices 1 2 3 4 5 6 
#
# 1 42.0835 46.8284 24.3946 0.0000 0.0000 0.0000
# 2 46.8284 106.8745 38.9928 0.0000 0.0000 0.0000
# 3 24.3946 38.9928 75.6677 0.0000 0.0000 0.0000
# 4 0.0000 0.0000 0.0000 0.3556 0.0000 0.0000
# 5 0.0000 0.0000 0.0000 0.0000 17.8537 0.0000
# 6 0.0000 0.0000 0.0000 0.0000 0.0000 16.3890
#
#
#
# Elastic Compliance Matrix: (Units=1/GPa)
#
#
# Indices 1 2 3 4 5 6 
#
# 1 0.048320 -0.019075 -0.005748 0.000000 0.000000 0.000000
# 2 -0.019075 0.019053 -0.003669 0.000000 0.000000 0.000000
# 3 -0.005748 -0.003669 0.016960 0.000000 0.000000 0.000000
# 4 0.000000 0.000000 0.000000 2.812285 0.000000 0.000000
# 5 0.000000 0.000000 0.000000 0.000000 0.056011 0.000000
# 6 0.000000 0.000000 0.000000 0.000000 0.000000 0.061016
#
#
# Mechanical properties :
#
#
# Convention : Reuss Voigt Hill
#
# Bulk Modulus (GPa) = 36.56495 49.45083 43.00789
# Shear Modulus (GPa) = 1.62351 14.54699 8.08525
#
# Velocity S-wave (km/s) = 1.02691 3.07390 2.29166
# Velocity P-wave (km/s) = 5.01563 6.68722 5.91081
#
# Compressibility (1/GPa) = 0.02734860
#
# Stress axis : x y z
#
# Youngs Moduli (GPa) = 20.69544 52.48476 58.96376
#
# Poissons Ratio (x) = 1.00113 0.33895
# Poissons Ratio (y) = 0.39476 0.21633
# Poissons Ratio (z) = 0.11897 0.19256
#
# Static dielectric constant tensor:
#      x y z
#    x 1.521500 0.000000 0.000000 
#    y 0.000000 1.580970 0.000000 
#    z 0.000000 0.000000 1.490220 
# 
# From -- ./inp_files/22578.got.cif
#   From: 2010.05.17/outbox.cif.g08.bks.cpg/sg51_12_cif.got.tgz:22578.got - 2010.06.03 11:52:47.
