data_PCOD9402366
_publ_section_title
;
Structure prediction by ZEFSAII (Michael W. Deem and Ramdas Pophale) SiO2 
 PCOD9402366
Probable space group: P M M A
;
_chemical_formula_sum "Si O2"
_cell_formula_units_Z 64
_cell_length_a 32.376716
_cell_length_b 7.758819
_cell_length_c 11.138565
_cell_angle_alpha 90.000000
_cell_angle_beta 90.000000
_cell_angle_gamma 90.000000
_cell_volume 2798.064104
_symmetry_space_group_name_H-M "P M M A"
_symmetry_group_IT_number 51
_symmetry_cell_setting 'orthorhombic'
loop_
_space_group_symop_operation_xyz
x,y,z
1/2-x,-y,z
1/2+x,-y,-z
-x,y,-z
-x,-y,-z
1/2+x,y,-z
1/2-x,y,z
x,-y,z
loop_
_atom_site_type_symbol
_atom_site_label
_atom_site_fract_x
_atom_site_fract_y
_atom_site_fract_z
Si Si1 0.991759 0.199409 0.748660
Si Si2 0.201852 0.208950 0.967267
Si Si3 0.330474 0.196223 0.712247
Si Si4 0.350517 0.798515 0.195001
Si Si5 0.933098 0.706147 0.933033
Si Si6 0.859634 0.206867 0.534346
Si Si7 0.045387 0.306704 0.474120
Si Si8 0.918208 0.294297 0.206188
O O1 0.977150 0.237522 0.882723
O O2 0.960671 0.309812 0.669133
O O3 0.039116 0.249646 0.728509
O O4 0.985433 0.000000 0.723108
O O5 0.250000 0.241297 0.986693
O O6 0.189326 0.274630 0.833711
O O7 0.195133 0.000000 0.962534
O O8 0.176060 0.274745 0.082621
O O9 0.331741 0.273749 0.577339
O O10 0.378956 0.197283 0.743755
O O11 0.314356 0.000000 0.702549
O O12 0.397380 0.785231 0.149450
O O13 0.348506 0.727255 0.331515
O O14 0.338789 0.000000 0.204777
O O15 0.930419 0.500000 0.930161
O O16 0.924537 0.760029 0.068847
O O17 0.908503 0.237841 0.507703
O O18 0.854731 0.000000 0.535630
O O19 0.044207 0.500000 0.523574
O O20 0.000000 0.220603 0.500000
O O21 0.911077 0.500000 0.211900
#
# Coordination Sequence:
#
# PCOD9402366 Si02
#       8
#     8   8   8   8   8   8   8   8
#     4  12  24  36  53  78 111 153 201 248 295 344
#     4   9  18  35  62  92 120 152 191 237 290 355
#     4  10  20  36  58  85 117 152 195 239 292 351
#     4  10  19  35  59  85 115 152 196 239 292 352
#     4  11  22  36  55  80 112 148 194 248 298 345
#     4  10  21  35  54  83 115 152 197 248 294 342
#     4  11  23  37  53  75 108 154 205 251 297 346
#     4  11  23  37  54  80 115 152 197 248 297 346
#
# _framework density 22.872957
#
# number of rings (size 3 to 8) (size 9 to 14) (size 15 to 20)
#    0.000    1.500    2.500    3.375    0.000    6.500 
#    0.000    0.625    0.000    5.250    0.000    0.000 
#    0.000    3.000    0.000    0.000    0.000    0.000 
#
# Total GULP energy -357157.528485 kJ/mol
# GULP energy per Si atom -5580.586383 kJ/mol
# Density = 2.282090 g / cm^3
# Si number density = 22.872957 Si / 1000 Ang^3
#
#
#
# Elastic Constant Matrix: (Units=GPa)
#
#
# Indices 1 2 3 4 5 6 
#
# 1 67.4487 -10.5949 45.0715 0.0000 0.0000 0.0000
# 2 -10.5949 55.8048 10.3298 0.0000 0.0000 0.0000
# 3 45.0715 10.3298 149.0706 0.0000 0.0000 0.0000
# 4 0.0000 0.0000 0.0000 12.1622 0.0000 0.0000
# 5 0.0000 0.0000 0.0000 0.0000 28.2949 0.0000
# 6 0.0000 0.0000 0.0000 0.0000 0.0000 329.3322
#
#
#
# Elastic Compliance Matrix: (Units=1/GPa)
#
#
# Indices 1 2 3 4 5 6 
#
# 1 0.019839 0.004940 -0.006341 0.000000 0.000000 0.000000
# 2 0.004940 0.019383 -0.002837 0.000000 0.000000 0.000000
# 3 -0.006341 -0.002837 0.008822 0.000000 0.000000 0.000000
# 4 0.000000 0.000000 0.000000 0.082222 0.000000 0.000000
# 5 0.000000 0.000000 0.000000 0.000000 0.035342 0.000000
# 6 0.000000 0.000000 0.000000 0.000000 0.000000 0.003036
#
#
# Mechanical properties :
#
#
# Convention : Reuss Voigt Hill
#
# Bulk Modulus (GPa) = 25.27210 40.21519 32.74365
# Shear Modulus (GPa) = 26.27315 89.12569 57.69942
#
# Velocity S-wave (km/s) = 3.39286 6.24901 5.02800
# Velocity P-wave (km/s) = 5.14019 8.34787 6.93212
#
# Compressibility (1/GPa) = 0.03956933
#
# Stress axis : x y z
#
# Youngs Moduli (GPa) = 50.40528 51.59248 113.35398
#
# Poissons Ratio (x) = -0.25488 0.71875
# Poissons Ratio (y) = -0.24902 0.32156
# Poissons Ratio (z) = 0.31961 0.14636
#
# Static dielectric constant tensor:
#      x y z
#    x 1.796440 0.000000 0.000000 
#    y 0.000000 1.843890 0.000000 
#    z 0.000000 0.000000 2.028870 
# 
# From -- ./inp_files/19589.got.cif
#   From: 2010.05.17/outbox.cif.g08.bks.cpg/sg51_10_cif.got.tgz:19589.got - 2010.06.03 11:52:47.
