data_PCOD9402824
_publ_section_title
;
Structure prediction by ZEFSAII (Michael W. Deem and Ramdas Pophale) SiO2 
 PCOD9402824
Probable space group: P M M A
;
_chemical_formula_sum "Si O2"
_cell_formula_units_Z 52
_cell_length_a 7.354459
_cell_length_b 7.999512
_cell_length_c 38.209577
_cell_angle_alpha 90.000000
_cell_angle_beta 90.000000
_cell_angle_gamma 90.000000
_cell_volume 2247.949006
_symmetry_space_group_name_H-M "P M M A"
_symmetry_group_IT_number 51
_symmetry_cell_setting 'orthorhombic'
loop_
_space_group_symop_operation_xyz
x,y,z
1/2-x,-y,z
1/2+x,-y,-z
-x,y,-z
-x,-y,-z
1/2+x,y,-z
1/2-x,y,z
x,-y,z
loop_
_atom_site_type_symbol
_atom_site_label
_atom_site_fract_x
_atom_site_fract_y
_atom_site_fract_z
Si Si1 0.458328 0.301526 0.686578
Si Si2 0.957674 0.700628 0.164977
Si Si3 0.527265 0.306977 0.088006
Si Si4 0.032473 0.807906 0.537828
Si Si5 0.966628 0.000000 0.041184
Si Si6 0.541642 0.198470 0.239143
Si Si7 0.039907 0.798664 0.612285
O O1 0.250000 0.230870 0.687194
O O2 0.449942 0.500000 0.685576
O O3 0.541166 0.252269 0.723859
O O4 0.542491 0.245043 0.649809
O O5 0.750000 0.767932 0.165876
O O6 0.950597 0.500000 0.164066
O O7 0.033599 0.747663 0.127052
O O8 0.042095 0.749374 0.202067
O O9 0.750000 0.309760 0.088889
O O10 0.471884 0.500000 0.081272
O O11 0.467302 0.169539 0.059993
O O12 0.250000 0.816557 0.541597
O O13 0.964718 0.736182 0.574908
O O14 0.000000 0.726637 0.500000
O O15 0.962356 0.000000 0.535370
O O16 0.750000 0.000000 0.046410
O O17 0.000000 0.000000 0.000000
O O18 0.750000 0.269239 0.239078
O O19 0.549931 0.000000 0.239344
O O20 0.250000 0.738325 0.614258
O O21 0.040959 0.000000 0.609598
#
# Coordination Sequence:
#
# PCOD9402824 Si02
#       7
#     8   8   8   8   4   8   8
#     4   9  15  21  28  39  59  88 121 154 185 221
#     4   8  13  21  32  47  69  98 132 168 203 240
#     4   8  15  27  42  60  83 112 146 183 221 263
#     4   8  13  21  34  52  71  91 117 151 189 227
#     4  10  20  32  48  68  90 118 152 188 226 268
#     4   9  15  19  26  42  64  92 126 161 193 227
#     4   8  13  21  32  44  60  84 115 148 180 218
#
# _framework density 23.132194999999999
#
# number of rings (size 3 to 8) (size 9 to 14) (size 15 to 20)
#    0.000    3.538    0.000    2.769    1.077    4.000 
#    0.000    0.000    0.000    0.462    0.000    0.000 
#    0.000    0.000    0.000    1.385    2.462    7.692 
#
# Total GULP energy -289719.970517 kJ/mol
# GULP energy per Si atom -5571.537895 kJ/mol
# Density = 2.307955 g / cm^3
# Si number density = 23.132195 Si / 1000 Ang^3
#
#
#
# Elastic Constant Matrix: (Units=GPa)
#
#
# Indices 1 2 3 4 5 6 
#
# 1 84.7411 2.8332 12.8863 0.0000 0.0000 0.0000
# 2 2.8332 60.0261 77.9409 0.0000 0.0000 0.0000
# 3 12.8863 77.9409 303.6035 0.0000 0.0000 0.0000
# 4 0.0000 0.0000 0.0000 212.1005 0.0000 0.0000
# 5 0.0000 0.0000 0.0000 0.0000 -6.9183 0.0000
# 6 0.0000 0.0000 0.0000 0.0000 0.0000 -34.2776
#
#
#
# Elastic Compliance Matrix: (Units=1/GPa)
#
#
# Indices 1 2 3 4 5 6 
#
# 1 0.011878 0.000141 -0.000540 0.000000 0.000000 0.000000
# 2 0.000141 0.024991 -0.006422 0.000000 0.000000 0.000000
# 3 -0.000540 -0.006422 0.004965 0.000000 0.000000 0.000000
# 4 0.000000 0.000000 0.000000 0.004715 0.000000 0.000000
# 5 0.000000 0.000000 0.000000 0.000000 -0.144544 0.000000
# 6 0.000000 0.000000 0.000000 0.000000 0.000000 -0.029174
#
#
# Mechanical properties :
#
#
# Convention : Reuss Voigt Hill
#
# Bulk Modulus (GPa) = 35.47070 70.63238 53.05154
# Shear Modulus (GPa) = -48.01741 57.82828 4.90544
#
# Velocity S-wave (km/s) = -4.56102 5.00533 1.45781
# Velocity P-wave (km/s) = 3.51710 8.00031 5.08109
#
# Compressibility (1/GPa) = 0.02819228
#
# Stress axis : x y z
#
# Youngs Moduli (GPa) = 84.18848 40.01451 201.39923
#
# Poissons Ratio (x) = -0.00564 0.10883
# Poissons Ratio (y) = -0.01187 1.29331
# Poissons Ratio (z) = 0.04549 0.25696
#
# Static dielectric constant tensor:
#      x y z
#    x 2.475090 0.000000 0.000000 
#    y 0.000000 1.818430 0.000000 
#    z 0.000000 0.000000 1.930810 
# 
# From -- ./inp_files/37699.got.cif
#   From: 2010.05.17/outbox.cif.g08.bks.cpg/sg51_19_cif.got.tgz:37699.got - 2010.06.03 11:52:47.
