data_PCOD9402627
_publ_section_title
;
Structure prediction by ZEFSAII (Michael W. Deem and Ramdas Pophale) SiO2 
 PCOD9402627
Probable space group: P M M A
;
_chemical_formula_sum "Si O2"
_cell_formula_units_Z 48
_cell_length_a 9.201936
_cell_length_b 7.851748
_cell_length_c 35.949718
_cell_angle_alpha 90.000000
_cell_angle_beta 90.000000
_cell_angle_gamma 90.000000
_cell_volume 2597.413234
_symmetry_space_group_name_H-M "P M M A"
_symmetry_group_IT_number 51
_symmetry_cell_setting 'orthorhombic'
loop_
_space_group_symop_operation_xyz
x,y,z
1/2-x,-y,z
1/2+x,-y,-z
-x,y,-z
-x,-y,-z
1/2+x,y,-z
1/2-x,y,z
x,-y,z
loop_
_atom_site_type_symbol
_atom_site_label
_atom_site_fract_x
_atom_site_fract_y
_atom_site_fract_z
Si Si1 0.924256 0.696167 0.539261
Si Si2 0.074838 0.000000 0.405441
Si Si3 0.572584 0.303391 0.270788
Si Si4 0.915796 0.202423 0.109482
Si Si5 0.425778 0.000000 0.674370
Si Si6 0.084047 0.295422 0.810533
Si Si7 0.413193 0.296090 0.035738
O O1 0.750000 0.706350 0.534349
O O2 0.960509 0.500000 0.549288
O O3 0.000000 0.735137 0.500000
O O4 0.965216 0.833117 0.570435
O O5 0.250000 0.000000 0.400782
O O6 0.997916 0.000000 0.365832
O O7 0.750000 0.304455 0.268822
O O8 0.528214 0.500000 0.277838
O O9 0.531640 0.167869 0.302040
O O10 0.520891 0.245789 0.229567
O O11 0.750000 0.272604 0.107929
O O12 0.982293 0.247319 0.149837
O O13 0.005023 0.264272 0.074248
O O14 0.907746 0.000000 0.107342
O O15 0.250000 0.000000 0.671074
O O16 0.250000 0.226770 0.811908
O O17 0.091247 0.500000 0.809091
O O18 0.250000 0.226817 0.036794
O O19 0.404028 0.500000 0.031248
O O20 0.500000 0.228152 0.000000
#
# Coordination Sequence:
#
# PCOD9402627 Si02
#       7
#     8   4   8   8   4   8   8
#     4   9  18  33  53  76 101 132 170 212 258 306
#     4  10  21  35  49  70 104 140 170 205 255 312
#     4   8  15  28  46  71 101 130 163 209 262 303
#     4  10  20  31  48  77 106 130 158 194 240 295
#     4  10  20  31  49  74  99 132 175 219 254 294
#     4   8  14  26  46  71  98 127 158 197 244 290
#     4  10  21  37  56  74  94 126 165 202 241 287
#
# _framework density 18.479924
#
# number of rings (size 3 to 8) (size 9 to 14) (size 15 to 20)
#    0.000    2.833    0.000    2.250    1.167    3.667 
#    0.000    0.000    0.000    1.000    0.000    2.333 
#    0.000    0.000    0.000    0.000    0.000    0.000 
#
# Total GULP energy -267487.258001 kJ/mol
# GULP energy per Si atom -5572.651208 kJ/mol
# Density = 1.843786 g / cm^3
# Si number density = 18.479924 Si / 1000 Ang^3
#
#
#
# Elastic Constant Matrix: (Units=GPa)
#
#
# Indices 1 2 3 4 5 6 
#
# 1 37.6363 27.8733 57.4666 0.0000 0.0000 0.0000
# 2 27.8733 75.0274 80.2684 0.0000 0.0000 0.0000
# 3 57.4666 80.2684 207.4269 0.0000 0.0000 0.0000
# 4 0.0000 0.0000 0.0000 23.9377 0.0000 0.0000
# 5 0.0000 0.0000 0.0000 0.0000 22.4408 0.0000
# 6 0.0000 0.0000 0.0000 0.0000 0.0000 8.6499
#
#
#
# Elastic Compliance Matrix: (Units=1/GPa)
#
#
# Indices 1 2 3 4 5 6 
#
# 1 0.047634 -0.006106 -0.010834 0.000000 0.000000 0.000000
# 2 -0.006106 0.023528 -0.007413 0.000000 0.000000 0.000000
# 3 -0.010834 -0.007413 0.010691 0.000000 0.000000 0.000000
# 4 0.000000 0.000000 0.000000 0.041775 0.000000 0.000000
# 5 0.000000 0.000000 0.000000 0.000000 0.044562 0.000000
# 6 0.000000 0.000000 0.000000 0.000000 0.000000 0.115608
#
#
# Mechanical properties :
#
#
# Convention : Reuss Voigt Hill
#
# Bulk Modulus (GPa) = 30.16804 72.36746 51.26775
# Shear Modulus (GPa) = 14.55381 21.30451 17.92916
#
# Velocity S-wave (km/s) = 2.80937 3.39904 3.11818
# Velocity P-wave (km/s) = 5.18494 7.39254 6.38488
#
# Compressibility (1/GPa) = 0.03314766
#
# Stress axis : x y z
#
# Youngs Moduli (GPa) = 20.99321 42.50340 93.53520
#
# Poissons Ratio (x) = 0.25951 1.01338
# Poissons Ratio (y) = 0.12817 0.69338
# Poissons Ratio (z) = 0.22744 0.31508
#
# Static dielectric constant tensor:
#      x y z
#    x 1.644050 0.000000 0.000000 
#    y 0.000000 1.652620 0.000000 
#    z 0.000000 0.000000 1.632440 
# 
# From -- ./inp_files/37220.got.cif
#   From: 2010.05.17/outbox.cif.g08.bks.cpg/sg51_19_cif.got.tgz:37220.got - 2010.06.03 11:52:47.
