data_PCOD9402037
_publ_section_title
;
Structure prediction by ZEFSAII (Michael W. Deem and Ramdas Pophale) SiO2 
 PCOD9402037
Probable space group: P M M A
;
_chemical_formula_sum "Si O2"
_cell_formula_units_Z 36
_cell_length_a 8.207916
_cell_length_b 24.822417
_cell_length_c 9.378139
_cell_angle_alpha 90.000000
_cell_angle_beta 90.000000
_cell_angle_gamma 90.000000
_cell_volume 1910.704981
_symmetry_space_group_name_H-M "P M M A"
_symmetry_group_IT_number 51
_symmetry_cell_setting 'orthorhombic'
loop_
_space_group_symop_operation_xyz
x,y,z
1/2-x,-y,z
1/2+x,-y,-z
-x,y,-z
-x,-y,-z
1/2+x,y,-z
1/2-x,y,z
x,-y,z
loop_
_atom_site_type_symbol
_atom_site_label
_atom_site_fract_x
_atom_site_fract_y
_atom_site_fract_z
Si Si1 0.554807 0.382739 0.835516
Si Si2 0.946496 0.500000 0.834843
Si Si3 0.947335 0.175283 0.164667
Si Si4 0.446764 0.942181 0.834254
Si Si5 0.055808 0.721234 0.662346
O O1 0.750000 0.382670 0.833782
O O2 0.496977 0.441682 0.778977
O O3 0.494735 0.332814 0.743989
O O4 0.500000 0.377144 0.000000
O O5 0.750000 0.500000 0.827515
O O6 0.000000 0.500000 0.000000
O O7 0.750000 0.175617 0.167042
O O8 0.002437 0.116256 0.221122
O O9 0.008594 0.225718 0.255762
O O10 0.000000 0.180770 0.000000
O O11 0.250000 0.942357 0.828370
O O12 0.503960 0.000000 0.772738
O O13 0.500000 0.942227 0.000000
O O14 0.250000 0.724205 0.665189
O O15 0.000000 0.720219 0.500000
#
# Coordination Sequence:
#
# PCOD9402037 Si02
#       5
#     8   4   8   8   8
#     4  10  19  34  56  81 106 132 164 201 242 290
#     4   8  16  30  51  78 105 130 158 196 240 286
#     4   9  18  31  49  73  98 125 160 200 243 292
#     4   8  13  23  41  66  94 121 150 189 237 286
#     4  11  23  37  51  70  98 133 171 210 253 297
#
# _framework density 18.841211999999999
#
# number of rings (size 3 to 8) (size 9 to 14) (size 15 to 20)
#    0.000    2.667    0.000    2.000    0.000    4.444 
#    0.000    0.556    0.000    0.667    0.000    0.000 
#    0.000    0.000    0.000    0.000    0.000    0.222 
#
# Total GULP energy -200487.759396 kJ/mol
# GULP energy per Si atom -5569.104428 kJ/mol
# Density = 1.879833 g / cm^3
# Si number density = 18.841212 Si / 1000 Ang^3
#
#
#
# Elastic Constant Matrix: (Units=GPa)
#
#
# Indices 1 2 3 4 5 6 
#
# 1 21.3478 23.7743 8.4402 0.0000 0.0000 0.0000
# 2 23.7743 261.8906 85.3074 0.0000 0.0000 0.0000
# 3 8.4402 85.3074 67.9608 0.0000 0.0000 0.0000
# 4 0.0000 0.0000 0.0000 -5.0062 0.0000 0.0000
# 5 0.0000 0.0000 0.0000 0.0000 21.6457 0.0000
# 6 0.0000 0.0000 0.0000 0.0000 0.0000 19.4818
#
#
#
# Elastic Compliance Matrix: (Units=1/GPa)
#
#
# Indices 1 2 3 4 5 6 
#
# 1 0.052144 -0.004439 -0.000903 0.000000 0.000000 0.000000
# 2 -0.004439 0.006838 -0.008031 0.000000 0.000000 0.000000
# 3 -0.000903 -0.008031 0.024908 0.000000 0.000000 0.000000
# 4 0.000000 0.000000 0.000000 -0.199752 0.000000 0.000000
# 5 0.000000 0.000000 0.000000 0.000000 0.046199 0.000000
# 6 0.000000 0.000000 0.000000 0.000000 0.000000 0.051330
#
#
# Mechanical properties :
#
#
# Convention : Reuss Voigt Hill
#
# Bulk Modulus (GPa) = 17.50043 65.13810 41.31927
# Shear Modulus (GPa) = 182.06724 22.80274 102.43499
#
# Velocity S-wave (km/s) = 9.84084 3.48265 7.38143
# Velocity P-wave (km/s) = 11.76569 7.12875 9.72755
#
# Compressibility (1/GPa) = 0.05714145
#
# Stress axis : x y z
#
# Youngs Moduli (GPa) = 19.17748 146.25193 40.14780
#
# Poissons Ratio (x) = 0.64926 0.03627
# Poissons Ratio (y) = 0.08514 0.32244
# Poissons Ratio (z) = 0.01733 1.17461
#
# Static dielectric constant tensor:
#      x y z
#    x 1.666990 0.000000 0.000000 
#    y 0.000000 1.750080 0.000000 
#    z 0.000000 0.000000 1.585530 
# 
# From -- ./inp_files/5243.got.cif
#   From: 2010.05.17/outbox.cif.g08.bks.cpg/sg51_3_cif.got.tgz:5243.got - 2010.06.03 11:52:47.
