data_PCOD9402613
_publ_section_title
;
Structure prediction by ZEFSAII (Michael W. Deem and Ramdas Pophale) SiO2 
 PCOD9402613
Probable space group: P M M A
;
_chemical_formula_sum "Si O2"
_cell_formula_units_Z 48
_cell_length_a 8.767886
_cell_length_b 19.444485
_cell_length_c 15.160302
_cell_angle_alpha 90.000000
_cell_angle_beta 90.000000
_cell_angle_gamma 90.000000
_cell_volume 2584.634829
_symmetry_space_group_name_H-M "P M M A"
_symmetry_group_IT_number 51
_symmetry_cell_setting 'orthorhombic'
loop_
_space_group_symop_operation_xyz
x,y,z
1/2-x,-y,z
1/2+x,-y,-z
-x,y,-z
-x,-y,-z
1/2+x,y,-z
1/2-x,y,z
x,-y,z
loop_
_atom_site_type_symbol
_atom_site_label
_atom_site_fract_x
_atom_site_fract_y
_atom_site_fract_z
Si Si1 0.927382 0.312196 0.256216
Si Si2 0.568220 0.581249 0.402792
Si Si3 0.434061 0.923738 0.148718
Si Si4 0.424370 0.788267 0.581212
Si Si5 0.566952 0.769928 0.906285
Si Si6 0.934413 0.074647 0.345740
O O1 0.750000 0.326330 0.232775
O O2 0.987505 0.375372 0.317311
O O3 0.931007 0.251004 0.327499
O O4 0.011753 0.281572 0.171043
O O5 0.500000 0.596115 0.500000
O O6 0.750000 0.595441 0.408328
O O7 0.544949 0.500000 0.387251
O O8 0.250000 0.923395 0.147347
O O9 0.484626 0.850221 0.108499
O O10 0.494299 0.922202 0.248712
O O11 0.482699 0.000000 0.112512
O O12 0.500000 0.750438 0.500000
O O13 0.250000 0.797037 0.556269
O O14 0.496348 0.862501 0.598009
O O15 0.750000 0.770025 0.907800
O O16 0.500000 0.747644 0.000000
O O17 0.750000 0.081621 0.336870
O O18 0.967693 0.000000 0.384123
#
# Coordination Sequence:
#
# PCOD9402613 Si02
#       6
#     8   8   8   8   8   8
#     4  10  20  36  55  77 109 143 176 218 265 313
#     4   9  18  33  56  87 120 152 183 216 257 308
#     4   9  18  33  52  74  99 129 170 221 274 324
#     4  10  20  31  46  70  99 133 172 212 256 306
#     4  11  23  37  56  80 106 138 178 223 272 326
#     4   9  17  30  47  66  92 129 171 213 259 310
#
# _framework density 18.571289
#
# number of rings (size 3 to 8) (size 9 to 14) (size 15 to 20)
#    0.000    2.333    1.667    1.000    0.000    3.333 
#    0.000    0.000    0.000    0.500    0.000    0.000 
#    0.000    0.000    0.000    0.000    0.000    0.000 
#
# Total GULP energy -267277.296612 kJ/mol
# GULP energy per Si atom -5568.277013 kJ/mol
# Density = 1.852902 g / cm^3
# Si number density = 18.571289 Si / 1000 Ang^3
#
#
#
# Elastic Constant Matrix: (Units=GPa)
#
#
# Indices 1 2 3 4 5 6 
#
# 1 21.3424 26.0660 35.5325 0.0000 0.0000 0.0000
# 2 26.0660 102.8723 45.9163 0.0000 0.0000 0.0000
# 3 35.5325 45.9163 118.4473 0.0000 0.0000 0.0000
# 4 0.0000 0.0000 0.0000 28.9690 0.0000 0.0000
# 5 0.0000 0.0000 0.0000 0.0000 26.3047 0.0000
# 6 0.0000 0.0000 0.0000 0.0000 0.0000 -81.6637
#
#
#
# Elastic Compliance Matrix: (Units=1/GPa)
#
#
# Indices 1 2 3 4 5 6 
#
# 1 0.112269 -0.016221 -0.027391 0.000000 0.000000 0.000000
# 2 -0.016221 0.014098 -0.000599 0.000000 0.000000 0.000000
# 3 -0.027391 -0.000599 0.016892 0.000000 0.000000 0.000000
# 4 0.000000 0.000000 0.000000 0.034520 0.000000 0.000000
# 5 0.000000 0.000000 0.000000 0.000000 0.038016 0.000000
# 6 0.000000 0.000000 0.000000 0.000000 0.000000 -0.012245
#
#
# Mechanical properties :
#
#
# Convention : Reuss Voigt Hill
#
# Bulk Modulus (GPa) = 18.23604 50.85465 34.54535
# Shear Modulus (GPa) = 16.11601 3.73182 9.92392
#
# Velocity S-wave (km/s) = 2.94903 1.41909 2.31415
# Velocity P-wave (km/s) = 4.62995 5.48890 5.07762
#
# Compressibility (1/GPa) = 0.05483645
#
# Stress axis : x y z
#
# Youngs Moduli (GPa) = 8.90719 70.93022 59.20063
#
# Poissons Ratio (x) = 1.15057 1.62156
# Poissons Ratio (y) = 0.14449 0.03547
# Poissons Ratio (z) = 0.24398 0.04250
#
# Static dielectric constant tensor:
#      x y z
#    x 1.645360 0.000000 0.000000 
#    y 0.000000 1.708210 0.000000 
#    z 0.000000 0.000000 1.623770 
# 
# From -- ./inp_files/15563.got.cif
#   From: 2010.05.17/outbox.cif.g08.bks.cpg/sg51_8_cif.got.tgz:15563.got - 2010.06.03 11:52:47.
