data_PCOD9402965
_publ_section_title
;
Structure prediction by ZEFSAII (Michael W. Deem and Ramdas Pophale) SiO2 
 PCOD9402965
Probable space group: P M M A
;
_chemical_formula_sum "Si O2"
_cell_formula_units_Z 64
_cell_length_a 15.075952
_cell_length_b 18.729413
_cell_length_c 12.401596
_cell_angle_alpha 90.000000
_cell_angle_beta 90.000000
_cell_angle_gamma 90.000000
_cell_volume 3501.760922
_symmetry_space_group_name_H-M "P M M A"
_symmetry_group_IT_number 51
_symmetry_cell_setting 'orthorhombic'
loop_
_space_group_symop_operation_xyz
x,y,z
1/2-x,-y,z
1/2+x,-y,-z
-x,y,-z
-x,-y,-z
1/2+x,y,-z
1/2-x,y,z
x,-y,z
loop_
_atom_site_type_symbol
_atom_site_label
_atom_site_fract_x
_atom_site_fract_y
_atom_site_fract_z
Si Si1 0.143286 0.815796 0.741714
Si Si2 0.908960 0.718945 0.058917
Si Si3 0.000978 0.915232 0.631331
Si Si4 0.480319 0.582624 0.815697
Si Si5 0.857199 0.195989 0.675332
Si Si6 0.411640 0.423674 0.571290
Si Si7 0.651559 0.675855 0.834624
Si Si8 0.148394 0.271529 0.539385
O O1 0.250000 0.829034 0.739042
O O2 0.120797 0.779354 0.856589
O O3 0.114658 0.756072 0.653399
O O4 0.085604 0.882048 0.695837
O O5 0.927569 0.642920 0.117516
O O6 0.846651 0.699926 0.958858
O O7 0.000000 0.741386 0.000000
O O8 0.914738 0.875408 0.679954
O O9 0.000000 0.903241 0.500000
O O10 0.998179 0.000000 0.646715
O O11 0.475712 0.500000 0.854612
O O12 0.441775 0.583010 0.695040
O O13 0.580532 0.613171 0.817728
O O14 0.750000 0.183794 0.674630
O O15 0.876275 0.253824 0.767745
O O16 0.890339 0.234632 0.565567
O O17 0.500000 0.423043 0.500000
O O18 0.366236 0.500000 0.556958
O O19 0.357439 0.355744 0.535375
O O20 0.750000 0.655239 0.797614
O O21 0.250000 0.248933 0.537254
#
# Coordination Sequence:
#
# PCOD9402965 Si02
#       8
#     8   8   8   8   8   8   8   8
#     4  11  22  38  60  88 119 154 193 241 291 343
#     4  10  20  36  59  82 108 149 197 243 289 339
#     4  11  23  37  59  91 123 155 184 221 285 356
#     4  10  20  34  51  75 108 146 187 234 292 345
#     4  10  21  38  59  87 117 150 193 240 288 343
#     4  10  20  32  50  76 107 146 186 232 288 346
#     4  10  21  35  55  80 107 142 189 239 283 335
#     4  10  20  33  55  81 107 146 190 236 287 340
#
# _framework density 18.276519
#
# number of rings (size 3 to 8) (size 9 to 14) (size 15 to 20)
#    0.000    1.750    2.500    2.625    1.750    3.250 
#    0.000    1.250    0.000    9.000    0.000    3.500 
#    0.000    0.000    0.000    0.000    0.000    0.000 
#
# Total GULP energy -356605.814715 kJ/mol
# GULP energy per Si atom -5571.965855 kJ/mol
# Density = 1.823492 g / cm^3
# Si number density = 18.276519 Si / 1000 Ang^3
#
#
#
# Elastic Constant Matrix: (Units=GPa)
#
#
# Indices 1 2 3 4 5 6 
#
# 1 69.1920 39.1122 26.8015 0.0000 0.0000 0.0000
# 2 39.1122 127.1729 50.3741 0.0000 0.0000 0.0000
# 3 26.8015 50.3741 66.0778 0.0000 0.0000 0.0000
# 4 0.0000 0.0000 0.0000 39.1249 0.0000 0.0000
# 5 0.0000 0.0000 0.0000 0.0000 16.0410 0.0000
# 6 0.0000 0.0000 0.0000 0.0000 0.0000 11.8923
#
#
#
# Elastic Compliance Matrix: (Units=1/GPa)
#
#
# Indices 1 2 3 4 5 6 
#
# 1 0.018386 -0.003869 -0.004508 0.000000 0.000000 0.000000
# 2 -0.003869 0.012079 -0.007639 0.000000 0.000000 0.000000
# 3 -0.004508 -0.007639 0.022786 0.000000 0.000000 0.000000
# 4 0.000000 0.000000 0.000000 0.025559 0.000000 0.000000
# 5 0.000000 0.000000 0.000000 0.000000 0.062340 0.000000
# 6 0.000000 0.000000 0.000000 0.000000 0.000000 0.084088
#
#
# Mechanical properties :
#
#
# Convention : Reuss Voigt Hill
#
# Bulk Modulus (GPa) = 47.12847 55.00203 51.06525
# Shear Modulus (GPa) = 18.91483 23.15530 21.03506
#
# Velocity S-wave (km/s) = 3.22052 3.56328 3.39622
# Velocity P-wave (km/s) = 6.29851 6.86214 6.58636
#
# Compressibility (1/GPa) = 0.02121860
#
# Stress axis : x y z
#
# Youngs Moduli (GPa) = 54.39020 82.78719 43.88700
#
# Poissons Ratio (x) = 0.32030 0.19784
# Poissons Ratio (y) = 0.21043 0.33526
# Poissons Ratio (z) = 0.24518 0.63243
#
# Static dielectric constant tensor:
#      x y z
#    x 1.696050 0.000000 0.000000 
#    y 0.000000 1.607650 0.000000 
#    z 0.000000 0.000000 1.655310 
# 
# From -- ./inp_files/16840.got.cif
#   From: 2010.05.17/outbox.cif.g08.bks.cpg/sg51_9_cif.got.tgz:16840.got - 2010.06.03 11:52:47.
