data_PCOD9402762
_publ_section_title
;
Structure prediction by ZEFSAII (Michael W. Deem and Ramdas Pophale) SiO2 
 PCOD9402762
Probable space group: P M M A
;
_chemical_formula_sum "Si O2"
_cell_formula_units_Z 48
_cell_length_a 9.867635
_cell_length_b 13.032655
_cell_length_c 17.685873
_cell_angle_alpha 90.000000
_cell_angle_beta 90.000000
_cell_angle_gamma 90.000000
_cell_volume 2274.429489
_symmetry_space_group_name_H-M "P M M A"
_symmetry_group_IT_number 51
_symmetry_cell_setting 'orthorhombic'
loop_
_space_group_symop_operation_xyz
x,y,z
1/2-x,-y,z
1/2+x,-y,-z
-x,y,-z
-x,-y,-z
1/2+x,y,-z
1/2-x,y,z
x,-y,z
loop_
_atom_site_type_symbol
_atom_site_label
_atom_site_fract_x
_atom_site_fract_y
_atom_site_fract_z
Si Si1 0.401750 0.117639 0.893802
Si Si2 0.900061 0.338051 0.760776
Si Si3 0.014226 0.112181 0.267488
Si Si4 0.590460 0.389214 0.374808
Si Si5 0.591189 0.165424 0.431628
Si Si6 0.587925 0.694076 0.931530
O O1 0.250000 0.151316 0.916725
O O2 0.409496 0.117525 0.802339
O O3 0.520433 0.192865 0.920706
O O4 0.421481 0.000000 0.918148
O O5 0.750000 0.377363 0.744500
O O6 0.899705 0.214795 0.745773
O O7 0.932128 0.356094 0.848860
O O8 0.008363 0.381162 0.702915
O O9 0.946747 0.120392 0.349729
O O10 0.081743 0.000000 0.261320
O O11 0.750000 0.384709 0.357839
O O12 0.560983 0.500000 0.410649
O O13 0.561792 0.287378 0.422329
O O14 0.500000 0.125359 0.500000
O O15 0.750000 0.150120 0.446830
O O16 0.750000 0.696333 0.944937
O O17 0.500000 0.647222 0.000000
#
# Coordination Sequence:
#
# PCOD9402762 Si02
#       6
#     8   8   8   8   8   8
#     4   9  17  30  49  70  91 123 172 223 265 305
#     4   9  19  34  53  81 109 132 168 218 264 303
#     4   9  18  33  53  74 100 138 181 220 258 304
#     4   9  19  37  60  82 103 132 169 208 256 314
#     4  10  21  35  51  75 108 140 172 213 257 307
#     4  10  20  32  47  69 100 136 170 205 251 305
#
# _framework density 21.104195000000001
#
# number of rings (size 3 to 8) (size 9 to 14) (size 15 to 20)
#    0.000    2.667    0.000    1.000    0.000   10.333 
#    0.000    3.333    0.000    0.500    0.000    0.000 
#    0.000    0.000    0.000    0.000    0.000    0.000 
#
# Total GULP energy -267625.042017 kJ/mol
# GULP energy per Si atom -5575.521709 kJ/mol
# Density = 2.105616 g / cm^3
# Si number density = 21.104195 Si / 1000 Ang^3
#
#
#
# Elastic Constant Matrix: (Units=GPa)
#
#
# Indices 1 2 3 4 5 6 
#
# 1 79.6870 9.8240 56.7918 0.0000 0.0000 0.0000
# 2 9.8240 71.9903 -3.9815 0.0000 0.0000 0.0000
# 3 56.7918 -3.9815 136.1220 0.0000 0.0000 0.0000
# 4 0.0000 0.0000 0.0000 -2.2754 0.0000 0.0000
# 5 0.0000 0.0000 0.0000 0.0000 22.5359 0.0000
# 6 0.0000 0.0000 0.0000 0.0000 0.0000 3.8653
#
#
#
# Elastic Compliance Matrix: (Units=1/GPa)
#
#
# Indices 1 2 3 4 5 6 
#
# 1 0.018465 -0.002951 -0.007790 0.000000 0.000000 0.000000
# 2 -0.002951 0.014385 0.001652 0.000000 0.000000 0.000000
# 3 -0.007790 0.001652 0.010645 0.000000 0.000000 0.000000
# 4 0.000000 0.000000 0.000000 -0.439476 0.000000 0.000000
# 5 0.000000 0.000000 0.000000 0.000000 0.044374 0.000000
# 6 0.000000 0.000000 0.000000 0.000000 0.000000 0.258713
#
#
# Mechanical properties :
#
#
# Convention : Reuss Voigt Hill
#
# Bulk Modulus (GPa) = 39.49986 45.89645 42.69815
# Shear Modulus (GPa) = -75.43920 19.83615 -27.80152
#
# Velocity S-wave (km/s) = -5.98529 3.06913 -3.63346
# Velocity P-wave (km/s) = 5.38588 5.86124 1.63501
#
# Compressibility (1/GPa) = 0.02531655
#
# Stress axis : x y z
#
# Youngs Moduli (GPa) = 54.15751 69.51803 93.94306
#
# Poissons Ratio (x) = 0.20512 0.73182
# Poissons Ratio (y) = 0.15980 -0.15517
# Poissons Ratio (z) = 0.42189 -0.11483
#
# Static dielectric constant tensor:
#      x y z
#    x 1.717380 0.000000 0.000000 
#    y 0.000000 1.808820 0.000000 
#    z 0.000000 0.000000 1.756880 
# 
# From -- ./inp_files/27544.got.cif
#   From: 2010.05.17/outbox.cif.g08.bks.cpg/sg51_14_cif.got.tgz:27544.got - 2010.06.03 11:52:47.
