data_PCOD9402866
_publ_section_title
;
Structure prediction by ZEFSAII (Michael W. Deem and Ramdas Pophale) SiO2 
 PCOD9402866
Probable space group: P M M A
;
_chemical_formula_sum "Si O2"
_cell_formula_units_Z 48
_cell_length_a 21.093747
_cell_length_b 9.204828
_cell_length_c 14.461080
_cell_angle_alpha 90.000000
_cell_angle_beta 90.000000
_cell_angle_gamma 90.000000
_cell_volume 2807.825664
_symmetry_space_group_name_H-M "P M M A"
_symmetry_group_IT_number 51
_symmetry_cell_setting 'orthorhombic'
loop_
_space_group_symop_operation_xyz
x,y,z
1/2-x,-y,z
1/2+x,-y,-z
-x,y,-z
-x,-y,-z
1/2+x,y,-z
1/2-x,y,z
x,-y,z
loop_
_atom_site_type_symbol
_atom_site_label
_atom_site_fract_x
_atom_site_fract_y
_atom_site_fract_z
Si Si1 0.926602 0.335038 0.464841
Si Si2 0.605172 0.172162 0.639407
Si Si3 0.324221 0.172587 0.027099
Si Si4 0.518675 0.325780 0.275004
Si Si5 0.175045 0.662533 0.212043
Si Si6 0.049754 0.173301 0.917088
O O1 0.903043 0.500000 0.477137
O O2 0.892157 0.226387 0.533905
O O3 0.929673 0.298250 0.356448
O O4 0.000000 0.335117 0.500000
O O5 0.543867 0.244660 0.688184
O O6 0.660881 0.238531 0.700290
O O7 0.601581 0.000000 0.644397
O O8 0.250000 0.208416 0.004777
O O9 0.346106 0.259214 0.118123
O O10 0.325761 0.000000 0.047351
O O11 0.377980 0.200152 0.950659
O O12 0.509245 0.500000 0.272846
O O13 0.535664 0.263173 0.175225
O O14 0.250000 0.650126 0.202586
O O15 0.147842 0.500000 0.221987
O O16 0.042835 0.000000 0.898741
O O17 0.000000 0.207951 0.000000
#
# Coordination Sequence:
#
# PCOD9402866 Si02
#       6
#     8   8   8   8   8   8
#     4   8  16  31  48  68  95 125 157 193 237 290
#     4  11  20  30  49  74 100 129 160 198 245 296
#     4   9  18  33  51  71  99 134 167 201 247 301
#     4  10  20  33  50  72  99 130 163 202 247 293
#     4  10  20  33  50  72  98 129 164 202 244 292
#     4  10  20  32  48  73 102 130 165 210 254 293
#
# _framework density 17.095078000000001
#
# number of rings (size 3 to 8) (size 9 to 14) (size 15 to 20)
#    0.000    2.333    0.000    4.500    0.000    7.000 
#    0.000    0.000    0.000    1.000    0.000    4.667 
#    0.000    0.000    0.000    0.000    0.000    0.000 
#
# Total GULP energy -267481.093072 kJ/mol
# GULP energy per Si atom -5572.522772 kJ/mol
# Density = 1.705617 g / cm^3
# Si number density = 17.095078 Si / 1000 Ang^3
#
#
#
# Elastic Constant Matrix: (Units=GPa)
#
#
# Indices 1 2 3 4 5 6 
#
# 1 34.2293 21.1601 27.0028 0.0000 0.0000 0.0000
# 2 21.1601 89.6804 68.9142 0.0000 0.0000 0.0000
# 3 27.0028 68.9142 132.4886 0.0000 0.0000 0.0000
# 4 0.0000 0.0000 0.0000 49.1785 0.0000 0.0000
# 5 0.0000 0.0000 0.0000 0.0000 21.0605 0.0000
# 6 0.0000 0.0000 0.0000 0.0000 0.0000 16.6606
#
#
#
# Elastic Compliance Matrix: (Units=1/GPa)
#
#
# Indices 1 2 3 4 5 6 
#
# 1 0.035990 -0.004756 -0.004861 0.000000 0.000000 0.000000
# 2 -0.004756 0.019204 -0.009020 0.000000 0.000000 0.000000
# 3 -0.004861 -0.009020 0.013230 0.000000 0.000000 0.000000
# 4 0.000000 0.000000 0.000000 0.020334 0.000000 0.000000
# 5 0.000000 0.000000 0.000000 0.000000 0.047482 0.000000
# 6 0.000000 0.000000 0.000000 0.000000 0.000000 0.060022
#
#
# Mechanical properties :
#
#
# Convention : Reuss Voigt Hill
#
# Bulk Modulus (GPa) = 32.10280 54.50584 43.30432
# Shear Modulus (GPa) = 20.49852 26.66798 23.58325
#
# Velocity S-wave (km/s) = 3.46654 3.95394 3.71824
# Velocity P-wave (km/s) = 5.90274 7.26623 6.61968
#
# Compressibility (1/GPa) = 0.03114993
#
# Stress axis : x y z
#
# Youngs Moduli (GPa) = 27.78552 52.07247 75.58483
#
# Poissons Ratio (x) = 0.24767 0.36743
# Poissons Ratio (y) = 0.13216 0.68175
# Poissons Ratio (z) = 0.13507 0.46967
#
# Static dielectric constant tensor:
#      x y z
#    x 1.614050 0.000000 0.000000 
#    y 0.000000 1.587580 0.000000 
#    z 0.000000 0.000000 1.589450 
# 
# From -- ./inp_files/18535.got.cif
#   From: 2010.05.17/outbox.cif.g08.bks.cpg/sg51_10_cif.got.tgz:18535.got - 2010.06.03 11:52:47.
