data_PCOD9402388
_publ_section_title
;
Structure prediction by ZEFSAII (Michael W. Deem and Ramdas Pophale) SiO2 
 PCOD9402388
Probable space group: P M M A
;
_chemical_formula_sum "Si O2"
_cell_formula_units_Z 56
_cell_length_a 19.188363
_cell_length_b 7.943754
_cell_length_c 17.372456
_cell_angle_alpha 90.000000
_cell_angle_beta 90.000000
_cell_angle_gamma 90.000000
_cell_volume 2648.042388
_symmetry_space_group_name_H-M "P M M A"
_symmetry_group_IT_number 51
_symmetry_cell_setting 'orthorhombic'
loop_
_space_group_symop_operation_xyz
x,y,z
1/2-x,-y,z
1/2+x,-y,-z
-x,y,-z
-x,-y,-z
1/2+x,y,-z
1/2-x,y,z
x,-y,z
loop_
_atom_site_type_symbol
_atom_site_label
_atom_site_fract_x
_atom_site_fract_y
_atom_site_fract_z
Si Si1 0.951706 0.799751 0.663279
Si Si2 0.906722 0.701244 0.095511
Si Si3 0.548292 0.799751 0.836722
Si Si4 0.670232 0.703515 0.557979
Si Si5 0.093276 0.298755 0.595512
Si Si6 0.170231 0.296484 0.057981
Si Si7 0.830716 0.293962 0.250000
O O1 0.962978 0.732181 0.750000
O O2 0.876407 0.753230 0.630548
O O3 0.011677 0.735382 0.606088
O O4 0.957725 0.000000 0.665980
O O5 0.897643 0.500000 0.094332
O O6 0.869073 0.765471 0.172875
O O7 0.988322 0.735376 0.106087
O O8 0.869941 0.766529 0.018533
O O9 0.623592 0.753237 0.869451
O O10 0.542269 0.000000 0.834022
O O11 0.750000 0.762880 0.560436
O O12 0.671788 0.500000 0.554779
O O13 0.630058 0.766529 0.481466
O O14 0.102353 0.500000 0.594332
O O15 0.130927 0.234529 0.672875
O O16 0.250000 0.237123 0.060438
O O17 0.171787 0.500000 0.054783
O O18 0.750000 0.245637 0.250000
O O19 0.833247 0.500000 0.250000
#
# Coordination Sequence:
#
# PCOD9402388 Si02
#       7
#     8   8   8   8   8   8   8
#     4  11  24  40  58  82 115 155 198 239 281 336
#     4  10  19  35  60  88 116 148 188 233 285 344
#     4  11  24  40  58  82 115 155 198 239 281 336
#     4  10  22  39  60  88 118 147 187 240 292 342
#     4  10  19  35  60  88 116 148 188 233 285 344
#     4  10  22  39  60  88 118 147 187 240 292 342
#     4   9  16  28  53  87 118 147 180 223 277 336
#
# _framework density 21.147697999999998
#
# number of rings (size 3 to 8) (size 9 to 14) (size 15 to 20)
#    0.000    1.857    1.429    2.571    0.000   10.857 
#    0.000    2.857    0.000    3.429    0.000    0.000 
#    0.000    0.000    0.000    0.000    0.000    0.000 
#
# Total GULP energy -312951.388960 kJ/mol
# GULP energy per Si atom -5588.417660 kJ/mol
# Density = 2.109956 g / cm^3
# Si number density = 21.147698 Si / 1000 Ang^3
#
#
#
# Elastic Constant Matrix: (Units=GPa)
#
#
# Indices 1 2 3 4 5 6 
#
# 1 121.2878 -14.8846 24.1894 0.0000 0.0000 0.0000
# 2 -14.8846 13.5534 -5.7129 0.0000 0.0000 0.0000
# 3 24.1894 -5.7129 49.2039 0.0000 0.0000 0.0000
# 4 0.0000 0.0000 0.0000 7.9888 0.0000 0.0000
# 5 0.0000 0.0000 0.0000 0.0000 29.6822 0.0000
# 6 0.0000 0.0000 0.0000 0.0000 0.0000 -112.6098
#
#
#
# Elastic Compliance Matrix: (Units=1/GPa)
#
#
# Indices 1 2 3 4 5 6 
#
# 1 0.010196 0.009552 -0.003903 0.000000 0.000000 0.000000
# 2 0.009552 0.086528 0.005351 0.000000 0.000000 0.000000
# 3 -0.003903 0.005351 0.022864 0.000000 0.000000 0.000000
# 4 0.000000 0.000000 0.000000 0.125176 0.000000 0.000000
# 5 0.000000 0.000000 0.000000 0.000000 0.033690 0.000000
# 6 0.000000 0.000000 0.000000 0.000000 0.000000 -0.008880
#
#
# Mechanical properties :
#
#
# Convention : Reuss Voigt Hill
#
# Bulk Modulus (GPa) = 7.06289 21.24764 14.15526
# Shear Modulus (GPa) = 16.96241 -2.95754 7.00244
#
# Velocity S-wave (km/s) = 2.83520 -1.18387 1.82165
# Velocity P-wave (km/s) = 3.75031 2.86362 3.33655
#
# Compressibility (1/GPa) = 0.14158510
#
# Stress axis : x y z
#
# Youngs Moduli (GPa) = 98.08245 11.55701 43.73734
#
# Poissons Ratio (x) = -0.11039 0.17072
# Poissons Ratio (y) = -0.93685 -0.23402
# Poissons Ratio (z) = 0.38284 -0.06184
#
# Static dielectric constant tensor:
#      x y z
#    x 1.736390 0.000000 0.000000 
#    y 0.000000 1.766620 0.000000 
#    z 0.000000 0.000000 1.765130 
# 
# From -- ./inp_files/25693.got.cif
#   From: 2010.05.17/outbox.cif.g08.bks.cpg/sg51_13_cif.got.tgz:25693.got - 2010.06.03 11:52:47.
