data_PCOD9402800
_publ_section_title
;
Structure prediction by ZEFSAII (Michael W. Deem and Ramdas Pophale) SiO2 
 PCOD9402800
Probable space group: P M M A
;
_chemical_formula_sum "Si O2"
_cell_formula_units_Z 48
_cell_length_a 15.014330
_cell_length_b 9.139692
_cell_length_c 18.539617
_cell_angle_alpha 90.000000
_cell_angle_beta 90.000000
_cell_angle_gamma 90.000000
_cell_volume 2544.124004
_symmetry_space_group_name_H-M "P M M A"
_symmetry_group_IT_number 51
_symmetry_cell_setting 'orthorhombic'
loop_
_space_group_symop_operation_xyz
x,y,z
1/2-x,-y,z
1/2+x,-y,-z
-x,y,-z
-x,-y,-z
1/2+x,y,-z
1/2-x,y,z
x,-y,z
loop_
_atom_site_type_symbol
_atom_site_label
_atom_site_fract_x
_atom_site_fract_y
_atom_site_fract_z
Si Si1 0.980520 0.324893 0.326480
Si Si2 0.347358 0.823184 0.122784
Si Si3 0.354618 0.672549 0.540704
Si Si4 0.530720 0.673978 0.166057
Si Si5 0.600296 0.834383 0.032415
Si Si6 0.647397 0.174836 0.611615
O O1 0.994125 0.500000 0.330472
O O2 0.074676 0.245726 0.336611
O O3 0.915854 0.283362 0.392277
O O4 0.940636 0.292548 0.247811
O O5 0.250000 0.789218 0.154517
O O6 0.432436 0.744000 0.156104
O O7 0.360168 0.000000 0.126397
O O8 0.346332 0.783214 0.037609
O O9 0.250000 0.688345 0.558698
O O10 0.370878 0.500000 0.525240
O O11 0.372178 0.764055 0.468619
O O12 0.524579 0.500000 0.157007
O O13 0.593926 0.739026 0.104037
O O14 0.627274 0.000000 0.050622
O O15 0.500000 0.839329 0.000000
O O16 0.750000 0.215047 0.628699
O O17 0.640561 0.000000 0.612814
#
# Coordination Sequence:
#
# PCOD9402800 Si02
#       6
#     8   8   8   8   8   8
#     4  10  21  35  51  74 104 138 172 204 247 304
#     4   9  18  33  52  72  95 126 164 203 243 292
#     4   9  18  35  57  75  95 130 173 212 251 300
#     4  10  20  32  47  71 102 130 159 200 245 289
#     4   8  15  30  50  68  88 120 159 193 230 281
#     4  10  21  35  52  77 105 131 165 211 257 299
#
# _framework density 18.867004999999999
#
# number of rings (size 3 to 8) (size 9 to 14) (size 15 to 20)
#    0.000    2.667    0.000    2.500    0.000    9.000 
#    0.000    4.167    0.000    1.000    0.000    0.000 
#    0.000    0.000    0.000    0.000    0.000    0.000 
#
# Total GULP energy -267665.718093 kJ/mol
# GULP energy per Si atom -5576.369127 kJ/mol
# Density = 1.882406 g / cm^3
# Si number density = 18.867005 Si / 1000 Ang^3
#
#
#
# Elastic Constant Matrix: (Units=GPa)
#
#
# Indices 1 2 3 4 5 6 
#
# 1 22.6852 2.3050 1.3547 0.0000 0.0000 0.0000
# 2 2.3050 24.5228 22.7603 0.0000 0.0000 0.0000
# 3 1.3547 22.7603 65.3734 0.0000 0.0000 0.0000
# 4 0.0000 0.0000 0.0000 77.3137 0.0000 0.0000
# 5 0.0000 0.0000 0.0000 0.0000 12.0468 0.0000
# 6 0.0000 0.0000 0.0000 0.0000 0.0000 8.4465
#
#
#
# Elastic Compliance Matrix: (Units=1/GPa)
#
#
# Indices 1 2 3 4 5 6 
#
# 1 0.044534 -0.004919 0.000790 0.000000 0.000000 0.000000
# 2 -0.004919 0.060789 -0.021062 0.000000 0.000000 0.000000
# 3 0.000790 -0.021062 0.022613 0.000000 0.000000 0.000000
# 4 0.000000 0.000000 0.000000 0.012934 0.000000 0.000000
# 5 0.000000 0.000000 0.000000 0.000000 0.083010 0.000000
# 6 0.000000 0.000000 0.000000 0.000000 0.000000 0.118392
#
#
# Mechanical properties :
#
#
# Convention : Reuss Voigt Hill
#
# Bulk Modulus (GPa) = 12.89427 18.38015 15.63721
# Shear Modulus (GPa) = 11.94722 25.30550 18.62636
#
# Velocity S-wave (km/s) = 2.51914 3.66629 3.14545
# Velocity P-wave (km/s) = 3.91287 5.26169 4.63659
#
# Compressibility (1/GPa) = 0.07755384
#
# Stress axis : x y z
#
# Youngs Moduli (GPa) = 22.45469 16.45031 44.22159
#
# Poissons Ratio (x) = 0.08091 -0.03492
# Poissons Ratio (y) = 0.11045 0.93141
# Poissons Ratio (z) = -0.01773 0.34648
#
# Static dielectric constant tensor:
#      x y z
#    x 1.674180 0.000000 0.000000 
#    y 0.000000 1.631430 0.000000 
#    z 0.000000 0.000000 1.664320 
# 
# From -- ./inp_files/29426.got.cif
#   From: 2010.05.17/outbox.cif.g08.bks.cpg/sg51_15_cif.got.tgz:29426.got - 2010.06.03 11:52:47.
