data_PCOD9402873
_publ_section_title
;
Structure prediction by ZEFSAII (Michael W. Deem and Ramdas Pophale) SiO2 
 PCOD9402873
Probable space group: P M M A
;
_chemical_formula_sum "Si O2"
_cell_formula_units_Z 56
_cell_length_a 7.849067
_cell_length_b 19.908195
_cell_length_c 19.004695
_cell_angle_alpha 90.000000
_cell_angle_beta 90.000000
_cell_angle_gamma 90.000000
_cell_volume 2969.688016
_symmetry_space_group_name_H-M "P M M A"
_symmetry_group_IT_number 51
_symmetry_cell_setting 'orthorhombic'
loop_
_space_group_symop_operation_xyz
x,y,z
1/2-x,-y,z
1/2+x,-y,-z
-x,y,-z
-x,-y,-z
1/2+x,y,-z
1/2-x,y,z
x,-y,z
loop_
_atom_site_type_symbol
_atom_site_label
_atom_site_fract_x
_atom_site_fract_y
_atom_site_fract_z
Si Si1 0.547495 0.925585 0.780871
Si Si2 0.541846 0.789337 0.714195
Si Si3 0.548180 0.284250 0.142530
Si Si4 0.044754 0.574337 0.652376
Si Si5 0.953549 0.148000 0.078377
Si Si6 0.541572 0.425064 0.184084
Si Si7 0.950057 0.711083 0.579920
O O1 0.750000 0.929179 0.768968
O O2 0.482847 0.864823 0.732078
O O3 0.520711 0.900629 0.860771
O O4 0.475072 0.000000 0.769947
O O5 0.750000 0.788297 0.716473
O O6 0.478862 0.742551 0.778010
O O7 0.477766 0.759920 0.640433
O O8 0.750000 0.288440 0.128575
O O9 0.478789 0.223809 0.094310
O O10 0.480125 0.360324 0.140667
O O11 0.250000 0.574215 0.652851
O O12 0.986717 0.500000 0.629616
O O13 0.990423 0.583782 0.733855
O O14 0.988678 0.635098 0.603726
O O15 0.750000 0.149338 0.085506
O O16 0.000000 0.127219 0.000000
O O17 0.750000 0.424371 0.183299
O O18 0.488179 0.500000 0.161519
O O19 0.750000 0.720256 0.583393
O O20 0.000000 0.723785 0.500000
#
# Coordination Sequence:
#
# PCOD9402873 Si02
#       7
#     8   8   8   8   8   8   8
#     4   9  18  34  56  78  99 124 152 187 233 282
#     4   9  18  32  49  71  95 119 153 194 236 280
#     4   9  16  28  49  71  91 121 161 198 235 277
#     4   9  17  30  48  68  92 123 158 198 244 290
#     4  10  20  32  48  73 103 134 162 190 225 272
#     4   8  13  23  43  69  92 115 150 197 242 281
#     4  11  22  33  47  67  94 128 162 198 239 284
#
# _framework density 18.857199999999999
#
# number of rings (size 3 to 8) (size 9 to 14) (size 15 to 20)
#    0.000    2.714    1.429    1.714    0.000    2.286 
#    0.000    0.000    0.000    1.286    0.000    0.000 
#    0.000    0.000    0.000    0.000    0.000    0.571 
#
# Total GULP energy -312120.409866 kJ/mol
# GULP energy per Si atom -5573.578748 kJ/mol
# Density = 1.881428 g / cm^3
# Si number density = 18.857200 Si / 1000 Ang^3
#
#
#
# Elastic Constant Matrix: (Units=GPa)
#
#
# Indices 1 2 3 4 5 6 
#
# 1 14.2407 -6.6373 -6.8671 0.0000 0.0000 0.0000
# 2 -6.6373 132.8647 26.8857 0.0000 0.0000 0.0000
# 3 -6.8671 26.8857 47.3889 0.0000 0.0000 0.0000
# 4 0.0000 0.0000 0.0000 17.0584 0.0000 0.0000
# 5 0.0000 0.0000 0.0000 0.0000 6.2033 0.0000
# 6 0.0000 0.0000 0.0000 0.0000 0.0000 12.7029
#
#
#
# Elastic Compliance Matrix: (Units=1/GPa)
#
#
# Indices 1 2 3 4 5 6 
#
# 1 0.075863 0.001768 0.009990 0.000000 0.000000 0.000000
# 2 0.001768 0.008544 -0.004591 0.000000 0.000000 0.000000
# 3 0.009990 -0.004591 0.025154 0.000000 0.000000 0.000000
# 4 0.000000 0.000000 0.000000 0.058622 0.000000 0.000000
# 5 0.000000 0.000000 0.000000 0.000000 0.161205 0.000000
# 6 0.000000 0.000000 0.000000 0.000000 0.000000 0.078722
#
#
# Mechanical properties :
#
#
# Convention : Reuss Voigt Hill
#
# Bulk Modulus (GPa) = 8.07130 24.58410 16.32770
# Shear Modulus (GPa) = 11.49228 19.26710 15.37969
#
# Velocity S-wave (km/s) = 2.47136 3.19993 2.85895
# Velocity P-wave (km/s) = 3.52604 5.16895 4.42442
#
# Compressibility (1/GPa) = 0.12389578
#
# Stress axis : x y z
#
# Youngs Moduli (GPa) = 13.18165 117.04401 39.75459
#
# Poissons Ratio (x) = -0.20696 -0.39715
# Poissons Ratio (y) = -0.02331 0.18251
# Poissons Ratio (z) = -0.13169 0.53735
#
# Static dielectric constant tensor:
#      x y z
#    x 1.701360 0.000000 0.000000 
#    y 0.000000 1.708150 0.000000 
#    z 0.000000 0.000000 1.671770 
# 
# From -- ./inp_files/28168.got.cif
#   From: 2010.05.17/outbox.cif.g08.bks.cpg/sg51_15_cif.got.tgz:28168.got - 2010.06.03 11:52:47.
