data_PCOD9402346
_publ_section_title
;
Structure prediction by ZEFSAII (Michael W. Deem and Ramdas Pophale) SiO2 
 PCOD9402346
Probable space group: P M M A
;
_chemical_formula_sum "Si O2"
_cell_formula_units_Z 48
_cell_length_a 18.920745
_cell_length_b 15.677576
_cell_length_c 9.359127
_cell_angle_alpha 90.000000
_cell_angle_beta 90.000000
_cell_angle_gamma 90.000000
_cell_volume 2776.211111
_symmetry_space_group_name_H-M "P M M A"
_symmetry_group_IT_number 51
_symmetry_cell_setting 'orthorhombic'
loop_
_space_group_symop_operation_xyz
x,y,z
1/2-x,-y,z
1/2+x,-y,-z
-x,y,-z
-x,-y,-z
1/2+x,y,-z
1/2-x,y,z
x,-y,z
loop_
_atom_site_type_symbol
_atom_site_label
_atom_site_fract_x
_atom_site_fract_y
_atom_site_fract_z
Si Si1 0.078271 0.697328 0.475723
Si Si2 0.334665 0.000000 0.664352
Si Si3 0.052340 0.168953 0.223335
Si Si4 0.609582 0.811102 0.244057
Si Si5 0.668121 0.250201 0.960389
Si Si6 0.568773 0.000000 0.601449
Si Si7 0.334342 0.596762 0.254015
O O1 0.065982 0.765134 0.350632
O O2 0.104289 0.752761 0.612134
O O3 0.131040 0.631140 0.400713
O O4 0.000000 0.658717 0.500000
O O5 0.362911 0.091465 0.727697
O O6 0.364072 0.000000 0.502371
O O7 0.250000 0.000000 0.673258
O O8 0.111604 0.185407 0.106310
O O9 0.970433 0.180231 0.183920
O O10 0.064060 0.079540 0.296503
O O11 0.656069 0.759660 0.129138
O O12 0.750000 0.230569 0.926692
O O13 0.651070 0.339856 0.880324
O O14 0.500000 0.000000 0.500000
O O15 0.250000 0.597510 0.271852
O O16 0.357613 0.500000 0.224580
#
# Coordination Sequence:
#
# PCOD9402346 Si02
#       7
#     8   4   8   8   8   4   8
#     4   9  18  33  58  83 107 139 180 232 273 328
#     4  12  24  33  53  85 119 147 179 235 280 311
#     4  10  19  35  59  77 105 151 194 223 268 337
#     4  11  20  37  56  81 114 150 185 226 283 330
#     4  10  22  37  54  80 113 147 187 233 279 334
#     4  12  18  37  57  80 107 145 194 233 269 324
#     4   9  19  37  58  79 107 145 184 225 280 344
#
# _framework density 17.289752
#
# number of rings (size 3 to 8) (size 9 to 14) (size 15 to 20)
#    0.000    1.833    3.333    1.500    0.000    3.000 
#    0.000    3.333    0.000   15.000    0.000    0.000 
#    0.000    0.000    0.000    0.000    0.000    0.000 
#
# Total GULP energy -267233.832563 kJ/mol
# GULP energy per Si atom -5567.371512 kJ/mol
# Density = 1.725040 g / cm^3
# Si number density = 17.289752 Si / 1000 Ang^3
#
#
#
# Elastic Constant Matrix: (Units=GPa)
#
#
# Indices 1 2 3 4 5 6 
#
# 1 88.8656 41.1115 41.5241 0.0000 0.0000 0.0000
# 2 41.1115 100.0375 36.7156 0.0000 0.0000 0.0000
# 3 41.5241 36.7156 86.4455 0.0000 0.0000 0.0000
# 4 0.0000 0.0000 0.0000 70.9240 0.0000 0.0000
# 5 0.0000 0.0000 0.0000 0.0000 32.9291 0.0000
# 6 0.0000 0.0000 0.0000 0.0000 0.0000 29.9313
#
#
#
# Elastic Compliance Matrix: (Units=1/GPa)
#
#
# Indices 1 2 3 4 5 6 
#
# 1 0.016027 -0.004456 -0.005806 0.000000 0.000000 0.000000
# 2 -0.004456 0.013081 -0.003416 0.000000 0.000000 0.000000
# 3 -0.005806 -0.003416 0.015808 0.000000 0.000000 0.000000
# 4 0.000000 0.000000 0.000000 0.014100 0.000000 0.000000
# 5 0.000000 0.000000 0.000000 0.000000 0.030368 0.000000
# 6 0.000000 0.000000 0.000000 0.000000 0.000000 0.033410
#
#
# Mechanical properties :
#
#
# Convention : Reuss Voigt Hill
#
# Bulk Modulus (GPa) = 56.94429 57.11680 57.03054
# Shear Modulus (GPa) = 32.05083 37.15672 34.60377
#
# Velocity S-wave (km/s) = 4.31019 4.64083 4.47856
# Velocity P-wave (km/s) = 7.60112 7.86277 7.73305
#
# Compressibility (1/GPa) = 0.01756102
#
# Stress axis : x y z
#
# Youngs Moduli (GPa) = 62.39344 76.44743 63.26020
#
# Poissons Ratio (x) = 0.34062 0.36731
# Poissons Ratio (y) = 0.27800 0.21607
# Poissons Ratio (z) = 0.36228 0.26111
#
# Static dielectric constant tensor:
#      x y z
#    x 1.613680 0.000000 0.000000 
#    y 0.000000 1.532650 0.000000 
#    z 0.000000 0.000000 1.592940 
# 
# From -- ./inp_files/9703.got.cif
#   From: 2010.05.17/outbox.cif.g08.bks.cpg/sg51_5_cif.got.tgz:9703.got - 2010.06.03 11:52:47.
