data_PCOD9402466
_publ_section_title
;
Structure prediction by ZEFSAII (Michael W. Deem and Ramdas Pophale) SiO2 
 PCOD9402466
Probable space group: P M M A
;
_chemical_formula_sum "Si O2"
_cell_formula_units_Z 48
_cell_length_a 10.233514
_cell_length_b 29.567866
_cell_length_c 8.573439
_cell_angle_alpha 90.000000
_cell_angle_beta 90.000000
_cell_angle_gamma 90.000000
_cell_volume 2594.178356
_symmetry_space_group_name_H-M "P M M A"
_symmetry_group_IT_number 51
_symmetry_cell_setting 'orthorhombic'
loop_
_space_group_symop_operation_xyz
x,y,z
1/2-x,-y,z
1/2+x,-y,-z
-x,y,-z
-x,-y,-z
1/2+x,y,-z
1/2-x,y,z
x,-y,z
loop_
_atom_site_type_symbol
_atom_site_label
_atom_site_fract_x
_atom_site_fract_y
_atom_site_fract_z
Si Si1 0.996229 0.640833 0.187631
Si Si2 0.093582 0.050127 0.652496
Si Si3 0.250000 0.301869 0.815672
Si Si4 0.250000 0.802742 0.190840
Si Si5 0.750000 0.696395 0.803632
Si Si6 0.594289 0.448919 0.349532
Si Si7 0.250000 0.198916 0.815604
Si Si8 0.495734 0.854543 0.688145
O O1 0.876325 0.671791 0.239237
O O2 0.964664 0.590438 0.242900
O O3 0.125311 0.666636 0.244678
O O4 0.000000 0.640532 0.000000
O O5 0.250000 0.057888 0.617538
O O6 0.000000 0.047719 0.500000
O O7 0.035462 0.093766 0.739989
O O8 0.085603 0.000000 0.726727
O O9 0.250000 0.250653 0.764238
O O10 0.250000 0.302169 0.005886
O O11 0.250000 0.749561 0.243464
O O12 0.374697 0.830697 0.249604
O O13 0.250000 0.802375 0.003095
O O14 0.500000 0.448377 0.500000
O O15 0.750000 0.440769 0.382020
O O16 0.586335 0.500000 0.282984
O O17 0.376178 0.174694 0.749103
O O18 0.500000 0.854762 0.500000
#
# Coordination Sequence:
#
# PCOD9402466 Si02
#       8
#     8   8   4   4   4   8   4   8
#     4  10  19  36  61  85 109 142 190 241 281 317
#     4   9  18  33  56  84 113 149 193 240 293 351
#     4   9  18  35  58  81 110 150 193 231 278 335
#     4  11  23  39  60  83 118 160 203 229 282 363
#     4   9  20  35  56  85 112 148 191 235 272 337
#     4  10  22  40  59  82 115 152 185 224 282 347
#     4  11  21  39  62  83 114 160 199 231 288 365
#     4  11  22  37  58  88 118 150 188 251 298 331
#
# _framework density 18.502970000000001
#
# number of rings (size 3 to 8) (size 9 to 14) (size 15 to 20)
#    0.000    2.000    1.667    2.000    4.667    3.000 
#    0.000    5.000    0.000    3.000    0.000    0.000 
#    0.000    0.000    0.000    0.000    0.000    0.000 
#
# Total GULP energy -267424.412280 kJ/mol
# GULP energy per Si atom -5571.341923 kJ/mol
# Density = 1.846086 g / cm^3
# Si number density = 18.502970 Si / 1000 Ang^3
#
#
#
# Elastic Constant Matrix: (Units=GPa)
#
#
# Indices 1 2 3 4 5 6 
#
# 1 187.7544 102.0164 24.6756 0.0000 0.0000 0.0000
# 2 102.0164 209.7780 33.3429 0.0000 0.0000 0.0000
# 3 24.6756 33.3429 28.1327 0.0000 0.0000 0.0000
# 4 0.0000 0.0000 0.0000 30.8932 0.0000 0.0000
# 5 0.0000 0.0000 0.0000 0.0000 8.2489 0.0000
# 6 0.0000 0.0000 0.0000 0.0000 0.0000 41.3295
#
#
#
# Elastic Compliance Matrix: (Units=1/GPa)
#
#
# Indices 1 2 3 4 5 6 
#
# 1 0.007407 -0.003166 -0.002745 0.000000 0.000000 0.000000
# 2 -0.003166 0.007226 -0.005788 0.000000 0.000000 0.000000
# 3 -0.002745 -0.005788 0.044813 0.000000 0.000000 0.000000
# 4 0.000000 0.000000 0.000000 0.032370 0.000000 0.000000
# 5 0.000000 0.000000 0.000000 0.000000 0.121229 0.000000
# 6 0.000000 0.000000 0.000000 0.000000 0.000000 0.024196
#
#
# Mechanical properties :
#
#
# Convention : Reuss Voigt Hill
#
# Bulk Modulus (GPa) = 27.73948 82.85943 55.29946
# Shear Modulus (GPa) = 18.33822 33.80300 26.07061
#
# Velocity S-wave (km/s) = 3.15158 4.27886 3.75773
# Velocity P-wave (km/s) = 5.31674 8.32409 6.98420
#
# Compressibility (1/GPa) = 0.03604970
#
# Stress axis : x y z
#
# Youngs Moduli (GPa) = 135.00811 138.38016 22.31482
#
# Poissons Ratio (x) = 0.43809 0.06125
# Poissons Ratio (y) = 0.42741 0.12916
# Poissons Ratio (z) = 0.37055 0.80095
#
# Static dielectric constant tensor:
#      x y z
#    x 1.460480 0.000000 0.000000 
#    y 0.000000 1.657990 0.000000 
#    z 0.000000 0.000000 1.627980 
# 
# From -- ./inp_files/6325.got.cif
#   From: 2010.05.17/outbox.cif.g08.bks.cpg/sg51_4_cif.got.tgz:6325.got - 2010.06.03 11:52:47.
