data_PCOD9402879
_publ_section_title
;
Structure prediction by ZEFSAII (Michael W. Deem and Ramdas Pophale) SiO2 
 PCOD9402879
Probable space group: P M M A
;
_chemical_formula_sum "Si O2"
_cell_formula_units_Z 40
_cell_length_a 8.988027
_cell_length_b 13.967313
_cell_length_c 18.997800
_cell_angle_alpha 90.000000
_cell_angle_beta 90.000000
_cell_angle_gamma 90.000000
_cell_volume 2384.956956
_symmetry_space_group_name_H-M "P M M A"
_symmetry_group_IT_number 51
_symmetry_cell_setting 'orthorhombic'
loop_
_space_group_symop_operation_xyz
x,y,z
1/2-x,-y,z
1/2+x,-y,-z
-x,y,-z
-x,-y,-z
1/2+x,y,-z
1/2-x,y,z
x,-y,z
loop_
_atom_site_type_symbol
_atom_site_label
_atom_site_fract_x
_atom_site_fract_y
_atom_site_fract_z
Si Si1 0.927900 0.889429 0.358104
Si Si2 0.573153 0.795109 0.208252
Si Si3 0.072835 0.707555 0.426124
Si Si4 0.427301 0.887701 0.073623
Si Si5 0.927808 0.609454 0.293223
O O1 0.750000 0.876034 0.369050
O O2 0.957839 0.861452 0.276614
O O3 0.015907 0.813990 0.405471
O O4 0.964828 0.000000 0.371260
O O5 0.750000 0.800523 0.194660
O O6 0.486776 0.829553 0.140101
O O7 0.535667 0.687665 0.233687
O O8 0.250000 0.705277 0.430337
O O9 0.000000 0.679772 0.500000
O O10 0.013595 0.640137 0.363533
O O11 0.250000 0.880664 0.068589
O O12 0.467136 0.000000 0.083883
O O13 0.500000 0.856473 0.000000
O O14 0.750000 0.619068 0.306682
O O15 0.958923 0.500000 0.273902
#
# Coordination Sequence:
#
# PCOD9402879 Si02
#       5
#     8   8   8   8   8
#     4   9  18  33  52  73  99 133 170 205 245 296
#     4   9  17  31  52  76 101 129 161 200 246 294
#     4  11  22  35  51  72 100 131 165 207 253 301
#     4  10  20  32  48  73 105 139 171 202 238 282
#     4   9  19  37  58  77  98 127 164 205 251 302
#
# _framework density 16.771792000000001
#
# number of rings (size 3 to 8) (size 9 to 14) (size 15 to 20)
#    0.000    2.400    0.000    4.200    0.000    6.800 
#    0.000    0.000    0.000    0.600    0.000    0.000 
#    0.000    0.000    0.000    0.000    0.000    0.000 
#
# Total GULP energy -223231.710502 kJ/mol
# GULP energy per Si atom -5580.792763 kJ/mol
# Density = 1.673362 g / cm^3
# Si number density = 16.771792 Si / 1000 Ang^3
#
#
#
# Elastic Constant Matrix: (Units=GPa)
#
#
# Indices 1 2 3 4 5 6 
#
# 1 54.3516 28.5394 48.7708 0.0000 0.0000 0.0000
# 2 28.5394 72.6606 24.0704 0.0000 0.0000 0.0000
# 3 48.7708 24.0704 99.4471 0.0000 0.0000 0.0000
# 4 0.0000 0.0000 0.0000 8.0199 0.0000 0.0000
# 5 0.0000 0.0000 0.0000 0.0000 33.8393 0.0000
# 6 0.0000 0.0000 0.0000 0.0000 0.0000 22.3098
#
#
#
# Elastic Compliance Matrix: (Units=1/GPa)
#
#
# Indices 1 2 3 4 5 6 
#
# 1 0.038105 -0.009541 -0.016378 0.000000 0.000000 0.000000
# 2 -0.009541 0.017351 0.000479 0.000000 0.000000 0.000000
# 3 -0.016378 0.000479 0.017972 0.000000 0.000000 0.000000
# 4 0.000000 0.000000 0.000000 0.124689 0.000000 0.000000
# 5 0.000000 0.000000 0.000000 0.000000 0.029551 0.000000
# 6 0.000000 0.000000 0.000000 0.000000 0.000000 0.044823
#
#
# Mechanical properties :
#
#
# Convention : Reuss Voigt Hill
#
# Bulk Modulus (GPa) = 44.34904 47.69117 46.02011
# Shear Modulus (GPa) = 15.11084 21.17237 18.14161
#
# Velocity S-wave (km/s) = 3.00487 3.55685 3.29245
# Velocity P-wave (km/s) = 6.20798 6.73538 6.47705
#
# Compressibility (1/GPa) = 0.02254840
#
# Stress axis : x y z
#
# Youngs Moduli (GPa) = 26.24317 57.63241 55.64295
#
# Poissons Ratio (x) = 0.54988 0.91133
# Poissons Ratio (y) = 0.25039 -0.02668
# Poissons Ratio (z) = 0.42981 -0.02763
#
# Static dielectric constant tensor:
#      x y z
#    x 1.557100 0.000000 0.000000 
#    y 0.000000 1.567340 0.000000 
#    z 0.000000 0.000000 1.537810 
# 
# From -- ./inp_files/20497.got.cif
#   From: 2010.05.17/outbox.cif.g08.bks.cpg/sg51_11_cif.got.tgz:20497.got - 2010.06.03 11:52:47.
