data_PCOD9402588
_publ_section_title
;
Structure prediction by ZEFSAII (Michael W. Deem and Ramdas Pophale) SiO2 
 PCOD9402588
Probable space group: P M M A
;
_chemical_formula_sum "Si O2"
_cell_formula_units_Z 56
_cell_length_a 28.847274
_cell_length_b 9.102361
_cell_length_c 13.808407
_cell_angle_alpha 90.000000
_cell_angle_beta 90.000000
_cell_angle_gamma 90.000000
_cell_volume 3625.788061
_symmetry_space_group_name_H-M "P M M A"
_symmetry_group_IT_number 51
_symmetry_cell_setting 'orthorhombic'
loop_
_space_group_symop_operation_xyz
x,y,z
1/2-x,-y,z
1/2+x,-y,-z
-x,y,-z
-x,-y,-z
1/2+x,y,-z
1/2-x,y,z
x,-y,z
loop_
_atom_site_type_symbol
_atom_site_label
_atom_site_fract_x
_atom_site_fract_y
_atom_site_fract_z
Si Si1 0.966720 0.324877 0.702219
Si Si2 0.803822 0.325062 0.497372
Si Si3 0.950297 0.830410 0.395397
Si Si4 0.479411 0.676605 0.897566
Si Si5 0.394629 0.829253 0.805791
Si Si6 0.696892 0.823889 0.287972
Si Si7 0.889993 0.824996 0.587011
O O1 0.961331 0.500000 0.698162
O O2 0.919318 0.245072 0.673902
O O3 0.006117 0.272252 0.626379
O O4 0.987131 0.282517 0.807567
O O5 0.750000 0.297789 0.523785
O O6 0.811388 0.500000 0.494342
O O7 0.810537 0.257413 0.389980
O O8 0.840486 0.248925 0.568029
O O9 0.917219 0.820367 0.301632
O O10 0.920619 0.795873 0.490093
O O11 0.966589 0.000000 0.402277
O O12 0.476604 0.500000 0.898284
O O13 0.428709 0.740102 0.874773
O O14 0.500000 0.726320 0.000000
O O15 0.341866 0.778774 0.789709
O O16 0.394802 0.000000 0.835000
O O17 0.750000 0.797968 0.257648
O O18 0.691061 0.000000 0.304224
O O19 0.885633 0.000000 0.597188
#
# Coordination Sequence:
#
# PCOD9402588 Si02
#       7
#     8   8   8   8   8   8   8
#     4  10  20  31  45  67  90 116 151 192 232 274
#     4  10  20  31  44  65  93 125 162 199 228 260
#     4   9  17  29  42  61  91 125 155 182 217 265
#     4   9  19  35  51  67  90 120 152 190 240 290
#     4   9  16  28  45  68  93 121 156 190 226 270
#     4   9  16  28  45  65  93 128 160 187 222 271
#     4  11  20  31  46  64  91 127 158 188 226 269
#
# _framework density 15.444917999999999
#
# number of rings (size 3 to 8) (size 9 to 14) (size 15 to 20)
#    0.000    2.429    1.429    1.714    0.000    5.143 
#    0.000    0.000    0.000    0.000    0.000    1.000 
#    0.000    5.714    0.000    0.000    0.000    0.000 
#
# Total GULP energy -312226.693275 kJ/mol
# GULP energy per Si atom -5575.476666 kJ/mol
# Density = 1.540976 g / cm^3
# Si number density = 15.444918 Si / 1000 Ang^3
#
#
#
# Elastic Constant Matrix: (Units=GPa)
#
#
# Indices 1 2 3 4 5 6 
#
# 1 133.0016 55.7163 50.3172 0.0000 0.0000 0.0000
# 2 55.7163 44.6963 30.4100 0.0000 0.0000 0.0000
# 3 50.3172 30.4100 53.8939 0.0000 0.0000 0.0000
# 4 0.0000 0.0000 0.0000 16.3646 0.0000 0.0000
# 5 0.0000 0.0000 0.0000 0.0000 20.7641 0.0000
# 6 0.0000 0.0000 0.0000 0.0000 0.0000 22.9020
#
#
#
# Elastic Compliance Matrix: (Units=1/GPa)
#
#
# Indices 1 2 3 4 5 6 
#
# 1 0.016975 -0.016844 -0.006344 0.000000 0.000000 0.000000
# 2 -0.016844 0.053028 -0.014196 0.000000 0.000000 0.000000
# 3 -0.006344 -0.014196 0.032488 0.000000 0.000000 0.000000
# 4 0.000000 0.000000 0.000000 0.061107 0.000000 0.000000
# 5 0.000000 0.000000 0.000000 0.000000 0.048160 0.000000
# 6 0.000000 0.000000 0.000000 0.000000 0.000000 0.043664
#
#
# Mechanical properties :
#
#
# Convention : Reuss Voigt Hill
#
# Bulk Modulus (GPa) = 36.06973 56.05321 46.06147
# Shear Modulus (GPa) = 14.73055 18.34938 16.53996
#
# Velocity S-wave (km/s) = 3.09163 3.45055 3.27601
# Velocity P-wave (km/s) = 6.01238 7.22815 6.64812
#
# Compressibility (1/GPa) = 0.02772408
#
# Stress axis : x y z
#
# Youngs Moduli (GPa) = 58.91050 18.85799 30.78056
#
# Poissons Ratio (x) = 0.31764 0.19528
# Poissons Ratio (y) = 0.99227 0.43695
# Poissons Ratio (z) = 0.37374 0.26770
#
# Static dielectric constant tensor:
#      x y z
#    x 1.535530 0.000000 0.000000 
#    y 0.000000 1.516420 0.000000 
#    z 0.000000 0.000000 1.495630 
# 
# From -- ./inp_files/26512.got.cif
#   From: 2010.05.17/outbox.cif.g08.bks.cpg/sg51_14_cif.got.tgz:26512.got - 2010.06.03 11:52:47.
