data_PCOD9402920
_publ_section_title
;
Structure prediction by ZEFSAII (Michael W. Deem and Ramdas Pophale) SiO2 
 PCOD9402920
Probable space group: P M M A
;
_chemical_formula_sum "Si O2"
_cell_formula_units_Z 64
_cell_length_a 8.574983
_cell_length_b 19.685046
_cell_length_c 24.435920
_cell_angle_alpha 90.000000
_cell_angle_beta 90.000000
_cell_angle_gamma 90.000000
_cell_volume 4124.757267
_symmetry_space_group_name_H-M "P M M A"
_symmetry_group_IT_number 51
_symmetry_cell_setting 'orthorhombic'
loop_
_space_group_symop_operation_xyz
x,y,z
1/2-x,-y,z
1/2+x,-y,-z
-x,y,-z
-x,-y,-z
1/2+x,y,-z
1/2-x,y,z
x,-y,z
loop_
_atom_site_type_symbol
_atom_site_label
_atom_site_fract_x
_atom_site_fract_y
_atom_site_fract_z
Si Si1 0.436986 0.785063 0.440149
Si Si2 0.936933 0.703810 0.338323
Si Si3 0.061953 0.421279 0.940785
Si Si4 0.562346 0.924457 0.740910
Si Si5 0.939054 0.652359 0.168877
Si Si6 0.937064 0.421878 0.723893
Si Si7 0.437231 0.785032 0.770825
Si Si8 0.439725 0.075338 0.386586
O O1 0.500000 0.768889 0.500000
O O2 0.250000 0.785386 0.440790
O O3 0.494461 0.732952 0.394076
O O4 0.492997 0.860534 0.421701
O O5 0.750000 0.704165 0.340591
O O6 0.986117 0.752859 0.287771
O O7 0.995268 0.629400 0.321254
O O8 0.250000 0.420074 0.942104
O O9 0.013422 0.500000 0.931933
O O10 0.009704 0.375397 0.889907
O O11 0.000000 0.399639 0.000000
O O12 0.750000 0.923329 0.741469
O O13 0.501618 0.860667 0.774651
O O14 0.513640 0.916218 0.677086
O O15 0.511512 0.000000 0.758700
O O16 0.750000 0.649548 0.170977
O O17 0.986077 0.729424 0.184056
O O18 0.001874 0.604971 0.217572
O O19 0.750000 0.417754 0.723354
O O20 0.983889 0.500000 0.715650
O O21 0.250000 0.788090 0.771104
O O22 0.250000 0.075471 0.387335
O O23 0.490824 0.000000 0.404974
#
# Coordination Sequence:
#
# PCOD9402920 Si02
#       8
#     8   8   8   8   8   8   8   8
#     4  11  21  33  50  68  90 118 150 189 227 269
#     4  10  20  34  50  68  91 118 150 184 225 277
#     4   9  17  29  45  64  91 129 167 198 228 263
#     4   9  16  27  44  64  87 118 152 182 221 274
#     4   9  18  31  46  67  96 129 160 192 229 271
#     4  10  20  32  49  74  98 119 147 186 229 272
#     4   9  17  28  44  66  91 116 148 189 228 267
#     4   8  15  28  45  64  87 117 150 183 221 266
#
# _framework density 15.516064999999999
#
# number of rings (size 3 to 8) (size 9 to 14) (size 15 to 20)
#    0.000    2.625    1.250    3.000    0.000    4.500 
#    0.000    1.250    0.000    1.500    0.000    0.000 
#    0.000    0.500    0.000    1.125    0.000    2.000 
#
# Total GULP energy -356727.927839 kJ/mol
# GULP energy per Si atom -5573.873872 kJ/mol
# Density = 1.548075 g / cm^3
# Si number density = 15.516065 Si / 1000 Ang^3
#
#
#
# Elastic Constant Matrix: (Units=GPa)
#
#
# Indices 1 2 3 4 5 6 
#
# 1 18.1621 28.7294 24.0181 0.0000 0.0000 0.0000
# 2 28.7294 140.6555 76.7290 0.0000 0.0000 0.0000
# 3 24.0181 76.7290 115.3372 0.0000 0.0000 0.0000
# 4 0.0000 0.0000 0.0000 24.6816 0.0000 0.0000
# 5 0.0000 0.0000 0.0000 0.0000 19.4832 0.0000
# 6 0.0000 0.0000 0.0000 0.0000 0.0000 21.1006
#
#
#
# Elastic Compliance Matrix: (Units=1/GPa)
#
#
# Indices 1 2 3 4 5 6 
#
# 1 0.088136 -0.012541 -0.010011 0.000000 0.000000 0.000000
# 2 -0.012541 0.012944 -0.005999 0.000000 0.000000 0.000000
# 3 -0.010011 -0.005999 0.014746 0.000000 0.000000 0.000000
# 4 0.000000 0.000000 0.000000 0.040516 0.000000 0.000000
# 5 0.000000 0.000000 0.000000 0.000000 0.051326 0.000000
# 6 0.000000 0.000000 0.000000 0.000000 0.000000 0.047392
#
#
# Mechanical properties :
#
#
# Convention : Reuss Voigt Hill
#
# Bulk Modulus (GPa) = 17.02888 59.23421 38.13154
# Shear Modulus (GPa) = 15.07214 22.69830 18.88522
#
# Velocity S-wave (km/s) = 3.12009 3.82892 3.49254
# Velocity P-wave (km/s) = 4.89682 7.60306 6.39474
#
# Compressibility (1/GPa) = 0.05872378
#
# Stress axis : x y z
#
# Youngs Moduli (GPa) = 11.34605 77.25636 67.81504
#
# Poissons Ratio (x) = 0.96890 0.67886
# Poissons Ratio (y) = 0.14229 0.40685
# Poissons Ratio (z) = 0.11358 0.46349
#
# Static dielectric constant tensor:
#      x y z
#    x 1.526290 0.000000 0.000000 
#    y 0.000000 1.531700 0.000000 
#    z 0.000000 0.000000 1.491820 
# 
# From -- ./inp_files/32630.got.cif
#   From: 2010.05.17/outbox.cif.g08.bks.cpg/sg51_17_cif.got.tgz:32630.got - 2010.06.03 11:52:47.
