data_PCOD9402154
_publ_section_title
;
Structure prediction by ZEFSAII (Michael W. Deem and Ramdas Pophale) SiO2 
 PCOD9402154
Probable space group: P M M A
;
_chemical_formula_sum "Si O2"
_cell_formula_units_Z 48
_cell_length_a 19.542328
_cell_length_b 7.743680
_cell_length_c 15.650934
_cell_angle_alpha 90.000000
_cell_angle_beta 90.000000
_cell_angle_gamma 90.000000
_cell_volume 2368.448557
_symmetry_space_group_name_H-M "P M M A"
_symmetry_group_IT_number 51
_symmetry_cell_setting 'orthorhombic'
loop_
_space_group_symop_operation_xyz
x,y,z
1/2-x,-y,z
1/2+x,-y,-z
-x,y,-z
-x,-y,-z
1/2+x,y,-z
1/2-x,y,z
x,-y,z
loop_
_atom_site_type_symbol
_atom_site_label
_atom_site_fract_x
_atom_site_fract_y
_atom_site_fract_z
Si Si1 0.671510 0.291024 0.074988
Si Si2 0.073064 0.300489 0.266222
Si Si3 0.671262 0.710938 0.881391
Si Si4 0.577557 0.198648 0.232832
Si Si5 0.327631 0.291492 0.606885
Si Si6 0.072258 0.288304 0.458671
O O1 0.750000 0.236915 0.094093
O O2 0.671015 0.500000 0.076596
O O3 0.618746 0.229576 0.145774
O O4 0.654540 0.234167 0.978375
O O5 0.095208 0.500000 0.274269
O O6 0.119928 0.224567 0.191234
O O7 0.079129 0.225585 0.361549
O O8 0.993647 0.298526 0.239931
O O9 0.750000 0.758464 0.863518
O O10 0.668552 0.500000 0.883089
O O11 0.627503 0.244116 0.311016
O O12 0.558297 0.000000 0.239675
O O13 0.250000 0.227016 0.612913
O O14 0.325199 0.500000 0.604271
O O15 0.367076 0.233819 0.521669
O O16 0.071222 0.500000 0.457051
O O17 0.000000 0.235002 0.500000
#
# Coordination Sequence:
#
# PCOD9402154 Si02
#       6
#     8   8   8   8   8   8
#     4   9  18  35  57  78 104 138 175 217 268 323
#     4  10  19  34  58  81 108 143 176 214 264 320
#     4   8  16  32  56  85 108 130 171 224 269 313
#     4  12  24  35  50  76 110 143 181 223 263 312
#     4  10  20  35  56  81 107 138 178 221 267 319
#     4   9  16  30  53  79 106 135 170 211 257 311
#
# _framework density 20.266431999999998
#
# number of rings (size 3 to 8) (size 9 to 14) (size 15 to 20)
#    0.000    2.333    1.667    3.000    0.000    4.000 
#    0.000    9.167    0.000    1.500    0.000    0.000 
#    0.000    0.000    0.000    0.000    0.000    0.000 
#
# Total GULP energy -267968.823319 kJ/mol
# GULP energy per Si atom -5582.683819 kJ/mol
# Density = 2.022031 g / cm^3
# Si number density = 20.266432 Si / 1000 Ang^3
#
#
#
# Elastic Constant Matrix: (Units=GPa)
#
#
# Indices 1 2 3 4 5 6 
#
# 1 106.0232 -8.0981 98.7676 0.0000 0.0000 0.0000
# 2 -8.0981 32.5413 -1.7198 0.0000 0.0000 0.0000
# 3 98.7676 -1.7198 188.0494 0.0000 0.0000 0.0000
# 4 0.0000 0.0000 0.0000 -71.7496 0.0000 0.0000
# 5 0.0000 0.0000 0.0000 0.0000 42.1186 0.0000
# 6 0.0000 0.0000 0.0000 0.0000 0.0000 -21.9341
#
#
#
# Elastic Compliance Matrix: (Units=1/GPa)
#
#
# Indices 1 2 3 4 5 6 
#
# 1 0.019027 0.004209 -0.009955 0.000000 0.000000 0.000000
# 2 0.004209 0.031676 -0.001921 0.000000 0.000000 0.000000
# 3 -0.009955 -0.001921 0.010529 0.000000 0.000000 0.000000
# 4 0.000000 0.000000 0.000000 -0.013937 0.000000 0.000000
# 5 0.000000 0.000000 0.000000 0.000000 0.023742 0.000000
# 6 0.000000 0.000000 0.000000 0.000000 0.000000 -0.045591
#
#
# Mechanical properties :
#
#
# Convention : Reuss Voigt Hill
#
# Bulk Modulus (GPa) = 21.78751 56.05704 38.92227
# Shear Modulus (GPa) = 89.15981 5.53124 47.34552
#
# Velocity S-wave (km/s) = 6.63998 1.65384 4.83862
# Velocity P-wave (km/s) = 8.34024 5.60063 7.10376
#
# Compressibility (1/GPa) = 0.04589787
#
# Stress axis : x y z
#
# Youngs Moduli (GPa) = 52.55684 31.56962 94.97832
#
# Poissons Ratio (x) = -0.13287 0.94550
# Poissons Ratio (y) = -0.22120 0.18244
# Poissons Ratio (z) = 0.52320 0.06064
#
# Static dielectric constant tensor:
#      x y z
#    x 1.696900 0.000000 0.000000 
#    y 0.000000 1.742140 0.000000 
#    z 0.000000 0.000000 1.706470 
# 
# From -- ./inp_files/24822.got.cif
#   From: 2010.05.17/outbox.cif.g08.bks.cpg/sg51_13_cif.got.tgz:24822.got - 2010.06.03 11:52:47.
