data_PCOD9402953
_publ_section_title
;
Structure prediction by ZEFSAII (Michael W. Deem and Ramdas Pophale) SiO2 
 PCOD9402953
Probable space group: P M M A
;
_chemical_formula_sum "Si O2"
_cell_formula_units_Z 64
_cell_length_a 15.325071
_cell_length_b 7.690372
_cell_length_c 24.639953
_cell_angle_alpha 90.000000
_cell_angle_beta 90.000000
_cell_angle_gamma 90.000000
_cell_volume 2903.953905
_symmetry_space_group_name_H-M "P M M A"
_symmetry_group_IT_number 51
_symmetry_cell_setting 'orthorhombic'
loop_
_space_group_symop_operation_xyz
x,y,z
1/2-x,-y,z
1/2+x,-y,-z
-x,y,-z
-x,-y,-z
1/2+x,y,-z
1/2-x,y,z
x,-y,z
loop_
_atom_site_type_symbol
_atom_site_label
_atom_site_fract_x
_atom_site_fract_y
_atom_site_fract_z
Si Si1 0.471667 0.209964 0.177185
Si Si2 0.347230 0.792315 0.477706
Si Si3 0.653896 0.703732 0.397011
Si Si4 0.151000 0.708650 0.278528
Si Si5 0.411103 0.701901 0.974182
Si Si6 0.534940 0.708381 0.622558
Si Si7 0.346546 0.796343 0.856418
Si Si8 0.156578 0.209649 0.085628
O O1 0.411016 0.254519 0.227603
O O2 0.570931 0.276811 0.176789
O O3 0.422277 0.272692 0.122906
O O4 0.475398 0.000000 0.173789
O O5 0.250000 0.741072 0.457139
O O6 0.356611 0.715586 0.537756
O O7 0.421855 0.741103 0.435844
O O8 0.348875 0.000000 0.483581
O O9 0.750000 0.779534 0.383810
O O10 0.657111 0.500000 0.382370
O O11 0.563916 0.778675 0.373309
O O12 0.250000 0.776130 0.272668
O O13 0.157241 0.500000 0.283668
O O14 0.101086 0.776569 0.331853
O O15 0.426685 0.500000 0.961193
O O16 0.374315 0.785569 0.919785
O O17 0.500000 0.779081 0.000000
O O18 0.347607 0.717780 0.025260
O O19 0.529080 0.500000 0.629066
O O20 0.250000 0.718698 0.849185
O O21 0.340426 0.000000 0.842557
O O22 0.250000 0.254450 0.111357
O O23 0.151564 0.000000 0.082019
#
# Coordination Sequence:
#
# PCOD9402953 Si02
#       8
#     8   8   8   8   8   8   8   8
#     4  10  21  38  59  80 105 136 176 223 266 314
#     4  10  20  32  49  78 114 147 180 222 271 321
#     4   9  18  33  53  77 107 145 185 221 260 313
#     4  10  22  39  58  81 109 139 173 219 273 323
#     4  11  22  34  51  79 113 145 175 212 259 314
#     4  10  20  35  55  78 106 143 184 224 267 318
#     4  10  21  38  60  82 106 141 182 221 263 315
#     4  10  20  34  54  78 103 136 177 215 257 313
#
# _framework density 22.038917000000001
#
# number of rings (size 3 to 8) (size 9 to 14) (size 15 to 20)
#    0.000    2.000    1.250    2.250    0.000    8.000 
#    0.000    0.625    0.000    0.750    0.000    0.000 
#    0.000    0.000    0.000    0.000    0.000    0.000 
#
# Total GULP energy -357337.233626 kJ/mol
# GULP energy per Si atom -5583.394275 kJ/mol
# Density = 2.198876 g / cm^3
# Si number density = 22.038917 Si / 1000 Ang^3
#
#
#
# Elastic Constant Matrix: (Units=GPa)
#
#
# Indices 1 2 3 4 5 6 
#
# 1 218.9297 16.9976 40.8335 0.0000 0.0000 0.0000
# 2 16.9976 41.0955 -2.9895 0.0000 0.0000 0.0000
# 3 40.8335 -2.9895 40.7422 0.0000 0.0000 0.0000
# 4 0.0000 0.0000 0.0000 18.2602 0.0000 0.0000
# 5 0.0000 0.0000 0.0000 0.0000 58.0330 0.0000
# 6 0.0000 0.0000 0.0000 0.0000 0.0000 0.5550
#
#
#
# Elastic Compliance Matrix: (Units=1/GPa)
#
#
# Indices 1 2 3 4 5 6 
#
# 1 0.005944 -0.002908 -0.006171 0.000000 0.000000 0.000000
# 2 -0.002908 0.025886 0.004814 0.000000 0.000000 0.000000
# 3 -0.006171 0.004814 0.031083 0.000000 0.000000 0.000000
# 4 0.000000 0.000000 0.000000 0.054764 0.000000 0.000000
# 5 0.000000 0.000000 0.000000 0.000000 0.017232 0.000000
# 6 0.000000 0.000000 0.000000 0.000000 0.000000 1.801684
#
#
# Mechanical properties :
#
#
# Convention : Reuss Voigt Hill
#
# Bulk Modulus (GPa) = 18.38801 45.60562 31.99682
# Shear Modulus (GPa) = 2.54680 31.76470 17.15575
#
# Velocity S-wave (km/s) = 1.07615 3.80057 2.79306
# Velocity P-wave (km/s) = 3.14733 6.32433 4.99514
#
# Compressibility (1/GPa) = 0.05438326
#
# Stress axis : x y z
#
# Youngs Moduli (GPa) = 168.22495 38.63037 32.17222
#
# Poissons Ratio (x) = 0.11232 0.19854
# Poissons Ratio (y) = 0.48913 -0.15486
# Poissons Ratio (z) = 1.03813 -0.18595
#
# Static dielectric constant tensor:
#      x y z
#    x 1.893090 0.000000 0.000000 
#    y 0.000000 1.823600 0.000000 
#    z 0.000000 0.000000 1.760950 
# 
# From -- ./inp_files/35688.got.cif
#   From: 2010.05.17/outbox.cif.g08.bks.cpg/sg51_18_cif.got.tgz:35688.got - 2010.06.03 11:52:47.
