data_PCOD9402686
_publ_section_title
;
Structure prediction by ZEFSAII (Michael W. Deem and Ramdas Pophale) SiO2 
 PCOD9402686
Probable space group: P M M A
;
_chemical_formula_sum "Si O2"
_cell_formula_units_Z 64
_cell_length_a 20.876082
_cell_length_b 9.255529
_cell_length_c 19.685876
_cell_angle_alpha 90.000000
_cell_angle_beta 90.000000
_cell_angle_gamma 90.000000
_cell_volume 3803.688865
_symmetry_space_group_name_H-M "P M M A"
_symmetry_group_IT_number 51
_symmetry_cell_setting 'orthorhombic'
loop_
_space_group_symop_operation_xyz
x,y,z
1/2-x,-y,z
1/2+x,-y,-z
-x,y,-z
-x,-y,-z
1/2+x,y,-z
1/2-x,y,z
x,-y,z
loop_
_atom_site_type_symbol
_atom_site_label
_atom_site_fract_x
_atom_site_fract_y
_atom_site_fract_z
Si Si1 0.947771 0.835225 0.149370
Si Si2 0.489931 0.173813 0.705927
Si Si3 0.455683 0.328905 0.566245
Si Si4 0.119597 0.671773 0.244169
Si Si5 0.824635 0.839747 0.638746
Si Si6 0.399875 0.834491 0.112060
Si Si7 0.825105 0.330530 0.507368
Si Si8 0.076060 0.334952 0.980901
O O1 0.917054 0.728813 0.094563
O O2 0.943230 0.797765 0.229197
O O3 0.023961 0.834625 0.130794
O O4 0.925526 0.000000 0.139012
O O5 0.470669 0.234722 0.632679
O O6 0.554193 0.257540 0.727357
O O7 0.498903 0.000000 0.704507
O O8 0.500000 0.293126 0.500000
O O9 0.467495 0.500000 0.580232
O O10 0.380272 0.311319 0.548497
O O11 0.116005 0.500000 0.243213
O O12 0.169125 0.734961 0.297698
O O13 0.131362 0.735673 0.169647
O O14 0.750000 0.856326 0.625336
O O15 0.849373 0.763005 0.571159
O O16 0.852423 0.000000 0.650954
O O17 0.378156 0.000000 0.115505
O O18 0.392737 0.766450 0.037837
O O19 0.750000 0.296759 0.489996
O O20 0.825891 0.500000 0.526794
O O21 0.098105 0.500000 0.985397
O O22 0.000000 0.335003 0.000000
#
# Coordination Sequence:
#
# PCOD9402686 Si02
#       8
#     8   8   8   8   8   8   8   8
#     4   8  15  26  38  54  79 112 145 178 219 266
#     4  10  20  32  46  65  90 120 153 189 232 280
#     4  10  20  32  47  69  95 123 157 196 237 283
#     4  11  20  30  45  64  90 121 153 189 228 273
#     4  10  20  33  49  68  89 115 150 190 230 274
#     4   9  16  26  39  56  82 115 149 183 219 261
#     4   9  18  33  51  70  94 124 156 192 237 285
#     4   9  15  22  35  56  80 109 146 182 216 259
#
# _framework density 16.825771
#
# number of rings (size 3 to 8) (size 9 to 14) (size 15 to 20)
#    0.000    2.500    0.000    4.125    0.000    7.500 
#    0.000    0.000    0.000    0.000    0.000    0.000 
#    0.000    1.000    0.000    6.500    0.000    5.250 
#
# Total GULP energy -356327.830577 kJ/mol
# GULP energy per Si atom -5567.622353 kJ/mol
# Density = 1.678748 g / cm^3
# Si number density = 16.825771 Si / 1000 Ang^3
#
#
#
# Elastic Constant Matrix: (Units=GPa)
#
#
# Indices 1 2 3 4 5 6 
#
# 1 24.3777 15.6388 17.3576 0.0000 0.0000 0.0000
# 2 15.6388 118.8689 73.4273 0.0000 0.0000 0.0000
# 3 17.3576 73.4273 127.2469 0.0000 0.0000 0.0000
# 4 0.0000 0.0000 0.0000-3840.4620 0.0000 0.0000
# 5 0.0000 0.0000 0.0000 0.0000 11.3605 0.0000
# 6 0.0000 0.0000 0.0000 0.0000 0.0000 11.0749
#
#
#
# Elastic Compliance Matrix: (Units=1/GPa)
#
#
# Indices 1 2 3 4 5 6 
#
# 1 0.046303 -0.003403 -0.004352 0.000000 0.000000 0.000000
# 2 -0.003403 0.013322 -0.007223 0.000000 0.000000 0.000000
# 3 -0.004352 -0.007223 0.012621 0.000000 0.000000 0.000000
# 4 0.000000 0.000000 0.000000 -0.000260 0.000000 0.000000
# 5 0.000000 0.000000 0.000000 0.000000 0.088024 0.000000
# 6 0.000000 0.000000 0.000000 0.000000 0.000000 0.090294
#
#
# Mechanical properties :
#
#
# Convention : Reuss Voigt Hill
#
# Bulk Modulus (GPa) = 23.64721 53.70455 38.67588
# Shear Modulus (GPa) = 16.98610 -752.66732 -367.84061
#
# Velocity S-wave (km/s) = 3.18075 -21.17312 -14.80176
# Velocity P-wave (km/s) = 5.25112 23.78545 16.40386
#
# Compressibility (1/GPa) = 0.04228829
#
# Stress axis : x y z
#
# Youngs Moduli (GPa) = 21.59675 75.06166 79.23524
#
# Poissons Ratio (x) = 0.25546 0.34485
# Poissons Ratio (y) = 0.07350 0.57235
# Poissons Ratio (z) = 0.09400 0.54220
#
# Static dielectric constant tensor:
#      x y z
#    x 1.599640 0.000000 0.000000 
#    y 0.000000 1.588630 0.000000 
#    z 0.000000 0.000000 1.590940 
# 
# From -- ./inp_files/30590.got.cif
#   From: 2010.05.17/outbox.cif.g08.bks.cpg/sg51_16_cif.got.tgz:30590.got - 2010.06.03 11:52:47.
