data_PCOD9402059
_publ_section_title
;
Structure prediction by ZEFSAII (Michael W. Deem and Ramdas Pophale) SiO2 
 PCOD9402059
Probable space group: P M M A
;
_chemical_formula_sum "Si O2"
_cell_formula_units_Z 48
_cell_length_a 8.395710
_cell_length_b 32.203703
_cell_length_c 9.218096
_cell_angle_alpha 90.000000
_cell_angle_beta 90.000000
_cell_angle_gamma 90.000000
_cell_volume 2492.323821
_symmetry_space_group_name_H-M "P M M A"
_symmetry_group_IT_number 51
_symmetry_cell_setting 'orthorhombic'
loop_
_space_group_symop_operation_xyz
x,y,z
1/2-x,-y,z
1/2+x,-y,-z
-x,y,-z
-x,-y,-z
1/2+x,y,-z
1/2-x,y,z
x,-y,z
loop_
_atom_site_type_symbol
_atom_site_label
_atom_site_fract_x
_atom_site_fract_y
_atom_site_fract_z
Si Si1 0.557389 0.747280 0.335268
Si Si2 0.557438 0.417528 0.335037
Si Si3 0.058013 0.000000 0.333756
Si Si4 0.942560 0.500000 0.164985
Si Si5 0.440573 0.829160 0.835932
Si Si6 0.557466 0.335101 0.164872
Si Si7 0.441313 0.909381 0.333727
O O1 0.500000 0.745884 0.500000
O O2 0.750000 0.747348 0.335283
O O3 0.502140 0.789287 0.255838
O O4 0.503672 0.706600 0.247044
O O5 0.500000 0.417823 0.500000
O O6 0.750000 0.417531 0.335433
O O7 0.503584 0.458691 0.249574
O O8 0.503512 0.376063 0.251438
O O9 0.005803 0.044988 0.275152
O O10 0.000000 0.000000 0.500000
O O11 0.250000 0.000000 0.331317
O O12 0.750000 0.500000 0.164550
O O13 0.000000 0.500000 0.000000
O O14 0.250000 0.828404 0.836155
O O15 0.496241 0.871494 0.760618
O O16 0.500000 0.826543 0.000000
O O17 0.750000 0.335136 0.164572
O O18 0.500000 0.335790 0.000000
O O19 0.500000 0.905350 0.500000
O O20 0.250000 0.908306 0.334786
#
# Coordination Sequence:
#
# PCOD9402059 Si02
#       7
#     8   8   4   4   8   8   8
#     4  10  22  38  57  81 108 138 177 220 265 317
#     4  10  21  36  55  80 110 142 182 225 268 319
#     4   8  16  30  51  78 107 138 174 216 262 310
#     4  10  21  36  54  80 110 142 181 226 272 324
#     4  11  23  38  55  78 107 141 179 221 269 321
#     4  10  21  37  56  81 110 142 179 220 265 318
#     4  10  19  34  56  82 110 141 178 220 264 315
#
# _framework density 19.259134
#
# number of rings (size 3 to 8) (size 9 to 14) (size 15 to 20)
#    0.000    2.000    0.000    3.250    0.000    5.333 
#    0.000    0.417    0.000    0.000    0.000    0.000 
#    0.000    0.000    0.000    0.000    0.000    0.000 
#
# Total GULP energy -268073.538887 kJ/mol
# GULP energy per Si atom -5584.865393 kJ/mol
# Density = 1.921530 g / cm^3
# Si number density = 19.259134 Si / 1000 Ang^3
#
#
#
# Elastic Constant Matrix: (Units=GPa)
#
#
# Indices 1 2 3 4 5 6 
#
# 1 16.8243 30.9940 19.0024 0.0000 0.0000 0.0000
# 2 30.9940 240.0923 127.4890 0.0000 0.0000 0.0000
# 3 19.0024 127.4890 181.8070 0.0000 0.0000 0.0000
# 4 0.0000 0.0000 0.0000 -7.7745 0.0000 0.0000
# 5 0.0000 0.0000 0.0000 0.0000 38.1986 0.0000
# 6 0.0000 0.0000 0.0000 0.0000 0.0000 35.9863
#
#
#
# Elastic Compliance Matrix: (Units=1/GPa)
#
#
# Indices 1 2 3 4 5 6 
#
# 1 0.078330 -0.009184 -0.001747 0.000000 0.000000 0.000000
# 2 -0.009184 0.007713 -0.004449 0.000000 0.000000 0.000000
# 3 -0.001747 -0.004449 0.008802 0.000000 0.000000 0.000000
# 4 0.000000 0.000000 0.000000 -0.128626 0.000000 0.000000
# 5 0.000000 0.000000 0.000000 0.000000 0.026179 0.000000
# 6 0.000000 0.000000 0.000000 0.000000 0.000000 0.027788
#
#
# Mechanical properties :
#
#
# Convention : Reuss Voigt Hill
#
# Bulk Modulus (GPa) = 15.60396 88.18827 51.89611
# Shear Modulus (GPa) = 69.14820 30.69796 49.92308
#
# Velocity S-wave (km/s) = 5.99850 3.99675 5.09687
# Velocity P-wave (km/s) = 7.48971 8.19686 7.85125
#
# Compressibility (1/GPa) = 0.06408629
#
# Stress axis : x y z
#
# Youngs Moduli (GPa) = 12.76646 129.65323 113.60542
#
# Poissons Ratio (x) = 1.19077 0.19844
# Poissons Ratio (y) = 0.11725 0.50538
# Poissons Ratio (z) = 0.02230 0.57677
#
# Static dielectric constant tensor:
#      x y z
#    x 1.671290 0.000000 0.000000 
#    y 0.000000 1.694610 0.000000 
#    z 0.000000 0.000000 1.606030 
# 
# From -- ./inp_files/6173.got.cif
#   From: 2010.05.17/outbox.cif.g08.bks.cpg/sg51_4_cif.got.tgz:6173.got - 2010.06.03 11:52:47.
