data_PCOD9402004
_publ_section_title
;
Structure prediction by ZEFSAII (Michael W. Deem and Ramdas Pophale) SiO2 
 PCOD9402004
Probable space group: P M M A
;
_chemical_formula_sum "Si O2"
_cell_formula_units_Z 64
_cell_length_a 8.472987
_cell_length_b 25.205252
_cell_length_c 15.244184
_cell_angle_alpha 90.000000
_cell_angle_beta 90.000000
_cell_angle_gamma 90.000000
_cell_volume 3255.605444
_symmetry_space_group_name_H-M "P M M A"
_symmetry_group_IT_number 51
_symmetry_cell_setting 'orthorhombic'
loop_
_space_group_symop_operation_xyz
x,y,z
1/2-x,-y,z
1/2+x,-y,-z
-x,y,-z
-x,-y,-z
1/2+x,y,-z
1/2-x,y,z
x,-y,z
loop_
_atom_site_type_symbol
_atom_site_label
_atom_site_fract_x
_atom_site_fract_y
_atom_site_fract_z
Si Si1 0.432638 0.231504 0.916816
Si Si2 0.060531 0.342773 0.289371
Si Si3 0.432737 0.830490 0.237983
Si Si4 0.573570 0.937143 0.586388
Si Si5 0.432567 0.346283 0.092635
Si Si6 0.432091 0.940103 0.770241
Si Si7 0.939209 0.237889 0.600317
Si Si8 0.439076 0.559602 0.599387
O O1 0.250000 0.245641 0.928544
O O2 0.456814 0.202544 0.825877
O O3 0.543153 0.283059 0.914100
O O4 0.500000 0.199173 0.000000
O O5 0.250000 0.336590 0.280857
O O6 0.997470 0.354697 0.190554
O O7 0.005917 0.289524 0.341815
O O8 0.018464 0.393710 0.346553
O O9 0.250000 0.815344 0.225440
O O10 0.458443 0.890824 0.206549
O O11 0.474263 0.813618 0.338173
O O12 0.500000 0.911886 0.500000
O O13 0.750000 0.916375 0.609149
O O14 0.450315 0.936290 0.665091
O O15 0.595213 0.000000 0.569746
O O16 0.250000 0.361198 0.094511
O O17 0.500000 0.367991 0.000000
O O18 0.250000 0.932431 0.796018
O O19 0.481500 0.000000 0.795539
O O20 0.750000 0.241625 0.593682
O O21 0.000000 0.236964 0.500000
O O22 0.500000 0.562841 0.500000
O O23 0.250000 0.565819 0.600577
O O24 0.477083 0.500000 0.632081
#
# Coordination Sequence:
#
# PCOD9402004 Si02
#       8
#     8   8   8   8   8   8   8   8
#     4  11  21  35  58  86 114 145 182 225 278 336
#     4  10  20  36  57  82 116 154 192 238 290 341
#     4  11  22  39  58  79 112 147 183 229 276 332
#     4   9  16  27  44  65  88 118 159 207 257 305
#     4  10  19  34  55  84 119 150 187 234 284 341
#     4  10  21  36  53  75 102 133 175 224 272 329
#     4  10  22  38  54  78 113 149 185 228 276 333
#     4  10  21  36  55  82 115 153 202 253 296 341
#
# _framework density 19.658401999999999
#
# number of rings (size 3 to 8) (size 9 to 14) (size 15 to 20)
#    0.000    1.875    1.250    4.125    0.000    7.000 
#    0.000    1.250    0.000    0.750    0.000    0.000 
#    0.000    0.000    0.000    0.000    0.000    0.000 
#
# Total GULP energy -356394.588528 kJ/mol
# GULP energy per Si atom -5568.665446 kJ/mol
# Density = 1.961366 g / cm^3
# Si number density = 19.658402 Si / 1000 Ang^3
#
#
#
# Elastic Constant Matrix: (Units=GPa)
#
#
# Indices 1 2 3 4 5 6 
#
# 1 36.1810 3.1829 12.4555 0.0000 0.0000 0.0000
# 2 3.1829 72.0269 22.8389 0.0000 0.0000 0.0000
# 3 12.4555 22.8389 95.6682 0.0000 0.0000 0.0000
# 4 0.0000 0.0000 0.0000 8.6504 0.0000 0.0000
# 5 0.0000 0.0000 0.0000 0.0000 28.1112 0.0000
# 6 0.0000 0.0000 0.0000 0.0000 0.0000 19.1504
#
#
#
# Elastic Compliance Matrix: (Units=1/GPa)
#
#
# Indices 1 2 3 4 5 6 
#
# 1 0.028936 -0.000091 -0.003746 0.000000 0.000000 0.000000
# 2 -0.000091 0.015021 -0.003574 0.000000 0.000000 0.000000
# 3 -0.003746 -0.003574 0.011794 0.000000 0.000000 0.000000
# 4 0.000000 0.000000 0.000000 0.115602 0.000000 0.000000
# 5 0.000000 0.000000 0.000000 0.000000 0.035573 0.000000
# 6 0.000000 0.000000 0.000000 0.000000 0.000000 0.052218
#
#
# Mechanical properties :
#
#
# Convention : Reuss Voigt Hill
#
# Bulk Modulus (GPa) = 24.43226 31.20341 27.81784
# Shear Modulus (GPa) = 17.38474 22.20899 19.79687
#
# Velocity S-wave (km/s) = 2.97701 3.36481 3.17684
# Velocity P-wave (km/s) = 4.92668 5.56806 5.25716
#
# Compressibility (1/GPa) = 0.04092950
#
# Stress axis : x y z
#
# Youngs Moduli (GPa) = 34.55867 66.57333 84.79101
#
# Poissons Ratio (x) = 0.00606 0.31760
# Poissons Ratio (y) = 0.00315 0.30305
# Poissons Ratio (z) = 0.12944 0.23794
#
# Static dielectric constant tensor:
#      x y z
#    x 1.703000 0.000000 0.000000 
#    y 0.000000 1.730280 0.000000 
#    z 0.000000 0.000000 1.779110 
# 
# From -- ./inp_files/22367.got.cif
#   From: 2010.05.17/outbox.cif.g08.bks.cpg/sg51_12_cif.got.tgz:22367.got - 2010.06.03 11:52:47.
