data_PCOD9402593
_publ_section_title
;
Structure prediction by ZEFSAII (Michael W. Deem and Ramdas Pophale) SiO2 
 PCOD9402593
Probable space group: P M M A
;
_chemical_formula_sum "Si O2"
_cell_formula_units_Z 56
_cell_length_a 15.179766
_cell_length_b 13.992541
_cell_length_c 15.625015
_cell_angle_alpha 90.000000
_cell_angle_beta 90.000000
_cell_angle_gamma 90.000000
_cell_volume 3318.807844
_symmetry_space_group_name_H-M "P M M A"
_symmetry_group_IT_number 51
_symmetry_cell_setting 'orthorhombic'
loop_
_space_group_symop_operation_xyz
x,y,z
1/2-x,-y,z
1/2+x,-y,-z
-x,y,-z
-x,-y,-z
1/2+x,y,-z
1/2-x,y,z
x,-y,z
loop_
_atom_site_type_symbol
_atom_site_label
_atom_site_fract_x
_atom_site_fract_y
_atom_site_fract_z
Si Si1 0.032379 0.794422 0.807409
Si Si2 0.531169 0.611763 0.296165
Si Si3 0.655230 0.389646 0.618484
Si Si4 0.095597 0.724894 0.540931
Si Si5 0.148118 0.888476 0.946192
Si Si6 0.649260 0.110619 0.338724
Si Si7 0.148837 0.887160 0.151856
O O1 0.047231 0.684338 0.781460
O O2 0.079758 0.823841 0.895292
O O3 0.081902 0.854987 0.733796
O O4 0.930007 0.824790 0.809651
O O5 0.549103 0.500000 0.281118
O O6 0.428446 0.624397 0.321372
O O7 0.582759 0.651278 0.379803
O O8 0.750000 0.375833 0.661281
O O9 0.649359 0.500000 0.588983
O O10 0.648269 0.323368 0.535706
O O11 0.135753 0.820261 0.580564
O O12 0.000000 0.744847 0.500000
O O13 0.250000 0.868618 0.921970
O O14 0.129911 0.000000 0.925250
O O15 0.142188 0.878811 0.048565
O O16 0.750000 0.121214 0.307562
O O17 0.634815 0.000000 0.359702
O O18 0.250000 0.862084 0.175992
O O19 0.135757 0.000000 0.172226
#
# Coordination Sequence:
#
# PCOD9402593 Si02
#       7
#     8   8   8   8   8   8   8
#     4  11  19  29  49  69  92 127 158 185 226 278
#     4   9  19  32  44  64  92 119 151 192 236 276
#     4   9  16  28  48  68  84 108 147 195 238 272
#     4   9  17  30  48  67  87 116 152 193 236 277
#     4   9  17  30  50  75  98 119 149 189 228 269
#     4  10  20  31  44  67  98 127 154 186 226 277
#     4   9  18  31  48  73 100 122 149 188 229 268
#
# _framework density 16.873529999999999
#
# number of rings (size 3 to 8) (size 9 to 14) (size 15 to 20)
#    0.000    2.571    0.000    3.857    0.000    4.857 
#    0.000    0.000    0.000   10.286    0.000   16.000 
#    0.000    0.000    0.000    0.000    0.000    0.000 
#
# Total GULP energy -312144.208934 kJ/mol
# GULP energy per Si atom -5574.003731 kJ/mol
# Density = 1.683512 g / cm^3
# Si number density = 16.873530 Si / 1000 Ang^3
#
#
#
# Elastic Constant Matrix: (Units=GPa)
#
#
# Indices 1 2 3 4 5 6 
#
# 1 68.7992 41.0830 15.3586 0.0000 0.0000 0.0000
# 2 41.0830 106.6136 28.0830 0.0000 0.0000 0.0000
# 3 15.3586 28.0830 27.8043 0.0000 0.0000 0.0000
# 4 0.0000 0.0000 0.0000 22.3849 0.0000 0.0000
# 5 0.0000 0.0000 0.0000 0.0000 5.9082 0.0000
# 6 0.0000 0.0000 0.0000 0.0000 0.0000 10.1876
#
#
#
# Elastic Compliance Matrix: (Units=1/GPa)
#
#
# Indices 1 2 3 4 5 6 
#
# 1 0.019246 -0.006289 -0.004279 0.000000 0.000000 0.000000
# 2 -0.006289 0.014835 -0.011510 0.000000 0.000000 0.000000
# 3 -0.004279 -0.011510 0.049954 0.000000 0.000000 0.000000
# 4 0.000000 0.000000 0.000000 0.044673 0.000000 0.000000
# 5 0.000000 0.000000 0.000000 0.000000 0.169255 0.000000
# 6 0.000000 0.000000 0.000000 0.000000 0.000000 0.098159
#
#
# Mechanical properties :
#
#
# Convention : Reuss Voigt Hill
#
# Bulk Modulus (GPa) = 25.07540 41.36291 33.21915
# Shear Modulus (GPa) = 11.02365 15.60897 13.31631
#
# Velocity S-wave (km/s) = 2.55877 3.04477 2.81229
# Velocity P-wave (km/s) = 4.86033 6.07681 5.50229
#
# Compressibility (1/GPa) = 0.03987973
#
# Stress axis : x y z
#
# Youngs Moduli (GPa) = 51.95945 67.40862 20.01837
#
# Poissons Ratio (x) = 0.42395 0.08565
# Poissons Ratio (y) = 0.32678 0.23040
# Poissons Ratio (z) = 0.22232 0.77584
#
# Static dielectric constant tensor:
#      x y z
#    x 1.598980 0.000000 0.000000 
#    y 0.000000 1.555830 0.000000 
#    z 0.000000 0.000000 1.556870 
# 
# From -- ./inp_files/24317.got.cif
#   From: 2010.05.17/outbox.cif.g08.bks.cpg/sg51_13_cif.got.tgz:24317.got - 2010.06.03 11:52:47.
