data_PCOD9402356
_publ_section_title
;
Structure prediction by ZEFSAII (Michael W. Deem and Ramdas Pophale) SiO2 
 PCOD9402356
Probable space group: P M M A
;
_chemical_formula_sum "Si O2"
_cell_formula_units_Z 48
_cell_length_a 31.794147
_cell_length_b 8.836474
_cell_length_c 9.217848
_cell_angle_alpha 90.000000
_cell_angle_beta 90.000000
_cell_angle_gamma 90.000000
_cell_volume 2589.737373
_symmetry_space_group_name_H-M "P M M A"
_symmetry_group_IT_number 51
_symmetry_cell_setting 'orthorhombic'
loop_
_space_group_symop_operation_xyz
x,y,z
1/2-x,-y,z
1/2+x,-y,-z
-x,y,-z
-x,-y,-z
1/2+x,y,-z
1/2-x,y,z
x,-y,z
loop_
_atom_site_type_symbol
_atom_site_label
_atom_site_fract_x
_atom_site_fract_y
_atom_site_fract_z
Si Si1 0.915703 0.319039 0.181604
Si Si2 0.332169 0.316647 0.641340
Si Si3 0.250000 0.682626 0.157688
Si Si4 0.409510 0.679838 0.160824
Si Si5 0.750000 0.683642 0.177694
Si Si6 0.669823 0.819699 0.678856
Si Si7 0.996866 0.826189 0.823964
O O1 0.921680 0.500000 0.190757
O O2 0.875324 0.276986 0.276302
O O3 0.958833 0.239599 0.229116
O O4 0.907298 0.284733 0.011612
O O5 0.331030 0.500000 0.625925
O O6 0.292007 0.269913 0.737556
O O7 0.329999 0.241266 0.484970
O O8 0.250000 0.500000 0.164025
O O9 0.291222 0.745345 0.236437
O O10 0.250000 0.731419 0.989395
O O11 0.403991 0.500000 0.178334
O O12 0.373099 0.766766 0.244496
O O13 0.455715 0.729867 0.213970
O O14 0.750000 0.500000 0.176264
O O15 0.673491 0.000000 0.681490
O O16 0.991341 0.000000 0.779942
O O17 0.000000 0.821387 0.000000
#
# Coordination Sequence:
#
# PCOD9402356 Si02
#       7
#     8   8   4   8   4   8   8
#     4   9  18  33  56  84 111 144 192 239 277 328
#     4  10  20  37  59  83 112 148 187 228 276 330
#     4  11  22  41  66  88 110 143 186 229 274 326
#     4  10  19  35  59  84 110 146 190 234 278 328
#     4   9  19  37  64  90 108 135 184 235 272 318
#     4  12  25  39  55  83 119 151 184 225 276 332
#     4   9  17  30  51  81 115 148 182 228 285 335
#
# _framework density 18.534699
#
# number of rings (size 3 to 8) (size 9 to 14) (size 15 to 20)
#    0.000    2.000    0.000    4.250    0.000    6.667 
#    0.000    4.167    0.000    5.000    0.000    0.000 
#    0.000    0.000    0.000    0.000    0.000    0.000 
#
# Total GULP energy -268108.324754 kJ/mol
# GULP energy per Si atom -5585.590099 kJ/mol
# Density = 1.849251 g / cm^3
# Si number density = 18.534699 Si / 1000 Ang^3
#
#
#
# Elastic Constant Matrix: (Units=GPa)
#
#
# Indices 1 2 3 4 5 6 
#
# 1 168.0077 62.1816 78.8681 0.0000 0.0000 0.0000
# 2 62.1816 72.9772 54.6848 0.0000 0.0000 0.0000
# 3 78.8681 54.6848 109.4372 0.0000 0.0000 0.0000
# 4 0.0000 0.0000 0.0000 12.7201 0.0000 0.0000
# 5 0.0000 0.0000 0.0000 0.0000 -27.0687 0.0000
# 6 0.0000 0.0000 0.0000 0.0000 0.0000 20.2189
#
#
#
# Elastic Compliance Matrix: (Units=1/GPa)
#
#
# Indices 1 2 3 4 5 6 
#
# 1 0.010019 -0.004998 -0.004723 0.000000 0.000000 0.000000
# 2 -0.004998 0.024398 -0.008590 0.000000 0.000000 0.000000
# 3 -0.004723 -0.008590 0.016834 0.000000 0.000000 0.000000
# 4 0.000000 0.000000 0.000000 0.078615 0.000000 0.000000
# 5 0.000000 0.000000 0.000000 0.000000 -0.036943 0.000000
# 6 0.000000 0.000000 0.000000 0.000000 0.000000 0.049459
#
#
# Mechanical properties :
#
#
# Convention : Reuss Voigt Hill
#
# Bulk Modulus (GPa) = 68.35477 82.43235 75.39356
# Shear Modulus (GPa) = 27.19174 11.48657 19.33916
#
# Velocity S-wave (km/s) = 3.83439 2.49214 3.23368
# Velocity P-wave (km/s) = 7.52083 7.26995 7.39645
#
# Compressibility (1/GPa) = 0.01462956
#
# Stress axis : x y z
#
# Youngs Moduli (GPa) = 99.81083 40.98706 59.40461
#
# Poissons Ratio (x) = 0.20484 0.28057
# Poissons Ratio (y) = 0.49882 0.51027
# Poissons Ratio (z) = 0.47142 0.35207
#
# Static dielectric constant tensor:
#      x y z
#    x 1.619060 0.000000 0.000000 
#    y 0.000000 1.619110 0.000000 
#    z 0.000000 0.000000 1.617050 
# 
# From -- ./inp_files/12906.got.cif
#   From: 2010.05.17/outbox.cif.g08.bks.cpg/sg51_7_cif.got.tgz:12906.got - 2010.06.03 11:52:47.
