data_PCOD9402354
_publ_section_title
;
Structure prediction by ZEFSAII (Michael W. Deem and Ramdas Pophale) SiO2 
 PCOD9402354
Probable space group: P M M A
;
_chemical_formula_sum "Si O2"
_cell_formula_units_Z 48
_cell_length_a 20.570344
_cell_length_b 7.628560
_cell_length_c 14.144169
_cell_angle_alpha 90.000000
_cell_angle_beta 90.000000
_cell_angle_gamma 90.000000
_cell_volume 2219.532751
_symmetry_space_group_name_H-M "P M M A"
_symmetry_group_IT_number 51
_symmetry_cell_setting 'orthorhombic'
loop_
_space_group_symop_operation_xyz
x,y,z
1/2-x,-y,z
1/2+x,-y,-z
-x,y,-z
-x,-y,-z
1/2+x,y,-z
1/2-x,y,z
x,-y,z
loop_
_atom_site_type_symbol
_atom_site_label
_atom_site_fract_x
_atom_site_fract_y
_atom_site_fract_z
Si Si1 0.890144 0.790372 0.753961
Si Si2 0.750000 0.285766 0.458845
Si Si3 0.932397 0.208550 0.958808
Si Si4 0.865826 0.287595 0.320759
Si Si5 0.323069 0.288223 0.888406
Si Si6 0.493090 0.793632 0.395165
Si Si7 0.750000 0.291390 0.675189
O O1 0.911867 0.720286 0.856226
O O2 0.936093 0.718724 0.670380
O O3 0.815241 0.760698 0.729427
O O4 0.899940 0.000000 0.756615
O O5 0.750000 0.500000 0.459494
O O6 0.813837 0.231113 0.400122
O O7 0.750000 0.223161 0.566936
O O8 0.941739 0.000000 0.946995
O O9 0.875249 0.234162 0.034111
O O10 0.000000 0.281306 0.000000
O O11 0.866373 0.500000 0.321107
O O12 0.843212 0.229655 0.216821
O O13 0.937879 0.224599 0.343916
O O14 0.250000 0.227447 0.910328
O O15 0.322106 0.500000 0.886387
O O16 0.500000 0.715899 0.500000
O O17 0.478173 0.000000 0.407222
O O18 0.750000 0.500000 0.668466
#
# Coordination Sequence:
#
# PCOD9402354 Si02
#       7
#     8   4   8   8   8   8   4
#     4  10  22  40  59  81 116 155 186 229 288 340
#     4   9  18  35  56  81 114 152 189 229 282 337
#     4  10  22  40  61  83 111 150 192 231 278 340
#     4  10  19  35  59  83 114 152 188 231 286 343
#     4  10  21  37  58  86 117 148 186 237 290 335
#     4  10  21  37  58  85 116 150 191 239 286 333
#     4  11  23  37  58  85 112 146 193 237 270 329
#
# _framework density 21.626175
#
# number of rings (size 3 to 8) (size 9 to 14) (size 15 to 20)
#    0.000    2.000    0.833    2.250    1.167    4.333 
#    0.000    1.250    0.000    0.000    0.000    0.000 
#    0.000    0.000    0.000    0.000    0.000    0.000 
#
# Total GULP energy -268313.948868 kJ/mol
# GULP energy per Si atom -5589.873935 kJ/mol
# Density = 2.157695 g / cm^3
# Si number density = 21.626175 Si / 1000 Ang^3
#
#
#
# Elastic Constant Matrix: (Units=GPa)
#
#
# Indices 1 2 3 4 5 6 
#
# 1 194.1587 -12.6552 116.4333 0.0000 0.0000 0.0000
# 2 -12.6552 40.6573 9.7079 0.0000 0.0000 0.0000
# 3 116.4333 9.7079 205.3877 0.0000 0.0000 0.0000
# 4 0.0000 0.0000 0.0000 18.3671 0.0000 0.0000
# 5 0.0000 0.0000 0.0000 0.0000 63.8550 0.0000
# 6 0.0000 0.0000 0.0000 0.0000 0.0000 27.0484
#
#
#
# Elastic Compliance Matrix: (Units=1/GPa)
#
#
# Indices 1 2 3 4 5 6 
#
# 1 0.008337 0.003766 -0.004904 0.000000 0.000000 0.000000
# 2 0.003766 0.026578 -0.003391 0.000000 0.000000 0.000000
# 3 -0.004904 -0.003391 0.007809 0.000000 0.000000 0.000000
# 4 0.000000 0.000000 0.000000 0.054445 0.000000 0.000000
# 5 0.000000 0.000000 0.000000 0.000000 0.015660 0.000000
# 6 0.000000 0.000000 0.000000 0.000000 0.000000 0.036971
#
#
# Mechanical properties :
#
#
# Convention : Reuss Voigt Hill
#
# Bulk Modulus (GPa) = 29.70428 74.13063 51.91746
# Shear Modulus (GPa) = 29.39785 43.63528 36.51656
#
# Velocity S-wave (km/s) = 3.69096 4.49676 4.11364
# Velocity P-wave (km/s) = 5.65061 7.83031 6.82800
#
# Compressibility (1/GPa) = 0.03366518
#
# Stress axis : x y z
#
# Youngs Moduli (GPa) = 119.95050 37.62549 128.05370
#
# Poissons Ratio (x) = -0.14169 0.62799
# Poissons Ratio (y) = -0.45172 0.43424
# Poissons Ratio (z) = 0.58825 0.12759
#
# Static dielectric constant tensor:
#      x y z
#    x 1.738760 0.000000 0.000000 
#    y 0.000000 1.822350 0.000000 
#    z 0.000000 0.000000 1.776900 
# 
# From -- ./inp_files/24922.got.cif
#   From: 2010.05.17/outbox.cif.g08.bks.cpg/sg51_13_cif.got.tgz:24922.got - 2010.06.03 11:52:47.
