data_PCOD9402181
_publ_section_title
;
Structure prediction by ZEFSAII (Michael W. Deem and Ramdas Pophale) SiO2 
 PCOD9402181
Probable space group: P M M A
;
_chemical_formula_sum "Si O2"
_cell_formula_units_Z 52
_cell_length_a 8.955516
_cell_length_b 15.517966
_cell_length_c 20.647787
_cell_angle_alpha 90.000000
_cell_angle_beta 90.000000
_cell_angle_gamma 90.000000
_cell_volume 2869.451718
_symmetry_space_group_name_H-M "P M M A"
_symmetry_group_IT_number 51
_symmetry_cell_setting 'orthorhombic'
loop_
_space_group_symop_operation_xyz
x,y,z
1/2-x,-y,z
1/2+x,-y,-z
-x,y,-z
-x,-y,-z
1/2+x,y,-z
1/2-x,y,z
x,-y,z
loop_
_atom_site_type_symbol
_atom_site_label
_atom_site_fract_x
_atom_site_fract_y
_atom_site_fract_z
Si Si1 0.069209 0.093911 0.293341
Si Si2 0.075504 0.601121 0.780540
Si Si3 0.429783 0.098568 0.070012
Si Si4 0.574517 0.500000 0.568659
Si Si5 0.429791 0.167517 0.429323
Si Si6 0.424983 0.662128 0.632150
Si Si7 0.430197 0.772243 0.184479
O O1 0.250000 0.095022 0.288653
O O2 0.034985 0.103260 0.369656
O O3 0.017902 0.173475 0.248466
O O4 0.017497 0.000000 0.269677
O O5 0.250000 0.599536 0.798756
O O6 0.024020 0.500000 0.781275
O O7 0.066555 0.642216 0.708533
O O8 0.990222 0.674860 0.820561
O O9 0.250000 0.101279 0.065049
O O10 0.474151 0.168053 0.123811
O O11 0.470435 0.000000 0.088809
O O12 0.500000 0.116004 0.000000
O O13 0.750000 0.500000 0.564412
O O14 0.500000 0.500000 0.500000
O O15 0.513970 0.582999 0.603681
O O16 0.500000 0.149380 0.500000
O O17 0.250000 0.173355 0.435902
O O18 0.497520 0.255015 0.399209
O O19 0.250000 0.662281 0.614204
O O20 0.250000 0.767911 0.187667
#
# Coordination Sequence:
#
# PCOD9402181 Si02
#       7
#     8   8   8   4   8   8   8
#     4   9  18  33  54  79 106 138 180 227 276 329
#     4  10  21  37  56  79 109 143 178 223 281 333
#     4   9  18  33  56  88 125 159 188 221 264 317
#     4  12  24  36  52  74 100 130 171 222 281 344
#     4  11  22  36  53  74 100 137 182 228 280 333
#     4  11  21  37  55  73 101 135 174 223 281 339
#     4  10  19  34  58  86 113 145 186 228 270 319
#
# _framework density 18.121928
#
# number of rings (size 3 to 8) (size 9 to 14) (size 15 to 20)
#    0.000    1.846    2.308    2.538    0.000    3.692 
#    0.000    0.000    0.000    5.077    0.000    0.000 
#    0.000    0.000    0.000    0.000    0.000    0.000 
#
# Total GULP energy -289742.434836 kJ/mol
# GULP energy per Si atom -5571.969901 kJ/mol
# Density = 1.808068 g / cm^3
# Si number density = 18.121928 Si / 1000 Ang^3
#
#
#
# Elastic Constant Matrix: (Units=GPa)
#
#
# Indices 1 2 3 4 5 6 
#
# 1 30.1330 36.5871 40.9257 0.0000 0.0000 0.0000
# 2 36.5871 139.1384 54.3884 0.0000 0.0000 0.0000
# 3 40.9257 54.3884 89.3332 0.0000 0.0000 0.0000
# 4 0.0000 0.0000 0.0000 33.5773 0.0000 0.0000
# 5 0.0000 0.0000 0.0000 0.0000 21.6589 0.0000
# 6 0.0000 0.0000 0.0000 0.0000 0.0000 21.3399
#
#
#
# Elastic Compliance Matrix: (Units=1/GPa)
#
#
# Indices 1 2 3 4 5 6 
#
# 1 0.099016 -0.010899 -0.038726 0.000000 0.000000 0.000000
# 2 -0.010899 0.010631 -0.001480 0.000000 0.000000 0.000000
# 3 -0.038726 -0.001480 0.029836 0.000000 0.000000 0.000000
# 4 0.000000 0.000000 0.000000 0.029782 0.000000 0.000000
# 5 0.000000 0.000000 0.000000 0.000000 0.046170 0.000000
# 6 0.000000 0.000000 0.000000 0.000000 0.000000 0.046861
#
#
# Mechanical properties :
#
#
# Convention : Reuss Voigt Hill
#
# Bulk Modulus (GPa) = 26.82803 58.04522 42.43663
# Shear Modulus (GPa) = 13.26501 23.76209 18.51355
#
# Velocity S-wave (km/s) = 2.70846 3.62503 3.19973
# Velocity P-wave (km/s) = 4.96159 7.04422 6.09255
#
# Compressibility (1/GPa) = 0.03727445
#
# Stress axis : x y z
#
# Youngs Moduli (GPa) = 10.09935 94.06124 33.51619
#
# Poissons Ratio (x) = 1.02516 1.29796
# Poissons Ratio (y) = 0.11007 0.04959
# Poissons Ratio (z) = 0.39111 0.13917
#
# Static dielectric constant tensor:
#      x y z
#    x 1.609230 0.000000 0.000000 
#    y 0.000000 1.640560 0.000000 
#    z 0.000000 0.000000 1.628350 
# 
# From -- ./inp_files/31711.got.cif
#   From: 2010.05.17/outbox.cif.g08.bks.cpg/sg51_16_cif.got.tgz:31711.got - 2010.06.03 11:52:47.
