data_PCOD9402637
_publ_section_title
;
Structure prediction by ZEFSAII (Michael W. Deem and Ramdas Pophale) SiO2 
 PCOD9402637
Probable space group: P M M A
;
_chemical_formula_sum "Si O2"
_cell_formula_units_Z 64
_cell_length_a 9.174162
_cell_length_b 27.493279
_cell_length_c 15.896058
_cell_angle_alpha 90.000000
_cell_angle_beta 90.000000
_cell_angle_gamma 90.000000
_cell_volume 4009.427666
_symmetry_space_group_name_H-M "P M M A"
_symmetry_group_IT_number 51
_symmetry_cell_setting 'orthorhombic'
loop_
_space_group_symop_operation_xyz
x,y,z
1/2-x,-y,z
1/2+x,-y,-z
-x,y,-z
-x,-y,-z
1/2+x,y,-z
1/2-x,y,z
x,-y,z
loop_
_atom_site_type_symbol
_atom_site_label
_atom_site_fract_x
_atom_site_fract_y
_atom_site_fract_z
Si Si1 0.582718 0.193385 0.245079
Si Si2 0.918508 0.806471 0.585342
Si Si3 0.416011 0.076208 0.751424
Si Si4 0.577043 0.353111 0.908800
Si Si5 0.087801 0.942326 0.078742
Si Si6 0.076738 0.757689 0.091386
Si Si7 0.924472 0.446253 0.092385
Si Si8 0.582339 0.074846 0.584324
O O1 0.750000 0.210841 0.241973
O O2 0.501258 0.209807 0.330236
O O3 0.586755 0.134879 0.250228
O O4 0.496608 0.208777 0.161636
O O5 0.750000 0.791182 0.585818
O O6 0.918983 0.865801 0.584973
O O7 0.000000 0.791158 0.500000
O O8 0.250000 0.058815 0.753184
O O9 0.500755 0.062591 0.835361
O O10 0.499181 0.059096 0.668207
O O11 0.750000 0.362385 0.916591
O O12 0.558335 0.298239 0.876269
O O13 0.498414 0.399086 0.865331
O O14 0.500000 0.350492 0.000000
O O15 0.250000 0.921206 0.085606
O O16 0.102469 0.000000 0.063000
O O17 0.000000 0.920761 0.000000
O O18 0.250000 0.766621 0.082619
O O19 0.000000 0.762710 0.000000
O O20 0.750000 0.439569 0.084134
O O21 0.949273 0.500000 0.130804
O O22 0.000000 0.448437 0.000000
O O23 0.500000 0.059389 0.500000
O O24 0.750000 0.059461 0.584480
#
# Coordination Sequence:
#
# PCOD9402637 Si02
#       8
#     8   8   8   8   8   8   8   8
#     4  10  20  32  46  66  90 116 147 180 214 253
#     4   9  16  27  44  65  89 115 142 175 213 252
#     4  10  20  33  50  72  95 118 145 177 213 253
#     4   9  16  25  37  51  68  95 132 171 211 254
#     4  10  21  37  56  75  93 115 144 177 215 259
#     4  10  20  32  44  58  79 111 149 185 220 258
#     4   9  15  21  31  48  68  90 120 162 210 254
#     4   9  16  27  45  69  96 123 148 174 206 246
#
# _framework density 15.962377999999999
#
# number of rings (size 3 to 8) (size 9 to 14) (size 15 to 20)
#    0.000    2.500    0.000    3.750    0.000    8.000 
#    0.000    0.000    0.000    0.375    0.000    0.000 
#    0.000    0.000    0.000    0.000    0.000    0.625 
#
# Total GULP energy -356679.796468 kJ/mol
# GULP energy per Si atom -5573.121820 kJ/mol
# Density = 1.592605 g / cm^3
# Si number density = 15.962378 Si / 1000 Ang^3
#
#
#
# Elastic Constant Matrix: (Units=GPa)
#
#
# Indices 1 2 3 4 5 6 
#
# 1 163.2121 23.1352 78.4098 0.0000 0.0000 0.0000
# 2 23.1352 38.1932 12.8157 0.0000 0.0000 0.0000
# 3 78.4098 12.8157 121.9084 0.0000 0.0000 0.0000
# 4 0.0000 0.0000 0.0000 3.3852 0.0000 0.0000
# 5 0.0000 0.0000 0.0000 0.0000 26.2815 0.0000
# 6 0.0000 0.0000 0.0000 0.0000 0.0000 11.6738
#
#
#
# Elastic Compliance Matrix: (Units=1/GPa)
#
#
# Indices 1 2 3 4 5 6 
#
# 1 0.009367 -0.003786 -0.005627 0.000000 0.000000 0.000000
# 2 -0.003786 0.028670 -0.000579 0.000000 0.000000 0.000000
# 3 -0.005627 -0.000579 0.011883 0.000000 0.000000 0.000000
# 4 0.000000 0.000000 0.000000 0.295403 0.000000 0.000000
# 5 0.000000 0.000000 0.000000 0.000000 0.038050 0.000000
# 6 0.000000 0.000000 0.000000 0.000000 0.000000 0.085662
#
#
# Mechanical properties :
#
#
# Convention : Reuss Voigt Hill
#
# Bulk Modulus (GPa) = 33.40362 61.33725 47.37043
# Shear Modulus (GPa) = 10.02011 22.19829 16.10920
#
# Velocity S-wave (km/s) = 2.50818 3.73321 3.18023
# Velocity P-wave (km/s) = 5.41847 7.55592 6.57464
#
# Compressibility (1/GPa) = 0.02993687
#
# Stress axis : x y z
#
# Youngs Moduli (GPa) = 106.76078 34.87940 84.15613
#
# Poissons Ratio (x) = 0.13205 0.47351
# Poissons Ratio (y) = 0.40418 0.04872
# Poissons Ratio (z) = 0.60070 0.02019
#
# Static dielectric constant tensor:
#      x y z
#    x 1.553290 0.000000 0.000000 
#    y 0.000000 1.592000 0.000000 
#    z 0.000000 0.000000 1.500860 
# 
# From -- ./inp_files/22567.got.cif
#   From: 2010.05.17/outbox.cif.g08.bks.cpg/sg51_12_cif.got.tgz:22567.got - 2010.06.03 11:52:47.
