data_PCOD9402387
_publ_section_title
;
Structure prediction by ZEFSAII (Michael W. Deem and Ramdas Pophale) SiO2 
 PCOD9402387
Probable space group: P M M A
;
_chemical_formula_sum "Si O2"
_cell_formula_units_Z 58
_cell_length_a 7.962261
_cell_length_b 16.092660
_cell_length_c 23.837361
_cell_angle_alpha 90.000000
_cell_angle_beta 90.000000
_cell_angle_gamma 90.000000
_cell_volume 3054.375440
_symmetry_space_group_name_H-M "P M M A"
_symmetry_group_IT_number 51
_symmetry_cell_setting 'orthorhombic'
loop_
_space_group_symop_operation_xyz
x,y,z
1/2-x,-y,z
1/2+x,-y,-z
-x,y,-z
-x,-y,-z
1/2+x,y,-z
1/2-x,y,z
x,-y,z
loop_
_atom_site_type_symbol
_atom_site_label
_atom_site_fract_x
_atom_site_fract_y
_atom_site_fract_z
Si Si1 0.952692 0.093858 0.335837
Si Si2 0.555469 0.750026 0.132481
Si Si3 0.553302 0.242884 0.742160
Si Si4 0.048562 0.211830 0.563926
Si Si5 0.553074 0.363491 0.637453
Si Si6 0.546953 0.407116 0.064730
Si Si7 0.051480 0.092935 0.062997
Si Si8 0.750000 0.500000 0.370352
O O1 0.750000 0.091752 0.334932
O O2 0.003096 0.137305 0.394357
O O3 0.009124 0.155413 0.286708
O O4 0.015607 0.000000 0.330499
O O5 0.750000 0.749946 0.117370
O O6 0.537450 0.744765 0.199118
O O7 0.480303 0.668182 0.102643
O O8 0.489740 0.836409 0.107694
O O9 0.750000 0.244441 0.754429
O O10 0.519748 0.313417 0.695536
O O11 0.250000 0.221393 0.568246
O O12 0.000000 0.196692 0.500000
O O13 0.964140 0.295032 0.588234
O O14 0.750000 0.392867 0.638380
O O15 0.402265 0.428557 0.630180
O O16 0.750000 0.409168 0.068810
O O17 0.486082 0.500000 0.080472
O O18 0.500000 0.392656 0.000000
O O19 0.250000 0.085387 0.062591
O O20 0.979145 0.000000 0.073989
O O21 0.000000 0.118513 0.000000
#
# Coordination Sequence:
#
# PCOD9402387 Si02
#       8
#     8   8   8   8   8   8   8   2
#     4   9  19  36  59  86 116 155 200 240 285 345
#     4  11  22  35  57  83 111 147 191 233 286 348
#     4  10  22  39  58  82 115 153 190 242 294 352
#     4  10  19  35  60  87 123 166 198 241 299 350
#     4  10  22  41  63  90 121 156 204 246 303 362
#     4   9  19  36  55  79 108 141 178 223 278 338
#     4  10  21  37  56  79 110 146 186 234 288 348
#     4  12  22  40  70  90 116 160 198 256 302 358
#
# _framework density 18.989151
#
# number of rings (size 3 to 8) (size 9 to 14) (size 15 to 20)
#    0.000    2.069    0.690    2.276    1.931    4.690 
#    1.241    0.345    0.000    0.000    0.000    0.000 
#    0.000    0.000    0.000    0.000    0.000    0.000 
#
# Total GULP energy -322999.741934 kJ/mol
# GULP energy per Si atom -5568.961068 kJ/mol
# Density = 1.894593 g / cm^3
# Si number density = 18.989151 Si / 1000 Ang^3
#
#
#
# Elastic Constant Matrix: (Units=GPa)
#
#
# Indices 1 2 3 4 5 6 
#
# 1 56.5078 18.8091 -8.2634 0.0000 0.0000 0.0000
# 2 18.8091 86.7676 19.7600 0.0000 0.0000 0.0000
# 3 -8.2634 19.7600 63.7616 0.0000 0.0000 0.0000
# 4 0.0000 0.0000 0.0000 0.7516 0.0000 0.0000
# 5 0.0000 0.0000 0.0000 0.0000 28.0851 0.0000
# 6 0.0000 0.0000 0.0000 0.0000 0.0000 26.4015
#
#
#
# Elastic Compliance Matrix: (Units=1/GPa)
#
#
# Indices 1 2 3 4 5 6 
#
# 1 0.020091 -0.005324 0.004254 0.000000 0.000000 0.000000
# 2 -0.005324 0.013811 -0.004970 0.000000 0.000000 0.000000
# 3 0.004254 -0.004970 0.017775 0.000000 0.000000 0.000000
# 4 0.000000 0.000000 0.000000 1.330549 0.000000 0.000000
# 5 0.000000 0.000000 0.000000 0.000000 0.035606 0.000000
# 6 0.000000 0.000000 0.000000 0.000000 0.000000 0.037877
#
#
# Mechanical properties :
#
#
# Convention : Reuss Voigt Hill
#
# Bulk Modulus (GPa) = 25.25503 29.73871 27.49687
# Shear Modulus (GPa) = 3.37612 22.82971 13.10292
#
# Velocity S-wave (km/s) = 1.33483 3.47111 2.62968
# Velocity P-wave (km/s) = 3.96286 5.63557 4.87155
#
# Compressibility (1/GPa) = 0.03959607
#
# Stress axis : x y z
#
# Youngs Moduli (GPa) = 49.77401 72.40615 56.25906
#
# Poissons Ratio (x) = 0.38548 -0.23931
# Poissons Ratio (y) = 0.26499 0.27961
# Poissons Ratio (z) = -0.21172 0.35986
#
# Static dielectric constant tensor:
#      x y z
#    x 1.678640 0.000000 0.000000 
#    y 0.000000 1.697200 0.000000 
#    z 0.000000 0.000000 1.627210 
# 
# From -- ./inp_files/34780.got.cif
#   From: 2010.05.17/outbox.cif.g08.bks.cpg/sg51_18_cif.got.tgz:34780.got - 2010.06.03 11:52:47.
