data_PCOD9402595
_publ_section_title
;
Structure prediction by ZEFSAII (Michael W. Deem and Ramdas Pophale) SiO2 
 PCOD9402595
Probable space group: P M M A
;
_chemical_formula_sum "Si O2"
_cell_formula_units_Z 46
_cell_length_a 7.514522
_cell_length_b 13.062851
_cell_length_c 22.737075
_cell_angle_alpha 90.000000
_cell_angle_beta 90.000000
_cell_angle_gamma 90.000000
_cell_volume 2231.895866
_symmetry_space_group_name_H-M "P M M A"
_symmetry_group_IT_number 51
_symmetry_cell_setting 'orthorhombic'
loop_
_space_group_symop_operation_xyz
x,y,z
1/2-x,-y,z
1/2+x,-y,-z
-x,y,-z
-x,-y,-z
1/2+x,y,-z
1/2-x,y,z
x,-y,z
loop_
_atom_site_type_symbol
_atom_site_label
_atom_site_fract_x
_atom_site_fract_y
_atom_site_fract_z
Si Si1 0.461740 0.387680 0.430499
Si Si2 0.463221 0.113933 0.738227
Si Si3 0.542849 0.841154 0.395875
Si Si4 0.963838 0.000000 0.930365
Si Si5 0.036696 0.385113 0.066337
Si Si6 0.038992 0.198796 0.139095
Si Si7 0.750000 0.000000 0.560976
O O1 0.500000 0.386975 0.500000
O O2 0.250000 0.384823 0.421252
O O3 0.526149 0.500000 0.408209
O O4 0.535348 0.280605 0.406751
O O5 0.250000 0.110897 0.737618
O O6 0.515625 0.140662 0.671954
O O7 0.515150 0.186509 0.791468
O O8 0.531725 0.000000 0.752258
O O9 0.750000 0.873968 0.403587
O O10 0.407516 0.909468 0.433841
O O11 0.032817 0.899404 0.896463
O O12 0.750000 0.000000 0.924106
O O13 0.000000 0.000000 0.000000
O O14 0.250000 0.391619 0.072777
O O15 0.964574 0.500000 0.072473
O O16 0.965809 0.303298 0.112356
O O17 0.000000 0.349073 0.000000
O O18 0.250000 0.199680 0.127965
#
# Coordination Sequence:
#
# PCOD9402595 Si02
#       7
#     8   8   8   4   8   8   2
#     4  10  21  40  68  99 130 170 216 262 317 375
#     4  10  21  36  55  80 111 148 191 234 286 348
#     4  11  23  40  64  93 129 166 215 264 311 373
#     4  10  20  31  44  70 100 130 168 215 271 329
#     4   9  18  33  51  71  96 130 171 217 273 336
#     4  10  20  32  50  74 101 134 176 222 273 336
#     4  12  22  38  64  90 126 172 208 256 310 372
#
# _framework density 20.610282000000002
#
# number of rings (size 3 to 8) (size 9 to 14) (size 15 to 20)
#    0.000    1.913    2.609    1.304    1.217    2.435 
#    0.000    1.304    0.000    3.130    0.000    0.000 
#    0.000    0.000    0.000    0.000    0.000    0.000 
#
# Total GULP energy -256275.341093 kJ/mol
# GULP energy per Si atom -5571.203067 kJ/mol
# Density = 2.056337 g / cm^3
# Si number density = 20.610282 Si / 1000 Ang^3
#
#
#
# Elastic Constant Matrix: (Units=GPa)
#
#
# Indices 1 2 3 4 5 6 
#
# 1 91.8046 23.6303 0.8866 0.0000 0.0000 0.0000
# 2 23.6303 122.7141 30.1760 0.0000 0.0000 0.0000
# 3 0.8866 30.1760 52.5089 0.0000 0.0000 0.0000
# 4 0.0000 0.0000 0.0000 55.0729 0.0000 0.0000
# 5 0.0000 0.0000 0.0000 0.0000 20.7528 0.0000
# 6 0.0000 0.0000 0.0000 0.0000 0.0000 -3.2980
#
#
#
# Elastic Compliance Matrix: (Units=1/GPa)
#
#
# Indices 1 2 3 4 5 6 
#
# 1 0.011532 -0.002530 0.001259 0.000000 0.000000 0.000000
# 2 -0.002530 0.010045 -0.005730 0.000000 0.000000 0.000000
# 3 0.001259 -0.005730 0.022316 0.000000 0.000000 0.000000
# 4 0.000000 0.000000 0.000000 0.018158 0.000000 0.000000
# 5 0.000000 0.000000 0.000000 0.000000 0.048186 0.000000
# 6 0.000000 0.000000 0.000000 0.000000 0.000000 -0.303214
#
#
# Mechanical properties :
#
#
# Convention : Reuss Voigt Hill
#
# Bulk Modulus (GPa) = 33.45468 41.82373 37.63921
# Shear Modulus (GPa) = -29.58387 28.66118 -0.46134
#
# Velocity S-wave (km/s) = -3.79277 3.73315 -0.47363
# Velocity P-wave (km/s) = 1.70671 6.23848 4.24298
#
# Compressibility (1/GPa) = 0.02989118
#
# Stress axis : x y z
#
# Youngs Moduli (GPa) = 86.71647 99.54858 44.81060
#
# Poissons Ratio (x) = 0.25189 -0.05643
# Poissons Ratio (y) = 0.21942 0.25677
# Poissons Ratio (z) = -0.10921 0.57043
#
# Static dielectric constant tensor:
#      x y z
#    x 1.762410 0.000000 0.000000 
#    y 0.000000 1.769960 0.000000 
#    z 0.000000 0.000000 1.716350 
# 
# From -- ./inp_files/34589.got.cif
#   From: 2010.05.17/outbox.cif.g08.bks.cpg/sg51_18_cif.got.tgz:34589.got - 2010.06.03 11:52:47.
