data_PCOD9402106
_publ_section_title
;
Structure prediction by ZEFSAII (Michael W. Deem and Ramdas Pophale) SiO2 
 PCOD9402106
Probable space group: P M M A
;
_chemical_formula_sum "Si O2"
_cell_formula_units_Z 64
_cell_length_a 29.685487
_cell_length_b 7.798340
_cell_length_c 13.000514
_cell_angle_alpha 90.000000
_cell_angle_beta 90.000000
_cell_angle_gamma 90.000000
_cell_volume 3009.586759
_symmetry_space_group_name_H-M "P M M A"
_symmetry_group_IT_number 51
_symmetry_cell_setting 'orthorhombic'
loop_
_space_group_symop_operation_xyz
x,y,z
1/2-x,-y,z
1/2+x,-y,-z
-x,y,-z
-x,-y,-z
1/2+x,y,-z
1/2-x,y,z
x,-y,z
loop_
_atom_site_type_symbol
_atom_site_label
_atom_site_fract_x
_atom_site_fract_y
_atom_site_fract_z
Si Si1 0.448329 0.792590 0.984014
Si Si2 0.658438 0.207401 0.289681
Si Si3 0.699304 0.795767 0.073697
Si Si4 0.376783 0.706961 0.342490
Si Si5 0.060589 0.209198 0.750242
Si Si6 0.020036 0.206945 0.390908
Si Si7 0.700165 0.705000 0.503687
Si Si8 0.635489 0.301157 0.886748
O O1 0.414517 0.718455 0.067199
O O2 0.444871 0.000000 0.990617
O O3 0.500000 0.744968 0.000000
O O4 0.435330 0.739465 0.868887
O O5 0.676438 0.270151 0.178990
O O6 0.606567 0.263295 0.305418
O O7 0.688684 0.262079 0.384844
O O8 0.658185 0.000000 0.287169
O O9 0.750000 0.727233 0.061407
O O10 0.702444 0.000000 0.087862
O O11 0.669023 0.770427 0.972977
O O12 0.373973 0.500000 0.339663
O O13 0.428246 0.747003 0.371883
O O14 0.340426 0.771998 0.425242
O O15 0.364803 0.773481 0.228161
O O16 0.014702 0.268403 0.696880
O O17 0.059295 0.000000 0.749639
O O18 0.000000 0.266854 0.500000
O O19 0.018163 0.000000 0.391319
O O20 0.750000 0.773191 0.528880
O O21 0.701416 0.500000 0.518372
O O22 0.647103 0.500000 0.877813
#
# Coordination Sequence:
#
# PCOD9402106 Si02
#       8
#     8   8   8   8   8   8   8   8
#     4  10  19  34  57  81 110 152 195 235 285 341
#     4  10  19  36  61  87 117 147 183 236 293 348
#     4  10  21  38  61  87 116 152 193 241 297 352
#     4  10  23  41  58  80 115 157 195 234 289 347
#     4   9  17  31  53  82 114 148 184 225 280 341
#     4  10  20  35  58  88 116 148 194 242 286 336
#     4  10  22  40  60  81 108 145 190 238 289 348
#     4  11  23  38  57  83 117 155 197 242 287 343
#
# _framework density 21.265378999999999
#
# number of rings (size 3 to 8) (size 9 to 14) (size 15 to 20)
#    0.000    2.000    1.250    2.250    0.000    6.000 
#    0.000    2.500    0.000    0.000    0.000    0.000 
#    0.000    0.000    0.000    0.000    0.000    0.000 
#
# Total GULP energy -357482.731589 kJ/mol
# GULP energy per Si atom -5585.667681 kJ/mol
# Density = 2.121698 g / cm^3
# Si number density = 21.265379 Si / 1000 Ang^3
#
#
#
# Elastic Constant Matrix: (Units=GPa)
#
#
# Indices 1 2 3 4 5 6 
#
# 1 166.8594 3.9951 71.9036 0.0000 0.0000 0.0000
# 2 3.9951 23.2341 2.0347 0.0000 0.0000 0.0000
# 3 71.9036 2.0347 142.0792 0.0000 0.0000 0.0000
# 4 0.0000 0.0000 0.0000 17.2212 0.0000 0.0000
# 5 0.0000 0.0000 0.0000 0.0000 31.6902 0.0000
# 6 0.0000 0.0000 0.0000 0.0000 0.0000 5.4907
#
#
#
# Elastic Compliance Matrix: (Units=1/GPa)
#
#
# Indices 1 2 3 4 5 6 
#
# 1 0.007687 -0.000982 -0.003876 0.000000 0.000000 0.000000
# 2 -0.000982 0.043220 -0.000122 0.000000 0.000000 0.000000
# 3 -0.003876 -0.000122 0.009002 0.000000 0.000000 0.000000
# 4 0.000000 0.000000 0.000000 0.058068 0.000000 0.000000
# 5 0.000000 0.000000 0.000000 0.000000 0.031555 0.000000
# 6 0.000000 0.000000 0.000000 0.000000 0.000000 0.182126
#
#
# Mechanical properties :
#
#
# Convention : Reuss Voigt Hill
#
# Bulk Modulus (GPa) = 20.02089 54.22662 37.12375
# Shear Modulus (GPa) = 13.95604 27.82971 20.89287
#
# Velocity S-wave (km/s) = 2.56458 3.62150 3.13786
# Velocity P-wave (km/s) = 4.26669 6.56067 5.53385
#
# Compressibility (1/GPa) = 0.04994784
#
# Stress axis : x y z
#
# Youngs Moduli (GPa) = 130.09140 23.13757 111.09001
#
# Poissons Ratio (x) = 0.02273 0.43060
# Poissons Ratio (y) = 0.12779 0.01353
# Poissons Ratio (z) = 0.50425 0.00282
#
# Static dielectric constant tensor:
#      x y z
#    x 1.754800 0.000000 0.000000 
#    y 0.000000 1.826840 0.000000 
#    z 0.000000 0.000000 1.758900 
# 
# From -- ./inp_files/19644.got.cif
#   From: 2010.05.17/outbox.cif.g08.bks.cpg/sg51_10_cif.got.tgz:19644.got - 2010.06.03 11:52:47.
