data_PCOD9402900
_publ_section_title
;
Structure prediction by ZEFSAII (Michael W. Deem and Ramdas Pophale) SiO2 
 PCOD9402900
Probable space group: P M M A
;
_chemical_formula_sum "Si O2"
_cell_formula_units_Z 56
_cell_length_a 20.685170
_cell_length_b 7.349743
_cell_length_c 14.639534
_cell_angle_alpha 90.000000
_cell_angle_beta 90.000000
_cell_angle_gamma 90.000000
_cell_volume 2225.658359
_symmetry_space_group_name_H-M "P M M A"
_symmetry_group_IT_number 51
_symmetry_cell_setting 'orthorhombic'
loop_
_space_group_symop_operation_xyz
x,y,z
1/2-x,-y,z
1/2+x,-y,-z
-x,y,-z
-x,-y,-z
1/2+x,y,-z
1/2-x,y,z
x,-y,z
loop_
_atom_site_type_symbol
_atom_site_label
_atom_site_fract_x
_atom_site_fract_y
_atom_site_fract_z
Si Si1 0.927473 0.783969 0.527626
Si Si2 0.750000 0.720642 0.533629
Si Si3 0.750000 0.206504 0.320957
Si Si4 0.601537 0.277649 0.871986
Si Si5 0.825027 0.279078 0.057338
Si Si6 0.044644 0.288823 0.844125
Si Si7 0.351696 0.702257 0.318235
Si Si8 0.112699 0.221071 0.667788
O O1 0.917158 0.694327 0.625082
O O2 0.890259 0.716257 0.437216
O O3 0.000000 0.754881 0.500000
O O4 0.917852 0.000000 0.537759
O O5 0.750000 0.500000 0.523904
O O6 0.750000 0.797641 0.432115
O O7 0.691541 0.779669 0.599656
O O8 0.818297 0.288900 0.293583
O O9 0.750000 0.000000 0.286964
O O10 0.598345 0.500000 0.866716
O O11 0.648169 0.233494 0.955979
O O12 0.525935 0.216723 0.875069
O O13 0.634884 0.211443 0.778479
O O14 0.750000 0.218228 0.073339
O O15 0.822767 0.500000 0.064895
O O16 0.887174 0.212804 0.116871
O O17 0.043991 0.500000 0.872532
O O18 0.055517 0.275211 0.735299
O O19 0.325590 0.500000 0.300676
O O20 0.113254 0.000000 0.664362
#
# Coordination Sequence:
#
# PCOD9402900 Si02
#       8
#     8   4   4   8   8   8   8   8
#     4  10  20  34  52  74 102 138 179 218 255 307
#     4  10  20  32  48  75 104 132 174 225 266 305
#     4  10  20  36  54  71  98 144 188 213 258 323
#     4   9  18  33  53  77 108 142 172 211 266 322
#     4   9  18  32  53  81 109 137 172 216 264 314
#     4  10  20  34  55  82 108 136 175 220 264 310
#     4  10  20  32  50  76 104 135 173 215 265 315
#     4  10  21  35  52  75 104 140 179 214 259 317
#
# _framework density 25.161093000000001
#
# number of rings (size 3 to 8) (size 9 to 14) (size 15 to 20)
#    0.000    2.286    1.429    1.286    2.000    3.143 
#    0.000    0.000    0.000    2.571    0.000    0.000 
#    0.000    0.000    0.000    0.000    0.000    0.000 
#
# Total GULP energy -312411.236635 kJ/mol
# GULP energy per Si atom -5578.772083 kJ/mol
# Density = 2.510383 g / cm^3
# Si number density = 25.161093 Si / 1000 Ang^3
#
#
#
# Elastic Constant Matrix: (Units=GPa)
#
#
# Indices 1 2 3 4 5 6 
#
# 1 109.1062 0.8792 6.9907 0.0000 0.0000 0.0000
# 2 0.8792 64.2940 -14.3171 0.0000 0.0000 0.0000
# 3 6.9907 -14.3171 95.7751 0.0000 0.0000 0.0000
# 4 0.0000 0.0000 0.0000 15.5757 0.0000 0.0000
# 5 0.0000 0.0000 0.0000 0.0000 43.7594 0.0000
# 6 0.0000 0.0000 0.0000 0.0000 0.0000 -27.3804
#
#
#
# Elastic Compliance Matrix: (Units=1/GPa)
#
#
# Indices 1 2 3 4 5 6 
#
# 1 0.009213 -0.000285 -0.000715 0.000000 0.000000 0.000000
# 2 -0.000285 0.016098 0.002427 0.000000 0.000000 0.000000
# 3 -0.000715 0.002427 0.010856 0.000000 0.000000 0.000000
# 4 0.000000 0.000000 0.000000 0.064203 0.000000 0.000000
# 5 0.000000 0.000000 0.000000 0.000000 0.022852 0.000000
# 6 0.000000 0.000000 0.000000 0.000000 0.000000 -0.036523
#
#
# Mechanical properties :
#
#
# Convention : Reuss Voigt Hill
#
# Bulk Modulus (GPa) = 25.62699 28.47566 27.05132
# Shear Modulus (GPa) = 51.62449 24.76579 38.19514
#
# Velocity S-wave (km/s) = 4.53455 3.14074 3.90041
# Velocity P-wave (km/s) = 6.13380 4.94917 5.57305
#
# Compressibility (1/GPa) = 0.03902136
#
# Stress axis : x y z
#
# Youngs Moduli (GPa) = 108.53641 62.11970 92.11355
#
# Poissons Ratio (x) = 0.01772 0.06587
# Poissons Ratio (y) = 0.03096 -0.22358
# Poissons Ratio (z) = 0.07762 -0.15078
#
# Static dielectric constant tensor:
#      x y z
#    x 2.261660 0.000000 0.000000 
#    y 0.000000 1.949140 0.000000 
#    z 0.000000 0.000000 1.982210 
# 
# From -- ./inp_files/25863.got.cif
#   From: 2010.05.17/outbox.cif.g08.bks.cpg/sg51_13_cif.got.tgz:25863.got - 2010.06.03 11:52:47.
