data_PCOD9402622
_publ_section_title
;
Structure prediction by ZEFSAII (Michael W. Deem and Ramdas Pophale) SiO2 
 PCOD9402622
Probable space group: P M M A
;
_chemical_formula_sum "Si O2"
_cell_formula_units_Z 64
_cell_length_a 23.948417
_cell_length_b 14.591196
_cell_length_c 10.131012
_cell_angle_alpha 90.000000
_cell_angle_beta 90.000000
_cell_angle_gamma 90.000000
_cell_volume 3540.140779
_symmetry_space_group_name_H-M "P M M A"
_symmetry_group_IT_number 51
_symmetry_cell_setting 'orthorhombic'
loop_
_space_group_symop_operation_xyz
x,y,z
1/2-x,-y,z
1/2+x,-y,-z
-x,y,-z
-x,-y,-z
1/2+x,y,-z
1/2-x,y,z
x,-y,z
loop_
_atom_site_type_symbol
_atom_site_label
_atom_site_fract_x
_atom_site_fract_y
_atom_site_fract_z
Si Si1 0.316548 0.249910 0.616951
Si Si2 0.643036 0.763609 0.088638
Si Si3 0.316904 0.609372 0.098173
Si Si4 0.403619 0.893719 0.541798
Si Si5 0.925851 0.110931 0.746117
Si Si6 0.817664 0.396304 0.599423
Si Si7 0.956346 0.108208 0.169732
Si Si8 0.310623 0.109511 0.117355
O O1 0.250000 0.244017 0.614294
O O2 0.337033 0.264290 0.766000
O O3 0.346391 0.158416 0.567904
O O4 0.335642 0.328754 0.515812
O O5 0.585446 0.820684 0.101130
O O6 0.647552 0.674144 0.997073
O O7 0.684058 0.837431 0.020180
O O8 0.250000 0.627186 0.079366
O O9 0.324859 0.500000 0.077962
O O10 0.331658 0.630742 0.250604
O O11 0.431092 0.859026 0.406158
O O12 0.440242 0.887910 0.674227
O O13 0.391578 0.000000 0.520442
O O14 0.864964 0.137851 0.799377
O O15 0.978944 0.136980 0.834728
O O16 0.928132 0.000000 0.748288
O O17 0.750000 0.398312 0.596520
O O18 0.837471 0.500000 0.576853
O O19 0.949099 0.000000 0.128269
O O20 0.250000 0.131188 0.178712
O O21 0.313472 0.000000 0.098359
#
# Coordination Sequence:
#
# PCOD9402622 Si02
#       8
#     8   8   8   8   8   8   8   8
#     4  10  20  31  47  74 106 141 176 214 265 321
#     4  11  21  33  50  77 111 146 180 218 263 312
#     4   9  18  33  53  76 104 141 180 218 268 326
#     4   9  18  31  48  73 104 138 178 224 267 310
#     4   9  18  33  53  75 101 139 186 230 267 306
#     4   8  16  32  52  73  99 134 176 221 267 316
#     4   9  18  34  54  75 103 142 187 227 263 310
#     4  10  21  34  49  74 109 145 177 213 264 321
#
# _framework density 18.078375999999999
#
# number of rings (size 3 to 8) (size 9 to 14) (size 15 to 20)
#    0.000    2.625    0.000    2.625    1.750    3.750 
#    0.000    4.375    0.000    0.000    0.000    2.625 
#    0.000    4.000    0.000    0.000    0.000    0.000 
#
# Total GULP energy -356763.404304 kJ/mol
# GULP energy per Si atom -5574.428192 kJ/mol
# Density = 1.803723 g / cm^3
# Si number density = 18.078376 Si / 1000 Ang^3
#
#
#
# Elastic Constant Matrix: (Units=GPa)
#
#
# Indices 1 2 3 4 5 6 
#
# 1 99.4292 44.0079 45.6185 0.0000 0.0000 0.0000
# 2 44.0079 71.2187 47.0144 0.0000 0.0000 0.0000
# 3 45.6185 47.0144 78.2338 0.0000 0.0000 0.0000
# 4 0.0000 0.0000 0.0000 32.3596 0.0000 0.0000
# 5 0.0000 0.0000 0.0000 0.0000 23.5612 0.0000
# 6 0.0000 0.0000 0.0000 0.0000 0.0000 5.3396
#
#
#
# Elastic Compliance Matrix: (Units=1/GPa)
#
#
# Indices 1 2 3 4 5 6 
#
# 1 0.015056 -0.005815 -0.005285 0.000000 0.000000 0.000000
# 2 -0.005815 0.025520 -0.011946 0.000000 0.000000 0.000000
# 3 -0.005285 -0.011946 0.023043 0.000000 0.000000 0.000000
# 4 0.000000 0.000000 0.000000 0.030903 0.000000 0.000000
# 5 0.000000 0.000000 0.000000 0.000000 0.042443 0.000000
# 6 0.000000 0.000000 0.000000 0.000000 0.000000 0.187280
#
#
# Mechanical properties :
#
#
# Convention : Reuss Voigt Hill
#
# Bulk Modulus (GPa) = 57.05117 58.01814 57.53465
# Shear Modulus (GPa) = 13.29165 19.73482 16.51323
#
# Velocity S-wave (km/s) = 2.71444 3.30756 3.02557
# Velocity P-wave (km/s) = 6.43820 6.83731 6.64076
#
# Compressibility (1/GPa) = 0.01752813
#
# Stress axis : x y z
#
# Youngs Moduli (GPa) = 66.42037 39.18476 43.39801
#
# Poissons Ratio (x) = 0.22784 0.22935
# Poissons Ratio (y) = 0.38621 0.51842
# Poissons Ratio (z) = 0.35101 0.46809
#
# Static dielectric constant tensor:
#      x y z
#    x 1.630290 0.000000 0.000000 
#    y 0.000000 1.612440 0.000000 
#    z 0.000000 0.000000 1.668060 
# 
# From -- ./inp_files/11906.got.cif
#   From: 2010.05.17/outbox.cif.g08.bks.cpg/sg51_6_cif.got.tgz:11906.got - 2010.06.03 11:52:47.
