data_PCOD9402053
_publ_section_title
;
Structure prediction by ZEFSAII (Michael W. Deem and Ramdas Pophale) SiO2 
 PCOD9402053
Probable space group: P M M A
;
_chemical_formula_sum "Si O2"
_cell_formula_units_Z 44
_cell_length_a 8.132888
_cell_length_b 30.185840
_cell_length_c 9.306794
_cell_angle_alpha 90.000000
_cell_angle_beta 90.000000
_cell_angle_gamma 90.000000
_cell_volume 2284.799834
_symmetry_space_group_name_H-M "P M M A"
_symmetry_group_IT_number 51
_symmetry_cell_setting 'orthorhombic'
loop_
_space_group_symop_operation_xyz
x,y,z
1/2-x,-y,z
1/2+x,-y,-z
-x,y,-z
-x,-y,-z
1/2+x,y,-z
1/2-x,y,z
x,-y,z
loop_
_atom_site_type_symbol
_atom_site_label
_atom_site_fract_x
_atom_site_fract_y
_atom_site_fract_z
Si Si1 0.448863 0.644061 0.333507
Si Si2 0.448328 0.000000 0.832926
Si Si3 0.445627 0.183053 0.335656
Si Si4 0.446705 0.096328 0.833775
Si Si5 0.051001 0.730731 0.164925
Si Si6 0.448551 0.547543 0.332385
O O1 0.500000 0.648728 0.500000
O O2 0.250000 0.644078 0.329693
O O3 0.508280 0.685753 0.241784
O O4 0.505952 0.595579 0.277354
O O5 0.506793 0.047948 0.777553
O O6 0.250000 0.000000 0.823425
O O7 0.500000 0.000000 0.000000
O O8 0.500000 0.184029 0.500000
O O9 0.250000 0.185666 0.332293
O O10 0.495279 0.137605 0.258759
O O11 0.510609 0.225820 0.249212
O O12 0.250000 0.095785 0.831453
O O13 0.500000 0.101289 0.000000
O O14 0.250000 0.730648 0.171415
O O15 0.000000 0.732346 0.000000
O O16 0.500000 0.547488 0.500000
O O17 0.250000 0.547413 0.324795
O O18 0.507002 0.500000 0.270986
#
# Coordination Sequence:
#
# PCOD9402053 Si02
#       6
#     8   4   8   8   8   8
#     4   9  17  30  48  72  99 127 161 201 245 292
#     4   8  16  30  51  78 107 138 172 208 246 290
#     4  11  23  38  55  77 103 133 169 210 257 306
#     4  10  19  34  56  82 110 140 174 211 250 295
#     4  10  22  37  53  73  98 129 166 205 247 298
#     4   8  13  22  39  64  93 123 155 193 237 284
#
# _framework density 19.257704
#
# number of rings (size 3 to 8) (size 9 to 14) (size 15 to 20)
#    0.000    2.545    0.000    2.182    0.000    4.364 
#    0.000    0.455    0.000    0.545    0.000    0.000 
#    0.000    0.000    0.000    0.000    0.000    0.000 
#
# Total GULP energy -245209.622783 kJ/mol
# GULP energy per Si atom -5572.945972 kJ/mol
# Density = 1.921387 g / cm^3
# Si number density = 19.257704 Si / 1000 Ang^3
#
#
#
# Elastic Constant Matrix: (Units=GPa)
#
#
# Indices 1 2 3 4 5 6 
#
# 1 18.4553 22.0542 6.9584 0.0000 0.0000 0.0000
# 2 22.0542 263.8436 101.0286 0.0000 0.0000 0.0000
# 3 6.9584 101.0286 95.9713 0.0000 0.0000 0.0000
# 4 0.0000 0.0000 0.0000 37.2824 0.0000 0.0000
# 5 0.0000 0.0000 0.0000 0.0000 26.2982 0.0000
# 6 0.0000 0.0000 0.0000 0.0000 0.0000 23.1147
#
#
#
# Elastic Compliance Matrix: (Units=1/GPa)
#
#
# Indices 1 2 3 4 5 6 
#
# 1 0.060338 -0.005643 0.001566 0.000000 0.000000 0.000000
# 2 -0.005643 0.006877 -0.006831 0.000000 0.000000 0.000000
# 3 0.001566 -0.006831 0.017497 0.000000 0.000000 0.000000
# 4 0.000000 0.000000 0.000000 0.026822 0.000000 0.000000
# 5 0.000000 0.000000 0.000000 0.000000 0.038025 0.000000
# 6 0.000000 0.000000 0.000000 0.000000 0.000000 0.043262
#
#
# Mechanical properties :
#
#
# Convention : Reuss Voigt Hill
#
# Bulk Modulus (GPa) = 15.89922 70.92808 43.41365
# Shear Modulus (GPa) = 21.22207 33.88767 27.55487
#
# Velocity S-wave (km/s) = 3.32325 4.19942 3.78676
# Velocity P-wave (km/s) = 4.79575 7.77332 6.45847
#
# Compressibility (1/GPa) = 0.06289617
#
# Stress axis : x y z
#
# Youngs Moduli (GPa) = 16.57328 145.40539 57.15329
#
# Poissons Ratio (x) = 0.82053 -0.08948
# Poissons Ratio (y) = 0.09352 0.39039
# Poissons Ratio (z) = -0.02595 0.99320
#
# Static dielectric constant tensor:
#      x y z
#    x 1.687690 0.000000 0.000000 
#    y 0.000000 1.756290 0.000000 
#    z 0.000000 0.000000 1.612920 
# 
# From -- ./inp_files/5699.got.cif
#   From: 2010.05.17/outbox.cif.g08.bks.cpg/sg51_3_cif.got.tgz:5699.got - 2010.06.03 11:52:47.
