data_PCOD9402659
_publ_section_title
;
Structure prediction by ZEFSAII (Michael W. Deem and Ramdas Pophale) SiO2 
 PCOD9402659
Probable space group: P M M A
;
_chemical_formula_sum "Si O2"
_cell_formula_units_Z 48
_cell_length_a 14.054655
_cell_length_b 16.654244
_cell_length_c 9.502940
_cell_angle_alpha 90.000000
_cell_angle_beta 90.000000
_cell_angle_gamma 90.000000
_cell_volume 2224.349875
_symmetry_space_group_name_H-M "P M M A"
_symmetry_group_IT_number 51
_symmetry_cell_setting 'orthorhombic'
loop_
_space_group_symop_operation_xyz
x,y,z
1/2-x,-y,z
1/2+x,-y,-z
-x,y,-z
-x,-y,-z
1/2+x,y,-z
1/2-x,y,z
x,-y,z
loop_
_atom_site_type_symbol
_atom_site_label
_atom_site_fract_x
_atom_site_fract_y
_atom_site_fract_z
Si Si1 0.866036 0.252928 0.358862
Si Si2 0.858354 0.247868 0.046279
Si Si3 0.138446 0.834470 0.221228
Si Si4 0.361497 0.339344 0.372508
Si Si5 0.866041 0.912138 0.506105
Si Si6 0.595133 0.411977 0.906886
O O1 0.750000 0.256376 0.360675
O O2 0.902752 0.259704 0.199816
O O3 0.894629 0.323043 0.467654
O O4 0.895013 0.165329 0.416065
O O5 0.750000 0.220683 0.072620
O O6 0.901457 0.186379 0.932481
O O7 0.853454 0.334033 0.969758
O O8 0.250000 0.853894 0.199208
O O9 0.136190 0.750551 0.307112
O O10 0.100835 0.898617 0.332632
O O11 0.250000 0.364979 0.373258
O O12 0.415162 0.394655 0.259971
O O13 0.750000 0.909668 0.508100
O O14 0.893764 0.000000 0.453563
O O15 0.639688 0.500000 0.923722
O O16 0.500000 0.413244 0.000000
#
# Coordination Sequence:
#
# PCOD9402659 Si02
#       6
#     8   8   8   8   8   8
#     4   8  14  25  42  64  88 115 147 179 211 251
#     4   9  16  28  46  64  85 113 143 178 216 254
#     4   7  11  20  35  55  78 107 141 170 197 236
#     4   8  14  27  46  63  82 112 146 174 203 250
#     4   8  12  19  33  56  89 122 144 168 209 254
#     4  10  20  32  45  63  86 109 138 180 223 260
#
# _framework density 21.579339000000001
#
# number of rings (size 3 to 8) (size 9 to 14) (size 15 to 20)
#    0.000    3.667    0.000    3.500    0.000    1.333 
#    0.000    2.500    0.000   10.000    0.000    0.000 
#    0.000   78.667    0.000    0.000    0.000    0.000 
#
# Total GULP energy -267231.663790 kJ/mol
# GULP energy per Si atom -5567.326329 kJ/mol
# Density = 2.153022 g / cm^3
# Si number density = 21.579339 Si / 1000 Ang^3
#
#
#
# Elastic Constant Matrix: (Units=GPa)
#
#
# Indices 1 2 3 4 5 6 
#
# 1 47.7407 -15.4644 -18.1156 0.0000 0.0000 0.0000
# 2 -15.4644 69.2966 25.0144 0.0000 0.0000 0.0000
# 3 -18.1156 25.0144 148.3650 0.0000 0.0000 0.0000
# 4 0.0000 0.0000 0.0000 12.1747 0.0000 0.0000
# 5 0.0000 0.0000 0.0000 0.0000 9.2990 0.0000
# 6 0.0000 0.0000 0.0000 0.0000 0.0000 9.4444
#
#
#
# Elastic Compliance Matrix: (Units=1/GPa)
#
#
# Indices 1 2 3 4 5 6 
#
# 1 0.023168 0.004418 0.002084 0.000000 0.000000 0.000000
# 2 0.004418 0.016208 -0.002193 0.000000 0.000000 0.000000
# 3 0.002084 -0.002193 0.007364 0.000000 0.000000 0.000000
# 4 0.000000 0.000000 0.000000 0.082137 0.000000 0.000000
# 5 0.000000 0.000000 0.000000 0.000000 0.107538 0.000000
# 6 0.000000 0.000000 0.000000 0.000000 0.000000 0.105883
#
#
# Mechanical properties :
#
#
# Convention : Reuss Voigt Hill
#
# Bulk Modulus (GPa) = 18.06401 27.58567 22.82484
# Shear Modulus (GPa) = 14.19910 24.44816 19.32363
#
# Velocity S-wave (km/s) = 2.56792 3.36957 2.99569
# Velocity P-wave (km/s) = 4.14505 5.28676 4.75033
#
# Compressibility (1/GPa) = 0.05535869
#
# Stress axis : x y z
#
# Youngs Moduli (GPa) = 43.16226 61.69644 135.78861
#
# Poissons Ratio (x) = -0.27258 -0.28299
# Poissons Ratio (y) = -0.19069 0.29782
# Poissons Ratio (z) = -0.08995 0.13532
#
# Static dielectric constant tensor:
#      x y z
#    x 1.881840 0.000000 0.000000 
#    y 0.000000 1.755870 0.000000 
#    z 0.000000 0.000000 1.840660 
# 
# From -- ./inp_files/8272.got.cif
#   From: 2010.05.17/outbox.cif.g08.bks.cpg/sg51_5_cif.got.tgz:8272.got - 2010.06.03 11:52:47.
