data_PCOD9402974
_publ_section_title
;
Structure prediction by ZEFSAII (Michael W. Deem and Ramdas Pophale) SiO2 
 PCOD9402974
Probable space group: P M M A
;
_chemical_formula_sum "Si O2"
_cell_formula_units_Z 64
_cell_length_a 33.733657
_cell_length_b 9.358486
_cell_length_c 10.779654
_cell_angle_alpha 90.000000
_cell_angle_beta 90.000000
_cell_angle_gamma 90.000000
_cell_volume 3403.093183
_symmetry_space_group_name_H-M "P M M A"
_symmetry_group_IT_number 51
_symmetry_cell_setting 'orthorhombic'
loop_
_space_group_symop_operation_xyz
x,y,z
1/2-x,-y,z
1/2+x,-y,-z
-x,y,-z
-x,-y,-z
1/2+x,y,-z
1/2-x,y,z
x,-y,z
loop_
_atom_site_type_symbol
_atom_site_label
_atom_site_fract_x
_atom_site_fract_y
_atom_site_fract_z
Si Si1 0.946024 0.668057 0.321438
Si Si2 0.204367 0.170184 0.906457
Si Si3 0.795511 0.668760 0.832963
Si Si4 0.489439 0.834973 0.183357
Si Si5 0.923390 0.664182 0.945908
Si Si6 0.437689 0.835830 0.436435
Si Si7 0.368551 0.331411 0.820997
Si Si8 0.127570 0.663618 0.308519
O O1 0.954705 0.500000 0.323896
O O2 0.972094 0.742115 0.214787
O O3 0.954486 0.741556 0.452238
O O4 0.899648 0.688304 0.289922
O O5 0.250000 0.200942 0.869843
O O6 0.171246 0.240352 0.819652
O O7 0.199471 0.000000 0.913437
O O8 0.198531 0.240145 0.042566
O O9 0.750000 0.687571 0.792621
O O10 0.801410 0.500000 0.863229
O O11 0.827909 0.704299 0.729304
O O12 0.460649 0.764972 0.081540
O O13 0.464486 0.830329 0.312880
O O14 0.498570 0.000000 0.156619
O O15 0.936300 0.500000 0.969470
O O16 0.896981 0.663795 0.820773
O O17 0.894252 0.707591 0.056663
O O18 0.395355 0.770334 0.397947
O O19 0.435216 0.000000 0.476742
O O20 0.358951 0.500000 0.830669
O O21 0.126545 0.500000 0.356407
#
# Coordination Sequence:
#
# PCOD9402974 Si02
#       8
#     8   8   8   8   8   8   8   8
#     4  11  23  37  55  77 101 134 178 223 262 304
#     4  10  20  32  50  79 111 141 173 210 254 306
#     4   9  16  28  49  77 108 139 170 208 255 308
#     4  10  21  36  54  77 105 136 171 214 263 315
#     4   9  17  32  52  75 103 136 172 211 258 307
#     4  10  21  36  54  75 101 134 173 218 264 311
#     4  10  21  37  55  77 106 140 178 218 258 308
#     4   9  16  29  51  76 102 134 171 211 256 306
#
# _framework density 18.806419000000002
#
# number of rings (size 3 to 8) (size 9 to 14) (size 15 to 20)
#    0.000    2.250    1.250    1.875    0.000    6.250 
#    0.000    2.500    0.000    0.750    0.000    1.750 
#    0.000    0.000    0.000    0.000    0.000    0.000 
#
# Total GULP energy -357354.716561 kJ/mol
# GULP energy per Si atom -5583.667446 kJ/mol
# Density = 1.876361 g / cm^3
# Si number density = 18.806419 Si / 1000 Ang^3
#
#
#
# Elastic Constant Matrix: (Units=GPa)
#
#
# Indices 1 2 3 4 5 6 
#
# 1 108.4308 62.0347 9.5899 0.0000 0.0000 0.0000
# 2 62.0347 94.1688 23.9971 0.0000 0.0000 0.0000
# 3 9.5899 23.9971 41.5676 0.0000 0.0000 0.0000
# 4 0.0000 0.0000 0.0000 13.2629 0.0000 0.0000
# 5 0.0000 0.0000 0.0000 0.0000 16.5514 0.0000
# 6 0.0000 0.0000 0.0000 0.0000 0.0000 17.4217
#
#
#
# Elastic Compliance Matrix: (Units=1/GPa)
#
#
# Indices 1 2 3 4 5 6 
#
# 1 0.015043 -0.010582 0.002639 0.000000 0.000000 0.000000
# 2 -0.010582 0.019895 -0.009044 0.000000 0.000000 0.000000
# 3 0.002639 -0.009044 0.028670 0.000000 0.000000 0.000000
# 4 0.000000 0.000000 0.000000 0.075398 0.000000 0.000000
# 5 0.000000 0.000000 0.000000 0.000000 0.060418 0.000000
# 6 0.000000 0.000000 0.000000 0.000000 0.000000 0.057400
#
#
# Mechanical properties :
#
#
# Convention : Reuss Voigt Hill
#
# Bulk Modulus (GPa) = 33.74673 48.37894 41.06284
# Shear Modulus (GPa) = 16.62912 19.35025 17.98968
#
# Velocity S-wave (km/s) = 2.97682 3.21115 3.09620
# Velocity P-wave (km/s) = 5.45880 6.28723 5.88760
#
# Compressibility (1/GPa) = 0.02963250
#
# Stress axis : x y z
#
# Youngs Moduli (GPa) = 66.47412 50.26323 34.88007
#
# Poissons Ratio (x) = 0.53191 -0.09204
# Poissons Ratio (y) = 0.70346 0.31546
# Poissons Ratio (z) = -0.17540 0.45459
#
# Static dielectric constant tensor:
#      x y z
#    x 1.668770 0.000000 0.000000 
#    y 0.000000 1.633570 0.000000 
#    z 0.000000 0.000000 1.653970 
# 
# From -- ./inp_files/19506.got.cif
#   From: 2010.05.17/outbox.cif.g08.bks.cpg/sg51_10_cif.got.tgz:19506.got - 2010.06.03 11:52:47.
