data_PCOD9402458
_publ_section_title
;
Structure prediction by ZEFSAII (Michael W. Deem and Ramdas Pophale) SiO2 
 PCOD9402458
Probable space group: P M M A
;
_chemical_formula_sum "Si O2"
_cell_formula_units_Z 64
_cell_length_a 19.844987
_cell_length_b 19.146299
_cell_length_c 9.307328
_cell_angle_alpha 90.000000
_cell_angle_beta 90.000000
_cell_angle_gamma 90.000000
_cell_volume 3536.394242
_symmetry_space_group_name_H-M "P M M A"
_symmetry_group_IT_number 51
_symmetry_cell_setting 'orthorhombic'
loop_
_space_group_symop_operation_xyz
x,y,z
1/2-x,-y,z
1/2+x,-y,-z
-x,y,-z
-x,-y,-z
1/2+x,y,-z
1/2-x,y,z
x,-y,z
loop_
_atom_site_type_symbol
_atom_site_label
_atom_site_fract_x
_atom_site_fract_y
_atom_site_fract_z
Si Si1 0.329539 0.804739 0.079107
Si Si2 0.169175 0.423195 0.503082
Si Si3 0.928666 0.578232 0.922569
Si Si4 0.670579 0.917854 0.688951
Si Si5 0.327881 0.386020 0.819057
Si Si6 0.392691 0.692103 0.295986
Si Si7 0.076711 0.180865 0.495431
Si Si8 0.670885 0.779550 0.237371
O O1 0.250000 0.793272 0.065622
O O2 0.354229 0.808483 0.916133
O O3 0.341241 0.876858 0.162269
O O4 0.355114 0.741086 0.178501
O O5 0.250000 0.421433 0.511114
O O6 0.148804 0.500000 0.447883
O O7 0.145328 0.417057 0.668542
O O8 0.148844 0.358295 0.403362
O O9 0.914525 0.500000 0.867794
O O10 0.872209 0.596321 0.042313
O O11 0.932563 0.636454 0.799523
O O12 0.000000 0.577533 0.000000
O O13 0.750000 0.907962 0.652897
O O14 0.623532 0.877337 0.578242
O O15 0.657371 0.000000 0.696996
O O16 0.250000 0.408267 0.842137
O O17 0.327680 0.303423 0.788733
O O18 0.427531 0.749215 0.397183
O O19 0.117663 0.201100 0.639440
O O20 0.000000 0.154939 0.500000
O O21 0.750000 0.800213 0.269011
#
# Coordination Sequence:
#
# PCOD9402458 Si02
#       8
#     8   8   8   8   8   8   8   8
#     4   9  18  33  58  87 111 143 187 236 286 338
#     4  10  20  33  52  79 109 142 184 239 298 351
#     4  11  25  40  54  76 110 153 198 248 301 355
#     4   9  19  39  65  92 123 156 188 229 285 345
#     4  10  20  37  59  79 105 143 187 240 297 350
#     4  11  21  34  53  75 110 148 192 242 291 348
#     4  11  24  37  58  89 119 157 198 238 286 342
#     4  10  19  36  60  85 114 148 192 242 289 338
#
# _framework density 18.097529000000002
#
# number of rings (size 3 to 8) (size 9 to 14) (size 15 to 20)
#    0.000    1.875    2.500    1.500    1.750    2.500 
#    0.000    2.500    0.000    6.000    0.000    0.000 
#    0.000    0.000    0.000    0.000    0.000    0.000 
#
# Total GULP energy -356627.906382 kJ/mol
# GULP energy per Si atom -5572.311037 kJ/mol
# Density = 1.805634 g / cm^3
# Si number density = 18.097529 Si / 1000 Ang^3
#
#
#
# Elastic Constant Matrix: (Units=GPa)
#
#
# Indices 1 2 3 4 5 6 
#
# 1 57.3943 38.3241 42.5223 0.0000 0.0000 0.0000
# 2 38.3241 121.9465 43.9879 0.0000 0.0000 0.0000
# 3 42.5223 43.9879 105.2374 0.0000 0.0000 0.0000
# 4 0.0000 0.0000 0.0000 15.8715 0.0000 0.0000
# 5 0.0000 0.0000 0.0000 0.0000 8.6564 0.0000
# 6 0.0000 0.0000 0.0000 0.0000 0.0000 -5.5417
#
#
#
# Elastic Compliance Matrix: (Units=1/GPa)
#
#
# Indices 1 2 3 4 5 6 
#
# 1 0.027674 -0.005492 -0.008887 0.000000 0.000000 0.000000
# 2 -0.005492 0.010746 -0.002273 0.000000 0.000000 0.000000
# 3 -0.008887 -0.002273 0.014043 0.000000 0.000000 0.000000
# 4 0.000000 0.000000 0.000000 0.063006 0.000000 0.000000
# 5 0.000000 0.000000 0.000000 0.000000 0.115521 0.000000
# 6 0.000000 0.000000 0.000000 0.000000 0.000000 -0.180451
#
#
# Mechanical properties :
#
#
# Convention : Reuss Voigt Hill
#
# Bulk Modulus (GPa) = 52.18867 59.36075 55.77471
# Shear Modulus (GPa) = 55.41483 14.44683 34.93083
#
# Velocity S-wave (km/s) = 5.53955 2.82844 4.39811
# Velocity P-wave (km/s) = 8.35557 6.59837 7.52841
#
# Compressibility (1/GPa) = 0.01916125
#
# Stress axis : x y z
#
# Youngs Moduli (GPa) = 36.13469 93.05805 71.20965
#
# Poissons Ratio (x) = 0.51104 0.63281
# Poissons Ratio (y) = 0.19844 0.16184
# Poissons Ratio (z) = 0.32112 0.21150
#
# Static dielectric constant tensor:
#      x y z
#    x 1.608360 0.000000 0.000000 
#    y 0.000000 1.622900 0.000000 
#    z 0.000000 0.000000 1.658840 
# 
# From -- ./inp_files/11208.got.cif
#   From: 2010.05.17/outbox.cif.g08.bks.cpg/sg51_6_cif.got.tgz:11208.got - 2010.06.03 11:52:47.
