data_PCOD9402497
_publ_section_title
;
Structure prediction by ZEFSAII (Michael W. Deem and Ramdas Pophale) SiO2 
 PCOD9402497
Probable space group: P M M A
;
_chemical_formula_sum "Si O2"
_cell_formula_units_Z 64
_cell_length_a 15.335806
_cell_length_b 19.444845
_cell_length_c 11.466048
_cell_angle_alpha 90.000000
_cell_angle_beta 90.000000
_cell_angle_gamma 90.000000
_cell_volume 3419.202695
_symmetry_space_group_name_H-M "P M M A"
_symmetry_group_IT_number 51
_symmetry_cell_setting 'orthorhombic'
loop_
_space_group_symop_operation_xyz
x,y,z
1/2-x,-y,z
1/2+x,-y,-z
-x,y,-z
-x,-y,-z
1/2+x,y,-z
1/2-x,y,z
x,-y,z
loop_
_atom_site_type_symbol
_atom_site_label
_atom_site_fract_x
_atom_site_fract_y
_atom_site_fract_z
Si Si1 0.153790 0.717851 0.961648
Si Si2 0.031855 0.421776 0.323790
Si Si3 0.535483 0.802451 0.630760
Si Si4 0.395446 0.690545 0.702251
Si Si5 0.593226 0.426470 0.937945
Si Si6 0.640705 0.873502 0.022285
Si Si7 0.484017 0.920188 0.183925
Si Si8 0.345162 0.686348 0.441447
O O1 0.250000 0.727944 0.006735
O O2 0.151691 0.704681 0.822973
O O3 0.113700 0.792524 0.985037
O O4 0.124031 0.647578 0.019967
O O5 0.021990 0.500000 0.363867
O O6 0.082305 0.423049 0.200862
O O7 0.084965 0.372551 0.410629
O O8 0.941002 0.384011 0.296729
O O9 0.500000 0.815578 0.500000
O O10 0.470682 0.747967 0.691983
O O11 0.536578 0.869702 0.708952
O O12 0.623425 0.758018 0.614858
O O13 0.345222 0.695557 0.580769
O O14 0.639155 0.500000 0.966151
O O15 0.500000 0.431672 0.000000
O O16 0.750000 0.880853 0.030861
O O17 0.580134 0.902044 0.128834
O O18 0.593816 0.908533 0.910942
O O19 0.485071 0.000000 0.216670
O O20 0.250000 0.666191 0.399200
#
# Coordination Sequence:
#
# PCOD9402497 Si02
#       8
#     8   8   8   8   8   8   8   8
#     4  11  22  34  58  87 112 149 192 236 288 340
#     4  10  21  36  57  80 108 151 196 235 289 351
#     4   9  20  39  60  83 113 151 190 236 286 344
#     4  10  19  37  59  79 111 145 189 240 279 339
#     4  10  21  36  54  78 112 152 189 234 284 337
#     4  10  23  39  60  92 126 159 195 240 292 350
#     4  11  23  39  64  92 120 158 197 238 293 353
#     4  10  22  37  57  83 112 148 190 241 295 341
#
# _framework density 18.717814000000001
#
# number of rings (size 3 to 8) (size 9 to 14) (size 15 to 20)
#    0.000    1.875    2.500    2.250    5.250    3.750 
#    0.000    1.250    0.000    2.250    0.000    1.750 
#    0.000    0.000    0.000    0.000    0.000    0.000 
#
# Total GULP energy -356326.777366 kJ/mol
# GULP energy per Si atom -5567.605896 kJ/mol
# Density = 1.867521 g / cm^3
# Si number density = 18.717814 Si / 1000 Ang^3
#
#
#
# Elastic Constant Matrix: (Units=GPa)
#
#
# Indices 1 2 3 4 5 6 
#
# 1 66.5842 24.9695 -4.8833 0.0000 0.0000 0.0000
# 2 24.9695 159.1894 26.6938 0.0000 0.0000 0.0000
# 3 -4.8833 26.6938 49.1832 0.0000 0.0000 0.0000
# 4 0.0000 0.0000 0.0000 -13.4761 0.0000 0.0000
# 5 0.0000 0.0000 0.0000 0.0000 0.8343 0.0000
# 6 0.0000 0.0000 0.0000 0.0000 0.0000 -2.0714
#
#
#
# Elastic Compliance Matrix: (Units=1/GPa)
#
#
# Indices 1 2 3 4 5 6 
#
# 1 0.016440 -0.003138 0.003335 0.000000 0.000000 0.000000
# 2 -0.003138 0.007510 -0.004387 0.000000 0.000000 0.000000
# 3 0.003335 -0.004387 0.023045 0.000000 0.000000 0.000000
# 4 0.000000 0.000000 0.000000 -0.074205 0.000000 0.000000
# 5 0.000000 0.000000 0.000000 0.000000 1.198594 0.000000
# 6 0.000000 0.000000 0.000000 0.000000 0.000000 -0.482757
#
#
# Mechanical properties :
#
#
# Convention : Reuss Voigt Hill
#
# Bulk Modulus (GPa) = 25.89716 40.94631 33.42173
# Shear Modulus (GPa) = 7.04347 12.26914 9.65630
#
# Velocity S-wave (km/s) = 1.94194 2.56301 2.27378
# Velocity P-wave (km/s) = 4.34670 5.53911 4.97873
#
# Compressibility (1/GPa) = 0.03861427
#
# Stress axis : x y z
#
# Youngs Moduli (GPa) = 60.82740 133.16047 43.39425
#
# Poissons Ratio (x) = 0.41785 -0.14474
# Poissons Ratio (y) = 0.19087 0.19039
# Poissons Ratio (z) = -0.20288 0.58423
#
# Static dielectric constant tensor:
#      x y z
#    x 1.708940 0.000000 0.000000 
#    y 0.000000 1.712040 0.000000 
#    z 0.000000 0.000000 1.369020 
# 
# From -- ./inp_files/16861.got.cif
#   From: 2010.05.17/outbox.cif.g08.bks.cpg/sg51_9_cif.got.tgz:16861.got - 2010.06.03 11:52:47.
