data_PCOD9402707
_publ_section_title
;
Structure prediction by ZEFSAII (Michael W. Deem and Ramdas Pophale) SiO2 
 PCOD9402707
Probable space group: P M M A
;
_chemical_formula_sum "Si O2"
_cell_formula_units_Z 56
_cell_length_a 8.804955
_cell_length_b 15.647137
_cell_length_c 21.096969
_cell_angle_alpha 90.000000
_cell_angle_beta 90.000000
_cell_angle_gamma 90.000000
_cell_volume 2906.578726
_symmetry_space_group_name_H-M "P M M A"
_symmetry_group_IT_number 51
_symmetry_cell_setting 'orthorhombic'
loop_
_space_group_symop_operation_xyz
x,y,z
1/2-x,-y,z
1/2+x,-y,-z
-x,y,-z
-x,-y,-z
1/2+x,y,-z
1/2-x,y,z
x,-y,z
loop_
_atom_site_type_symbol
_atom_site_label
_atom_site_fract_x
_atom_site_fract_y
_atom_site_fract_z
Si Si1 0.078706 0.673669 0.936656
Si Si2 0.422701 0.122147 0.934653
Si Si3 0.070423 0.405614 0.687769
Si Si4 0.568151 0.097167 0.796538
Si Si5 0.432764 0.901256 0.566586
Si Si6 0.565596 0.213618 0.313870
Si Si7 0.420363 0.403190 0.179506
O O1 0.250000 0.640100 0.928750
O O2 0.086161 0.775540 0.941295
O O3 0.976009 0.654998 0.876497
O O4 0.000000 0.639350 0.000000
O O5 0.250000 0.091581 0.929530
O O6 0.509847 0.103790 0.869080
O O7 0.500000 0.092060 0.000000
O O8 0.250000 0.407370 0.674968
O O9 0.008903 0.500000 0.666278
O O10 0.014298 0.310740 0.669055
O O11 0.036119 0.402172 0.762573
O O12 0.750000 0.105683 0.796021
O O13 0.498474 0.169835 0.750306
O O14 0.528695 0.000000 0.774085
O O15 0.500000 0.869933 0.500000
O O16 0.250000 0.899202 0.562640
O O17 0.477970 0.846379 0.627306
O O18 0.480811 0.000000 0.574752
O O19 0.750000 0.215296 0.307765
O O20 0.250000 0.381414 0.201882
O O21 0.416893 0.500000 0.154916
#
# Coordination Sequence:
#
# PCOD9402707 Si02
#       7
#     8   8   8   8   8   8   8
#     4  10  20  33  49  68  89 117 157 205 258 316
#     4  10  21  37  56  75  97 131 175 221 269 322
#     4   9  18  33  53  77 104 135 173 216 261 311
#     4  11  24  38  53  78 110 142 178 222 273 327
#     4   9  18  33  54  81 113 148 185 223 264 315
#     4  10  20  35  57  83 111 145 183 224 271 319
#     4  10  20  32  46  66  93 125 161 204 258 317
#
# _framework density 19.266639000000001
#
# number of rings (size 3 to 8) (size 9 to 14) (size 15 to 20)
#    0.000    2.143    0.000    3.000    0.000    9.429 
#    0.000    1.429    0.000    0.429    0.000    0.000 
#    0.000    0.000    0.000    0.000    0.000    0.000 
#
# Total GULP energy -312147.940900 kJ/mol
# GULP energy per Si atom -5574.070373 kJ/mol
# Density = 1.922279 g / cm^3
# Si number density = 19.266639 Si / 1000 Ang^3
#
#
#
# Elastic Constant Matrix: (Units=GPa)
#
#
# Indices 1 2 3 4 5 6 
#
# 1 27.8003 22.0017 11.8996 0.0000 0.0000 0.0000
# 2 22.0017 92.4370 47.1180 0.0000 0.0000 0.0000
# 3 11.8996 47.1180 90.9087 0.0000 0.0000 0.0000
# 4 0.0000 0.0000 0.0000 18.0069 0.0000 0.0000
# 5 0.0000 0.0000 0.0000 0.0000 25.3379 0.0000
# 6 0.0000 0.0000 0.0000 0.0000 0.0000 15.0661
#
#
#
# Elastic Compliance Matrix: (Units=1/GPa)
#
#
# Indices 1 2 3 4 5 6 
#
# 1 0.044333 -0.010321 -0.000454 0.000000 0.000000 0.000000
# 2 -0.010321 0.017105 -0.007515 0.000000 0.000000 0.000000
# 3 -0.000454 -0.007515 0.014954 0.000000 0.000000 0.000000
# 4 0.000000 0.000000 0.000000 0.055534 0.000000 0.000000
# 5 0.000000 0.000000 0.000000 0.000000 0.039467 0.000000
# 6 0.000000 0.000000 0.000000 0.000000 0.000000 0.066374
#
#
# Mechanical properties :
#
#
# Convention : Reuss Voigt Hill
#
# Bulk Modulus (GPa) = 25.11671 41.46495 33.29083
# Shear Modulus (GPa) = 17.38422 20.35731 18.87076
#
# Velocity S-wave (km/s) = 3.00708 3.25408 3.13302
# Velocity P-wave (km/s) = 5.01213 5.97386 5.51400
#
# Compressibility (1/GPa) = 0.03981413
#
# Stress axis : x y z
#
# Youngs Moduli (GPa) = 22.55652 58.46184 66.87048
#
# Poissons Ratio (x) = 0.60337 0.03034
# Poissons Ratio (y) = 0.23280 0.50251
# Poissons Ratio (z) = 0.01024 0.43932
#
# Static dielectric constant tensor:
#      x y z
#    x 1.674420 0.000000 0.000000 
#    y 0.000000 1.746730 0.000000 
#    z 0.000000 0.000000 1.617910 
# 
# From -- ./inp_files/32039.got.cif
#   From: 2010.05.17/outbox.cif.g08.bks.cpg/sg51_17_cif.got.tgz:32039.got - 2010.06.03 11:52:47.
