data_PCOD9402927
_publ_section_title
;
Structure prediction by ZEFSAII (Michael W. Deem and Ramdas Pophale) SiO2 
 PCOD9402927
Probable space group: P M M A
;
_chemical_formula_sum "Si O2"
_cell_formula_units_Z 48
_cell_length_a 9.574622
_cell_length_b 7.485654
_cell_length_c 32.108869
_cell_angle_alpha 90.000000
_cell_angle_beta 90.000000
_cell_angle_gamma 90.000000
_cell_volume 2301.316732
_symmetry_space_group_name_H-M "P M M A"
_symmetry_group_IT_number 51
_symmetry_cell_setting 'orthorhombic'
loop_
_space_group_symop_operation_xyz
x,y,z
1/2-x,-y,z
1/2+x,-y,-z
-x,y,-z
-x,-y,-z
1/2+x,y,-z
1/2-x,y,z
x,-y,z
loop_
_atom_site_type_symbol
_atom_site_label
_atom_site_fract_x
_atom_site_fract_y
_atom_site_fract_z
Si Si1 0.091104 0.213826 0.038296
Si Si2 0.089006 0.717907 0.792112
Si Si3 0.908861 0.285831 0.869619
Si Si4 0.590618 0.213627 0.461158
Si Si5 0.590979 0.714681 0.620679
Si Si6 0.411716 0.282059 0.698811
O O1 0.250000 0.284156 0.037196
O O2 0.031982 0.248438 0.084421
O O3 0.098874 0.000000 0.033822
O O4 0.000000 0.283247 0.000000
O O5 0.250000 0.770339 0.797717
O O6 0.085569 0.500000 0.792355
O O7 0.045395 0.772959 0.745509
O O8 0.996447 0.781732 0.830486
O O9 0.750000 0.216617 0.868722
O O10 0.902811 0.500000 0.865732
O O11 0.500000 0.283846 0.500000
O O12 0.750000 0.282751 0.459696
O O13 0.505409 0.245781 0.418955
O O14 0.600706 0.000000 0.466369
O O15 0.750000 0.781276 0.615991
O O16 0.598752 0.500000 0.623942
O O17 0.513630 0.780203 0.662388
O O18 0.250000 0.228408 0.691745
O O19 0.412148 0.500000 0.698269
#
# Coordination Sequence:
#
# PCOD9402927 Si02
#       6
#     8   8   8   8   8   8
#     4   9  18  32  47  62  83 113 146 178 216 265
#     4   8  14  25  42  65  92 121 152 185 223 267
#     4   9  17  28  43  65  90 113 141 181 225 264
#     4  10  21  37  56  75  96 127 165 202 243 291
#     4  10  20  32  49  76 105 131 162 200 241 284
#     4   8  14  26  44  66  94 126 157 191 231 273
#
# _framework density 20.857623
#
# number of rings (size 3 to 8) (size 9 to 14) (size 15 to 20)
#    0.000    3.000    0.000    2.000    0.000    4.000 
#    0.000    3.333    0.000    1.000    0.000    4.667 
#    0.000    0.000    0.000    0.000    0.000    0.000 
#
# Total GULP energy -267830.285758 kJ/mol
# GULP energy per Si atom -5579.797620 kJ/mol
# Density = 2.081015 g / cm^3
# Si number density = 20.857623 Si / 1000 Ang^3
#
#
#
# Elastic Constant Matrix: (Units=GPa)
#
#
# Indices 1 2 3 4 5 6 
#
# 1 145.2360 5.7457 133.5417 0.0000 0.0000 0.0000
# 2 5.7457 59.0984 -0.3127 0.0000 0.0000 0.0000
# 3 133.5417 -0.3127 236.0691 0.0000 0.0000 0.0000
# 4 0.0000 0.0000 0.0000 32.6374 0.0000 0.0000
# 5 0.0000 0.0000 0.0000 0.0000 42.5360 0.0000
# 6 0.0000 0.0000 0.0000 0.0000 0.0000 -0.5982
#
#
#
# Elastic Compliance Matrix: (Units=1/GPa)
#
#
# Indices 1 2 3 4 5 6 
#
# 1 0.014472 -0.001450 -0.008189 0.000000 0.000000 0.000000
# 2 -0.001450 0.017066 0.000843 0.000000 0.000000 0.000000
# 3 -0.008189 0.000843 0.008869 0.000000 0.000000 0.000000
# 4 0.000000 0.000000 0.000000 0.030640 0.000000 0.000000
# 5 0.000000 0.000000 0.000000 0.000000 0.023510 0.000000
# 6 0.000000 0.000000 0.000000 0.000000 0.000000 -1.671737
#
#
# Mechanical properties :
#
#
# Convention : Reuss Voigt Hill
#
# Bulk Modulus (GPa) = 43.82886 79.81697 61.82292
# Shear Modulus (GPa) = -3.22168 35.01030 15.89431
#
# Velocity S-wave (km/s) = -1.24417 4.10144 2.76350
# Velocity P-wave (km/s) = 4.35833 7.79613 6.31564
#
# Compressibility (1/GPa) = 0.02281602
#
# Stress axis : x y z
#
# Youngs Moduli (GPa) = 69.09941 58.59470 112.74827
#
# Poissons Ratio (x) = 0.08498 0.92324
# Poissons Ratio (y) = 0.10022 -0.09505
# Poissons Ratio (z) = 0.56582 -0.04940
#
# Static dielectric constant tensor:
#      x y z
#    x 1.729020 0.000000 0.000000 
#    y 0.000000 1.802700 0.000000 
#    z 0.000000 0.000000 1.725910 
# 
# From -- ./inp_files/37045.got.cif
#   From: 2010.05.17/outbox.cif.g08.bks.cpg/sg51_19_cif.got.tgz:37045.got - 2010.06.03 11:52:47.
