data_PCOD9402363
_publ_section_title
;
Structure prediction by ZEFSAII (Michael W. Deem and Ramdas Pophale) SiO2 
 PCOD9402363
Probable space group: P M M A
;
_chemical_formula_sum "Si O2"
_cell_formula_units_Z 48
_cell_length_a 15.565293
_cell_length_b 14.625181
_cell_length_c 10.336606
_cell_angle_alpha 90.000000
_cell_angle_beta 90.000000
_cell_angle_gamma 90.000000
_cell_volume 2353.079024
_symmetry_space_group_name_H-M "P M M A"
_symmetry_group_IT_number 51
_symmetry_cell_setting 'orthorhombic'
loop_
_space_group_symop_operation_xyz
x,y,z
1/2-x,-y,z
1/2+x,-y,-z
-x,y,-z
-x,-y,-z
1/2+x,y,-z
1/2-x,y,z
x,-y,z
loop_
_atom_site_type_symbol
_atom_site_label
_atom_site_fract_x
_atom_site_fract_y
_atom_site_fract_z
Si Si1 0.646359 0.280844 0.697505
Si Si2 0.848937 0.899128 0.267255
Si Si3 0.649507 0.709394 0.195598
Si Si4 0.145071 0.603734 0.555023
Si Si5 0.096759 0.105167 0.446995
Si Si6 0.596634 0.605116 0.946294
O O1 0.750000 0.282648 0.711560
O O2 0.621647 0.338391 0.570090
O O3 0.617675 0.177938 0.663456
O O4 0.606670 0.331528 0.820887
O O5 0.750000 0.907275 0.225017
O O6 0.889047 0.811666 0.195906
O O7 0.849418 0.878188 0.421188
O O8 0.889776 0.000000 0.251051
O O9 0.750000 0.722445 0.227115
O O10 0.612468 0.651069 0.314170
O O11 0.645385 0.653903 0.063886
O O12 0.250000 0.601209 0.559228
O O13 0.114739 0.500000 0.546547
O O14 0.000000 0.114604 0.500000
O O15 0.110774 0.000000 0.406615
O O16 0.625013 0.500000 0.921620
O O17 0.500000 0.601865 0.000000
#
# Coordination Sequence:
#
# PCOD9402363 Si02
#       6
#     8   8   8   8   8   8
#     4  11  22  38  62  91 121 160 207 259 313 365
#     4   9  17  32  57  87 116 146 188 242 294 351
#     4  10  19  35  59  85 112 152 199 245 302 364
#     4   9  17  30  53  85 113 138 185 249 302 353
#     4  10  21  36  59  92 128 163 197 240 304 368
#     4  11  26  43  58  81 119 166 207 251 312 374
#
# _framework density 20.398806
#
# number of rings (size 3 to 8) (size 9 to 14) (size 15 to 20)
#    0.000    2.000    1.667    2.000    2.333    3.667 
#    0.000    0.833    0.000    7.000    0.000    0.000 
#    0.000    0.000    0.000    0.000    0.000    0.000 
#
# Total GULP energy -267874.365878 kJ/mol
# GULP energy per Si atom -5580.715956 kJ/mol
# Density = 2.035238 g / cm^3
# Si number density = 20.398806 Si / 1000 Ang^3
#
#
#
# Elastic Constant Matrix: (Units=GPa)
#
#
# Indices 1 2 3 4 5 6 
#
# 1 24.6412 17.5213 -0.7608 0.0000 0.0000 0.0000
# 2 17.5213 194.1573 75.3746 0.0000 0.0000 0.0000
# 3 -0.7608 75.3746 107.7434 0.0000 0.0000 0.0000
# 4 0.0000 0.0000 0.0000 28.3511 0.0000 0.0000
# 5 0.0000 0.0000 0.0000 0.0000 16.4328 0.0000
# 6 0.0000 0.0000 0.0000 0.0000 0.0000 26.7037
#
#
#
# Elastic Compliance Matrix: (Units=1/GPa)
#
#
# Indices 1 2 3 4 5 6 
#
# 1 0.044780 -0.005716 0.004315 0.000000 0.000000 0.000000
# 2 -0.005716 0.007800 -0.005497 0.000000 0.000000 0.000000
# 3 0.004315 -0.005497 0.013158 0.000000 0.000000 0.000000
# 4 0.000000 0.000000 0.000000 0.035272 0.000000 0.000000
# 5 0.000000 0.000000 0.000000 0.000000 0.060854 0.000000
# 6 0.000000 0.000000 0.000000 0.000000 0.000000 0.037448
#
#
# Mechanical properties :
#
#
# Convention : Reuss Voigt Hill
#
# Bulk Modulus (GPa) = 19.25248 56.75691 38.00469
# Shear Modulus (GPa) = 21.69921 29.92464 25.81193
#
# Velocity S-wave (km/s) = 3.26505 3.83427 3.56106
# Velocity P-wave (km/s) = 4.86545 6.89103 5.96485
#
# Compressibility (1/GPa) = 0.05194137
#
# Stress axis : x y z
#
# Youngs Moduli (GPa) = 22.33126 128.19716 76.00162
#
# Poissons Ratio (x) = 0.73282 -0.32796
# Poissons Ratio (y) = 0.12765 0.41781
# Poissons Ratio (z) = -0.09636 0.70475
#
# Static dielectric constant tensor:
#      x y z
#    x 1.722720 0.000000 0.000000 
#    y 0.000000 1.780900 0.000000 
#    z 0.000000 0.000000 1.673570 
# 
# From -- ./inp_files/9655.got.cif
#   From: 2010.05.17/outbox.cif.g08.bks.cpg/sg51_5_cif.got.tgz:9655.got - 2010.06.03 11:52:47.
