data_PCOD9402105
_publ_section_title
;
Structure prediction by ZEFSAII (Michael W. Deem and Ramdas Pophale) SiO2 
 PCOD9402105
Probable space group: P M M A
;
_chemical_formula_sum "Si O2"
_cell_formula_units_Z 48
_cell_length_a 16.622951
_cell_length_b 7.577052
_cell_length_c 17.313856
_cell_angle_alpha 90.000000
_cell_angle_beta 90.000000
_cell_angle_gamma 90.000000
_cell_volume 2180.731484
_symmetry_space_group_name_H-M "P M M A"
_symmetry_group_IT_number 51
_symmetry_cell_setting 'orthorhombic'
loop_
_space_group_symop_operation_xyz
x,y,z
1/2-x,-y,z
1/2+x,-y,-z
-x,y,-z
-x,-y,-z
1/2+x,y,-z
1/2-x,y,z
x,-y,z
loop_
_atom_site_type_symbol
_atom_site_label
_atom_site_fract_x
_atom_site_fract_y
_atom_site_fract_z
Si Si1 0.923122 0.210403 0.950024
Si Si2 0.341767 0.212486 0.374758
Si Si3 0.657212 0.710253 0.456843
Si Si4 0.750000 0.288639 0.026051
Si Si5 0.750000 0.285631 0.201596
Si Si6 0.407453 0.714454 0.703970
Si Si7 0.073659 0.202834 0.222996
O O1 0.921344 0.282925 0.862362
O O2 0.936578 0.000000 0.943650
O O3 0.834728 0.235919 0.986861
O O4 0.000000 0.278494 0.000000
O O5 0.250000 0.274511 0.378688
O O6 0.378289 0.257736 0.458147
O O7 0.379647 0.283509 0.296022
O O8 0.342936 0.000000 0.370579
O O9 0.750000 0.779810 0.453252
O O10 0.663391 0.500000 0.446947
O O11 0.605029 0.773629 0.384474
O O12 0.750000 0.500000 0.027155
O O13 0.750000 0.221381 0.114053
O O14 0.750000 0.500000 0.199008
O O15 0.828200 0.234699 0.249106
O O16 0.415665 0.500000 0.705535
O O17 0.482698 0.793813 0.747744
O O18 0.102704 0.000000 0.215546
#
# Coordination Sequence:
#
# PCOD9402105 Si02
#       7
#     8   8   8   4   4   8   8
#     4  10  22  41  63  86 117 156 197 242 294 352
#     4   9  19  35  54  74 102 144 186 224 272 326
#     4   9  17  32  54  79 107 142 183 225 269 321
#     4  11  23  37  61  92 117 150 192 239 297 353
#     4   9  18  35  57  82 111 144 178 217 275 341
#     4  10  19  34  57  81 110 146 182 222 274 332
#     4  10  22  37  55  80 110 145 186 231 279 329
#
# _framework density 22.010963
#
# number of rings (size 3 to 8) (size 9 to 14) (size 15 to 20)
#    0.000    2.333    0.833    1.250    1.167    3.000 
#    0.000    4.583    0.000    0.000    0.000    0.000 
#    0.000    0.000    0.000    0.000    0.000    0.000 
#
# Total GULP energy -267884.409358 kJ/mol
# GULP energy per Si atom -5580.925195 kJ/mol
# Density = 2.196086 g / cm^3
# Si number density = 22.010963 Si / 1000 Ang^3
#
#
#
# Elastic Constant Matrix: (Units=GPa)
#
#
# Indices 1 2 3 4 5 6 
#
# 1 85.3850 -15.2796 74.8565 0.0000 0.0000 0.0000
# 2 -15.2796 50.1302 0.9039 0.0000 0.0000 0.0000
# 3 74.8565 0.9039 238.5954 0.0000 0.0000 0.0000
# 4 0.0000 0.0000 0.0000 13.2302 0.0000 0.0000
# 5 0.0000 0.0000 0.0000 0.0000 33.9046 0.0000
# 6 0.0000 0.0000 0.0000 0.0000 0.0000 13.9948
#
#
#
# Elastic Compliance Matrix: (Units=1/GPa)
#
#
# Indices 1 2 3 4 5 6 
#
# 1 0.017523 0.005440 -0.005518 0.000000 0.000000 0.000000
# 2 0.005440 0.021639 -0.001789 0.000000 0.000000 0.000000
# 3 -0.005518 -0.001789 0.005929 0.000000 0.000000 0.000000
# 4 0.000000 0.000000 0.000000 0.075585 0.000000 0.000000
# 5 0.000000 0.000000 0.000000 0.000000 0.029494 0.000000
# 6 0.000000 0.000000 0.000000 0.000000 0.000000 0.071455
#
#
# Mechanical properties :
#
#
# Convention : Reuss Voigt Hill
#
# Bulk Modulus (GPa) = 24.17937 55.00804 39.59370
# Shear Modulus (GPa) = 20.90791 33.13459 27.02125
#
# Velocity S-wave (km/s) = 3.08537 3.88412 3.50755
# Velocity P-wave (km/s) = 4.86843 6.72016 5.86780
#
# Compressibility (1/GPa) = 0.04135758
#
# Stress axis : x y z
#
# Youngs Moduli (GPa) = 57.06765 46.21383 168.65504
#
# Poissons Ratio (x) = -0.25143 0.93068
# Poissons Ratio (y) = -0.31048 0.30170
# Poissons Ratio (z) = 0.31491 0.08267
#
# Static dielectric constant tensor:
#      x y z
#    x 1.702390 0.000000 0.000000 
#    y 0.000000 1.888460 0.000000 
#    z 0.000000 0.000000 1.820750 
# 
# From -- ./inp_files/24929.got.cif
#   From: 2010.05.17/outbox.cif.g08.bks.cpg/sg51_13_cif.got.tgz:24929.got - 2010.06.03 11:52:47.
