data_PCOD9402315
_publ_section_title
;
Structure prediction by ZEFSAII (Michael W. Deem and Ramdas Pophale) SiO2 
 PCOD9402315
Probable space group: P M M A
;
_chemical_formula_sum "Si O2"
_cell_formula_units_Z 64
_cell_length_a 26.257132
_cell_length_b 7.695354
_cell_length_c 14.860974
_cell_angle_alpha 90.000000
_cell_angle_beta 90.000000
_cell_angle_gamma 90.000000
_cell_volume 3002.777581
_symmetry_space_group_name_H-M "P M M A"
_symmetry_group_IT_number 51
_symmetry_cell_setting 'orthorhombic'
loop_
_space_group_symop_operation_xyz
x,y,z
1/2-x,-y,z
1/2+x,-y,-z
-x,y,-z
-x,-y,-z
1/2+x,y,-z
1/2-x,y,z
x,-y,z
loop_
_atom_site_type_symbol
_atom_site_label
_atom_site_fract_x
_atom_site_fract_y
_atom_site_fract_z
Si Si1 0.192161 0.791068 0.780680
Si Si2 0.691293 0.706878 0.421080
Si Si3 0.361486 0.798961 0.397725
Si Si4 0.306634 0.298691 0.222880
Si Si5 0.477341 0.787222 0.405215
Si Si6 0.595132 0.204191 0.889169
Si Si7 0.494274 0.787562 0.788122
Si Si8 0.897926 0.213374 0.092878
O O1 0.250000 0.723694 0.790231
O O2 0.173684 0.748623 0.679854
O O3 0.152933 0.728557 0.855644
O O4 0.194333 0.000000 0.787186
O O5 0.750000 0.768711 0.427894
O O6 0.690944 0.500000 0.432850
O O7 0.658477 0.785917 0.500889
O O8 0.323488 0.712294 0.327088
O O9 0.418895 0.729715 0.393425
O O10 0.363534 0.000000 0.369755
O O11 0.250000 0.222547 0.210944
O O12 0.304448 0.500000 0.197511
O O13 0.352124 0.220484 0.164218
O O14 0.500000 0.727793 0.500000
O O15 0.507898 0.733921 0.316146
O O16 0.476787 0.000000 0.407857
O O17 0.547531 0.273601 0.831758
O O18 0.584288 0.000000 0.899585
O O19 0.598897 0.275191 0.990212
O O20 0.446981 0.733450 0.849166
O O21 0.494430 0.000000 0.787460
O O22 0.897189 0.000000 0.092131
#
# Coordination Sequence:
#
# PCOD9402315 Si02
#       8
#     8   8   8   8   8   8   8   8
#     4   9  18  33  52  78 109 140 180 228 273 318
#     4  10  21  36  53  75 106 144 179 214 265 327
#     4  11  21  35  58  85 109 139 183 230 273 321
#     4  11  24  40  57  79 111 152 190 226 280 345
#     4   9  18  30  49  82 116 142 173 218 272 328
#     4  10  19  35  57  85 112 139 184 238 283 325
#     4   9  16  30  52  81 114 144 179 224 277 335
#     4   9  18  30  54  85 112 144 182 231 284 329
#
# _framework density 21.313601999999999
#
# number of rings (size 3 to 8) (size 9 to 14) (size 15 to 20)
#    0.000    2.250    1.250    1.875    1.750    5.250 
#    0.000    1.875    0.000    6.750    0.000    0.000 
#    0.000    0.000    0.000    0.000    0.000    0.000 
#
# Total GULP energy -357466.358385 kJ/mol
# GULP energy per Si atom -5585.411850 kJ/mol
# Density = 2.126509 g / cm^3
# Si number density = 21.313602 Si / 1000 Ang^3
#
#
#
# Elastic Constant Matrix: (Units=GPa)
#
#
# Indices 1 2 3 4 5 6 
#
# 1 110.0767 -2.0348 75.6317 0.0000 0.0000 0.0000
# 2 -2.0348 33.4000 -3.1892 0.0000 0.0000 0.0000
# 3 75.6317 -3.1892 177.3814 0.0000 0.0000 0.0000
# 4 0.0000 0.0000 0.0000 -17.1958 0.0000 0.0000
# 5 0.0000 0.0000 0.0000 0.0000 174.3736 0.0000
# 6 0.0000 0.0000 0.0000 0.0000 0.0000 -56.0280
#
#
#
# Elastic Compliance Matrix: (Units=1/GPa)
#
#
# Indices 1 2 3 4 5 6 
#
# 1 0.012851 0.000260 -0.005475 0.000000 0.000000 0.000000
# 2 0.000260 0.029997 0.000428 0.000000 0.000000 0.000000
# 3 -0.005475 0.000428 0.007980 0.000000 0.000000 0.000000
# 4 0.000000 0.000000 0.000000 -0.058154 0.000000 0.000000
# 5 0.000000 0.000000 0.000000 0.000000 0.005735 0.000000
# 6 0.000000 0.000000 0.000000 0.000000 0.000000 -0.017848
#
#
# Mechanical properties :
#
#
# Convention : Reuss Voigt Hill
#
# Bulk Modulus (GPa) = 24.23945 51.29706 37.76826
# Shear Modulus (GPa) = 1287.26258 36.92665 662.09462
#
# Velocity S-wave (km/s) = 24.60232 4.16689 17.64422
# Velocity P-wave (km/s) = 28.60821 6.87537 20.80505
#
# Compressibility (1/GPa) = 0.04125506
#
# Stress axis : x y z
#
# Youngs Moduli (GPa) = 77.81529 33.33683 125.32013
#
# Poissons Ratio (x) = -0.00867 0.68609
# Poissons Ratio (y) = -0.02024 -0.05369
# Poissons Ratio (z) = 0.42601 -0.01428
#
# Static dielectric constant tensor:
#      x y z
#    x 1.755660 0.000000 0.000000 
#    y 0.000000 1.795310 0.000000 
#    z 0.000000 0.000000 1.734460 
# 
# From -- ./inp_files/26279.got.cif
#   From: 2010.05.17/outbox.cif.g08.bks.cpg/sg51_14_cif.got.tgz:26279.got - 2010.06.03 11:52:47.
