data_PCOD9402465
_publ_section_title
;
Structure prediction by ZEFSAII (Michael W. Deem and Ramdas Pophale) SiO2 
 PCOD9402465
Probable space group: P M M A
;
_chemical_formula_sum "Si O2"
_cell_formula_units_Z 48
_cell_length_a 16.135179
_cell_length_b 16.133299
_cell_length_c 9.414622
_cell_angle_alpha 90.000000
_cell_angle_beta 90.000000
_cell_angle_gamma 90.000000
_cell_volume 2450.754778
_symmetry_space_group_name_H-M "P M M A"
_symmetry_group_IT_number 51
_symmetry_cell_setting 'orthorhombic'
loop_
_space_group_symop_operation_xyz
x,y,z
1/2-x,-y,z
1/2+x,-y,-z
-x,y,-z
-x,-y,-z
1/2+x,y,-z
1/2-x,y,z
x,-y,z
loop_
_atom_site_type_symbol
_atom_site_label
_atom_site_fract_x
_atom_site_fract_y
_atom_site_fract_z
Si Si1 0.654027 0.273038 0.341145
Si Si2 0.410298 0.843875 0.436139
Si Si3 0.847463 0.000000 0.729323
Si Si4 0.650193 0.406878 0.575669
Si Si5 0.654078 0.729460 0.787762
Si Si6 0.091059 0.813068 0.931913
Si Si7 0.649620 0.000000 0.052878
O O1 0.750000 0.288608 0.301223
O O2 0.648422 0.193515 0.443864
O O3 0.622485 0.347638 0.444231
O O4 0.601674 0.246348 0.204325
O O5 0.500000 0.858004 0.500000
O O6 0.410525 0.778115 0.309618
O O7 0.374909 0.922973 0.361060
O O8 0.750000 0.000000 0.747554
O O9 0.881303 0.000000 0.888871
O O10 0.750000 0.410479 0.558113
O O11 0.616862 0.500000 0.568632
O O12 0.638675 0.363984 0.730870
O O13 0.750000 0.747942 0.745273
O O14 0.643826 0.766090 0.944741
O O15 0.119811 0.908139 0.894955
O O16 0.000000 0.818318 0.000000
O O17 0.750000 0.000000 0.062742
#
# Coordination Sequence:
#
# PCOD9402465 Si02
#       7
#     8   8   4   8   8   8   4
#     4  10  21  36  57  84 116 149 184 233 290 341
#     4  11  21  35  54  81 110 143 187 234 285 333
#     4  11  21  35  57  79 104 145 195 241 278 329
#     4   8  16  34  62  92 115 141 186 240 285 334
#     4  10  19  36  61  83 111 152 195 231 276 343
#     4  12  24  39  57  83 117 154 195 238 287 337
#     4  11  23  39  61  81 108 151 201 243 280 333
#
# _framework density 19.585801
#
# number of rings (size 3 to 8) (size 9 to 14) (size 15 to 20)
#    0.000    1.667    1.667    5.500    0.000    0.667 
#    0.000    2.500    0.000   23.000    0.000    0.000 
#    0.000    0.000    0.000    0.000    0.000    0.000 
#
# Total GULP energy -267341.322926 kJ/mol
# GULP energy per Si atom -5569.610894 kJ/mol
# Density = 1.954122 g / cm^3
# Si number density = 19.585801 Si / 1000 Ang^3
#
#
#
# Elastic Constant Matrix: (Units=GPa)
#
#
# Indices 1 2 3 4 5 6 
#
# 1 46.8111 10.5358 -0.9198 0.0000 0.0000 0.0000
# 2 10.5358 121.4975 26.6299 0.0000 0.0000 0.0000
# 3 -0.9198 26.6299 67.7978 0.0000 0.0000 0.0000
# 4 0.0000 0.0000 0.0000 40.1609 0.0000 0.0000
# 5 0.0000 0.0000 0.0000 0.0000 51.9745 0.0000
# 6 0.0000 0.0000 0.0000 0.0000 0.0000 10.4638
#
#
#
# Elastic Compliance Matrix: (Units=1/GPa)
#
#
# Indices 1 2 3 4 5 6 
#
# 1 0.021868 -0.002146 0.001140 0.000000 0.000000 0.000000
# 2 -0.002146 0.009217 -0.003649 0.000000 0.000000 0.000000
# 3 0.001140 -0.003649 0.016199 0.000000 0.000000 0.000000
# 4 0.000000 0.000000 0.000000 0.024900 0.000000 0.000000
# 5 0.000000 0.000000 0.000000 0.000000 0.019240 0.000000
# 6 0.000000 0.000000 0.000000 0.000000 0.000000 0.095568
#
#
# Mechanical properties :
#
#
# Convention : Reuss Voigt Hill
#
# Bulk Modulus (GPa) = 26.33546 34.28869 30.31208
# Shear Modulus (GPa) = 23.92807 33.84388 28.88597
#
# Velocity S-wave (km/s) = 3.49908 4.16141 3.84453
# Velocity P-wave (km/s) = 5.45895 6.37453 5.93443
#
# Compressibility (1/GPa) = 0.03797162
#
# Stress axis : x y z
#
# Youngs Moduli (GPa) = 45.72919 108.50027 61.73389
#
# Poissons Ratio (x) = 0.23285 -0.07035
# Poissons Ratio (y) = 0.09814 0.22528
# Poissons Ratio (z) = -0.05211 0.39594
#
# Static dielectric constant tensor:
#      x y z
#    x 1.722810 0.000000 0.000000 
#    y 0.000000 1.603620 0.000000 
#    z 0.000000 0.000000 1.720370 
# 
# From -- ./inp_files/8301.got.cif
#   From: 2010.05.17/outbox.cif.g08.bks.cpg/sg51_5_cif.got.tgz:8301.got - 2010.06.03 11:52:47.
