data_PCOD9402831
_publ_section_title
;
Structure prediction by ZEFSAII (Michael W. Deem and Ramdas Pophale) SiO2 
 PCOD9402831
Probable space group: P M M A
;
_chemical_formula_sum "Si O2"
_cell_formula_units_Z 48
_cell_length_a 14.312603
_cell_length_b 7.327405
_cell_length_c 20.948409
_cell_angle_alpha 90.000000
_cell_angle_beta 90.000000
_cell_angle_gamma 90.000000
_cell_volume 2196.948448
_symmetry_space_group_name_H-M "P M M A"
_symmetry_group_IT_number 51
_symmetry_cell_setting 'orthorhombic'
loop_
_space_group_symop_operation_xyz
x,y,z
1/2-x,-y,z
1/2+x,-y,-z
-x,y,-z
-x,-y,-z
1/2+x,y,-z
1/2-x,y,z
x,-y,z
loop_
_atom_site_type_symbol
_atom_site_label
_atom_site_fract_x
_atom_site_fract_y
_atom_site_fract_z
Si Si1 0.538266 0.777039 0.749744
Si Si2 0.855307 0.222479 0.003565
Si Si3 0.355612 0.211102 0.671229
Si Si4 0.750000 0.720007 0.577465
Si Si5 0.004699 0.221488 0.105444
Si Si6 0.599191 0.279586 0.475031
Si Si7 0.750000 0.204324 0.722711
O O1 0.451821 0.715988 0.703935
O O2 0.511788 0.722325 0.821693
O O3 0.646371 0.715939 0.738154
O O4 0.541711 0.000000 0.744355
O O5 0.750000 0.285307 0.004901
O O6 0.913832 0.279017 0.065621
O O7 0.855591 0.000000 0.003556
O O8 0.909042 0.278067 0.939358
O O9 0.250000 0.287138 0.684558
O O10 0.370609 0.216321 0.594842
O O11 0.351449 0.000000 0.691737
O O12 0.750000 0.500000 0.585978
O O13 0.834985 0.772960 0.532922
O O14 0.750000 0.803666 0.646460
O O15 0.004626 0.000000 0.106466
O O16 0.500000 0.218046 0.500000
O O17 0.600288 0.500000 0.470516
O O18 0.750000 0.000000 0.751908
#
# Coordination Sequence:
#
# PCOD9402831 Si02
#       7
#     8   8   8   4   8   8   4
#     4   9  18  30  43  62  91 126 163 197 235 283
#     4   8  13  20  33  53  78 111 156 197 226 264
#     4  10  20  33  48  69  96 126 159 193 234 286
#     4  10  20  34  50  70  94 117 148 192 238 283
#     4   8  14  23  34  53  80 114 156 195 227 267
#     4  10  20  34  53  73  92 118 153 194 242 288
#     4  10  20  32  48  70  94 125 162 196 234 285
#
# _framework density 21.848488
#
# number of rings (size 3 to 8) (size 9 to 14) (size 15 to 20)
#    0.000    2.833    0.833    2.000    1.167    1.667 
#    0.000    3.333    0.000    0.000    0.000    0.000 
#    0.000    0.000    0.000   12.000    4.000   13.667 
#
# Total GULP energy -267626.717318 kJ/mol
# GULP energy per Si atom -5575.556611 kJ/mol
# Density = 2.179876 g / cm^3
# Si number density = 21.848488 Si / 1000 Ang^3
#
#
#
# Elastic Constant Matrix: (Units=GPa)
#
#
# Indices 1 2 3 4 5 6 
#
# 1 166.6335 3.1437 33.5306 0.0000 0.0000 0.0000
# 2 3.1437 81.3304 -7.5150 0.0000 0.0000 0.0000
# 3 33.5306 -7.5150 108.5370 0.0000 0.0000 0.0000
# 4 0.0000 0.0000 0.0000 -91.4658 0.0000 0.0000
# 5 0.0000 0.0000 0.0000 0.0000 1.2616 0.0000
# 6 0.0000 0.0000 0.0000 0.0000 0.0000 -8.1070
#
#
#
# Elastic Compliance Matrix: (Units=1/GPa)
#
#
# Indices 1 2 3 4 5 6 
#
# 1 0.006414 -0.000434 -0.002012 0.000000 0.000000 0.000000
# 2 -0.000434 0.012404 0.000993 0.000000 0.000000 0.000000
# 3 -0.002012 0.000993 0.009904 0.000000 0.000000 0.000000
# 4 0.000000 0.000000 0.000000 -0.010933 0.000000 0.000000
# 5 0.000000 0.000000 0.000000 0.000000 0.792646 0.000000
# 6 0.000000 0.000000 0.000000 0.000000 0.000000 -0.123351
#
#
# Mechanical properties :
#
#
# Convention : Reuss Voigt Hill
#
# Bulk Modulus (GPa) = 38.73449 46.09106 42.41278
# Shear Modulus (GPa) = 7.15723 2.16055 4.65889
#
# Velocity S-wave (km/s) = 1.81189 0.99550 1.46185
# Velocity P-wave (km/s) = 4.70579 4.73951 4.72268
#
# Compressibility (1/GPa) = 0.02581678
#
# Stress axis : x y z
#
# Youngs Moduli (GPa) = 155.90524 80.61894 100.97305
#
# Poissons Ratio (x) = 0.03497 0.20311
# Poissons Ratio (y) = 0.06763 -0.10025
# Poissons Ratio (z) = 0.31362 -0.08004
#
# Static dielectric constant tensor:
#      x y z
#    x 1.791820 0.000000 0.000000 
#    y 0.000000 1.892300 0.000000 
#    z 0.000000 0.000000 1.712280 
# 
# From -- ./inp_files/29507.got.cif
#   From: 2010.05.17/outbox.cif.g08.bks.cpg/sg51_15_cif.got.tgz:29507.got - 2010.06.03 11:52:47.
