data_PCOD9402533
_publ_section_title
;
Structure prediction by ZEFSAII (Michael W. Deem and Ramdas Pophale) SiO2 
 PCOD9402533
Probable space group: P M M A
;
_chemical_formula_sum "Si O2"
_cell_formula_units_Z 30
_cell_length_a 15.103788
_cell_length_b 16.916002
_cell_length_c 5.147462
_cell_angle_alpha 90.000000
_cell_angle_beta 90.000000
_cell_angle_gamma 90.000000
_cell_volume 1315.154448
_symmetry_space_group_name_H-M "P M M A"
_symmetry_group_IT_number 51
_symmetry_cell_setting 'orthorhombic'
loop_
_space_group_symop_operation_xyz
x,y,z
1/2-x,-y,z
1/2+x,-y,-z
-x,y,-z
-x,-y,-z
1/2+x,y,-z
1/2-x,y,z
x,-y,z
loop_
_atom_site_type_symbol
_atom_site_label
_atom_site_fract_x
_atom_site_fract_y
_atom_site_fract_z
Si Si1 0.561754 0.000000 0.248375
Si Si2 0.250000 0.500000 0.898374
Si Si3 0.143762 0.165232 0.889821
Si Si4 0.857469 0.254357 0.604562
Si Si5 0.906725 0.583965 0.859937
O O1 0.500000 0.000000 0.500000
O O2 0.617902 0.079726 0.217698
O O3 0.500000 0.000000 0.000000
O O4 0.327906 0.431584 0.933936
O O5 0.250000 0.168401 0.898376
O O6 0.111168 0.228556 0.678582
O O7 0.112635 0.190738 0.176275
O O8 0.750000 0.254462 0.602969
O O9 0.888180 0.340448 0.688669
O O10 0.903386 0.500000 0.704609
O O11 0.000000 0.590391 0.000000
#
# Coordination Sequence:
#
# PCOD9402533 Si02
#       5
#     4   2   8   8   8
#     4  12  25  42  61  90 126 158 198 256 315 358
#     4   8  14  32  56  80 128 160 218 250 324 368
#     4  10  23  40  66  87 121 161 207 246 308 375
#     4  10  19  38  60  91 119 159 204 260 305 367
#     4   9  17  31  57  87 123 165 209 260 317 375
#
# _framework density 22.81101
#
# number of rings (size 3 to 8) (size 9 to 14) (size 15 to 20)
#    0.800    1.333    1.333    2.000    0.000    3.200 
#    0.000    6.667    0.000    9.600    0.000    0.000 
#    0.000    0.000    0.000    0.000    0.000    0.000 
#
# Total GULP energy -167152.617127 kJ/mol
# GULP energy per Si atom -5571.753904 kJ/mol
# Density = 2.275909 g / cm^3
# Si number density = 22.811010 Si / 1000 Ang^3
#
#
#
# Elastic Constant Matrix: (Units=GPa)
#
#
# Indices 1 2 3 4 5 6 
#
# 1 85.4880 1.3048 23.7128 0.0000 0.0000 0.0000
# 2 1.3048 86.9320 -8.4561 0.0000 0.0000 0.0000
# 3 23.7128 -8.4561 76.2407 0.0000 0.0000 0.0000
# 4 0.0000 0.0000 0.0000 -1.8689 0.0000 0.0000
# 5 0.0000 0.0000 0.0000 0.0000 17.1782 0.0000
# 6 0.0000 0.0000 0.0000 0.0000 0.0000 27.4236
#
#
#
# Elastic Compliance Matrix: (Units=1/GPa)
#
#
# Indices 1 2 3 4 5 6 
#
# 1 0.012832 -0.000587 -0.004056 0.000000 0.000000 0.000000
# 2 -0.000587 0.011656 0.001475 0.000000 0.000000 0.000000
# 3 -0.004056 0.001475 0.014542 0.000000 0.000000 0.000000
# 4 0.000000 0.000000 0.000000 -0.535065 0.000000 0.000000
# 5 0.000000 0.000000 0.000000 0.000000 0.058213 0.000000
# 6 0.000000 0.000000 0.000000 0.000000 0.000000 0.036465
#
#
# Mechanical properties :
#
#
# Convention : Reuss Voigt Hill
#
# Bulk Modulus (GPa) = 30.58755 31.30927 30.94841
# Shear Modulus (GPa) = -13.01661 24.01984 5.50162
#
# Velocity S-wave (km/s) = -2.39137 3.24851 1.55469
# Velocity P-wave (km/s) = 2.41109 5.27501 4.10116
#
# Compressibility (1/GPa) = 0.03269304
#
# Stress axis : x y z
#
# Youngs Moduli (GPa) = 77.93266 85.79587 68.76857
#
# Poissons Ratio (x) = 0.05037 0.27893
# Poissons Ratio (y) = 0.04576 -0.10146
# Poissons Ratio (z) = 0.31610 -0.12658
#
# Static dielectric constant tensor:
#      x y z
#    x 1.848530 0.000000 0.000000 
#    y 0.000000 1.680310 0.000000 
#    z 0.000000 0.000000 1.863830 
# 
# From -- ./inp_files/1280.got.cif
#   From: 2010.05.17/outbox.cif.g08.bks.cpg/sg51_1_cif.got.tgz:1280.got - 2010.06.03 11:52:47.
