data_PCOD9402880
_publ_section_title
;
Structure prediction by ZEFSAII (Michael W. Deem and Ramdas Pophale) SiO2 
 PCOD9402880
Probable space group: P M M A
;
_chemical_formula_sum "Si O2"
_cell_formula_units_Z 64
_cell_length_a 22.499887
_cell_length_b 8.720108
_cell_length_c 18.024067
_cell_angle_alpha 90.000000
_cell_angle_beta 90.000000
_cell_angle_gamma 90.000000
_cell_volume 3536.347983
_symmetry_space_group_name_H-M "P M M A"
_symmetry_group_IT_number 51
_symmetry_cell_setting 'orthorhombic'
loop_
_space_group_symop_operation_xyz
x,y,z
1/2-x,-y,z
1/2+x,-y,-z
-x,y,-z
-x,-y,-z
1/2+x,y,-z
1/2-x,y,z
x,-y,z
loop_
_atom_site_type_symbol
_atom_site_label
_atom_site_fract_x
_atom_site_fract_y
_atom_site_fract_z
Si Si1 0.181113 0.322497 0.111110
Si Si2 0.454864 0.315848 0.568657
Si Si3 0.317102 0.824119 0.370649
Si Si4 0.016550 0.177507 0.730077
Si Si5 0.079413 0.178240 0.032098
Si Si6 0.395520 0.327231 0.257584
Si Si7 0.816638 0.683291 0.469238
Si Si8 0.530797 0.681923 0.114969
O O1 0.250000 0.288029 0.115820
O O2 0.173502 0.500000 0.086850
O O3 0.145694 0.212398 0.057011
O O4 0.150753 0.310070 0.191263
O O5 0.500000 0.266306 0.500000
O O6 0.460880 0.500000 0.571674
O O7 0.473023 0.247400 0.648494
O O8 0.383457 0.282381 0.561433
O O9 0.250000 0.808817 0.340710
O O10 0.360056 0.703635 0.332423
O O11 0.314822 0.783431 0.456640
O O12 0.336410 0.000000 0.358832
O O13 0.946937 0.203259 0.745956
O O14 0.044633 0.260843 0.802048
O O15 0.032898 0.000000 0.730173
O O16 0.035887 0.272739 0.087390
O O17 0.064243 0.000000 0.038611
O O18 0.069052 0.236493 0.948847
O O19 0.421077 0.500000 0.254941
O O20 0.750000 0.709516 0.432436
O O21 0.817629 0.500000 0.485040
O O22 0.536922 0.500000 0.110826
#
# Coordination Sequence:
#
# PCOD9402880 Si02
#       8
#     8   8   8   8   8   8   8   8
#     4  10  21  36  54  78 111 154 197 231 271 334
#     4  10  21  37  57  83 115 153 195 240 292 352
#     4  10  20  32  48  73 106 143 184 231 281 333
#     4  12  24  37  56  84 115 145 184 238 295 347
#     4  11  21  35  57  85 115 145 184 233 284 331
#     4  11  21  34  52  74 106 149 191 230 274 333
#     4   9  18  34  56  79 105 142 190 237 284 345
#     4  11  21  37  60  83 110 146 186 231 281 337
#
# _framework density 18.097767999999999
#
# number of rings (size 3 to 8) (size 9 to 14) (size 15 to 20)
#    0.000    1.500    1.250    6.000    0.000    3.750 
#    0.000    0.000    0.000    0.750    0.000    1.750 
#    0.000    0.000    0.000    0.000    0.000    0.000 
#
# Total GULP energy -356726.076553 kJ/mol
# GULP energy per Si atom -5573.844946 kJ/mol
# Density = 1.805658 g / cm^3
# Si number density = 18.097768 Si / 1000 Ang^3
#
#
#
# Elastic Constant Matrix: (Units=GPa)
#
#
# Indices 1 2 3 4 5 6 
#
# 1 70.8042 18.6872 18.8838 0.0000 0.0000 0.0000
# 2 18.6872 30.7523 11.9109 0.0000 0.0000 0.0000
# 3 18.8838 11.9109 82.0494 0.0000 0.0000 0.0000
# 4 0.0000 0.0000 0.0000 4.7568 0.0000 0.0000
# 5 0.0000 0.0000 0.0000 0.0000 23.6859 0.0000
# 6 0.0000 0.0000 0.0000 0.0000 0.0000 0.1880
#
#
#
# Elastic Compliance Matrix: (Units=1/GPa)
#
#
# Indices 1 2 3 4 5 6 
#
# 1 0.017332 -0.009522 -0.002607 0.000000 0.000000 0.000000
# 2 -0.009522 0.039687 -0.003570 0.000000 0.000000 0.000000
# 3 -0.002607 -0.003570 0.013306 0.000000 0.000000 0.000000
# 4 0.000000 0.000000 0.000000 0.210226 0.000000 0.000000
# 5 0.000000 0.000000 0.000000 0.000000 0.042219 0.000000
# 6 0.000000 0.000000 0.000000 0.000000 0.000000 5.318779
#
#
# Mechanical properties :
#
#
# Convention : Reuss Voigt Hill
#
# Bulk Modulus (GPa) = 25.68889 31.39664 28.54276
# Shear Modulus (GPa) = 0.87936 14.66774 7.77355
#
# Velocity S-wave (km/s) = 0.69782 2.84997 2.07476
# Velocity P-wave (km/s) = 3.85676 5.31185 4.64168
#
# Compressibility (1/GPa) = 0.03892733
#
# Stress axis : x y z
#
# Youngs Moduli (GPa) = 57.69705 25.19717 75.15467
#
# Poissons Ratio (x) = 0.23994 0.19590
# Poissons Ratio (y) = 0.54942 0.26827
# Poissons Ratio (z) = 0.15039 0.08994
#
# Static dielectric constant tensor:
#      x y z
#    x 1.677400 0.000000 0.000000 
#    y 0.000000 1.615510 0.000000 
#    z 0.000000 0.000000 1.620400 
# 
# From -- ./inp_files/26195.got.cif
#   From: 2010.05.17/outbox.cif.g08.bks.cpg/sg51_14_cif.got.tgz:26195.got - 2010.06.03 11:52:47.
