data_PCOD9402206
_publ_section_title
;
Structure prediction by ZEFSAII (Michael W. Deem and Ramdas Pophale) SiO2 
 PCOD9402206
Probable space group: P M M A
;
_chemical_formula_sum "Si O2"
_cell_formula_units_Z 64
_cell_length_a 14.856031
_cell_length_b 23.752852
_cell_length_c 9.443635
_cell_angle_alpha 90.000000
_cell_angle_beta 90.000000
_cell_angle_gamma 90.000000
_cell_volume 3332.404811
_symmetry_space_group_name_H-M "P M M A"
_symmetry_group_IT_number 51
_symmetry_cell_setting 'orthorhombic'
loop_
_space_group_symop_operation_xyz
x,y,z
1/2-x,-y,z
1/2+x,-y,-z
-x,y,-z
-x,-y,-z
1/2+x,y,-z
1/2-x,y,z
x,-y,z
loop_
_atom_site_type_symbol
_atom_site_label
_atom_site_fract_x
_atom_site_fract_y
_atom_site_fract_z
Si Si1 0.855401 0.355681 0.650573
Si Si2 0.023441 0.377708 0.851864
Si Si3 0.591558 0.156863 0.089913
Si Si4 0.476686 0.125997 0.339159
Si Si5 0.852510 0.062980 0.870664
Si Si6 0.356519 0.564807 0.617729
Si Si7 0.853889 0.765385 0.710818
Si Si8 0.352036 0.276775 0.965361
O O1 0.750000 0.363391 0.695622
O O2 0.873260 0.395555 0.517483
O O3 0.864424 0.289555 0.612887
O O4 0.930040 0.367830 0.768962
O O5 0.087055 0.412782 0.749217
O O6 0.077405 0.320657 0.898808
O O7 0.000000 0.406939 0.000000
O O8 0.564288 0.133422 0.241728
O O9 0.641103 0.215863 0.107560
O O10 0.500000 0.169103 0.000000
O O11 0.638119 0.109688 0.993447
O O12 0.500000 0.113637 0.500000
O O13 0.416877 0.080163 0.257600
O O14 0.420872 0.184606 0.325722
O O15 0.750000 0.063831 0.821172
O O16 0.874184 0.000000 0.922808
O O17 0.250000 0.568180 0.648663
O O18 0.378713 0.500000 0.585046
O O19 0.750000 0.785167 0.705655
O O20 0.868088 0.740691 0.869884
O O21 0.250000 0.299207 0.954832
#
# Coordination Sequence:
#
# PCOD9402206 Si02
#       8
#     8   8   8   8   8   8   8   8
#     4  10  22  39  62  89 121 165 208 248 298 364
#     4  12  23  36  62  95 125 156 198 252 313 368
#     4  10  19  34  59  86 117 157 205 251 300 357
#     4  11  23  36  56  89 125 160 195 250 314 370
#     4  10  21  40  64  85 111 158 213 255 300 363
#     4  10  24  47  68  88 120 163 210 256 304 366
#     4  10  19  36  60  85 122 163 203 246 301 369
#     4  11  20  35  60  90 126 161 201 253 311 367
#
# _framework density 19.205349999999999
#
# number of rings (size 3 to 8) (size 9 to 14) (size 15 to 20)
#    0.000    1.500    3.750    2.625    0.000    6.250 
#    0.000    3.750    0.000    3.000    0.000    0.000 
#    0.000    0.000    0.000    0.000    0.000    0.000 
#
# Total GULP energy -357248.987540 kJ/mol
# GULP energy per Si atom -5582.015430 kJ/mol
# Density = 1.916164 g / cm^3
# Si number density = 19.205350 Si / 1000 Ang^3
#
#
#
# Elastic Constant Matrix: (Units=GPa)
#
#
# Indices 1 2 3 4 5 6 
#
# 1 71.8547 30.1188 35.6791 0.0000 0.0000 0.0000
# 2 30.1188 83.8506 22.7225 0.0000 0.0000 0.0000
# 3 35.6791 22.7225 90.2664 0.0000 0.0000 0.0000
# 4 0.0000 0.0000 0.0000 24.5974 0.0000 0.0000
# 5 0.0000 0.0000 0.0000 0.0000 19.7399 0.0000
# 6 0.0000 0.0000 0.0000 0.0000 0.0000 13.5397
#
#
#
# Elastic Compliance Matrix: (Units=1/GPa)
#
#
# Indices 1 2 3 4 5 6 
#
# 1 0.019218 -0.005199 -0.006288 0.000000 0.000000 0.000000
# 2 -0.005199 0.014206 -0.001521 0.000000 0.000000 0.000000
# 3 -0.006288 -0.001521 0.013946 0.000000 0.000000 0.000000
# 4 0.000000 0.000000 0.000000 0.040655 0.000000 0.000000
# 5 0.000000 0.000000 0.000000 0.000000 0.050659 0.000000
# 6 0.000000 0.000000 0.000000 0.000000 0.000000 0.073857
#
#
# Mechanical properties :
#
#
# Convention : Reuss Voigt Hill
#
# Bulk Modulus (GPa) = 46.82731 47.00137 46.91434
# Shear Modulus (GPa) = 20.35215 22.07217 21.21216
#
# Velocity S-wave (km/s) = 3.25885 3.39377 3.32700
# Velocity P-wave (km/s) = 6.21253 6.31531 6.26413
#
# Compressibility (1/GPa) = 0.02135506
#
# Stress axis : x y z
#
# Youngs Moduli (GPa) = 52.03355 70.39439 71.70311
#
# Poissons Ratio (x) = 0.36600 0.45084
# Poissons Ratio (y) = 0.27054 0.10905
# Poissons Ratio (z) = 0.32716 0.10706
#
# Static dielectric constant tensor:
#      x y z
#    x 1.703980 0.000000 0.000000 
#    y 0.000000 1.684540 0.000000 
#    z 0.000000 0.000000 1.664080 
# 
# From -- ./inp_files/8715.got.cif
#   From: 2010.05.17/outbox.cif.g08.bks.cpg/sg51_5_cif.got.tgz:8715.got - 2010.06.03 11:52:47.
