data_PCOD9402014
_publ_section_title
;
Structure prediction by ZEFSAII (Michael W. Deem and Ramdas Pophale) SiO2 
 PCOD9402014
Probable space group: P M M A
;
_chemical_formula_sum "Si O2"
_cell_formula_units_Z 64
_cell_length_a 8.737229
_cell_length_b 20.657428
_cell_length_c 20.411388
_cell_angle_alpha 90.000000
_cell_angle_beta 90.000000
_cell_angle_gamma 90.000000
_cell_volume 3684.024456
_symmetry_space_group_name_H-M "P M M A"
_symmetry_group_IT_number 51
_symmetry_cell_setting 'orthorhombic'
loop_
_space_group_symop_operation_xyz
x,y,z
1/2-x,-y,z
1/2+x,-y,-z
-x,y,-z
-x,-y,-z
1/2+x,y,-z
1/2-x,y,z
x,-y,z
loop_
_atom_site_type_symbol
_atom_site_label
_atom_site_fract_x
_atom_site_fract_y
_atom_site_fract_z
Si Si1 0.932357 0.251074 0.797447
Si Si2 0.566063 0.790717 0.431525
Si Si3 0.432804 0.929253 0.102299
Si Si4 0.067095 0.069982 0.613160
Si Si5 0.564715 0.312849 0.667871
Si Si6 0.065555 0.574650 0.429431
Si Si7 0.570748 0.894175 0.748847
Si Si8 0.430988 0.790893 0.932241
O O1 0.750000 0.255603 0.808901
O O2 0.979993 0.304509 0.743994
O O3 0.959094 0.181692 0.762117
O O4 0.012509 0.246763 0.867570
O O5 0.500000 0.766153 0.500000
O O6 0.750000 0.789548 0.432244
O O7 0.509777 0.864671 0.421079
O O8 0.504723 0.746113 0.373475
O O9 0.250000 0.922980 0.090688
O O10 0.455056 0.926827 0.180887
O O11 0.513674 0.865605 0.075158
O O12 0.484186 0.000000 0.078420
O O13 0.250000 0.069373 0.605192
O O14 0.027936 0.078718 0.689778
O O15 0.005915 0.000000 0.590688
O O16 0.750000 0.307800 0.665880
O O17 0.519072 0.377852 0.629386
O O18 0.250000 0.576358 0.433523
O O19 0.018242 0.500000 0.418517
O O20 0.000000 0.595434 0.500000
O O21 0.750000 0.902073 0.731800
O O22 0.250000 0.789789 0.935280
O O23 0.500000 0.765233 0.000000
#
# Coordination Sequence:
#
# PCOD9402014 Si02
#       8
#     8   8   8   8   8   8   8   8
#     4   9  18  33  52  73  98 126 161 203 247 295
#     4  11  23  36  50  68  93 123 163 210 257 306
#     4   9  18  32  48  67  92 121 156 198 246 305
#     4  10  21  34  46  62  86 115 151 202 259 308
#     4  10  19  34  56  78 103 135 170 208 248 292
#     4   9  18  32  51  78 112 148 181 210 244 289
#     4   9  16  29  48  68  89 115 150 194 244 301
#     4  11  22  35  51  70  96 128 162 202 252 305
#
# _framework density 17.372305999999998
#
# number of rings (size 3 to 8) (size 9 to 14) (size 15 to 20)
#    0.000    2.250    1.250    3.000    0.000    6.000 
#    0.000    0.000    0.000    0.000    0.000    0.000 
#    0.000    0.500    0.000    0.875    0.000    1.250 
#
# Total GULP energy -357079.369123 kJ/mol
# GULP energy per Si atom -5579.365143 kJ/mol
# Density = 1.733277 g / cm^3
# Si number density = 17.372306 Si / 1000 Ang^3
#
#
#
# Elastic Constant Matrix: (Units=GPa)
#
#
# Indices 1 2 3 4 5 6 
#
# 1 23.7193 23.3890 35.7707 0.0000 0.0000 0.0000
# 2 23.3890 74.4078 49.1313 0.0000 0.0000 0.0000
# 3 35.7707 49.1313 123.3737 0.0000 0.0000 0.0000
# 4 0.0000 0.0000 0.0000 -29.3342 0.0000 0.0000
# 5 0.0000 0.0000 0.0000 0.0000 23.9709 0.0000
# 6 0.0000 0.0000 0.0000 0.0000 0.0000 15.7609
#
#
#
# Elastic Compliance Matrix: (Units=1/GPa)
#
#
# Indices 1 2 3 4 5 6 
#
# 1 0.084577 -0.014102 -0.018906 0.000000 0.000000 0.000000
# 2 -0.014102 0.020585 -0.004109 0.000000 0.000000 0.000000
# 3 -0.018906 -0.004109 0.015223 0.000000 0.000000 0.000000
# 4 0.000000 0.000000 0.000000 -0.034090 0.000000 0.000000
# 5 0.000000 0.000000 0.000000 0.000000 0.041717 0.000000
# 6 0.000000 0.000000 0.000000 0.000000 0.000000 0.063448
#
#
# Mechanical properties :
#
#
# Convention : Reuss Voigt Hill
#
# Bulk Modulus (GPa) = 21.66767 48.67586 35.17176
# Shear Modulus (GPa) = 17.78850 9.62685 13.70767
#
# Velocity S-wave (km/s) = 3.20340 2.35659 2.81206
# Velocity P-wave (km/s) = 5.11684 5.95691 5.55278
#
# Compressibility (1/GPa) = 0.04615172
#
# Stress axis : x y z
#
# Youngs Moduli (GPa) = 11.82348 48.57815 65.68800
#
# Poissons Ratio (x) = 0.68504 1.24192
# Poissons Ratio (y) = 0.16673 0.26992
# Poissons Ratio (z) = 0.22354 0.19961
#
# Static dielectric constant tensor:
#      x y z
#    x 1.586470 0.000000 0.000000 
#    y 0.000000 1.616540 0.000000 
#    z 0.000000 0.000000 1.598530 
# 
# From -- ./inp_files/32680.got.cif
#   From: 2010.05.17/outbox.cif.g08.bks.cpg/sg51_17_cif.got.tgz:32680.got - 2010.06.03 11:52:47.
