data_PCOD9402204
_publ_section_title
;
Structure prediction by ZEFSAII (Michael W. Deem and Ramdas Pophale) SiO2 
 PCOD9402204
Probable space group: P M M A
;
_chemical_formula_sum "Si O2"
_cell_formula_units_Z 56
_cell_length_a 15.781218
_cell_length_b 8.872639
_cell_length_c 21.442268
_cell_angle_alpha 90.000000
_cell_angle_beta 90.000000
_cell_angle_gamma 90.000000
_cell_volume 3002.368886
_symmetry_space_group_name_H-M "P M M A"
_symmetry_group_IT_number 51
_symmetry_cell_setting 'orthorhombic'
loop_
_space_group_symop_operation_xyz
x,y,z
1/2-x,-y,z
1/2+x,-y,-z
-x,y,-z
-x,-y,-z
1/2+x,y,-z
1/2-x,y,z
x,-y,z
loop_
_atom_site_type_symbol
_atom_site_label
_atom_site_fract_x
_atom_site_fract_y
_atom_site_fract_z
Si Si1 0.904566 0.172110 0.028212
Si Si2 0.011517 0.818991 0.848153
Si Si3 0.987322 0.680700 0.286364
Si Si4 0.154628 0.180823 0.625811
Si Si5 0.844480 0.320900 0.907609
Si Si6 0.099016 0.820061 0.488402
Si Si7 0.344791 0.318348 0.358165
O O1 0.919860 0.225948 0.098765
O O2 0.871897 0.000000 0.027826
O O3 0.853540 0.273914 0.980161
O O4 0.000000 0.166880 0.000000
O O5 0.919654 0.760668 0.870746
O O6 0.029673 0.752429 0.780746
O O7 0.010650 0.000000 0.847171
O O8 0.987098 0.500000 0.281784
O O9 0.916457 0.735161 0.334876
O O10 0.079446 0.730553 0.312495
O O11 0.250000 0.214923 0.647122
O O12 0.145826 0.218893 0.552649
O O13 0.140964 0.000000 0.630908
O O14 0.750000 0.280093 0.885738
O O15 0.855332 0.500000 0.901370
O O16 0.133771 0.738283 0.427571
O O17 0.000000 0.785815 0.500000
O O18 0.106787 0.000000 0.478453
O O19 0.250000 0.267812 0.340327
O O20 0.345341 0.500000 0.358431
#
# Coordination Sequence:
#
# PCOD9402204 Si02
#       7
#     8   8   8   8   8   8   8
#     4   8  16  32  53  77 103 134 173 217 261 311
#     4  10  21  37  57  79 107 145 188 228 273 328
#     4  11  23  38  57  81 112 150 192 237 285 338
#     4  10  21  38  59  82 110 145 186 234 287 341
#     4  10  20  33  53  84 117 145 177 221 271 324
#     4  10  19  34  59  86 111 140 181 234 286 337
#     4  10  22  38  55  79 113 150 186 228 282 342
#
# _framework density 18.651938999999999
#
# number of rings (size 3 to 8) (size 9 to 14) (size 15 to 20)
#    0.000    2.143    1.429    2.571    0.000    7.429 
#    0.000    2.143    0.000    0.857    0.000    0.000 
#    0.000    0.000    0.000    0.000    0.000    0.000 
#
# Total GULP energy -312529.623565 kJ/mol
# GULP energy per Si atom -5580.886135 kJ/mol
# Density = 1.860949 g / cm^3
# Si number density = 18.651939 Si / 1000 Ang^3
#
#
#
# Elastic Constant Matrix: (Units=GPa)
#
#
# Indices 1 2 3 4 5 6 
#
# 1 46.8115 8.0206 -4.4247 0.0000 0.0000 0.0000
# 2 8.0206 19.7578 5.7533 0.0000 0.0000 0.0000
# 3 -4.4247 5.7533 70.5020 0.0000 0.0000 0.0000
# 4 0.0000 0.0000 0.0000 24.3101 0.0000 0.0000
# 5 0.0000 0.0000 0.0000 0.0000 7.4212 0.0000
# 6 0.0000 0.0000 0.0000 0.0000 0.0000 42.3737
#
#
#
# Elastic Compliance Matrix: (Units=1/GPa)
#
#
# Indices 1 2 3 4 5 6 
#
# 1 0.023315 -0.010131 0.002290 0.000000 0.000000 0.000000
# 2 -0.010131 0.056247 -0.005226 0.000000 0.000000 0.000000
# 3 0.002290 -0.005226 0.014754 0.000000 0.000000 0.000000
# 4 0.000000 0.000000 0.000000 0.041135 0.000000 0.000000
# 5 0.000000 0.000000 0.000000 0.000000 0.134750 0.000000
# 6 0.000000 0.000000 0.000000 0.000000 0.000000 0.023600
#
#
# Mechanical properties :
#
#
# Convention : Reuss Voigt Hill
#
# Bulk Modulus (GPa) = 14.66670 17.30776 15.98723
# Shear Modulus (GPa) = 14.59162 23.33581 18.96371
#
# Velocity S-wave (km/s) = 2.80002 3.54095 3.19206
# Velocity P-wave (km/s) = 4.28181 5.10071 4.70910
#
# Compressibility (1/GPa) = 0.06818169
#
# Stress axis : x y z
#
# Youngs Moduli (GPa) = 42.89158 17.77860 67.77742
#
# Poissons Ratio (x) = 0.18012 -0.15521
# Poissons Ratio (y) = 0.43455 0.35420
# Poissons Ratio (z) = -0.09822 0.09291
#
# Static dielectric constant tensor:
#      x y z
#    x 1.655770 0.000000 0.000000 
#    y 0.000000 1.626000 0.000000 
#    z 0.000000 0.000000 1.636210 
# 
# From -- ./inp_files/33430.got.cif
#   From: 2010.05.17/outbox.cif.g08.bks.cpg/sg51_17_cif.got.tgz:33430.got - 2010.06.03 11:52:47.
