data_PCOD9402484
_publ_section_title
;
Structure prediction by ZEFSAII (Michael W. Deem and Ramdas Pophale) SiO2 
 PCOD9402484
Probable space group: P M M A
;
_chemical_formula_sum "Si O2"
_cell_formula_units_Z 64
_cell_length_a 19.105830
_cell_length_b 14.914905
_cell_length_c 11.875011
_cell_angle_alpha 90.000000
_cell_angle_beta 90.000000
_cell_angle_gamma 90.000000
_cell_volume 3383.922602
_symmetry_space_group_name_H-M "P M M A"
_symmetry_group_IT_number 51
_symmetry_cell_setting 'orthorhombic'
loop_
_space_group_symop_operation_xyz
x,y,z
1/2-x,-y,z
1/2+x,-y,-z
-x,y,-z
-x,-y,-z
1/2+x,y,-z
1/2-x,y,z
x,-y,z
loop_
_atom_site_type_symbol
_atom_site_label
_atom_site_fract_x
_atom_site_fract_y
_atom_site_fract_z
Si Si1 0.333066 0.397191 0.176818
Si Si2 0.173860 0.902578 0.130433
Si Si3 0.830955 0.335860 0.076902
Si Si4 0.421009 0.250311 0.542724
Si Si5 0.886076 0.228254 0.702896
Si Si6 0.024801 0.895542 0.705841
Si Si7 0.573291 0.836229 0.057724
Si Si8 0.332299 0.602016 0.673847
O O1 0.250000 0.379502 0.200458
O O2 0.347495 0.500000 0.207763
O O3 0.382249 0.326602 0.241458
O O4 0.342486 0.384835 0.042222
O O5 0.250000 0.897819 0.075614
O O6 0.168757 0.827358 0.224341
O O7 0.165218 0.000000 0.184209
O O8 0.116044 0.889719 0.036095
O O9 0.750000 0.304972 0.075277
O O10 0.882675 0.252377 0.083116
O O11 0.839869 0.392367 0.190559
O O12 0.500000 0.275422 0.500000
O O13 0.376172 0.236393 0.429870
O O14 0.430222 0.157835 0.612297
O O15 0.384108 0.326294 0.617435
O O16 0.956230 0.168124 0.716958
O O17 0.060897 0.889632 0.827601
O O18 0.010619 0.000000 0.677877
O O19 0.500000 0.812041 0.000000
O O20 0.250000 0.622245 0.649146
O O21 0.346463 0.500000 0.636699
#
# Coordination Sequence:
#
# PCOD9402484 Si02
#       8
#     8   8   8   8   8   8   8   8
#     4  10  20  36  61  92 124 160 199 242 302 370
#     4  11  23  37  56  87 123 156 193 242 305 369
#     4  10  19  36  63  90 123 161 197 245 305 363
#     4  10  24  42  62  86 119 160 208 257 300 355
#     4  11  22  38  60  84 118 157 202 250 298 351
#     4  11  23  41  64  89 117 157 206 253 303 364
#     4  12  21  35  64  91 124 155 195 246 304 371
#     4  10  21  39  65  92 118 156 205 253 305 366
#
# _framework density 18.912962
#
# number of rings (size 3 to 8) (size 9 to 14) (size 15 to 20)
#    0.000    1.375    3.750    1.875    0.000    6.500 
#    0.000    3.125    0.000    2.625    0.000    0.000 
#    0.000    0.000    0.000    0.000    0.000    0.000 
#
# Total GULP energy -357028.277212 kJ/mol
# GULP energy per Si atom -5578.566831 kJ/mol
# Density = 1.886991 g / cm^3
# Si number density = 18.912962 Si / 1000 Ang^3
#
#
#
# Elastic Constant Matrix: (Units=GPa)
#
#
# Indices 1 2 3 4 5 6 
#
# 1 68.8343 52.4845 35.5960 0.0000 0.0000 0.0000
# 2 52.4845 159.0494 49.6346 0.0000 0.0000 0.0000
# 3 35.5960 49.6346 111.5565 0.0000 0.0000 0.0000
# 4 0.0000 0.0000 0.0000 -1.3126 0.0000 0.0000
# 5 0.0000 0.0000 0.0000 0.0000 -3.7822 0.0000
# 6 0.0000 0.0000 0.0000 0.0000 0.0000 33.9935
#
#
#
# Elastic Compliance Matrix: (Units=1/GPa)
#
#
# Indices 1 2 3 4 5 6 
#
# 1 0.020977 -0.005613 -0.004196 0.000000 0.000000 0.000000
# 2 -0.005613 0.008803 -0.002126 0.000000 0.000000 0.000000
# 3 -0.004196 -0.002126 0.011249 0.000000 0.000000 0.000000
# 4 0.000000 0.000000 0.000000 -0.761869 0.000000 0.000000
# 5 0.000000 0.000000 0.000000 0.000000 -0.264394 0.000000
# 6 0.000000 0.000000 0.000000 0.000000 0.000000 0.029417
#
#
# Mechanical properties :
#
#
# Convention : Reuss Voigt Hill
#
# Bulk Modulus (GPa) = 58.27668 68.31892 63.29780
# Shear Modulus (GPa) = -5.39824 19.22808 6.91492
#
# Velocity S-wave (km/s) = -1.69129 3.19197 1.91419
# Velocity P-wave (km/s) = 5.20250 7.05593 6.19888
#
# Compressibility (1/GPa) = 0.01715952
#
# Stress axis : x y z
#
# Youngs Moduli (GPa) = 47.67086 113.59960 88.89827
#
# Poissons Ratio (x) = 0.63760 0.37304
# Poissons Ratio (y) = 0.26756 0.18897
# Poissons Ratio (z) = 0.20004 0.24148
#
# Static dielectric constant tensor:
#      x y z
#    x 1.674340 0.000000 0.000000 
#    y 0.000000 1.667330 0.000000 
#    z 0.000000 0.000000 1.663960 
# 
# From -- ./inp_files/17544.got.cif
#   From: 2010.05.17/outbox.cif.g08.bks.cpg/sg51_9_cif.got.tgz:17544.got - 2010.06.03 11:52:47.
