data_PCOD9402960
_publ_section_title
;
Structure prediction by ZEFSAII (Michael W. Deem and Ramdas Pophale) SiO2 
 PCOD9402960
Probable space group: P M M A
;
_chemical_formula_sum "Si O2"
_cell_formula_units_Z 58
_cell_length_a 24.104320
_cell_length_b 7.749917
_cell_length_c 17.314758
_cell_angle_alpha 90.000000
_cell_angle_beta 90.000000
_cell_angle_gamma 90.000000
_cell_volume 3234.508983
_symmetry_space_group_name_H-M "P M M A"
_symmetry_group_IT_number 51
_symmetry_cell_setting 'orthorhombic'
loop_
_space_group_symop_operation_xyz
x,y,z
1/2-x,-y,z
1/2+x,-y,-z
-x,y,-z
-x,-y,-z
1/2+x,y,-z
1/2-x,y,z
x,-y,z
loop_
_atom_site_type_symbol
_atom_site_label
_atom_site_fract_x
_atom_site_fract_y
_atom_site_fract_z
Si Si1 0.186502 0.208918 0.649499
Si Si2 0.954424 0.794153 0.939499
Si Si3 0.841840 0.802030 0.030802
Si Si4 0.250000 0.500000 0.983639
Si Si5 0.493530 0.299486 0.227462
Si Si6 0.029714 0.796556 0.391097
Si Si7 0.617528 0.293791 0.198753
Si Si8 0.912325 0.788969 0.458737
O O1 0.250000 0.269832 0.641602
O O2 0.159780 0.260133 0.731435
O O3 0.143569 0.270483 0.583355
O O4 0.187659 0.000000 0.647015
O O5 0.894362 0.766243 0.975683
O O6 0.963992 0.722863 0.854322
O O7 0.963020 0.000000 0.933329
O O8 0.000000 0.725335 0.000000
O O9 0.797602 0.652991 0.018725
O O10 0.822998 0.000000 0.016737
O O11 0.862509 0.790228 0.119448
O O12 0.500258 0.500000 0.244047
O O13 0.460801 0.228136 0.300895
O O14 0.556115 0.226170 0.220746
O O15 0.074566 0.731844 0.453397
O O16 0.967678 0.731845 0.412194
O O17 0.026892 0.000000 0.405492
O O18 0.614212 0.500000 0.185616
O O19 0.909901 0.000000 0.456589
#
# Coordination Sequence:
#
# PCOD9402960 Si02
#       8
#     8   8   8   2   8   8   8   8
#     4  10  20  32  50  75 104 142 187 231 277 343
#     4  10  21  37  59  86 114 147 189 239 293 353
#     4  11  24  41  62  87 115 156 203 242 293 353
#     4  12  26  44  62  82 116 160 202 256 288 330
#     4  11  22  32  52  82 116 146 182 227 294 356
#     4   9  16  30  52  73  99 137 179 228 279 336
#     4  11  22  35  49  77 118 155 186 232 284 343
#     4   8  15  29  49  73 100 134 179 226 278 333
#
# _framework density 17.931625
#
# number of rings (size 3 to 8) (size 9 to 14) (size 15 to 20)
#    0.000    1.931    3.448    1.862    1.931    1.655 
#    0.000    2.069    0.000    0.000    1.793    0.000 
#    0.000    0.000    0.000    0.000    0.000    0.000 
#
# Total GULP energy -323037.155903 kJ/mol
# GULP energy per Si atom -5569.606136 kJ/mol
# Density = 1.789081 g / cm^3
# Si number density = 17.931625 Si / 1000 Ang^3
#
#
#
# Elastic Constant Matrix: (Units=GPa)
#
#
# Indices 1 2 3 4 5 6 
#
# 1 92.1025 27.2387 55.5706 0.0000 0.0000 0.0000
# 2 27.2387 55.1077 9.9331 0.0000 0.0000 0.0000
# 3 55.5706 9.9331 122.6346 0.0000 0.0000 0.0000
# 4 0.0000 0.0000 0.0000 73.9914 0.0000 0.0000
# 5 0.0000 0.0000 0.0000 0.0000 2.5910 0.0000
# 6 0.0000 0.0000 0.0000 0.0000 0.0000 40.8834
#
#
#
# Elastic Compliance Matrix: (Units=1/GPa)
#
#
# Indices 1 2 3 4 5 6 
#
# 1 0.017421 -0.007295 -0.007303 0.000000 0.000000 0.000000
# 2 -0.007295 0.021470 0.001567 0.000000 0.000000 0.000000
# 3 -0.007303 0.001567 0.011337 0.000000 0.000000 0.000000
# 4 0.000000 0.000000 0.000000 0.013515 0.000000 0.000000
# 5 0.000000 0.000000 0.000000 0.000000 0.385944 0.000000
# 6 0.000000 0.000000 0.000000 0.000000 0.000000 0.024460
#
#
# Mechanical properties :
#
#
# Convention : Reuss Voigt Hill
#
# Bulk Modulus (GPa) = 41.38281 50.59220 45.98751
# Shear Modulus (GPa) = 9.83738 35.30001 22.56870
#
# Velocity S-wave (km/s) = 2.34477 4.44169 3.55152
# Velocity P-wave (km/s) = 5.51895 7.38783 6.52069
#
# Compressibility (1/GPa) = 0.02416462
#
# Stress axis : x y z
#
# Youngs Moduli (GPa) = 57.40059 46.57767 88.20733
#
# Poissons Ratio (x) = 0.33977 0.64422
# Poissons Ratio (y) = 0.41872 -0.13818
# Poissons Ratio (z) = 0.41922 -0.07296
#
# Static dielectric constant tensor:
#      x y z
#    x 1.599600 0.000000 0.000000 
#    y 0.000000 1.647980 0.000000 
#    z 0.000000 0.000000 1.614550 
# 
# From -- ./inp_files/26152.got.cif
#   From: 2010.05.17/outbox.cif.g08.bks.cpg/sg51_14_cif.got.tgz:26152.got - 2010.06.03 11:52:47.
