data_PCOD9402429
_publ_section_title
;
Structure prediction by ZEFSAII (Michael W. Deem and Ramdas Pophale) SiO2 
 PCOD9402429
Probable space group: P M M A
;
_chemical_formula_sum "Si O2"
_cell_formula_units_Z 48
_cell_length_a 31.090242
_cell_length_b 8.585656
_cell_length_c 9.769235
_cell_angle_alpha 90.000000
_cell_angle_beta 90.000000
_cell_angle_gamma 90.000000
_cell_volume 2607.703098
_symmetry_space_group_name_H-M "P M M A"
_symmetry_group_IT_number 51
_symmetry_cell_setting 'orthorhombic'
loop_
_space_group_symop_operation_xyz
x,y,z
1/2-x,-y,z
1/2+x,-y,-z
-x,y,-z
-x,-y,-z
1/2+x,y,-z
1/2-x,y,z
x,-y,z
loop_
_atom_site_type_symbol
_atom_site_label
_atom_site_fract_x
_atom_site_fract_y
_atom_site_fract_z
Si Si1 0.999337 0.311789 0.341908
Si Si2 0.825802 0.186857 0.845183
Si Si3 0.326905 0.189038 0.842217
Si Si4 0.250000 0.189045 0.647897
Si Si5 0.750000 0.684882 0.658718
Si Si6 0.078924 0.686748 0.152405
Si Si7 0.425150 0.813031 0.851336
O O1 0.996378 0.500000 0.338203
O O2 0.042918 0.267108 0.262327
O O3 0.000000 0.262321 0.500000
O O4 0.959178 0.243706 0.259276
O O5 0.791754 0.256773 0.740980
O O6 0.874534 0.240255 0.817290
O O7 0.823549 0.000000 0.839300
O O8 0.815722 0.235961 0.002147
O O9 0.292075 0.242032 0.732323
O O10 0.376183 0.235861 0.815019
O O11 0.326111 0.000000 0.841043
O O12 0.250000 0.248365 0.494095
O O13 0.250000 0.000000 0.645942
O O14 0.750000 0.500000 0.653652
O O15 0.082644 0.500000 0.151785
O O16 0.065286 0.743204 0.001155
O O17 0.426001 0.000000 0.861873
#
# Coordination Sequence:
#
# PCOD9402429 Si02
#       7
#     8   8   8   4   4   8   8
#     4  10  22  38  54  76 110 150 186 224 277 333
#     4  10  20  38  62  85 108 140 183 228 274 323
#     4   8  17  34  58  84 106 134 179 231 275 318
#     4  10  19  36  58  78 106 144 181 218 266 320
#     4  12  25  38  52  80 118 150 181 218 266 322
#     4  10  20  36  58  83 110 141 180 227 277 328
#     4  10  20  35  56  83 111 141 184 232 275 326
#
# _framework density 18.407004000000001
#
# number of rings (size 3 to 8) (size 9 to 14) (size 15 to 20)
#    0.000    2.167    0.000    4.250    0.000    6.333 
#    0.000    9.167    0.000    0.000    0.000    0.000 
#    0.000    0.000    0.000    0.000    0.000    0.000 
#
# Total GULP energy -268051.315524 kJ/mol
# GULP energy per Si atom -5584.402407 kJ/mol
# Density = 1.836511 g / cm^3
# Si number density = 18.407004 Si / 1000 Ang^3
#
#
#
# Elastic Constant Matrix: (Units=GPa)
#
#
# Indices 1 2 3 4 5 6 
#
# 1 130.8142 38.5949 129.7102 0.0000 0.0000 0.0000
# 2 38.5949 44.0122 42.9692 0.0000 0.0000 0.0000
# 3 129.7102 42.9692 179.3723 0.0000 0.0000 0.0000
# 4 0.0000 0.0000 0.0000 23.1918 0.0000 0.0000
# 5 0.0000 0.0000 0.0000 0.0000 -10.3412 0.0000
# 6 0.0000 0.0000 0.0000 0.0000 0.0000 29.9265
#
#
#
# Elastic Compliance Matrix: (Units=1/GPa)
#
#
# Indices 1 2 3 4 5 6 
#
# 1 0.028298 -0.006313 -0.018951 0.000000 0.000000 0.000000
# 2 -0.006313 0.031065 -0.002877 0.000000 0.000000 0.000000
# 3 -0.018951 -0.002877 0.019968 0.000000 0.000000 0.000000
# 4 0.000000 0.000000 0.000000 0.043119 0.000000 0.000000
# 5 0.000000 0.000000 0.000000 0.000000 -0.096701 0.000000
# 6 0.000000 0.000000 0.000000 0.000000 0.000000 0.033415
#
#
# Mechanical properties :
#
#
# Convention : Reuss Voigt Hill
#
# Bulk Modulus (GPa) = 43.38329 86.30527 64.84428
# Shear Modulus (GPa) = 40.60770 18.08373 29.34572
#
# Velocity S-wave (km/s) = 4.70201 3.13779 3.99716
# Velocity P-wave (km/s) = 7.28688 7.75349 7.52380
#
# Compressibility (1/GPa) = 0.02305035
#
# Stress axis : x y z
#
# Youngs Moduli (GPa) = 35.33820 32.19014 50.07970
#
# Poissons Ratio (x) = 0.20322 0.94906
# Poissons Ratio (y) = 0.22309 0.14406
# Poissons Ratio (z) = 0.66969 0.09260
#
# Static dielectric constant tensor:
#      x y z
#    x 1.622650 0.000000 0.000000 
#    y 0.000000 1.625330 0.000000 
#    z 0.000000 0.000000 1.605170 
# 
# From -- ./inp_files/12948.got.cif
#   From: 2010.05.17/outbox.cif.g08.bks.cpg/sg51_7_cif.got.tgz:12948.got - 2010.06.03 11:52:47.
