data_PCOD9402142
_publ_section_title
;
Structure prediction by ZEFSAII (Michael W. Deem and Ramdas Pophale) SiO2 
 PCOD9402142
Probable space group: P M M A
;
_chemical_formula_sum "Si O2"
_cell_formula_units_Z 56
_cell_length_a 8.512732
_cell_length_b 13.725546
_cell_length_c 22.421649
_cell_angle_alpha 90.000000
_cell_angle_beta 90.000000
_cell_angle_gamma 90.000000
_cell_volume 2619.787950
_symmetry_space_group_name_H-M "P M M A"
_symmetry_group_IT_number 51
_symmetry_cell_setting 'orthorhombic'
loop_
_space_group_symop_operation_xyz
x,y,z
1/2-x,-y,z
1/2+x,-y,-z
-x,y,-z
-x,-y,-z
1/2+x,y,-z
1/2-x,y,z
x,-y,z
loop_
_atom_site_type_symbol
_atom_site_label
_atom_site_fract_x
_atom_site_fract_y
_atom_site_fract_z
Si Si1 0.931900 0.840635 0.775741
Si Si2 0.561428 0.108599 0.351287
Si Si3 0.936019 0.684607 0.062213
Si Si4 0.062255 0.716119 0.434766
Si Si5 0.066476 0.104012 0.089425
Si Si6 0.568265 0.642924 0.192305
Si Si7 0.574035 0.500000 0.717882
Si Si8 0.069141 0.500000 0.593897
O O1 0.750000 0.807368 0.769288
O O2 0.936854 0.896824 0.838383
O O3 0.984099 0.888924 0.714349
O O4 0.052765 0.753981 0.788344
O O5 0.750000 0.116181 0.346207
O O6 0.501624 0.202995 0.388081
O O7 0.525789 0.000000 0.377451
O O8 0.750000 0.677072 0.061948
O O9 0.989681 0.634932 0.124019
O O10 0.982622 0.798435 0.067883
O O11 0.000000 0.645280 0.000000
O O12 0.750000 0.717302 0.567595
O O13 0.006753 0.603618 0.424827
O O14 0.000000 0.744658 0.500000
O O15 0.250000 0.111579 0.072021
O O16 0.001336 0.000000 0.068700
O O17 0.750000 0.611441 0.196046
O O18 0.458586 0.589030 0.238691
O O19 0.750000 0.500000 0.692944
O O20 0.449647 0.500000 0.665123
O O21 0.250000 0.500000 0.574270
#
# Coordination Sequence:
#
# PCOD9402142 Si02
#       8
#     8   8   8   8   8   8   4   4
#     4  10  19  34  57  85 117 153 195 244 299 357
#     4  11  24  41  62  91 128 171 217 262 311 369
#     4  10  21  36  55  76 103 142 187 233 283 342
#     4  12  26  46  70  97 130 168 213 260 310 367
#     4   9  18  32  51  76 107 143 184 232 286 342
#     4  10  21  38  58  83 115 151 190 237 296 357
#     4  12  24  39  62  93 122 150 187 234 291 350
#     4  12  25  45  72 101 134 168 205 252 308 368
#
# _framework density 21.375775999999998
#
# number of rings (size 3 to 8) (size 9 to 14) (size 15 to 20)
#    0.000    1.429    0.000    5.786    0.000    4.857 
#    0.000    0.357    0.000    0.000    0.000    0.000 
#    0.000    0.000    0.000    0.000    0.000    0.000 
#
# Total GULP energy -312663.438052 kJ/mol
# GULP energy per Si atom -5583.275680 kJ/mol
# Density = 2.132712 g / cm^3
# Si number density = 21.375776 Si / 1000 Ang^3
#
#
#
# Elastic Constant Matrix: (Units=GPa)
#
#
# Indices 1 2 3 4 5 6 
#
# 1 87.6567 21.6345 18.2929 0.0000 0.0000 0.0000
# 2 21.6345 75.2158 21.6478 0.0000 0.0000 0.0000
# 3 18.2929 21.6478 113.4083 0.0000 0.0000 0.0000
# 4 0.0000 0.0000 0.0000 -21.5646 0.0000 0.0000
# 5 0.0000 0.0000 0.0000 0.0000 33.6909 0.0000
# 6 0.0000 0.0000 0.0000 0.0000 0.0000 -278.9091
#
#
#
# Elastic Compliance Matrix: (Units=1/GPa)
#
#
# Indices 1 2 3 4 5 6 
#
# 1 0.012488 -0.003187 -0.001406 0.000000 0.000000 0.000000
# 2 -0.003187 0.014881 -0.002327 0.000000 0.000000 0.000000
# 3 -0.001406 -0.002327 0.009489 0.000000 0.000000 0.000000
# 4 0.000000 0.000000 0.000000 -0.046372 0.000000 0.000000
# 5 0.000000 0.000000 0.000000 0.000000 0.029682 0.000000
# 6 0.000000 0.000000 0.000000 0.000000 0.000000 -0.003585
#
#
# Mechanical properties :
#
#
# Convention : Reuss Voigt Hill
#
# Bulk Modulus (GPa) = 43.44313 44.38126 43.91219
# Shear Modulus (GPa) = 131.25146 -39.04288 46.10429
#
# Velocity S-wave (km/s) = 7.84444 -4.27839 4.64923
# Velocity P-wave (km/s) = 10.12001 1.89703 7.02908
#
# Compressibility (1/GPa) = 0.02301860
#
# Stress axis : x y z
#
# Youngs Moduli (GPa) = 80.07544 67.19770 105.38990
#
# Poissons Ratio (x) = 0.21418 0.14817
# Poissons Ratio (y) = 0.25523 0.24519
# Poissons Ratio (z) = 0.11258 0.15634
#
# Static dielectric constant tensor:
#      x y z
#    x 1.722410 0.000000 0.000000 
#    y 0.000000 2.009370 0.000000 
#    z 0.000000 0.000000 1.775450 
# 
# From -- ./inp_files/32059.got.cif
#   From: 2010.05.17/outbox.cif.g08.bks.cpg/sg51_17_cif.got.tgz:32059.got - 2010.06.03 11:52:47.
