data_PCOD9402188
_publ_section_title
;
Structure prediction by ZEFSAII (Michael W. Deem and Ramdas Pophale) SiO2 
 PCOD9402188
Probable space group: P M M A
;
_chemical_formula_sum "Si O2"
_cell_formula_units_Z 64
_cell_length_a 15.884430
_cell_length_b 7.951324
_cell_length_c 24.693074
_cell_angle_alpha 90.000000
_cell_angle_beta 90.000000
_cell_angle_gamma 90.000000
_cell_volume 3118.790793
_symmetry_space_group_name_H-M "P M M A"
_symmetry_group_IT_number 51
_symmetry_cell_setting 'orthorhombic'
loop_
_space_group_symop_operation_xyz
x,y,z
1/2-x,-y,z
1/2+x,-y,-z
-x,y,-z
-x,-y,-z
1/2+x,y,-z
1/2-x,y,z
x,-y,z
loop_
_atom_site_type_symbol
_atom_site_label
_atom_site_fract_x
_atom_site_fract_y
_atom_site_fract_z
Si Si1 0.993723 0.699776 0.561190
Si Si2 0.656503 0.203695 0.132658
Si Si3 0.423841 0.696172 0.249495
Si Si4 0.155594 0.705495 0.136295
Si Si5 0.503438 0.298130 0.938726
Si Si6 0.656858 0.204005 0.370314
Si Si7 0.155594 0.801433 0.360467
Si Si8 0.387538 0.194999 0.748201
O O1 0.981996 0.500000 0.558644
O O2 0.079590 0.735656 0.593554
O O3 0.000000 0.766701 0.500000
O O4 0.914424 0.769659 0.594184
O O5 0.750000 0.254486 0.114422
O O6 0.581401 0.261466 0.094277
O O7 0.641931 0.266773 0.194284
O O8 0.653380 0.000000 0.133993
O O9 0.445625 0.500000 0.241504
O O10 0.371472 0.752902 0.197189
O O11 0.372705 0.714845 0.304783
O O12 0.511527 0.793618 0.253556
O O13 0.250000 0.762848 0.123789
O O14 0.156326 0.500000 0.134905
O O15 0.083933 0.765300 0.095028
O O16 0.512246 0.500000 0.941608
O O17 0.500000 0.232331 0.000000
O O18 0.750000 0.252195 0.390102
O O19 0.645529 0.266865 0.308427
O O20 0.652494 0.000000 0.369256
O O21 0.250000 0.747890 0.376321
O O22 0.156838 0.000000 0.349460
O O23 0.360677 0.000000 0.748552
#
# Coordination Sequence:
#
# PCOD9402188 Si02
#       8
#     8   8   8   8   8   8   8   8
#     4  11  25  43  62  86 118 156 198 245 292 338
#     4  10  21  37  58  84 117 155 191 231 285 347
#     4  11  20  33  58  87 117 152 189 233 292 350
#     4   9  18  33  53  79 112 147 184 229 285 346
#     4  10  21  37  57  81 110 148 196 246 291 337
#     4  10  21  38  62  90 119 153 192 234 285 347
#     4  11  24  41  62  89 120 154 194 240 290 349
#     4  10  19  34  58  86 118 153 188 230 287 348
#
# _framework density 20.520775
#
# number of rings (size 3 to 8) (size 9 to 14) (size 15 to 20)
#    0.000    1.750    2.500    1.875    0.000    5.750 
#    0.000    3.750    0.000    3.375    0.000    0.000 
#    0.000    0.000    0.000    0.000    0.000    0.000 
#
# Total GULP energy -357547.595082 kJ/mol
# GULP energy per Si atom -5586.681173 kJ/mol
# Density = 2.047407 g / cm^3
# Si number density = 20.520775 Si / 1000 Ang^3
#
#
#
# Elastic Constant Matrix: (Units=GPa)
#
#
# Indices 1 2 3 4 5 6 
#
# 1 164.3749 -8.4864 70.1130 0.0000 0.0000 0.0000
# 2 -8.4864 20.2646 -2.5198 0.0000 0.0000 0.0000
# 3 70.1130 -2.5198 150.9067 0.0000 0.0000 0.0000
# 4 0.0000 0.0000 0.0000 3.0095 0.0000 0.0000
# 5 0.0000 0.0000 0.0000 0.0000 -2.2350 0.0000
# 6 0.0000 0.0000 0.0000 0.0000 0.0000 28.8594
#
#
#
# Elastic Compliance Matrix: (Units=1/GPa)
#
#
# Indices 1 2 3 4 5 6 
#
# 1 0.007743 0.002801 -0.003551 0.000000 0.000000 0.000000
# 2 0.002801 0.050463 -0.000459 0.000000 0.000000 0.000000
# 3 -0.003551 -0.000459 0.008269 0.000000 0.000000 0.000000
# 4 0.000000 0.000000 0.000000 0.332276 0.000000 0.000000
# 5 0.000000 0.000000 0.000000 0.000000 -0.447420 0.000000
# 6 0.000000 0.000000 0.000000 0.000000 0.000000 0.034651
#
#
# Mechanical properties :
#
#
# Convention : Reuss Voigt Hill
#
# Bulk Modulus (GPa) = 15.61089 50.41775 33.01432
# Shear Modulus (GPa) = 512.77585 24.35607 268.56596
#
# Velocity S-wave (km/s) = 15.82478 3.44888 11.45248
# Velocity P-wave (km/s) = 18.48032 6.36256 13.82035
#
# Compressibility (1/GPa) = 0.06405785
#
# Stress axis : x y z
#
# Youngs Moduli (GPa) = 129.15303 19.81643 120.93939
#
# Poissons Ratio (x) = -0.05551 0.42941
# Poissons Ratio (y) = -0.36176 0.05548
# Poissons Ratio (z) = 0.45857 0.00909
#
# Static dielectric constant tensor:
#      x y z
#    x 1.707460 0.000000 0.000000 
#    y 0.000000 1.748670 0.000000 
#    z 0.000000 0.000000 1.717420 
# 
# From -- ./inp_files/35808.got.cif
#   From: 2010.05.17/outbox.cif.g08.bks.cpg/sg51_18_cif.got.tgz:35808.got - 2010.06.03 11:52:47.
