data_PCOD9402989
_publ_section_title
;
Structure prediction by ZEFSAII (Michael W. Deem and Ramdas Pophale) SiO2 
 PCOD9402989
Probable space group: P M M A
;
_chemical_formula_sum "Si O2"
_cell_formula_units_Z 36
_cell_length_a 8.164930
_cell_length_b 16.089410
_cell_length_c 14.917948
_cell_angle_alpha 90.000000
_cell_angle_beta 90.000000
_cell_angle_gamma 90.000000
_cell_volume 1959.754514
_symmetry_space_group_name_H-M "P M M A"
_symmetry_group_IT_number 51
_symmetry_cell_setting 'orthorhombic'
loop_
_space_group_symop_operation_xyz
x,y,z
1/2-x,-y,z
1/2+x,-y,-z
-x,y,-z
-x,-y,-z
1/2+x,y,-z
1/2-x,y,z
x,-y,z
loop_
_atom_site_type_symbol
_atom_site_label
_atom_site_fract_x
_atom_site_fract_y
_atom_site_fract_z
Si Si1 0.447654 0.317701 0.102459
Si Si2 0.948052 0.592998 0.603497
Si Si3 0.447544 0.247784 0.282551
Si Si4 0.053066 0.500000 0.103659
Si Si5 0.054521 0.906206 0.600689
O O1 0.250000 0.318712 0.100997
O O2 0.503275 0.254814 0.179329
O O3 0.503597 0.409812 0.135647
O O4 0.500000 0.303456 0.000000
O O5 0.750000 0.593012 0.607481
O O6 0.002230 0.500000 0.633041
O O7 0.006553 0.671052 0.662032
O O8 0.000000 0.603351 0.500000
O O9 0.250000 0.251853 0.282582
O O10 0.496850 0.163602 0.331085
O O11 0.250000 0.500000 0.112578
O O12 0.000000 0.500000 0.000000
O O13 0.250000 0.908339 0.602124
O O14 0.000000 0.884078 0.500000
O O15 0.992530 0.000000 0.619713
#
# Coordination Sequence:
#
# PCOD9402989 Si02
#       5
#     8   8   8   4   8
#     4   9  18  31  48  71 100 135 174 214 256 298
#     4   9  18  31  46  66  97 134 168 201 240 291
#     4  10  20  32  51  77 102 134 172 210 254 303
#     4   8  14  26  44  64  91 128 169 210 249 290
#     4  10  21  37  57  80 105 132 163 205 257 309
#
# _framework density 18.369648000000002
#
# number of rings (size 3 to 8) (size 9 to 14) (size 15 to 20)
#    0.000    2.667    0.000    1.333    1.556    4.889 
#    0.000    0.000    0.000    0.667    0.000    0.000 
#    0.000    0.000    0.000    0.000    0.000    0.000 
#
# Total GULP energy -200645.878781 kJ/mol
# GULP energy per Si atom -5573.496633 kJ/mol
# Density = 1.832784 g / cm^3
# Si number density = 18.369648 Si / 1000 Ang^3
#
#
#
# Elastic Constant Matrix: (Units=GPa)
#
#
# Indices 1 2 3 4 5 6 
#
# 1 12.3760 16.7327 16.0246 0.0000 0.0000 0.0000
# 2 16.7327 120.4817 103.3079 0.0000 0.0000 0.0000
# 3 16.0246 103.3079 134.0271 0.0000 0.0000 0.0000
# 4 0.0000 0.0000 0.0000 29.7900 0.0000 0.0000
# 5 0.0000 0.0000 0.0000 0.0000 18.2494 0.0000
# 6 0.0000 0.0000 0.0000 0.0000 0.0000 21.2644
#
#
#
# Elastic Compliance Matrix: (Units=1/GPa)
#
#
# Indices 1 2 3 4 5 6 
#
# 1 0.100098 -0.010734 -0.003694 0.000000 0.000000 0.000000
# 2 -0.010734 0.025630 -0.018472 0.000000 0.000000 0.000000
# 3 -0.003694 -0.018472 0.022141 0.000000 0.000000 0.000000
# 4 0.000000 0.000000 0.000000 0.033568 0.000000 0.000000
# 5 0.000000 0.000000 0.000000 0.000000 0.054796 0.000000
# 6 0.000000 0.000000 0.000000 0.000000 0.000000 0.047027
#
#
# Mechanical properties :
#
#
# Convention : Reuss Voigt Hill
#
# Bulk Modulus (GPa) = 12.18503 59.89058 36.03780
# Shear Modulus (GPa) = 13.28317 22.58206 17.93261
#
# Velocity S-wave (km/s) = 2.69198 3.50996 3.12782
# Velocity P-wave (km/s) = 4.03856 7.00715 5.71884
#
# Compressibility (1/GPa) = 0.08206795
#
# Stress axis : x y z
#
# Youngs Moduli (GPa) = 9.99025 39.01730 45.16522
#
# Poissons Ratio (x) = 0.41882 0.16684
# Poissons Ratio (y) = 0.10724 0.83429
# Poissons Ratio (z) = 0.03690 0.72072
#
# Static dielectric constant tensor:
#      x y z
#    x 1.657020 0.000000 0.000000 
#    y 0.000000 1.655160 0.000000 
#    z 0.000000 0.000000 1.631140 
# 
# From -- ./inp_files/15331.got.cif
#   From: 2010.05.17/outbox.cif.g08.bks.cpg/sg51_8_cif.got.tgz:15331.got - 2010.06.03 11:52:47.
