data_PCOD9402222
_publ_section_title
;
Structure prediction by ZEFSAII (Michael W. Deem and Ramdas Pophale) SiO2 
 PCOD9402222
Probable space group: P M M A
;
_chemical_formula_sum "Si O2"
_cell_formula_units_Z 58
_cell_length_a 27.268226
_cell_length_b 7.624562
_cell_length_c 12.470073
_cell_angle_alpha 90.000000
_cell_angle_beta 90.000000
_cell_angle_gamma 90.000000
_cell_volume 2592.631426
_symmetry_space_group_name_H-M "P M M A"
_symmetry_group_IT_number 51
_symmetry_cell_setting 'orthorhombic'
loop_
_space_group_symop_operation_xyz
x,y,z
1/2-x,-y,z
1/2+x,-y,-z
-x,y,-z
-x,-y,-z
1/2+x,y,-z
1/2-x,y,z
x,-y,z
loop_
_atom_site_type_symbol
_atom_site_label
_atom_site_fract_x
_atom_site_fract_y
_atom_site_fract_z
Si Si1 0.840188 0.201645 0.461625
Si Si2 0.950890 0.704134 0.443072
Si Si3 0.113189 0.213927 0.943249
Si Si4 0.693818 0.214476 0.227291
Si Si5 0.677720 0.308894 0.693001
Si Si6 0.523022 0.787097 0.201336
Si Si7 0.250000 0.000000 0.247074
Si Si8 0.589002 0.212316 0.821667
O O1 0.899163 0.207531 0.468889
O O2 0.824524 0.271207 0.345058
O O3 0.817748 0.294490 0.564671
O O4 0.823444 0.000000 0.468401
O O5 0.946150 0.500000 0.473777
O O6 0.959277 0.720704 0.316232
O O7 0.000000 0.775635 0.500000
O O8 0.157296 0.273134 0.866582
O O9 0.061835 0.266440 0.888895
O O10 0.114316 0.000000 0.943524
O O11 0.113851 0.268645 0.066526
O O12 0.750000 0.266506 0.210088
O O13 0.692000 0.000000 0.227982
O O14 0.693386 0.500000 0.729241
O O15 0.620893 0.283305 0.724357
O O16 0.707637 0.153307 0.746441
O O17 0.467459 0.731033 0.180494
O O18 0.523724 0.000000 0.204948
O O19 0.589115 0.000000 0.816947
#
# Coordination Sequence:
#
# PCOD9402222 Si02
#       8
#     8   8   8   8   8   8   2   8
#     4  11  21  38  65  91 129 168 215 268 330 402
#     4  11  23  36  53  84 126 171 218 273 335 401
#     4   9  17  34  58  93 129 169 223 278 334 398
#     4   9  18  32  57  91 124 162 213 273 334 398
#     4  12  26  45  70 101 134 172 223 278 334 402
#     4  10  19  34  59  90 126 172 227 274 333 407
#     4  12  26  52  72  98 130 176 226 278 344 396
#     4  10  20  38  63  94 133 175 220 276 336 401
#
# _framework density 22.371092999999998
#
# number of rings (size 3 to 8) (size 9 to 14) (size 15 to 20)
#    0.000    1.655    2.759    2.276    0.966    5.517 
#    1.241    0.690    0.000    1.655    0.000    0.000 
#    0.000    0.000    0.000    0.000    0.000    0.000 
#
# Total GULP energy -323876.353330 kJ/mol
# GULP energy per Si atom -5584.075057 kJ/mol
# Density = 2.232018 g / cm^3
# Si number density = 22.371093 Si / 1000 Ang^3
#
#
#
# Elastic Constant Matrix: (Units=GPa)
#
#
# Indices 1 2 3 4 5 6 
#
# 1 118.1567 17.0457 10.1207 0.0000 0.0000 0.0000
# 2 17.0457 89.8602 2.7454 0.0000 0.0000 0.0000
# 3 10.1207 2.7454 77.9543 0.0000 0.0000 0.0000
# 4 0.0000 0.0000 0.0000 39.3409 0.0000 0.0000
# 5 0.0000 0.0000 0.0000 0.0000 4.4897 0.0000
# 6 0.0000 0.0000 0.0000 0.0000 0.0000 -119.8085
#
#
#
# Elastic Compliance Matrix: (Units=1/GPa)
#
#
# Indices 1 2 3 4 5 6 
#
# 1 0.008792 -0.001635 -0.001084 0.000000 0.000000 0.000000
# 2 -0.001635 0.011444 -0.000191 0.000000 0.000000 0.000000
# 3 -0.001084 -0.000191 0.012975 0.000000 0.000000 0.000000
# 4 0.000000 0.000000 0.000000 0.025419 0.000000 0.000000
# 5 0.000000 0.000000 0.000000 0.000000 0.222733 0.000000
# 6 0.000000 0.000000 0.000000 0.000000 0.000000 -0.008347
#
#
# Mechanical properties :
#
#
# Convention : Reuss Voigt Hill
#
# Bulk Modulus (GPa) = 36.50559 38.42163 37.46361
# Shear Modulus (GPa) = 17.36314 1.87506 9.61910
#
# Velocity S-wave (km/s) = 2.78895 0.91650 2.07584
# Velocity P-wave (km/s) = 5.16959 4.28158 4.74640
#
# Compressibility (1/GPa) = 0.02739306
#
# Stress axis : x y z
#
# Youngs Moduli (GPa) = 113.73982 87.37972 77.06847
#
# Poissons Ratio (x) = 0.14283 0.08353
# Poissons Ratio (y) = 0.18592 0.01471
# Poissons Ratio (z) = 0.12328 0.01667
#
# Static dielectric constant tensor:
#      x y z
#    x 1.793750 0.000000 0.000000 
#    y 0.000000 1.833600 0.000000 
#    z 0.000000 0.000000 1.793220 
# 
# From -- ./inp_files/19151.got.cif
#   From: 2010.05.17/outbox.cif.g08.bks.cpg/sg51_10_cif.got.tgz:19151.got - 2010.06.03 11:52:47.
