data_PCOD9402241
_publ_section_title
;
Structure prediction by ZEFSAII (Michael W. Deem and Ramdas Pophale) SiO2 
 PCOD9402241
Probable space group: P M M A
;
_chemical_formula_sum "Si O2"
_cell_formula_units_Z 64
_cell_length_a 32.677114
_cell_length_b 7.566673
_cell_length_c 12.375371
_cell_angle_alpha 90.000000
_cell_angle_beta 90.000000
_cell_angle_gamma 90.000000
_cell_volume 3059.897556
_symmetry_space_group_name_H-M "P M M A"
_symmetry_group_IT_number 51
_symmetry_cell_setting 'orthorhombic'
loop_
_space_group_symop_operation_xyz
x,y,z
1/2-x,-y,z
1/2+x,-y,-z
-x,y,-z
-x,-y,-z
1/2+x,y,-z
1/2-x,y,z
x,-y,z
loop_
_atom_site_type_symbol
_atom_site_label
_atom_site_fract_x
_atom_site_fract_y
_atom_site_fract_z
Si Si1 0.453774 0.294070 0.499344
Si Si2 0.885601 0.298842 0.872551
Si Si3 0.203782 0.288359 0.501277
Si Si4 0.446172 0.214452 0.743208
Si Si5 0.129108 0.792765 0.885582
Si Si6 0.704669 0.787459 0.247485
Si Si7 0.375144 0.282111 0.366633
Si Si8 0.520509 0.214030 0.885437
O O1 0.500000 0.215961 0.500000
O O2 0.458332 0.500000 0.468993
O O3 0.438595 0.280143 0.622792
O O4 0.417810 0.222140 0.422270
O O5 0.871278 0.500000 0.873906
O O6 0.872696 0.221596 0.757394
O O7 0.934779 0.291536 0.874132
O O8 0.871479 0.220160 0.985873
O O9 0.250000 0.221386 0.475889
O O10 0.205094 0.500000 0.487818
O O11 0.195736 0.250208 0.627221
O O12 0.165233 0.224538 0.431694
O O13 0.411880 0.277196 0.828125
O O14 0.490263 0.268775 0.789463
O O15 0.446345 0.000000 0.740574
O O16 0.169327 0.716502 0.829615
O O17 0.128599 0.000000 0.859160
O O18 0.750000 0.717980 0.223241
O O19 0.706195 0.000000 0.235634
O O20 0.376095 0.500000 0.367970
O O21 0.524384 0.000000 0.884813
O O22 0.500000 0.261304 0.000000
#
# Coordination Sequence:
#
# PCOD9402241 Si02
#       8
#     8   8   8   8   8   8   8   8
#     4  10  20  34  51  71 101 136 166 204 258 308
#     4  11  22  35  53  76 102 135 180 222 253 300
#     4   9  17  32  56  80 102 133 171 211 260 314
#     4  10  20  33  52  75  99 130 169 210 251 301
#     4  10  20  36  53  73 105 138 167 206 261 312
#     4   9  18  33  55  81 107 134 165 208 260 312
#     4   9  19  35  51  72 105 138 169 213 264 310
#     4  10  19  35  53  70 101 140 172 208 259 309
#
# _framework density 20.915734
#
# number of rings (size 3 to 8) (size 9 to 14) (size 15 to 20)
#    0.000    2.250    1.250    1.875    0.000    3.000 
#    0.000    3.125    0.000    0.750    0.000    0.000 
#    0.000    0.000    0.000    0.000    0.000    0.000 
#
# Total GULP energy -357317.430010 kJ/mol
# GULP energy per Si atom -5583.084844 kJ/mol
# Density = 2.086813 g / cm^3
# Si number density = 20.915734 Si / 1000 Ang^3
#
#
#
# Elastic Constant Matrix: (Units=GPa)
#
#
# Indices 1 2 3 4 5 6 
#
# 1 149.9979 2.8970 78.9668 0.0000 0.0000 0.0000
# 2 2.8970 43.5815 -11.9529 0.0000 0.0000 0.0000
# 3 78.9668 -11.9529 113.0034 0.0000 0.0000 0.0000
# 4 0.0000 0.0000 0.0000 4.1894 0.0000 0.0000
# 5 0.0000 0.0000 0.0000 0.0000 25.5215 0.0000
# 6 0.0000 0.0000 0.0000 0.0000 0.0000 2.4006
#
#
#
# Elastic Compliance Matrix: (Units=1/GPa)
#
#
# Indices 1 2 3 4 5 6 
#
# 1 0.010890 -0.002895 -0.007916 0.000000 0.000000 0.000000
# 2 -0.002895 0.024401 0.004604 0.000000 0.000000 0.000000
# 3 -0.007916 0.004604 0.014868 0.000000 0.000000 0.000000
# 4 0.000000 0.000000 0.000000 0.238700 0.000000 0.000000
# 5 0.000000 0.000000 0.000000 0.000000 0.039183 0.000000
# 6 0.000000 0.000000 0.000000 0.000000 0.000000 0.416554
#
#
# Mechanical properties :
#
#
# Convention : Reuss Voigt Hill
#
# Bulk Modulus (GPa) = 26.49394 49.60050 38.04722
# Shear Modulus (GPa) = 6.49694 22.20042 14.34868
#
# Velocity S-wave (km/s) = 1.76437 3.26148 2.62205
# Velocity P-wave (km/s) = 4.10428 6.16027 5.23422
#
# Compressibility (1/GPa) = 0.03774448
#
# Stress axis : x y z
#
# Youngs Moduli (GPa) = 91.82529 40.98240 67.25752
#
# Poissons Ratio (x) = 0.11865 0.53243
# Poissons Ratio (y) = 0.26584 -0.30966
# Poissons Ratio (z) = 0.72692 -0.18869
#
# Static dielectric constant tensor:
#      x y z
#    x 1.777400 0.000000 0.000000 
#    y 0.000000 1.789710 0.000000 
#    z 0.000000 0.000000 1.723160 
# 
# From -- ./inp_files/19532.got.cif
#   From: 2010.05.17/outbox.cif.g08.bks.cpg/sg51_10_cif.got.tgz:19532.got - 2010.06.03 11:52:47.
