data_PCOD9402788
_publ_section_title
;
Structure prediction by ZEFSAII (Michael W. Deem and Ramdas Pophale) SiO2 
 PCOD9402788
Probable space group: P M M A
;
_chemical_formula_sum "Si O2"
_cell_formula_units_Z 40
_cell_length_a 9.535838
_cell_length_b 7.368840
_cell_length_c 26.427622
_cell_angle_alpha 90.000000
_cell_angle_beta 90.000000
_cell_angle_gamma 90.000000
_cell_volume 1857.017847
_symmetry_space_group_name_H-M "P M M A"
_symmetry_group_IT_number 51
_symmetry_cell_setting 'orthorhombic'
loop_
_space_group_symop_operation_xyz
x,y,z
1/2-x,-y,z
1/2+x,-y,-z
-x,y,-z
-x,-y,-z
1/2+x,y,-z
1/2-x,y,z
x,-y,z
loop_
_atom_site_type_symbol
_atom_site_label
_atom_site_fract_x
_atom_site_fract_y
_atom_site_fract_z
Si Si1 0.911385 0.278327 0.549178
Si Si2 0.590719 0.781795 0.741368
Si Si3 0.588696 0.220954 0.855330
Si Si4 0.910936 0.778306 0.048765
Si Si5 0.407990 0.285907 0.643879
O O1 0.750000 0.218791 0.547337
O O2 0.908375 0.500000 0.549569
O O3 0.000000 0.224310 0.500000
O O4 0.991262 0.214825 0.599610
O O5 0.750000 0.718969 0.729877
O O6 0.552803 0.720623 0.798191
O O7 0.482533 0.732698 0.697906
O O8 0.595495 0.000000 0.742909
O O9 0.750000 0.273550 0.865616
O O10 0.485905 0.281209 0.899562
O O11 0.586121 0.000000 0.855461
O O12 0.750000 0.720524 0.045688
O O13 0.911269 0.000000 0.048882
O O14 0.000000 0.721589 0.000000
O O15 0.250000 0.211081 0.643352
O O16 0.396095 0.500000 0.633815
#
# Coordination Sequence:
#
# PCOD9402788 Si02
#       5
#     8   8   8   8   8
#     4   9  16  27  45  68  93 120 150 186 228 272
#     4   9  18  32  49  68  91 122 158 193 231 276
#     4   8  14  25  39  55  78 108 142 180 221 266
#     4   9  15  21  31  49  74 105 140 177 218 263
#     4  10  20  32  47  70  98 125 155 191 228 268
#
# _framework density 21.539911
#
# number of rings (size 3 to 8) (size 9 to 14) (size 15 to 20)
#    0.000    3.000    0.000    3.000    0.000    7.200 
#    0.000    2.000    0.000    0.600    0.000    0.000 
#    0.000    0.800    0.000    2.600    0.000    5.800 
#
# Total GULP energy -223392.707992 kJ/mol
# GULP energy per Si atom -5584.817700 kJ/mol
# Density = 2.149089 g / cm^3
# Si number density = 21.539911 Si / 1000 Ang^3
#
#
#
# Elastic Constant Matrix: (Units=GPa)
#
#
# Indices 1 2 3 4 5 6 
#
# 1 233.1963 6.4648 163.1052 0.0000 0.0000 0.0000
# 2 6.4648 75.9734 -0.0096 0.0000 0.0000 0.0000
# 3 163.1052 -0.0096 197.0967 0.0000 0.0000 0.0000
# 4 0.0000 0.0000 0.0000 10.5762 0.0000 0.0000
# 5 0.0000 0.0000 0.0000 0.0000 42.1599 0.0000
# 6 0.0000 0.0000 0.0000 0.0000 0.0000 1.0095
#
#
#
# Elastic Compliance Matrix: (Units=1/GPa)
#
#
# Indices 1 2 3 4 5 6 
#
# 1 0.010239 -0.000872 -0.008473 0.000000 0.000000 0.000000
# 2 -0.000872 0.013237 0.000723 0.000000 0.000000 0.000000
# 3 -0.008473 0.000723 0.012085 0.000000 0.000000 0.000000
# 4 0.000000 0.000000 0.000000 0.094552 0.000000 0.000000
# 5 0.000000 0.000000 0.000000 0.000000 0.023719 0.000000
# 6 0.000000 0.000000 0.000000 0.000000 0.000000 0.990603
#
#
# Mechanical properties :
#
#
# Convention : Reuss Voigt Hill
#
# Bulk Modulus (GPa) = 54.59887 93.93191 74.26539
# Shear Modulus (GPa) = 4.28161 33.19618 18.73889
#
# Velocity S-wave (km/s) = 1.41141 3.93000 2.95271
# Velocity P-wave (km/s) = 5.29706 8.01849 6.79541
#
# Compressibility (1/GPa) = 0.01831540
#
# Stress axis : x y z
#
# Youngs Moduli (GPa) = 97.66896 75.54680 82.74464
#
# Poissons Ratio (x) = 0.06590 0.70109
# Poissons Ratio (y) = 0.08520 -0.05978
# Poissons Ratio (z) = 0.82754 -0.05458
#
# Static dielectric constant tensor:
#      x y z
#    x 1.734340 0.000000 0.000000 
#    y 0.000000 1.879380 0.000000 
#    z 0.000000 0.000000 1.738280 
# 
# From -- ./inp_files/31363.got.cif
#   From: 2010.05.17/outbox.cif.g08.bks.cpg/sg51_16_cif.got.tgz:31363.got - 2010.06.03 11:52:47.
