data_PCOD9402691
_publ_section_title
;
Structure prediction by ZEFSAII (Michael W. Deem and Ramdas Pophale) SiO2 
 PCOD9402691
Probable space group: P M M A
;
_chemical_formula_sum "Si O2"
_cell_formula_units_Z 36
_cell_length_a 7.352395
_cell_length_b 7.372258
_cell_length_c 27.505616
_cell_angle_alpha 90.000000
_cell_angle_beta 90.000000
_cell_angle_gamma 90.000000
_cell_volume 1490.907612
_symmetry_space_group_name_H-M "P M M A"
_symmetry_group_IT_number 51
_symmetry_cell_setting 'orthorhombic'
loop_
_space_group_symop_operation_xyz
x,y,z
1/2-x,-y,z
1/2+x,-y,-z
-x,y,-z
-x,-y,-z
1/2+x,y,-z
1/2-x,y,z
x,-y,z
loop_
_atom_site_type_symbol
_atom_site_label
_atom_site_fract_x
_atom_site_fract_y
_atom_site_fract_z
Si Si1 0.472623 0.291597 0.867253
Si Si2 0.966408 0.279649 0.343216
Si Si3 0.467484 0.708418 0.552787
Si Si4 0.966850 0.000000 0.057068
Si Si5 0.534469 0.720082 0.238533
O O1 0.250000 0.289564 0.865865
O O2 0.527664 0.500000 0.872311
O O3 0.533857 0.220198 0.814212
O O4 0.533545 0.173158 0.912646
O O5 0.750000 0.240662 0.341769
O O6 0.984500 0.500000 0.344489
O O7 0.035397 0.214163 0.395729
O O8 0.040304 0.218710 0.290833
O O9 0.500000 0.793317 0.500000
O O10 0.250000 0.700842 0.557670
O O11 0.536434 0.500000 0.549871
O O12 0.750000 0.000000 0.062321
O O13 0.000000 0.000000 0.000000
O O14 0.750000 0.761821 0.239222
O O15 0.518561 0.500000 0.237904
#
# Coordination Sequence:
#
# PCOD9402691 Si02
#       5
#     8   8   8   4   8
#     4   8  14  25  41  61  85 111 138 170 207 244
#     4   7   9  13  22  37  56  78 108 146 183 220
#     4   8  12  16  21  31  50  77 108 140 174 214
#     4  10  20  32  46  66  90 114 141 170 200 238
#     4   7   9  15  29  48  68  90 118 154 195 233
#
# _framework density 24.146363999999998
#
# number of rings (size 3 to 8) (size 9 to 14) (size 15 to 20)
#    0.000    4.222    0.000    4.000    0.000    0.444 
#    0.000    0.000    0.000    0.000    0.000    1.556 
#    0.000    5.333    0.000    1.000    0.000    7.333 
#
# Total GULP energy -200568.526480 kJ/mol
# GULP energy per Si atom -5571.347958 kJ/mol
# Density = 2.409141 g / cm^3
# Si number density = 24.146364 Si / 1000 Ang^3
#
#
#
# Elastic Constant Matrix: (Units=GPa)
#
#
# Indices 1 2 3 4 5 6 
#
# 1 86.3561 1.9168 10.6738 0.0000 0.0000 0.0000
# 2 1.9168 98.0615 75.3596 0.0000 0.0000 0.0000
# 3 10.6738 75.3596 352.0570 0.0000 0.0000 0.0000
# 4 0.0000 0.0000 0.0000 159.5123 0.0000 0.0000
# 5 0.0000 0.0000 0.0000 0.0000 10.3205 0.0000
# 6 0.0000 0.0000 0.0000 0.0000 0.0000 -9.7419
#
#
#
# Elastic Compliance Matrix: (Units=1/GPa)
#
#
# Indices 1 2 3 4 5 6 
#
# 1 0.011624 0.000052 -0.000364 0.000000 0.000000 0.000000
# 2 0.000052 0.012206 -0.002614 0.000000 0.000000 0.000000
# 3 -0.000364 -0.002614 0.003411 0.000000 0.000000 0.000000
# 4 0.000000 0.000000 0.000000 0.006269 0.000000 0.000000
# 5 0.000000 0.000000 0.000000 0.000000 0.096895 0.000000
# 6 0.000000 0.000000 0.000000 0.000000 0.000000 -0.102649
#
#
# Mechanical properties :
#
#
# Convention : Reuss Voigt Hill
#
# Bulk Modulus (GPa) = 46.75256 79.15278 62.95267
# Shear Modulus (GPa) = 122.74110 61.91981 92.33045
#
# Velocity S-wave (km/s) = 7.13740 5.06944 6.19038
# Velocity P-wave (km/s) = 9.34492 8.19251 8.78762
#
# Compressibility (1/GPa) = 0.02138920
#
# Stress axis : x y z
#
# Youngs Moduli (GPa) = 86.03082 81.92885 293.16300
#
# Poissons Ratio (x) = -0.00428 0.10659
# Poissons Ratio (y) = -0.00449 0.76641
# Poissons Ratio (z) = 0.03128 0.21418
#
# Static dielectric constant tensor:
#      x y z
#    x 2.001490 0.000000 0.000000 
#    y 0.000000 3.699700 0.000000 
#    z 0.000000 0.000000 1.976020 
# 
# From -- ./inp_files/35208.got.cif
#   From: 2010.05.17/outbox.cif.g08.bks.cpg/sg51_18_cif.got.tgz:35208.got - 2010.06.03 11:52:47.
