data_PCOD9402929
_publ_section_title
;
Structure prediction by ZEFSAII (Michael W. Deem and Ramdas Pophale) SiO2 
 PCOD9402929
Probable space group: P M M A
;
_chemical_formula_sum "Si O2"
_cell_formula_units_Z 48
_cell_length_a 24.186698
_cell_length_b 7.575604
_cell_length_c 13.156387
_cell_angle_alpha 90.000000
_cell_angle_beta 90.000000
_cell_angle_gamma 90.000000
_cell_volume 2410.629609
_symmetry_space_group_name_H-M "P M M A"
_symmetry_group_IT_number 51
_symmetry_cell_setting 'orthorhombic'
loop_
_space_group_symop_operation_xyz
x,y,z
1/2-x,-y,z
1/2+x,-y,-z
-x,y,-z
-x,-y,-z
1/2+x,y,-z
1/2-x,y,z
x,-y,z
loop_
_atom_site_type_symbol
_atom_site_label
_atom_site_fract_x
_atom_site_fract_y
_atom_site_fract_z
Si Si1 0.993786 0.709324 0.885540
Si Si2 0.882700 0.707626 0.786530
Si Si3 0.186961 0.212116 0.630942
Si Si4 0.186460 0.213872 0.014718
Si Si5 0.187043 0.288396 0.400359
Si Si6 0.384711 0.786547 0.820177
O O1 0.983223 0.500000 0.897228
O O2 0.941099 0.783462 0.825174
O O3 0.051744 0.732849 0.829224
O O4 0.000000 0.783108 0.000000
O O5 0.891982 0.500000 0.766159
O O6 0.854128 0.782538 0.685479
O O7 0.840331 0.725011 0.880139
O O8 0.250000 0.278201 0.644720
O O9 0.169417 0.253624 0.516054
O O10 0.146320 0.276664 0.718887
O O11 0.189126 0.000000 0.639862
O O12 0.250000 0.271134 0.004183
O O13 0.148903 0.273476 0.920109
O O14 0.186076 0.000000 0.014783
O O15 0.250000 0.219925 0.388073
O O16 0.189967 0.500000 0.387797
O O17 0.383210 0.000000 0.820421
#
# Coordination Sequence:
#
# PCOD9402929 Si02
#       6
#     8   8   8   8   8   8
#     4  10  20  35  53  74 102 138 177 214 252 301
#     4  10  20  35  53  74 103 137 172 211 257 303
#     4   9  18  34  55  77 103 135 169 209 258 307
#     4  10  20  32  49  76 106 132 163 207 256 308
#     4   9  18  33  53  76 101 131 168 209 254 305
#     4  10  20  34  53  76 103 135 171 209 255 306
#
# _framework density 19.911811
#
# number of rings (size 3 to 8) (size 9 to 14) (size 15 to 20)
#    0.000    2.333    1.667    1.000    0.000    5.333 
#    0.000    2.500    0.000    8.000    0.000    0.000 
#    0.000    0.000    0.000    0.000    0.000    0.000 
#
# Total GULP energy -267977.934489 kJ/mol
# GULP energy per Si atom -5582.873635 kJ/mol
# Density = 1.986649 g / cm^3
# Si number density = 19.911811 Si / 1000 Ang^3
#
#
#
# Elastic Constant Matrix: (Units=GPa)
#
#
# Indices 1 2 3 4 5 6 
#
# 1 106.9241 -9.5680 61.2755 0.0000 0.0000 0.0000
# 2 -9.5680 38.9410 -9.0485 0.0000 0.0000 0.0000
# 3 61.2755 -9.0485 142.4383 0.0000 0.0000 0.0000
# 4 0.0000 0.0000 0.0000 18.1914 0.0000 0.0000
# 5 0.0000 0.0000 0.0000 0.0000 19.7513 0.0000
# 6 0.0000 0.0000 0.0000 0.0000 0.0000 21.2837
#
#
#
# Elastic Compliance Matrix: (Units=1/GPa)
#
#
# Indices 1 2 3 4 5 6 
#
# 1 0.012543 0.001856 -0.005278 0.000000 0.000000 0.000000
# 2 0.001856 0.026339 0.000875 0.000000 0.000000 0.000000
# 3 -0.005278 0.000875 0.009347 0.000000 0.000000 0.000000
# 4 0.000000 0.000000 0.000000 0.054971 0.000000 0.000000
# 5 0.000000 0.000000 0.000000 0.000000 0.050629 0.000000
# 6 0.000000 0.000000 0.000000 0.000000 0.000000 0.046984
#
#
# Mechanical properties :
#
#
# Convention : Reuss Voigt Hill
#
# Bulk Modulus (GPa) = 23.18363 41.51349 32.34856
# Shear Modulus (GPa) = 22.69766 28.22159 25.45962
#
# Velocity S-wave (km/s) = 3.37992 3.76883 3.57966
# Velocity P-wave (km/s) = 5.18654 6.31131 5.77637
#
# Compressibility (1/GPa) = 0.04313388
#
# Stress axis : x y z
#
# Youngs Moduli (GPa) = 79.72447 37.96635 106.98910
#
# Poissons Ratio (x) = -0.07045 0.56470
# Poissons Ratio (y) = -0.14793 -0.09361
# Poissons Ratio (z) = 0.42079 -0.03322
#
# Static dielectric constant tensor:
#      x y z
#    x 1.687800 0.000000 0.000000 
#    y 0.000000 0.519350 0.000000 
#    z 0.000000 0.000000 1.681110 
# 
# From -- ./inp_files/18538.got.cif
#   From: 2010.05.17/outbox.cif.g08.bks.cpg/sg51_10_cif.got.tgz:18538.got - 2010.06.03 11:52:47.
