data_PCOD9402006
_publ_section_title
;
Structure prediction by ZEFSAII (Michael W. Deem and Ramdas Pophale) SiO2 
 PCOD9402006
Probable space group: P M M A
;
_chemical_formula_sum "Si O2"
_cell_formula_units_Z 40
_cell_length_a 9.708107
_cell_length_b 15.332710
_cell_length_c 12.505474
_cell_angle_alpha 90.000000
_cell_angle_beta 90.000000
_cell_angle_gamma 90.000000
_cell_volume 1861.459680
_symmetry_space_group_name_H-M "P M M A"
_symmetry_group_IT_number 51
_symmetry_cell_setting 'orthorhombic'
loop_
_space_group_symop_operation_xyz
x,y,z
1/2-x,-y,z
1/2+x,-y,-z
-x,y,-z
-x,-y,-z
1/2+x,y,-z
1/2-x,y,z
x,-y,z
loop_
_atom_site_type_symbol
_atom_site_label
_atom_site_fract_x
_atom_site_fract_y
_atom_site_fract_z
Si Si1 0.250000 0.224842 0.042220
Si Si2 0.750000 0.905052 0.150441
Si Si3 0.000000 0.647804 0.000000
Si Si4 0.588546 0.293084 0.397920
Si Si5 0.750000 0.901404 0.755347
Si Si6 0.456255 0.098386 0.657002
Si Si7 0.082710 0.598262 0.227377
O O1 0.376802 0.287000 0.022660
O O2 0.250000 0.171342 0.152572
O O3 0.250000 0.159891 0.944341
O O4 0.620269 0.897005 0.228757
O O5 0.750000 0.000000 0.101740
O O6 0.008483 0.595823 0.111021
O O7 0.500000 0.322913 0.500000
O O8 0.750000 0.320494 0.396439
O O9 0.589267 0.186864 0.400239
O O10 0.501956 0.331254 0.297322
O O11 0.883178 0.894508 0.681119
O O12 0.750000 0.000000 0.802445
O O13 0.424803 0.000000 0.613647
O O14 0.250000 0.616947 0.219930
O O15 0.071859 0.500000 0.273505
#
# Coordination Sequence:
#
# PCOD9402006 Si02
#       7
#     4   4   4   8   4   8   8
#     4  12  21  34  57  92 134 178 230 284 342 402
#     4  10  19  34  55  85 129 179 230 280 335 396
#     4  12  25  40  67 104 138 178 227 280 344 420
#     4  12  27  46  74 107 140 182 231 286 349 417
#     4  10  21  36  57  87 129 185 240 288 339 398
#     4  10  22  40  63  92 133 182 231 283 338 401
#     4  11  26  50  75 102 141 183 230 288 348 416
#
# _framework density 21.488513000000001
#
# number of rings (size 3 to 8) (size 9 to 14) (size 15 to 20)
#    0.000    1.000    2.000    4.800    4.200    1.200 
#    0.000    4.000    0.000    0.000    0.000    0.000 
#    0.000    0.000    0.000    0.000    0.000    0.000 
#
# Total GULP energy -223179.754882 kJ/mol
# GULP energy per Si atom -5579.493872 kJ/mol
# Density = 2.143960 g / cm^3
# Si number density = 21.488513 Si / 1000 Ang^3
#
#
#
# Elastic Constant Matrix: (Units=GPa)
#
#
# Indices 1 2 3 4 5 6 
#
# 1 134.1088 28.8902 13.2615 0.0000 0.0000 0.0000
# 2 28.8902 99.9811 27.7733 0.0000 0.0000 0.0000
# 3 13.2615 27.7733 83.6796 0.0000 0.0000 0.0000
# 4 0.0000 0.0000 0.0000 -8.6082 0.0000 0.0000
# 5 0.0000 0.0000 0.0000 0.0000 25.6024 0.0000
# 6 0.0000 0.0000 0.0000 0.0000 0.0000 23.7685
#
#
#
# Elastic Compliance Matrix: (Units=1/GPa)
#
#
# Indices 1 2 3 4 5 6 
#
# 1 0.007974 -0.002152 -0.000550 0.000000 0.000000 0.000000
# 2 -0.002152 0.011598 -0.003508 0.000000 0.000000 0.000000
# 3 -0.000550 -0.003508 0.013202 0.000000 0.000000 0.000000
# 4 0.000000 0.000000 0.000000 -0.116168 0.000000 0.000000
# 5 0.000000 0.000000 0.000000 0.000000 0.039059 0.000000
# 6 0.000000 0.000000 0.000000 0.000000 0.000000 0.042072
#
#
# Mechanical properties :
#
#
# Convention : Reuss Voigt Hill
#
# Bulk Modulus (GPa) = 49.12765 50.84663 49.98714
# Shear Modulus (GPa) = 295.11252 24.67550 159.89401
#
# Velocity S-wave (km/s) = 11.73172 3.39235 8.63543
# Velocity P-wave (km/s) = 14.36742 6.24961 11.07882
#
# Compressibility (1/GPa) = 0.02035514
#
# Stress axis : x y z
#
# Youngs Moduli (GPa) = 125.39989 86.22028 75.74659
#
# Poissons Ratio (x) = 0.18551 0.04164
# Poissons Ratio (y) = 0.26981 0.26575
# Poissons Ratio (z) = 0.06893 0.30250
#
# Static dielectric constant tensor:
#      x y z
#    x 1.751890 0.000000 0.000000 
#    y 0.000000 1.824620 0.000000 
#    z 0.000000 0.000000 1.767860 
# 
# From -- ./inp_files/20602.got.cif
#   From: 2010.05.17/outbox.cif.g08.bks.cpg/sg51_11_cif.got.tgz:20602.got - 2010.06.03 11:52:47.
