data_PCOD9402460
_publ_section_title
;
Structure prediction by ZEFSAII (Michael W. Deem and Ramdas Pophale) SiO2 
 PCOD9402460
Probable space group: P M M A
;
_chemical_formula_sum "Si O2"
_cell_formula_units_Z 48
_cell_length_a 17.030737
_cell_length_b 10.442854
_cell_length_c 14.321184
_cell_angle_alpha 90.000000
_cell_angle_beta 90.000000
_cell_angle_gamma 90.000000
_cell_volume 2547.015414
_symmetry_space_group_name_H-M "P M M A"
_symmetry_group_IT_number 51
_symmetry_cell_setting 'orthorhombic'
loop_
_space_group_symop_operation_xyz
x,y,z
1/2-x,-y,z
1/2+x,-y,-z
-x,y,-z
-x,-y,-z
1/2+x,y,-z
1/2-x,y,z
x,-y,z
loop_
_atom_site_type_symbol
_atom_site_label
_atom_site_fract_x
_atom_site_fract_y
_atom_site_fract_z
Si Si1 0.912338 0.250018 0.332422
Si Si2 0.845166 0.743590 0.903547
Si Si3 0.845390 0.000000 0.230121
Si Si4 0.843332 0.500000 0.235919
Si Si5 0.654512 0.000000 0.010540
Si Si6 0.415167 0.345936 0.291079
Si Si7 0.345633 0.500000 0.974667
Si Si8 0.657566 0.648734 0.509854
O O1 0.869683 0.372653 0.287438
O O2 0.890610 0.259062 0.441699
O O3 0.003595 0.276436 0.315322
O O4 0.879927 0.124323 0.281840
O O5 0.750000 0.744534 0.897316
O O6 0.879091 0.715490 0.801682
O O7 0.869171 0.626073 0.969771
O O8 0.870737 0.874280 0.953749
O O9 0.750000 0.000000 0.235645
O O10 0.867873 0.000000 0.119885
O O11 0.750000 0.500000 0.231733
O O12 0.875507 0.500000 0.130605
O O13 0.750000 0.000000 0.010926
O O14 0.426969 0.500000 0.277763
O O15 0.359746 0.330025 0.381312
O O16 0.250000 0.500000 0.971548
O O17 0.750000 0.661777 0.490620
O O18 0.634609 0.500000 0.490666
#
# Coordination Sequence:
#
# PCOD9402460 Si02
#       8
#     8   8   4   4   4   8   4   8
#     4  12  23  39  60  90 123 157 195 248 309 357
#     4  10  19  36  60  86 118 159 207 249 293 354
#     4  11  24  43  65  87 120 163 206 248 298 363
#     4  11  20  35  59  85 112 147 200 250 294 349
#     4   9  20  39  62  87 116 159 209 254 296 345
#     4  11  22  38  59  91 127 159 195 251 313 362
#     4   9  18  31  54  83 110 147 199 256 292 335
#     4  10  20  37  64  92 119 157 203 247 296 359
#
# _framework density 18.845586000000001
#
# number of rings (size 3 to 8) (size 9 to 14) (size 15 to 20)
#    0.000    1.500    2.500    3.500    0.000    5.333 
#    0.000    7.500    0.000    1.000    0.000    0.000 
#    0.000    0.000    0.000    0.000    0.000    0.000 
#
# Total GULP energy -268141.326111 kJ/mol
# GULP energy per Si atom -5586.277627 kJ/mol
# Density = 1.880269 g / cm^3
# Si number density = 18.845586 Si / 1000 Ang^3
#
#
#
# Elastic Constant Matrix: (Units=GPa)
#
#
# Indices 1 2 3 4 5 6 
#
# 1 30.8265 12.0935 -1.8777 0.0000 0.0000 0.0000
# 2 12.0935 136.6884 51.5163 0.0000 0.0000 0.0000
# 3 -1.8777 51.5163 114.9144 0.0000 0.0000 0.0000
# 4 0.0000 0.0000 0.0000 26.7413 0.0000 0.0000
# 5 0.0000 0.0000 0.0000 0.0000 -31.8081 0.0000
# 6 0.0000 0.0000 0.0000 0.0000 0.0000 13.4409
#
#
#
# Elastic Compliance Matrix: (Units=1/GPa)
#
#
# Indices 1 2 3 4 5 6 
#
# 1 0.034103 -0.003883 0.002298 0.000000 0.000000 0.000000
# 2 -0.003883 0.009246 -0.004208 0.000000 0.000000 0.000000
# 3 0.002298 -0.004208 0.010626 0.000000 0.000000 0.000000
# 4 0.000000 0.000000 0.000000 0.037395 0.000000 0.000000
# 5 0.000000 0.000000 0.000000 0.000000 -0.031438 0.000000
# 6 0.000000 0.000000 0.000000 0.000000 0.000000 0.074400
#
#
# Mechanical properties :
#
#
# Convention : Reuss Voigt Hill
#
# Bulk Modulus (GPa) = 23.59161 45.09926 34.34543
# Shear Modulus (GPa) = 31.24061 16.38795 23.81428
#
# Velocity S-wave (km/s) = 4.07592 2.95208 3.55865
# Velocity P-wave (km/s) = 5.89036 5.96679 5.92870
#
# Compressibility (1/GPa) = 0.04238796
#
# Stress axis : x y z
#
# Youngs Moduli (GPa) = 29.32281 108.16036 94.10670
#
# Poissons Ratio (x) = 0.42003 -0.21627
# Poissons Ratio (y) = 0.11387 0.39602
# Poissons Ratio (z) = -0.06739 0.45516
#
# Static dielectric constant tensor:
#      x y z
#    x 1.661150 0.000000 0.000000 
#    y 0.000000 1.624940 0.000000 
#    z 0.000000 0.000000 1.653190 
# 
# From -- ./inp_files/25018.got.cif
#   From: 2010.05.17/outbox.cif.g08.bks.cpg/sg51_13_cif.got.tgz:25018.got - 2010.06.03 11:52:47.
