data_PCOD9402887
_publ_section_title
;
Structure prediction by ZEFSAII (Michael W. Deem and Ramdas Pophale) SiO2 
 PCOD9402887
Probable space group: P M M A
;
_chemical_formula_sum "Si O2"
_cell_formula_units_Z 64
_cell_length_a 17.236597
_cell_length_b 9.196818
_cell_length_c 23.684620
_cell_angle_alpha 90.000000
_cell_angle_beta 90.000000
_cell_angle_gamma 90.000000
_cell_volume 3754.529674
_symmetry_space_group_name_H-M "P M M A"
_symmetry_group_IT_number 51
_symmetry_cell_setting 'orthorhombic'
loop_
_space_group_symop_operation_xyz
x,y,z
1/2-x,-y,z
1/2+x,-y,-z
-x,y,-z
-x,-y,-z
1/2+x,y,-z
1/2-x,y,z
x,-y,z
loop_
_atom_site_type_symbol
_atom_site_label
_atom_site_fract_x
_atom_site_fract_y
_atom_site_fract_z
Si Si1 0.400461 0.829765 0.927235
Si Si2 0.657927 0.330102 0.962805
Si Si3 0.002084 0.325691 0.763278
Si Si4 0.971731 0.675549 0.633781
Si Si5 0.920285 0.333949 0.463407
Si Si6 0.160221 0.826790 0.439608
Si Si7 0.931649 0.170267 0.869480
Si Si8 0.336216 0.326731 0.819071
O O1 0.489171 0.816667 0.906323
O O2 0.350280 0.758006 0.877315
O O3 0.382283 0.000000 0.933637
O O4 0.384777 0.747787 0.985309
O O5 0.750000 0.317772 0.971822
O O6 0.636972 0.500000 0.961013
O O7 0.633223 0.253461 0.904850
O O8 0.992439 0.500000 0.769884
O O9 0.981140 0.287307 0.699256
O O10 0.950628 0.243404 0.809571
O O11 0.092072 0.291474 0.777985
O O12 0.963464 0.500000 0.628386
O O13 0.898282 0.751089 0.604407
O O14 0.049003 0.714225 0.597791
O O15 0.891034 0.500000 0.460762
O O16 0.862642 0.233528 0.498461
O O17 0.000000 0.336298 0.500000
O O18 0.250000 0.793475 0.427340
O O19 0.149242 0.000000 0.438031
O O20 0.914100 0.000000 0.863183
O O21 0.250000 0.294902 0.796829
O O22 0.340425 0.500000 0.830598
#
# Coordination Sequence:
#
# PCOD9402887 Si02
#       8
#     8   8   8   8   8   8   8   8
#     4  10  20  33  51  75 100 126 159 200 247 301
#     4  11  23  36  51  73  99 127 162 204 251 302
#     4   9  18  34  54  74  99 132 169 207 244 287
#     4   9  18  33  53  76 100 130 170 208 244 291
#     4   8  15  29  49  73  99 126 158 196 239 288
#     4  10  20  32  48  74 105 134 167 207 249 292
#     4  10  21  36  53  74  99 129 166 204 245 296
#     4   9  17  30  49  73 100 129 161 199 245 296
#
# _framework density 17.046077
#
# number of rings (size 3 to 8) (size 9 to 14) (size 15 to 20)
#    0.000    2.500    0.000    3.000    0.000    9.500 
#    0.000    1.250    0.000    3.000    0.000    0.000 
#    0.000    0.000    0.000    0.000    0.000    0.000 
#
# Total GULP energy -356909.675408 kJ/mol
# GULP energy per Si atom -5576.713678 kJ/mol
# Density = 1.700728 g / cm^3
# Si number density = 17.046077 Si / 1000 Ang^3
#
#
#
# Elastic Constant Matrix: (Units=GPa)
#
#
# Indices 1 2 3 4 5 6 
#
# 1 41.6930 34.1343 38.4723 0.0000 0.0000 0.0000
# 2 34.1343 62.4434 58.0598 0.0000 0.0000 0.0000
# 3 38.4723 58.0598 139.3952 0.0000 0.0000 0.0000
# 4 0.0000 0.0000 0.0000 10.4748 0.0000 0.0000
# 5 0.0000 0.0000 0.0000 0.0000 12.0961 0.0000
# 6 0.0000 0.0000 0.0000 0.0000 0.0000 20.3497
#
#
#
# Elastic Compliance Matrix: (Units=1/GPa)
#
#
# Indices 1 2 3 4 5 6 
#
# 1 0.044439 -0.021035 -0.003504 0.000000 0.000000 0.000000
# 2 -0.021035 0.036093 -0.009228 0.000000 0.000000 0.000000
# 3 -0.003504 -0.009228 0.011984 0.000000 0.000000 0.000000
# 4 0.000000 0.000000 0.000000 0.095467 0.000000 0.000000
# 5 0.000000 0.000000 0.000000 0.000000 0.082672 0.000000
# 6 0.000000 0.000000 0.000000 0.000000 0.000000 0.049141
#
#
# Mechanical properties :
#
#
# Convention : Reuss Voigt Hill
#
# Bulk Modulus (GPa) = 40.02534 56.09605 48.06069
# Shear Modulus (GPa) = 12.63726 16.10847 14.37287
#
# Velocity S-wave (km/s) = 2.72574 3.07741 2.90690
# Velocity P-wave (km/s) = 5.78255 6.75331 6.28670
#
# Compressibility (1/GPa) = 0.02498417
#
# Stress axis : x y z
#
# Youngs Moduli (GPa) = 22.50268 27.70642 83.44250
#
# Poissons Ratio (x) = 0.58279 0.29237
# Poissons Ratio (y) = 0.47333 0.76998
# Poissons Ratio (z) = 0.07885 0.25566
#
# Static dielectric constant tensor:
#      x y z
#    x 1.579960 0.000000 0.000000 
#    y 0.000000 1.568490 0.000000 
#    z 0.000000 0.000000 1.565800 
# 
# From -- ./inp_files/33885.got.cif
#   From: 2010.05.17/outbox.cif.g08.bks.cpg/sg51_17_cif.got.tgz:33885.got - 2010.06.03 11:52:47.
