data_PCOD9402625
_publ_section_title
;
Structure prediction by ZEFSAII (Michael W. Deem and Ramdas Pophale) SiO2 
 PCOD9402625
Probable space group: P M M A
;
_chemical_formula_sum "Si O2"
_cell_formula_units_Z 48
_cell_length_a 14.732035
_cell_length_b 15.589411
_cell_length_c 10.783063
_cell_angle_alpha 90.000000
_cell_angle_beta 90.000000
_cell_angle_gamma 90.000000
_cell_volume 2476.478669
_symmetry_space_group_name_H-M "P M M A"
_symmetry_group_IT_number 51
_symmetry_cell_setting 'orthorhombic'
loop_
_space_group_symop_operation_xyz
x,y,z
1/2-x,-y,z
1/2+x,-y,-z
-x,y,-z
-x,-y,-z
1/2+x,y,-z
1/2-x,y,z
x,-y,z
loop_
_atom_site_type_symbol
_atom_site_label
_atom_site_fract_x
_atom_site_fract_y
_atom_site_fract_z
Si Si1 0.100743 0.000000 0.554930
Si Si2 0.139020 0.807783 0.235480
Si Si3 0.934260 0.595480 0.119905
Si Si4 0.150156 0.000000 0.282313
Si Si5 0.999619 0.686547 0.361634
Si Si6 0.355029 0.230297 0.960312
Si Si7 0.358350 0.829048 0.704182
O O1 0.120077 0.916530 0.635254
O O2 0.000000 0.000000 0.500000
O O3 0.158241 0.000000 0.430062
O O4 0.250000 0.802763 0.249349
O O5 0.087715 0.745268 0.330684
O O6 0.109602 0.907172 0.250637
O O7 0.107011 0.779121 0.097999
O O8 0.894774 0.500000 0.131426
O O9 0.866574 0.673238 0.089812
O O10 0.985235 0.620957 0.247573
O O11 0.000000 0.594954 0.000000
O O12 0.250000 0.000000 0.221718
O O13 0.000000 0.648859 0.500000
O O14 0.914976 0.752477 0.356662
O O15 0.250000 0.209003 0.976166
O O16 0.388880 0.170703 0.848632
O O17 0.250000 0.813529 0.700220
#
# Coordination Sequence:
#
# PCOD9402625 Si02
#       7
#     4   8   8   4   8   8   8
#     4  12  22  35  50  76 112 154 201 238 278 336
#     4  10  20  36  56  82 116 153 195 243 289 342
#     4  10  20  37  60  83 111 145 186 235 293 354
#     4  10  20  31  48  71 104 147 186 227 278 324
#     4  11  22  36  58  85 115 152 192 236 290 352
#     4   9  19  36  58  84 110 145 192 239 296 352
#     4  10  21  35  55  80 112 151 196 245 289 340
#
# _framework density 19.382359999999998
#
# number of rings (size 3 to 8) (size 9 to 14) (size 15 to 20)
#    0.000    1.833    1.667    3.250    0.000    3.333 
#    0.000    2.500    0.000    4.500    0.000    2.333 
#    0.000    0.000    0.000    0.000    0.000    0.000 
#
# Total GULP energy -267607.849653 kJ/mol
# GULP energy per Si atom -5575.163534 kJ/mol
# Density = 1.933824 g / cm^3
# Si number density = 19.382360 Si / 1000 Ang^3
#
#
#
# Elastic Constant Matrix: (Units=GPa)
#
#
# Indices 1 2 3 4 5 6 
#
# 1 70.7002 -0.2627 14.5408 0.0000 0.0000 0.0000
# 2 -0.2627 94.1407 43.7062 0.0000 0.0000 0.0000
# 3 14.5408 43.7062 149.1987 0.0000 0.0000 0.0000
# 4 0.0000 0.0000 0.0000 7.9877 0.0000 0.0000
# 5 0.0000 0.0000 0.0000 0.0000 25.7471 0.0000
# 6 0.0000 0.0000 0.0000 0.0000 0.0000 24.7015
#
#
#
# Elastic Compliance Matrix: (Units=1/GPa)
#
#
# Indices 1 2 3 4 5 6 
#
# 1 0.014486 0.000805 -0.001648 0.000000 0.000000 0.000000
# 2 0.000805 0.012339 -0.003693 0.000000 0.000000 0.000000
# 3 -0.001648 -0.003693 0.007945 0.000000 0.000000 0.000000
# 4 0.000000 0.000000 0.000000 0.125193 0.000000 0.000000
# 5 0.000000 0.000000 0.000000 0.000000 0.038839 0.000000
# 6 0.000000 0.000000 0.000000 0.000000 0.000000 0.040483
#
#
# Mechanical properties :
#
#
# Convention : Reuss Voigt Hill
#
# Bulk Modulus (GPa) = 38.91151 47.77867 43.34509
# Shear Modulus (GPa) = 19.46108 28.75763 24.10936
#
# Velocity S-wave (km/s) = 3.17213 3.85606 3.53070
# Velocity P-wave (km/s) = 5.79102 6.67306 6.24762
#
# Compressibility (1/GPa) = 0.02569934
#
# Stress axis : x y z
#
# Youngs Moduli (GPa) = 69.03164 81.04229 125.86651
#
# Poissons Ratio (x) = -0.06527 0.20740
# Poissons Ratio (y) = -0.05560 0.46484
# Poissons Ratio (z) = 0.11375 0.29930
#
# Static dielectric constant tensor:
#      x y z
#    x 1.468240 0.000000 0.000000 
#    y 0.000000 1.657050 0.000000 
#    z 0.000000 0.000000 1.716520 
# 
# From -- ./inp_files/16511.got.cif
#   From: 2010.05.17/outbox.cif.g08.bks.cpg/sg51_9_cif.got.tgz:16511.got - 2010.06.03 11:52:47.
