data_PCOD9402745
_publ_section_title
;
Structure prediction by ZEFSAII (Michael W. Deem and Ramdas Pophale) SiO2 
 PCOD9402745
Probable space group: P M M A
;
_chemical_formula_sum "Si O2"
_cell_formula_units_Z 64
_cell_length_a 9.104143
_cell_length_b 15.381792
_cell_length_c 22.264500
_cell_angle_alpha 90.000000
_cell_angle_beta 90.000000
_cell_angle_gamma 90.000000
_cell_volume 3117.876807
_symmetry_space_group_name_H-M "P M M A"
_symmetry_group_IT_number 51
_symmetry_cell_setting 'orthorhombic'
loop_
_space_group_symop_operation_xyz
x,y,z
1/2-x,-y,z
1/2+x,-y,-z
-x,y,-z
-x,-y,-z
1/2+x,y,-z
1/2-x,y,z
x,-y,z
loop_
_atom_site_type_symbol
_atom_site_label
_atom_site_fract_x
_atom_site_fract_y
_atom_site_fract_z
Si Si1 0.409426 0.342343 0.837113
Si Si2 0.920382 0.599635 0.944031
Si Si3 0.923282 0.169292 0.694040
Si Si4 0.578310 0.403740 0.419849
Si Si5 0.083139 0.862690 0.814064
Si Si6 0.426867 0.216701 0.439129
Si Si7 0.915980 0.896406 0.939818
Si Si8 0.583107 0.654506 0.289673
O O1 0.250000 0.365797 0.863915
O O2 0.538031 0.355362 0.882965
O O3 0.406123 0.241634 0.819292
O O4 0.429816 0.390962 0.774324
O O5 0.750000 0.598545 0.955281
O O6 0.974454 0.500000 0.938220
O O7 0.000000 0.642198 0.000000
O O8 0.750000 0.152148 0.698874
O O9 0.965974 0.164491 0.622809
O O10 0.005602 0.120182 0.749240
O O11 0.961638 0.270674 0.705607
O O12 0.750000 0.392397 0.438500
O O13 0.527681 0.500000 0.438972
O O14 0.487344 0.316655 0.435106
O O15 0.574573 0.403836 0.347689
O O16 0.250000 0.897032 0.814962
O O17 0.997314 0.886627 0.875431
O O18 0.500000 0.180325 0.500000
O O19 0.250000 0.218248 0.443266
O O20 0.750000 0.859687 0.936734
O O21 0.903820 0.000000 0.948558
O O22 0.000000 0.863177 0.000000
O O23 0.750000 0.693904 0.291706
#
# Coordination Sequence:
#
# PCOD9402745 Si02
#       8
#     8   8   8   8   8   8   8   8
#     4   9  18  31  48  70  92 116 150 193 241 294
#     4  10  21  35  48  61  79 107 144 188 241 297
#     4   9  17  30  48  70  95 123 158 202 250 295
#     4   9  17  29  44  61  83 114 153 197 245 301
#     4  10  20  34  54  79 106 138 174 211 253 299
#     4  10  20  32  47  66  90 123 161 205 259 315
#     4  10  21  37  57  82 114 151 186 217 250 291
#     4   8  15  28  44  62  84 110 142 182 233 291
#
# _framework density 20.526789999999998
#
# number of rings (size 3 to 8) (size 9 to 14) (size 15 to 20)
#    0.000    2.625    0.000    2.625    0.000    7.000 
#    0.000    1.250    0.000    0.000    0.000    0.000 
#    0.000    0.500    0.000    1.625    0.000    2.000 
#
# Total GULP energy -356295.118357 kJ/mol
# GULP energy per Si atom -5567.111224 kJ/mol
# Density = 2.048007 g / cm^3
# Si number density = 20.526790 Si / 1000 Ang^3
#
#
#
# Elastic Constant Matrix: (Units=GPa)
#
#
# Indices 1 2 3 4 5 6 
#
# 1 93.9726 4.1611 76.6345 0.0000 0.0000 0.0000
# 2 4.1611 20.4547 12.1527 0.0000 0.0000 0.0000
# 3 76.6345 12.1527 176.5523 0.0000 0.0000 0.0000
# 4 0.0000 0.0000 0.0000 12.9683 0.0000 0.0000
# 5 0.0000 0.0000 0.0000 0.0000 37.9155 0.0000
# 6 0.0000 0.0000 0.0000 0.0000 0.0000 10.5789
#
#
#
# Elastic Compliance Matrix: (Units=1/GPa)
#
#
# Indices 1 2 3 4 5 6 
#
# 1 0.016489 0.000936 -0.007222 0.000000 0.000000 0.000000
# 2 0.000936 0.051026 -0.003919 0.000000 0.000000 0.000000
# 3 -0.007222 -0.003919 0.009068 0.000000 0.000000 0.000000
# 4 0.000000 0.000000 0.000000 0.077111 0.000000 0.000000
# 5 0.000000 0.000000 0.000000 0.000000 0.026374 0.000000
# 6 0.000000 0.000000 0.000000 0.000000 0.000000 0.094528
#
#
# Mechanical properties :
#
#
# Convention : Reuss Voigt Hill
#
# Bulk Modulus (GPa) = 17.80136 52.98624 35.39380
# Shear Modulus (GPa) = 15.93724 25.49465 20.71595
#
# Velocity S-wave (km/s) = 2.78944 3.52805 3.18026
# Velocity P-wave (km/s) = 4.36643 6.51655 5.54667
#
# Compressibility (1/GPa) = 0.05617549
#
# Stress axis : x y z
#
# Youngs Moduli (GPa) = 60.64535 19.59777 110.27204
#
# Poissons Ratio (x) = -0.01835 0.79636
# Poissons Ratio (y) = -0.05678 0.43212
# Poissons Ratio (z) = 0.43797 0.07680
#
# Static dielectric constant tensor:
#      x y z
#    x 1.742710 0.000000 0.000000 
#    y 0.000000 1.745880 0.000000 
#    z 0.000000 0.000000 1.815950 
# 
# From -- ./inp_files/32302.got.cif
#   From: 2010.05.17/outbox.cif.g08.bks.cpg/sg51_17_cif.got.tgz:32302.got - 2010.06.03 11:52:47.
