data_PCOD9402698
_publ_section_title
;
Structure prediction by ZEFSAII (Michael W. Deem and Ramdas Pophale) SiO2 
 PCOD9402698
Probable space group: P M M A
;
_chemical_formula_sum "Si O2"
_cell_formula_units_Z 52
_cell_length_a 8.960733
_cell_length_b 20.538446
_cell_length_c 15.831349
_cell_angle_alpha 90.000000
_cell_angle_beta 90.000000
_cell_angle_gamma 90.000000
_cell_volume 2913.594043
_symmetry_space_group_name_H-M "P M M A"
_symmetry_group_IT_number 51
_symmetry_cell_setting 'orthorhombic'
loop_
_space_group_symop_operation_xyz
x,y,z
1/2-x,-y,z
1/2+x,-y,-z
-x,y,-z
-x,-y,-z
1/2+x,y,-z
1/2-x,y,z
x,-y,z
loop_
_atom_site_type_symbol
_atom_site_label
_atom_site_fract_x
_atom_site_fract_y
_atom_site_fract_z
Si Si1 0.426441 0.931027 0.091278
Si Si2 0.929390 0.423524 0.089309
Si Si3 0.069239 0.325217 0.764128
Si Si4 0.584355 0.186766 0.174638
Si Si5 0.918875 0.854590 0.368390
Si Si6 0.071547 0.721400 0.411815
Si Si7 0.430347 0.000000 0.592032
O O1 0.250000 0.931000 0.083709
O O2 0.478171 0.865185 0.133419
O O3 0.471551 0.000000 0.134974
O O4 0.500000 0.932202 0.000000
O O5 0.750000 0.417228 0.082227
O O6 0.966808 0.500000 0.098217
O O7 0.973288 0.385007 0.174788
O O8 0.000000 0.400632 0.000000
O O9 0.250000 0.325569 0.751065
O O10 0.033812 0.261014 0.819810
O O11 0.993347 0.314727 0.672314
O O12 0.750000 0.183491 0.135533
O O13 0.595841 0.164690 0.271300
O O14 0.750000 0.851196 0.406275
O O15 0.022287 0.797678 0.405254
O O16 0.974465 0.929112 0.371719
O O17 0.250000 0.716125 0.413420
O O18 0.000000 0.696841 0.500000
O O19 0.500000 0.000000 0.500000
O O20 0.250000 0.000000 0.592786
#
# Coordination Sequence:
#
# PCOD9402698 Si02
#       7
#     8   8   8   8   8   8   4
#     4  10  21  35  49  66  89 121 164 213 261 314
#     4   9  18  34  58  87 119 153 183 214 258 313
#     4   9  19  36  55  80 112 143 180 221 263 315
#     4   9  18  32  51  71  95 127 163 208 258 307
#     4   9  19  34  50  70  96 128 168 211 262 321
#     4  11  21  34  54  77 104 140 181 226 275 323
#     4  10  20  32  46  66  91 122 159 200 251 308
#
# _framework density 17.847373000000001
#
# number of rings (size 3 to 8) (size 9 to 14) (size 15 to 20)
#    0.000    2.462    0.000    3.231    1.077    6.462 
#    0.000    1.538    0.000    0.462    0.000    0.000 
#    0.000    0.000    0.000    0.000    0.000    0.000 
#
# Total GULP energy -289502.294985 kJ/mol
# GULP energy per Si atom -5567.351827 kJ/mol
# Density = 1.780675 g / cm^3
# Si number density = 17.847373 Si / 1000 Ang^3
#
#
#
# Elastic Constant Matrix: (Units=GPa)
#
#
# Indices 1 2 3 4 5 6 
#
# 1 65.7309 34.6282 45.5903 0.0000 0.0000 0.0000
# 2 34.6282 92.6434 57.1891 0.0000 0.0000 0.0000
# 3 45.5903 57.1891 87.0764 0.0000 0.0000 0.0000
# 4 0.0000 0.0000 0.0000 314.4179 0.0000 0.0000
# 5 0.0000 0.0000 0.0000 0.0000 30.5438 0.0000
# 6 0.0000 0.0000 0.0000 0.0000 0.0000 18.9325
#
#
#
# Elastic Compliance Matrix: (Units=1/GPa)
#
#
# Indices 1 2 3 4 5 6 
#
# 1 0.024118 -0.002052 -0.011280 0.000000 0.000000 0.000000
# 2 -0.002052 0.018329 -0.010964 0.000000 0.000000 0.000000
# 3 -0.011280 -0.010964 0.024591 0.000000 0.000000 0.000000
# 4 0.000000 0.000000 0.000000 0.003180 0.000000 0.000000
# 5 0.000000 0.000000 0.000000 0.000000 0.032740 0.000000
# 6 0.000000 0.000000 0.000000 0.000000 0.000000 0.052819
#
#
# Mechanical properties :
#
#
# Convention : Reuss Voigt Hill
#
# Bulk Modulus (GPa) = 54.20951 57.80733 56.00842
# Shear Modulus (GPa) = 23.75110 79.98172 51.86641
#
# Velocity S-wave (km/s) = 3.65196 6.70161 5.39668
# Velocity P-wave (km/s) = 6.94423 9.60949 8.38345
#
# Compressibility (1/GPa) = 0.01844695
#
# Stress axis : x y z
#
# Youngs Moduli (GPa) = 41.46268 54.55882 40.66603
#
# Poissons Ratio (x) = 0.11194 0.45871
# Poissons Ratio (y) = 0.08507 0.44585
# Poissons Ratio (z) = 0.46770 0.59816
#
# Static dielectric constant tensor:
#      x y z
#    x 1.622620 0.000000 0.000000 
#    y 0.000000 1.680540 0.000000 
#    z 0.000000 0.000000 1.605000 
# 
# From -- ./inp_files/21647.got.cif
#   From: 2010.05.17/outbox.cif.g08.bks.cpg/sg51_11_cif.got.tgz:21647.got - 2010.06.03 11:52:47.
