data_PCOD9402437
_publ_section_title
;
Structure prediction by ZEFSAII (Michael W. Deem and Ramdas Pophale) SiO2 
 PCOD9402437
Probable space group: P M M A
;
_chemical_formula_sum "Si O2"
_cell_formula_units_Z 48
_cell_length_a 9.689872
_cell_length_b 9.239322
_cell_length_c 30.370810
_cell_angle_alpha 90.000000
_cell_angle_beta 90.000000
_cell_angle_gamma 90.000000
_cell_volume 2719.033248
_symmetry_space_group_name_H-M "P M M A"
_symmetry_group_IT_number 51
_symmetry_cell_setting 'orthorhombic'
loop_
_space_group_symop_operation_xyz
x,y,z
1/2-x,-y,z
1/2+x,-y,-z
-x,y,-z
-x,-y,-z
1/2+x,y,-z
1/2-x,y,z
x,-y,z
loop_
_atom_site_type_symbol
_atom_site_label
_atom_site_fract_x
_atom_site_fract_y
_atom_site_fract_z
Si Si1 0.016055 0.331267 0.398468
Si Si2 0.910899 0.823889 0.957611
Si Si3 0.750000 0.337944 0.458837
Si Si4 0.413908 0.325422 0.205003
Si Si5 0.750000 0.170526 0.548838
Si Si6 0.912726 0.825187 0.128860
Si Si7 0.590746 0.674813 0.695923
O O1 0.063395 0.500000 0.398208
O O2 0.121730 0.233289 0.424543
O O3 0.005056 0.285152 0.347371
O O4 0.878670 0.324760 0.426642
O O5 0.750000 0.775492 0.957516
O O6 0.997351 0.783649 0.914135
O O7 0.906634 0.000000 0.958812
O O8 0.000000 0.776698 0.000000
O O9 0.750000 0.500000 0.478725
O O10 0.750000 0.229021 0.499129
O O11 0.250000 0.294313 0.197708
O O12 0.429201 0.500000 0.202001
O O13 0.512257 0.248270 0.170214
O O14 0.448787 0.276696 0.255078
O O15 0.750000 0.000000 0.548602
O O16 0.750000 0.786504 0.124942
O O17 0.919244 0.000000 0.132787
O O18 0.750000 0.718121 0.687717
O O19 0.588996 0.500000 0.698673
#
# Coordination Sequence:
#
# PCOD9402437 Si02
#       7
#     8   8   4   8   4   8   8
#     4  10  19  36  59  80 103 132 171 219 261 303
#     4   9  16  27  46  72 101 135 178 226 271 310
#     4  10  22  36  54  82 106 132 172 216 263 308
#     4   9  18  33  54  79 103 131 170 215 264 316
#     4  12  24  36  54  78 106 142 178 206 251 314
#     4  10  20  33  49  73 107 143 178 215 259 312
#     4   8  14  29  55  80  99 125 165 214 261 302
#
# _framework density 17.653333
#
# number of rings (size 3 to 8) (size 9 to 14) (size 15 to 20)
#    0.000    2.500    0.833    3.250    0.000    6.000 
#    1.500    0.833    0.000    0.500    0.000    0.000 
#    0.000    0.000    0.000    0.000    0.000    0.000 
#
# Total GULP energy -267468.641664 kJ/mol
# GULP energy per Si atom -5572.263368 kJ/mol
# Density = 1.761315 g / cm^3
# Si number density = 17.653333 Si / 1000 Ang^3
#
#
#
# Elastic Constant Matrix: (Units=GPa)
#
#
# Indices 1 2 3 4 5 6 
#
# 1 120.8125 49.6482 81.3677 0.0000 0.0000 0.0000
# 2 49.6482 41.3356 48.7899 0.0000 0.0000 0.0000
# 3 81.3677 48.7899 177.5663 0.0000 0.0000 0.0000
# 4 0.0000 0.0000 0.0000 34.2461 0.0000 0.0000
# 5 0.0000 0.0000 0.0000 0.0000 -3.8832 0.0000
# 6 0.0000 0.0000 0.0000 0.0000 0.0000 -4.4306
#
#
#
# Elastic Compliance Matrix: (Units=1/GPa)
#
#
# Indices 1 2 3 4 5 6 
#
# 1 0.017587 -0.017185 -0.003337 0.000000 0.000000 0.000000
# 2 -0.017185 0.052596 -0.006577 0.000000 0.000000 0.000000
# 3 -0.003337 -0.006577 0.008968 0.000000 0.000000 0.000000
# 4 0.000000 0.000000 0.000000 0.029200 0.000000 0.000000
# 5 0.000000 0.000000 0.000000 0.000000 -0.257518 0.000000
# 6 0.000000 0.000000 0.000000 0.000000 0.000000 -0.225702
#
#
# Mechanical properties :
#
#
# Convention : Reuss Voigt Hill
#
# Bulk Modulus (GPa) = 40.07518 77.70289 58.88904
# Shear Modulus (GPa) = -16.00753 15.84702 -0.08026
#
# Velocity S-wave (km/s) = -3.01453 2.99938 -0.21345
# Velocity P-wave (km/s) = 3.26097 7.49043 5.77670
#
# Compressibility (1/GPa) = 0.02495310
#
# Stress axis : x y z
#
# Youngs Moduli (GPa) = 56.86001 19.01278 111.50619
#
# Poissons Ratio (x) = 0.32673 0.37212
# Poissons Ratio (y) = 0.97713 0.73339
# Poissons Ratio (z) = 0.18975 0.12505
#
# Static dielectric constant tensor:
#      x y z
#    x 1.578150 0.000000 0.000000 
#    y 0.000000 1.590500 0.000000 
#    z 0.000000 0.000000 1.608500 
# 
# From -- ./inp_files/37119.got.cif
#   From: 2010.05.17/outbox.cif.g08.bks.cpg/sg51_19_cif.got.tgz:37119.got - 2010.06.03 11:52:47.
