data_PCOD9402093
_publ_section_title
;
Structure prediction by ZEFSAII (Michael W. Deem and Ramdas Pophale) SiO2 
 PCOD9402093
Probable space group: P M M A
;
_chemical_formula_sum "Si O2"
_cell_formula_units_Z 64
_cell_length_a 33.725964
_cell_length_b 9.166342
_cell_length_c 11.723765
_cell_angle_alpha 90.000000
_cell_angle_beta 90.000000
_cell_angle_gamma 90.000000
_cell_volume 3624.328328
_symmetry_space_group_name_H-M "P M M A"
_symmetry_group_IT_number 51
_symmetry_cell_setting 'orthorhombic'
loop_
_space_group_symop_operation_xyz
x,y,z
1/2-x,-y,z
1/2+x,-y,-z
-x,y,-z
-x,-y,-z
1/2+x,y,-z
1/2-x,y,z
x,-y,z
loop_
_atom_site_type_symbol
_atom_site_label
_atom_site_fract_x
_atom_site_fract_y
_atom_site_fract_z
Si Si1 0.938987 0.170112 0.531995
Si Si2 0.204120 0.174630 0.754399
Si Si3 0.645569 0.170212 0.654276
Si Si4 0.055344 0.174618 0.732800
Si Si5 0.202685 0.330663 0.514952
Si Si6 0.893263 0.674635 0.865482
Si Si7 0.524270 0.673677 0.745011
Si Si8 0.628158 0.174923 0.101834
O O1 0.893831 0.179313 0.575681
O O2 0.941094 0.215588 0.400560
O O3 0.964708 0.263699 0.619972
O O4 0.951340 0.000000 0.540838
O O5 0.250000 0.207718 0.784919
O O6 0.194252 0.256294 0.636855
O O7 0.171603 0.212418 0.849263
O O8 0.201349 0.000000 0.734612
O O9 0.680523 0.244854 0.584334
O O10 0.634918 0.254410 0.769843
O O11 0.653452 0.000000 0.676756
O O12 0.095158 0.208652 0.802109
O O13 0.016751 0.253625 0.782294
O O14 0.049728 0.000000 0.737444
O O15 0.250000 0.323638 0.498852
O O16 0.190506 0.500000 0.515941
O O17 0.889331 0.500000 0.865187
O O18 0.938376 0.710329 0.826104
O O19 0.882859 0.741295 0.987274
O O20 0.520444 0.500000 0.740300
O O21 0.627099 0.000000 0.081641
#
# Coordination Sequence:
#
# PCOD9402093 Si02
#       8
#     8   8   8   8   8   8   8   8
#     4   9  18  33  53  77 104 134 170 214 265 318
#     4   9  18  35  59  84 110 139 172 213 259 308
#     4  10  19  34  57  79 102 137 179 220 262 311
#     4  10  20  33  51  76 106 137 171 215 264 315
#     4  10  20  33  52  82 117 145 170 207 259 318
#     4  10  22  39  55  73 102 140 180 223 270 317
#     4  10  21  35  51  74 104 137 175 218 264 316
#     4  10  21  37  56  79 105 137 182 226 263 311
#
# _framework density 17.658443999999999
#
# number of rings (size 3 to 8) (size 9 to 14) (size 15 to 20)
#    0.000    2.250    0.000    2.625    0.000    8.250 
#    0.000    4.375    0.000    2.250    0.000    0.000 
#    0.000    0.000    0.000    0.000    0.000    0.000 
#
# Total GULP energy -357297.107515 kJ/mol
# GULP energy per Si atom -5582.767305 kJ/mol
# Density = 1.761825 g / cm^3
# Si number density = 17.658444 Si / 1000 Ang^3
#
#
#
# Elastic Constant Matrix: (Units=GPa)
#
#
# Indices 1 2 3 4 5 6 
#
# 1 85.8923 52.4018 72.9528 0.0000 0.0000 0.0000
# 2 52.4018 53.8098 48.3488 0.0000 0.0000 0.0000
# 3 72.9528 48.3488 95.5624 0.0000 0.0000 0.0000
# 4 0.0000 0.0000 0.0000 0.7130 0.0000 0.0000
# 5 0.0000 0.0000 0.0000 0.0000 17.2100 0.0000
# 6 0.0000 0.0000 0.0000 0.0000 0.0000 25.8502
#
#
#
# Elastic Compliance Matrix: (Units=1/GPa)
#
#
# Indices 1 2 3 4 5 6 
#
# 1 0.045409 -0.023970 -0.022538 0.000000 0.000000 0.000000
# 2 -0.023970 0.046727 -0.005342 0.000000 0.000000 0.000000
# 3 -0.022538 -0.005342 0.030373 0.000000 0.000000 0.000000
# 4 0.000000 0.000000 0.000000 1.402588 0.000000 0.000000
# 5 0.000000 0.000000 0.000000 0.000000 0.058106 0.000000
# 6 0.000000 0.000000 0.000000 0.000000 0.000000 0.038684
#
#
# Mechanical properties :
#
#
# Convention : Reuss Voigt Hill
#
# Bulk Modulus (GPa) = 53.16833 64.74126 58.95479
# Shear Modulus (GPa) = 2.88707 12.85873 7.87290
#
# Velocity S-wave (km/s) = 1.28004 2.70143 2.11379
# Velocity P-wave (km/s) = 5.68853 6.81711 6.27823
#
# Compressibility (1/GPa) = 0.01880819
#
# Stress axis : x y z
#
# Youngs Moduli (GPa) = 22.02193 21.40099 32.92423
#
# Poissons Ratio (x) = 0.51299 0.74205
# Poissons Ratio (y) = 0.52787 0.17588
# Poissons Ratio (z) = 0.49633 0.11432
#
# Static dielectric constant tensor:
#      x y z
#    x 1.607520 0.000000 0.000000 
#    y 0.000000 1.588850 0.000000 
#    z 0.000000 0.000000 1.569040 
# 
# From -- ./inp_files/19606.got.cif
#   From: 2010.05.17/outbox.cif.g08.bks.cpg/sg51_10_cif.got.tgz:19606.got - 2010.06.03 11:52:47.
