data_PCOD9402329
_publ_section_title
;
Structure prediction by ZEFSAII (Michael W. Deem and Ramdas Pophale) SiO2 
 PCOD9402329
Probable space group: P M M A
;
_chemical_formula_sum "Si O2"
_cell_formula_units_Z 48
_cell_length_a 35.596015
_cell_length_b 7.835569
_cell_length_c 9.002637
_cell_angle_alpha 90.000000
_cell_angle_beta 90.000000
_cell_angle_gamma 90.000000
_cell_volume 2510.970784
_symmetry_space_group_name_H-M "P M M A"
_symmetry_group_IT_number 51
_symmetry_cell_setting 'orthorhombic'
loop_
_space_group_symop_operation_xyz
x,y,z
1/2-x,-y,z
1/2+x,-y,-z
-x,y,-z
-x,-y,-z
1/2+x,y,-z
1/2-x,y,z
x,-y,z
loop_
_atom_site_type_symbol
_atom_site_label
_atom_site_fract_x
_atom_site_fract_y
_atom_site_fract_z
Si Si1 0.250000 0.206911 0.833158
Si Si2 0.457325 0.500000 0.818085
Si Si3 0.750000 0.701953 0.823984
Si Si4 0.901910 0.801140 0.181299
Si Si5 0.172973 0.300366 0.315733
Si Si6 0.043156 0.500000 0.180024
Si Si7 0.324224 0.793858 0.656022
Si Si8 0.904011 0.190016 0.825433
O O1 0.212515 0.261826 0.746803
O O2 0.250000 0.000000 0.838721
O O3 0.250000 0.272303 0.000513
O O4 0.434196 0.331382 0.773181
O O5 0.500327 0.500000 0.766483
O O6 0.458138 0.500000 0.999105
O O7 0.750000 0.500000 0.788801
O O8 0.711431 0.771368 0.754650
O O9 0.862548 0.753280 0.257250
O O10 0.910378 0.000000 0.216414
O O11 0.897686 0.789345 0.002653
O O12 0.169557 0.500000 0.274340
O O13 0.175360 0.282343 0.492236
O O14 0.135821 0.210956 0.254559
O O15 0.066828 0.333870 0.224730
O O16 0.322525 0.000000 0.642466
O O17 0.918987 0.000000 0.799846
#
# Coordination Sequence:
#
# PCOD9402329 Si02
#       8
#     4   4   4   8   8   4   8   8
#     4  10  21  38  58  80 110 146 191 235 275 332
#     4   9  18  32  57  82 117 146 177 227 284 329
#     4  10  23  38  54  80 114 146 185 235 277 324
#     4   9  19  34  55  83 112 146 188 229 278 335
#     4  11  22  36  54  80 113 149 191 232 276 332
#     4   9  18  34  53  88 115 142 183 227 274 347
#     4  10  21  36  54  80 111 145 189 234 276 329
#     4  10  19  35  58  82 113 149 184 232 282 327
#
# _framework density 19.116114
#
# number of rings (size 3 to 8) (size 9 to 14) (size 15 to 20)
#    0.000    2.167    0.833    2.000    1.167    4.000 
#    0.000    3.333    0.000    2.000    0.000    3.500 
#    0.000    0.000    0.000    0.000    0.000    0.000 
#
# Total GULP energy -268043.803380 kJ/mol
# GULP energy per Si atom -5584.245904 kJ/mol
# Density = 1.907260 g / cm^3
# Si number density = 19.116114 Si / 1000 Ang^3
#
#
#
# Elastic Constant Matrix: (Units=GPa)
#
#
# Indices 1 2 3 4 5 6 
#
# 1 183.3537 72.4666 47.3214 0.0000 0.0000 0.0000
# 2 72.4666 81.4441 29.0321 0.0000 0.0000 0.0000
# 3 47.3214 29.0321 47.4903 0.0000 0.0000 0.0000
# 4 0.0000 0.0000 0.0000 23.1591 0.0000 0.0000
# 5 0.0000 0.0000 0.0000 0.0000 -12.2241 0.0000
# 6 0.0000 0.0000 0.0000 0.0000 0.0000 5.2576
#
#
#
# Elastic Compliance Matrix: (Units=1/GPa)
#
#
# Indices 1 2 3 4 5 6 
#
# 1 0.009395 -0.006422 -0.005436 0.000000 0.000000 0.000000
# 2 -0.006422 0.020089 -0.005882 0.000000 0.000000 0.000000
# 3 -0.005436 -0.005882 0.030069 0.000000 0.000000 0.000000
# 4 0.000000 0.000000 0.000000 0.043180 0.000000 0.000000
# 5 0.000000 0.000000 0.000000 0.000000 -0.081805 0.000000
# 6 0.000000 0.000000 0.000000 0.000000 0.000000 0.190202
#
#
# Mechanical properties :
#
#
# Convention : Reuss Voigt Hill
#
# Bulk Modulus (GPa) = 41.53849 67.76981 54.65415
# Shear Modulus (GPa) = 19.63614 14.13636 16.88625
#
# Velocity S-wave (km/s) = 3.20848 2.72232 2.97535
# Velocity P-wave (km/s) = 5.95840 6.73870 6.36053
#
# Compressibility (1/GPa) = 0.02407406
#
# Stress axis : x y z
#
# Youngs Moduli (GPa) = 106.44153 49.77869 33.25656
#
# Poissons Ratio (x) = 0.31966 0.18077
# Poissons Ratio (y) = 0.68352 0.19562
# Poissons Ratio (z) = 0.57859 0.29281
#
# Static dielectric constant tensor:
#      x y z
#    x 1.637910 0.000000 0.000000 
#    y 0.000000 1.686980 0.000000 
#    z 0.000000 0.000000 1.620840 
# 
# From -- ./inp_files/13000.got.cif
#   From: 2010.05.17/outbox.cif.g08.bks.cpg/sg51_7_cif.got.tgz:13000.got - 2010.06.03 11:52:47.
