data_PCOD9402503
_publ_section_title
;
Structure prediction by ZEFSAII (Michael W. Deem and Ramdas Pophale) SiO2 
 PCOD9402503
Probable space group: P M M A
;
_chemical_formula_sum "Si O2"
_cell_formula_units_Z 64
_cell_length_a 18.897666
_cell_length_b 23.888483
_cell_length_c 7.476157
_cell_angle_alpha 90.000000
_cell_angle_beta 90.000000
_cell_angle_gamma 90.000000
_cell_volume 3375.010695
_symmetry_space_group_name_H-M "P M M A"
_symmetry_group_IT_number 51
_symmetry_cell_setting 'orthorhombic'
loop_
_space_group_symop_operation_xyz
x,y,z
1/2-x,-y,z
1/2+x,-y,-z
-x,y,-z
-x,-y,-z
1/2+x,y,-z
1/2-x,y,z
x,-y,z
loop_
_atom_site_type_symbol
_atom_site_label
_atom_site_fract_x
_atom_site_fract_y
_atom_site_fract_z
Si Si1 0.166373 0.132739 0.248701
Si Si2 0.664192 0.437446 0.588532
Si Si3 0.165937 0.360414 0.102125
Si Si4 0.919644 0.064918 0.038509
Si Si5 0.578258 0.111782 0.417932
Si Si6 0.908482 0.246452 0.826873
Si Si7 0.930903 0.235103 0.253756
Si Si8 0.165087 0.660086 0.686886
O O1 0.250000 0.131122 0.244375
O O2 0.133994 0.104220 0.424394
O O3 0.138299 0.196425 0.249771
O O4 0.133058 0.102024 0.077380
O O5 0.750000 0.439977 0.579826
O O6 0.637390 0.500000 0.552286
O O7 0.645135 0.415066 0.785901
O O8 0.643997 0.389212 0.448340
O O9 0.250000 0.328635 0.667431
O O10 0.127552 0.306637 0.184377
O O11 0.152623 0.361082 0.890346
O O12 0.908707 0.072422 0.248966
O O13 0.914537 0.000000 0.986028
O O14 0.000000 0.084870 0.000000
O O15 0.500000 0.103561 0.500000
O O16 0.582768 0.175029 0.341019
O O17 0.985306 0.247010 0.735617
O O18 0.916121 0.233899 0.039891
O O19 0.881323 0.283799 0.333767
O O20 0.250000 0.647346 0.125333
#
# Coordination Sequence:
#
# PCOD9402503 Si02
#       8
#     8   8   8   8   8   8   8   8
#     4  12  26  42  65  98 132 167 208 264 323 372
#     4   9  18  32  51  76 108 147 192 242 298 365
#     4   9  18  32  50  77 110 144 188 243 298 355
#     4  11  24  46  73  95 125 172 219 260 308 376
#     4  12  23  40  66  98 130 164 215 262 311 377
#     4  10  19  37  60  85 120 161 200 247 306 374
#     4  10  20  35  61  87 120 160 201 250 304 375
#     4   9  19  33  51  80 114 148 193 248 305 364
#
# _framework density 18.962904000000002
#
# number of rings (size 3 to 8) (size 9 to 14) (size 15 to 20)
#    0.000    1.750    3.750    0.375    1.750    3.000 
#    0.000    2.500    0.000    1.500    0.000    3.500 
#    0.000    0.000    0.000    0.000    0.000    0.000 
#
# Total GULP energy -357486.636064 kJ/mol
# GULP energy per Si atom -5585.728689 kJ/mol
# Density = 1.891974 g / cm^3
# Si number density = 18.962904 Si / 1000 Ang^3
#
#
#
# Elastic Constant Matrix: (Units=GPa)
#
#
# Indices 1 2 3 4 5 6 
#
# 1 96.2498 31.5128 31.2473 0.0000 0.0000 0.0000
# 2 31.5128 53.6208 11.8821 0.0000 0.0000 0.0000
# 3 31.2473 11.8821 61.4651 0.0000 0.0000 0.0000
# 4 0.0000 0.0000 0.0000 28.2541 0.0000 0.0000
# 5 0.0000 0.0000 0.0000 0.0000 20.1033 0.0000
# 6 0.0000 0.0000 0.0000 0.0000 0.0000 -207.2374
#
#
#
# Elastic Compliance Matrix: (Units=1/GPa)
#
#
# Indices 1 2 3 4 5 6 
#
# 1 0.014766 -0.007329 -0.006090 0.000000 0.000000 0.000000
# 2 -0.007329 0.023121 -0.000744 0.000000 0.000000 0.000000
# 3 -0.006090 -0.000744 0.019509 0.000000 0.000000 0.000000
# 4 0.000000 0.000000 0.000000 0.035393 0.000000 0.000000
# 5 0.000000 0.000000 0.000000 0.000000 0.049743 0.000000
# 6 0.000000 0.000000 0.000000 0.000000 0.000000 -0.004825
#
#
# Mechanical properties :
#
#
# Convention : Reuss Voigt Hill
#
# Bulk Modulus (GPa) = 34.39792 40.06890 37.23341
# Shear Modulus (GPa) = 28.45383 -22.66310 2.89536
#
# Velocity S-wave (km/s) = 3.87783 -3.46081 1.23700
# Velocity P-wave (km/s) = 6.18297 2.28175 4.66023
#
# Compressibility (1/GPa) = 0.02907152
#
# Stress axis : x y z
#
# Youngs Moduli (GPa) = 67.72246 43.25012 51.25776
#
# Poissons Ratio (x) = 0.31696 0.31216
# Poissons Ratio (y) = 0.49631 0.03814
# Poissons Ratio (z) = 0.41243 0.03218
#
# Static dielectric constant tensor:
#      x y z
#    x 1.627430 0.000000 0.000000 
#    y 0.000000 1.637010 0.000000 
#    z 0.000000 0.000000 1.695390 
# 
# From -- ./inp_files/10020.got.cif
#   From: 2010.05.17/outbox.cif.g08.bks.cpg/sg51_6_cif.got.tgz:10020.got - 2010.06.03 11:52:47.
