data_PCOD9402294
_publ_section_title
;
Structure prediction by ZEFSAII (Michael W. Deem and Ramdas Pophale) SiO2 
 PCOD9402294
Probable space group: P M M A
;
_chemical_formula_sum "Si O2"
_cell_formula_units_Z 56
_cell_length_a 16.095772
_cell_length_b 19.280995
_cell_length_c 9.616792
_cell_angle_alpha 90.000000
_cell_angle_beta 90.000000
_cell_angle_gamma 90.000000
_cell_volume 2984.499266
_symmetry_space_group_name_H-M "P M M A"
_symmetry_group_IT_number 51
_symmetry_cell_setting 'orthorhombic'
loop_
_space_group_symop_operation_xyz
x,y,z
1/2-x,-y,z
1/2+x,-y,-z
-x,y,-z
-x,-y,-z
1/2+x,y,-z
1/2-x,y,z
x,-y,z
loop_
_atom_site_type_symbol
_atom_site_label
_atom_site_fract_x
_atom_site_fract_y
_atom_site_fract_z
Si Si1 0.464073 0.843135 0.348663
Si Si2 0.655658 0.275231 0.552017
Si Si3 0.348401 0.918361 0.138478
Si Si4 0.528128 0.421313 0.154762
Si Si5 0.584656 0.576862 0.590475
Si Si6 0.343248 0.695771 0.763677
Si Si7 0.577408 0.185448 0.087599
O O1 0.500000 0.863127 0.500000
O O2 0.414587 0.770137 0.371498
O O3 0.396868 0.893652 0.276761
O O4 0.536781 0.838334 0.233508
O O5 0.750000 0.255097 0.591141
O O6 0.642593 0.357351 0.571616
O O7 0.645028 0.267738 0.386013
O O8 0.250000 0.905714 0.151540
O O9 0.362019 0.000000 0.116284
O O10 0.384335 0.874815 0.007900
O O11 0.562730 0.500000 0.157686
O O12 0.447700 0.421884 0.252406
O O13 0.591928 0.365550 0.213850
O O14 0.500000 0.404373 0.000000
O O15 0.500000 0.585553 0.500000
O O16 0.618492 0.500000 0.556886
O O17 0.250000 0.668406 0.768134
O O18 0.358168 0.754329 0.878811
O O19 0.500000 0.215156 0.000000
#
# Coordination Sequence:
#
# PCOD9402294 Si02
#       7
#     8   8   8   8   8   8   8
#     4  11  21  38  63  90 121 159 200 242 291 350
#     4  11  22  35  56  86 122 154 193 252 303 347
#     4  10  23  44  66  91 125 159 193 239 296 354
#     4  10  21  37  55  78 109 149 193 243 299 351
#     4  10  19  35  57  78 108 151 200 246 292 351
#     4  11  21  34  55  84 115 149 194 245 296 353
#     4  10  21  37  62  87 116 155 197 243 285 346
#
# _framework density 18.763617
#
# number of rings (size 3 to 8) (size 9 to 14) (size 15 to 20)
#    0.000    1.571    2.857    2.571    0.000    4.571 
#    0.000    5.000    0.000    4.286    0.000    0.000 
#    0.000    0.000    0.000    0.000    0.000    0.000 
#
# Total GULP energy -312447.211306 kJ/mol
# GULP energy per Si atom -5579.414488 kJ/mol
# Density = 1.872091 g / cm^3
# Si number density = 18.763617 Si / 1000 Ang^3
#
#
#
# Elastic Constant Matrix: (Units=GPa)
#
#
# Indices 1 2 3 4 5 6 
#
# 1 69.7426 41.6588 28.2327 0.0000 0.0000 0.0000
# 2 41.6588 90.6713 21.9293 0.0000 0.0000 0.0000
# 3 28.2327 21.9293 104.9818 0.0000 0.0000 0.0000
# 4 0.0000 0.0000 0.0000 24.0585 0.0000 0.0000
# 5 0.0000 0.0000 0.0000 0.0000 25.0085 0.0000
# 6 0.0000 0.0000 0.0000 0.0000 0.0000 30.8943
#
#
#
# Elastic Compliance Matrix: (Units=1/GPa)
#
#
# Indices 1 2 3 4 5 6 
#
# 1 0.021144 -0.008783 -0.003852 0.000000 0.000000 0.000000
# 2 -0.008783 0.015264 -0.000826 0.000000 0.000000 0.000000
# 3 -0.003852 -0.000826 0.010734 0.000000 0.000000 0.000000
# 4 0.000000 0.000000 0.000000 0.041565 0.000000 0.000000
# 5 0.000000 0.000000 0.000000 0.000000 0.039986 0.000000
# 6 0.000000 0.000000 0.000000 0.000000 0.000000 0.032368
#
#
# Mechanical properties :
#
#
# Convention : Reuss Voigt Hill
#
# Bulk Modulus (GPa) = 49.45646 49.89304 49.67475
# Shear Modulus (GPa) = 25.67736 27.56392 26.62064
#
# Velocity S-wave (km/s) = 3.70329 3.83692 3.77070
# Velocity P-wave (km/s) = 6.68586 6.80275 6.74455
#
# Compressibility (1/GPa) = 0.02021980
#
# Stress axis : x y z
#
# Youngs Moduli (GPa) = 47.29500 65.51333 93.16291
#
# Poissons Ratio (x) = 0.57540 0.35882
# Poissons Ratio (y) = 0.41539 0.07699
# Poissons Ratio (z) = 0.18216 0.05414
#
# Static dielectric constant tensor:
#      x y z
#    x 1.668940 0.000000 0.000000 
#    y 0.000000 1.653180 0.000000 
#    z 0.000000 0.000000 1.679050 
# 
# From -- ./inp_files/8586.got.cif
#   From: 2010.05.17/outbox.cif.g08.bks.cpg/sg51_5_cif.got.tgz:8586.got - 2010.06.03 11:52:47.
