data_PCOD9402039
_publ_section_title
;
Structure prediction by ZEFSAII (Michael W. Deem and Ramdas Pophale) SiO2 
 PCOD9402039
Probable space group: P M M A
;
_chemical_formula_sum "Si O2"
_cell_formula_units_Z 48
_cell_length_a 8.094510
_cell_length_b 32.576279
_cell_length_c 9.648356
_cell_angle_alpha 90.000000
_cell_angle_beta 90.000000
_cell_angle_gamma 90.000000
_cell_volume 2544.165501
_symmetry_space_group_name_H-M "P M M A"
_symmetry_group_IT_number 51
_symmetry_cell_setting 'orthorhombic'
loop_
_space_group_symop_operation_xyz
x,y,z
1/2-x,-y,z
1/2+x,-y,-z
-x,y,-z
-x,-y,-z
1/2+x,y,-z
1/2-x,y,z
x,-y,z
loop_
_atom_site_type_symbol
_atom_site_label
_atom_site_fract_x
_atom_site_fract_y
_atom_site_fract_z
Si Si1 0.052260 0.410457 0.160701
Si Si2 0.449093 0.500000 0.161117
Si Si3 0.050515 0.165181 0.841562
Si Si4 0.446426 0.332931 0.658895
Si Si5 0.949881 0.089212 0.339597
Si Si6 0.949804 0.742686 0.158956
Si Si7 0.550893 0.000000 0.338451
O O1 0.250000 0.410916 0.162666
O O2 0.991785 0.455485 0.213106
O O3 0.993714 0.373430 0.255731
O O4 0.000000 0.405032 0.000000
O O5 0.250000 0.500000 0.171813
O O6 0.500000 0.500000 0.000000
O O7 0.250000 0.165386 0.833850
O O8 0.988214 0.128247 0.745999
O O9 0.992903 0.211217 0.803228
O O10 0.000000 0.158106 0.000000
O O11 0.500000 0.334821 0.500000
O O12 0.250000 0.329845 0.660722
O O13 0.513151 0.292770 0.739506
O O14 0.750000 0.089329 0.333501
O O15 0.000000 0.092582 0.500000
O O16 0.007247 0.044381 0.284038
O O17 0.750000 0.742764 0.163372
O O18 0.000000 0.734460 0.000000
O O19 0.500000 0.000000 0.500000
O O20 0.750000 0.000000 0.329656
#
# Coordination Sequence:
#
# PCOD9402039 Si02
#       7
#     8   4   8   8   8   8   4
#     4  10  19  34  56  81 107 136 170 207 246 292
#     4   8  16  30  51  78 105 132 166 206 244 284
#     4   9  18  33  50  70  96 126 158 196 240 290
#     4  11  23  37  52  74 103 134 167 207 252 298
#     4   9  17  29  47  69  94 123 159 198 238 283
#     4   9  19  35  54  73  95 125 163 201 241 290
#     4   8  14  26  43  64  90 122 156 194 235 278
#
# _framework density 18.866698
#
# number of rings (size 3 to 8) (size 9 to 14) (size 15 to 20)
#    0.000    2.667    0.000    1.500    0.000    4.667 
#    0.000    0.833    0.000    0.000    0.000    0.000 
#    0.000    0.000    0.000    0.000    0.000    0.000 
#
# Total GULP energy -267482.062467 kJ/mol
# GULP energy per Si atom -5572.542968 kJ/mol
# Density = 1.882376 g / cm^3
# Si number density = 18.866698 Si / 1000 Ang^3
#
#
#
# Elastic Constant Matrix: (Units=GPa)
#
#
# Indices 1 2 3 4 5 6 
#
# 1 16.9665 19.0165 8.0592 0.0000 0.0000 0.0000
# 2 19.0165 234.3159 114.8009 0.0000 0.0000 0.0000
# 3 8.0592 114.8009 90.6590 0.0000 0.0000 0.0000
# 4 0.0000 0.0000 0.0000 79.1984 0.0000 0.0000
# 5 0.0000 0.0000 0.0000 0.0000 26.2870 0.0000
# 6 0.0000 0.0000 0.0000 0.0000 0.0000 20.7845
#
#
#
# Elastic Compliance Matrix: (Units=1/GPa)
#
#
# Indices 1 2 3 4 5 6 
#
# 1 0.065031 -0.006442 0.002377 0.000000 0.000000 0.000000
# 2 -0.006442 0.011881 -0.014472 0.000000 0.000000 0.000000
# 3 0.002377 -0.014472 0.029145 0.000000 0.000000 0.000000
# 4 0.000000 0.000000 0.000000 0.012627 0.000000 0.000000
# 5 0.000000 0.000000 0.000000 0.000000 0.038042 0.000000
# 6 0.000000 0.000000 0.000000 0.000000 0.000000 0.048113
#
#
# Mechanical properties :
#
#
# Convention : Reuss Voigt Hill
#
# Bulk Modulus (GPa) = 14.49651 69.52163 42.00907
# Shear Modulus (GPa) = 18.87444 38.59163 28.73303
#
# Velocity S-wave (km/s) = 3.16636 4.52762 3.90673
# Velocity P-wave (km/s) = 4.59000 8.01631 6.53182
#
# Compressibility (1/GPa) = 0.06898214
#
# Stress axis : x y z
#
# Youngs Moduli (GPa) = 15.37723 84.16647 34.31076
#
# Poissons Ratio (x) = 0.54223 -0.08155
# Poissons Ratio (y) = 0.09906 0.49656
# Poissons Ratio (z) = -0.03655 1.21809
#
# Static dielectric constant tensor:
#      x y z
#    x 1.672470 0.000000 0.000000 
#    y 0.000000 1.727780 0.000000 
#    z 0.000000 0.000000 1.582610 
# 
# From -- ./inp_files/6150.got.cif
#   From: 2010.05.17/outbox.cif.g08.bks.cpg/sg51_4_cif.got.tgz:6150.got - 2010.06.03 11:52:47.
