data_PCOD9402682
_publ_section_title
;
Structure prediction by ZEFSAII (Michael W. Deem and Ramdas Pophale) SiO2 
 PCOD9402682
Probable space group: P M M A
;
_chemical_formula_sum "Si O2"
_cell_formula_units_Z 48
_cell_length_a 32.224320
_cell_length_b 9.737268
_cell_length_c 7.287944
_cell_angle_alpha 90.000000
_cell_angle_beta 90.000000
_cell_angle_gamma 90.000000
_cell_volume 2286.788038
_symmetry_space_group_name_H-M "P M M A"
_symmetry_group_IT_number 51
_symmetry_cell_setting 'orthorhombic'
loop_
_space_group_symop_operation_xyz
x,y,z
1/2-x,-y,z
1/2+x,-y,-z
-x,y,-z
-x,-y,-z
1/2+x,y,-z
1/2-x,y,z
x,-y,z
loop_
_atom_site_type_symbol
_atom_site_label
_atom_site_fract_x
_atom_site_fract_y
_atom_site_fract_z
Si Si1 0.047559 0.661724 0.560787
Si Si2 0.955692 0.155487 0.093987
Si Si3 0.202753 0.658695 0.500863
Si Si4 0.124876 0.159034 0.511503
Si Si5 0.632488 0.848761 0.040180
Si Si6 0.794937 0.341997 0.052731
O O1 0.057318 0.500000 0.547710
O O2 0.047267 0.719157 0.766938
O O3 0.083454 0.753599 0.467439
O O4 0.000000 0.683507 0.500000
O O5 0.914524 0.166304 0.970268
O O6 0.952940 0.000000 0.179634
O O7 0.000000 0.161296 0.000000
O O8 0.250000 0.692966 0.442301
O O9 0.194110 0.500000 0.448730
O O10 0.166275 0.762367 0.445865
O O11 0.203389 0.660704 0.724560
O O12 0.128188 0.157991 0.736334
O O13 0.122652 0.000000 0.453304
O O14 0.665467 0.737632 0.981937
O O15 0.648073 0.000000 0.994424
O O16 0.750000 0.283411 0.999960
O O17 0.796355 0.500000 0.996903
#
# Coordination Sequence:
#
# PCOD9402682 Si02
#       6
#     8   8   8   8   8   8
#     4  10  20  32  46  65  89 117 150 187 224 265
#     4   9  18  32  48  66  89 116 146 181 221 266
#     4   8  13  21  33  50  75 107 139 171 210 256
#     4   9  16  25  38  56  79 109 143 178 217 260
#     4   8  14  23  35  53  76 103 134 167 205 247
#     4   8  13  20  30  46  70 101 134 165 199 241
#
# _framework density 20.990138000000002
#
# number of rings (size 3 to 8) (size 9 to 14) (size 15 to 20)
#    0.000    3.333    0.000    3.000    0.000    6.333 
#    0.000    3.333    0.000    0.000    0.000    0.000 
#    0.000    1.333    0.000    8.667    0.000   18.167 
#
# Total GULP energy -267499.837624 kJ/mol
# GULP energy per Si atom -5572.913284 kJ/mol
# Density = 2.094236 g / cm^3
# Si number density = 20.990138 Si / 1000 Ang^3
#
#
#
# Elastic Constant Matrix: (Units=GPa)
#
#
# Indices 1 2 3 4 5 6 
#
# 1 193.5448 131.4964 -0.6324 0.0000 0.0000 0.0000
# 2 131.4964 146.7891 9.9714 0.0000 0.0000 0.0000
# 3 -0.6324 9.9714 51.6706 0.0000 0.0000 0.0000
# 4 0.0000 0.0000 0.0000 -9.1507 0.0000 0.0000
# 5 0.0000 0.0000 0.0000 0.0000 1.4193 0.0000
# 6 0.0000 0.0000 0.0000 0.0000 0.0000 45.6536
#
#
#
# Elastic Compliance Matrix: (Units=1/GPa)
#
#
# Indices 1 2 3 4 5 6 
#
# 1 0.013522 -0.012286 0.002536 0.000000 0.000000 0.000000
# 2 -0.012286 0.018065 -0.003637 0.000000 0.000000 0.000000
# 3 0.002536 -0.003637 0.020086 0.000000 0.000000 0.000000
# 4 0.000000 0.000000 0.000000 -0.109281 0.000000 0.000000
# 5 0.000000 0.000000 0.000000 0.000000 0.704555 0.000000
# 6 0.000000 0.000000 0.000000 0.000000 0.000000 0.021904
#
#
# Mechanical properties :
#
#
# Convention : Reuss Voigt Hill
#
# Bulk Modulus (GPa) = 40.15771 74.85281 57.50526
# Shear Modulus (GPa) = 7.10304 24.32904 15.71604
#
# Velocity S-wave (km/s) = 1.84156 3.40821 2.73927
# Velocity P-wave (km/s) = 4.86775 7.15725 6.12051
#
# Compressibility (1/GPa) = 0.02490182
#
# Stress axis : x y z
#
# Youngs Moduli (GPa) = 73.95372 55.35524 49.78539
#
# Poissons Ratio (x) = 0.68007 -0.12627
# Poissons Ratio (y) = 0.90856 0.18105
# Poissons Ratio (z) = -0.18757 0.20130
#
# Static dielectric constant tensor:
#      x y z
#    x 1.774230 0.000000 0.000000 
#    y 0.000000 1.708860 0.000000 
#    z 0.000000 0.000000 1.874370 
# 
# From -- ./inp_files/19281.got.cif
#   From: 2010.05.17/outbox.cif.g08.bks.cpg/sg51_10_cif.got.tgz:19281.got - 2010.06.03 11:52:47.
