data_PCOD9402325
_publ_section_title
;
Structure prediction by ZEFSAII (Michael W. Deem and Ramdas Pophale) SiO2 
 PCOD9402325
Probable space group: P M M A
;
_chemical_formula_sum "Si O2"
_cell_formula_units_Z 40
_cell_length_a 30.136847
_cell_length_b 7.909946
_cell_length_c 8.871296
_cell_angle_alpha 90.000000
_cell_angle_beta 90.000000
_cell_angle_gamma 90.000000
_cell_volume 2114.746925
_symmetry_space_group_name_H-M "P M M A"
_symmetry_group_IT_number 51
_symmetry_cell_setting 'orthorhombic'
loop_
_space_group_symop_operation_xyz
x,y,z
1/2-x,-y,z
1/2+x,-y,-z
-x,y,-z
-x,-y,-z
1/2+x,y,-z
1/2-x,y,z
x,-y,z
loop_
_atom_site_type_symbol
_atom_site_label
_atom_site_fract_x
_atom_site_fract_y
_atom_site_fract_z
Si Si1 0.699071 0.000000 0.433958
Si Si2 0.956636 0.296375 0.907851
Si Si3 0.046502 0.196920 0.434671
Si Si4 0.300743 0.000000 0.933882
Si Si5 0.636238 0.305264 0.067689
Si Si6 0.861810 0.687696 0.430454
O O1 0.671574 0.165537 0.481016
O O2 0.750000 0.000000 0.485296
O O3 0.699914 0.000000 0.250085
O O4 0.959501 0.500000 0.887918
O O5 0.954985 0.213979 0.744581
O O6 0.911512 0.261624 0.998254
O O7 0.000000 0.241620 0.000000
O O8 0.089887 0.288121 0.497653
O O9 0.000000 0.264024 0.500000
O O10 0.050205 0.000000 0.479444
O O11 0.327524 0.832350 0.980632
O O12 0.250000 0.000000 0.985717
O O13 0.647148 0.500000 0.026456
O O14 0.633132 0.298613 0.249377
O O15 0.844837 0.500000 0.465454
#
# Coordination Sequence:
#
# PCOD9402325 Si02
#       6
#     4   8   8   4   8   8
#     4   9  18  34  54  83 116 139 178 231 272 325
#     4  10  21  37  55  79 110 144 184 224 267 322
#     4  11  23  36  53  81 113 146 186 226 269 325
#     4   9  18  32  54  81 110 143 176 221 276 321
#     4   9  19  34  55  82 110 142 181 223 267 321
#     4  10  19  35  58  81 111 148 182 223 274 321
#
# _framework density 18.914791999999998
#
# number of rings (size 3 to 8) (size 9 to 14) (size 15 to 20)
#    0.000    2.200    1.000    1.800    1.400    4.400 
#    0.000    4.000    0.000    2.400    0.000    2.800 
#    0.000    0.000    0.000    0.000    0.000    0.000 
#
# Total GULP energy -223325.196176 kJ/mol
# GULP energy per Si atom -5583.129904 kJ/mol
# Density = 1.887174 g / cm^3
# Si number density = 18.914792 Si / 1000 Ang^3
#
#
#
# Elastic Constant Matrix: (Units=GPa)
#
#
# Indices 1 2 3 4 5 6 
#
# 1 172.2797 95.5203 31.7180 0.0000 0.0000 0.0000
# 2 95.5203 118.0053 31.9977 0.0000 0.0000 0.0000
# 3 31.7180 31.9977 23.0945 0.0000 0.0000 0.0000
# 4 0.0000 0.0000 0.0000 4.2546 0.0000 0.0000
# 5 0.0000 0.0000 0.0000 0.0000 21.5636 0.0000
# 6 0.0000 0.0000 0.0000 0.0000 0.0000 18.9639
#
#
#
# Elastic Compliance Matrix: (Units=1/GPa)
#
#
# Indices 1 2 3 4 5 6 
#
# 1 0.010798 -0.007559 -0.004356 0.000000 0.000000 0.000000
# 2 -0.007559 0.018865 -0.015757 0.000000 0.000000 0.000000
# 3 -0.004356 -0.015757 0.071115 0.000000 0.000000 0.000000
# 4 0.000000 0.000000 0.000000 0.235038 0.000000 0.000000
# 5 0.000000 0.000000 0.000000 0.000000 0.046374 0.000000
# 6 0.000000 0.000000 0.000000 0.000000 0.000000 0.052732
#
#
# Mechanical properties :
#
#
# Convention : Reuss Voigt Hill
#
# Bulk Modulus (GPa) = 22.01023 70.20570 46.10797
# Shear Modulus (GPa) = 9.89295 19.23268 14.56281
#
# Velocity S-wave (km/s) = 2.28946 3.19220 2.77775
# Velocity P-wave (km/s) = 4.31864 7.12631 5.89215
#
# Compressibility (1/GPa) = 0.04543341
#
# Stress axis : x y z
#
# Youngs Moduli (GPa) = 92.61305 53.00735 14.06181
#
# Poissons Ratio (x) = 0.40068 0.06126
# Poissons Ratio (y) = 0.70006 0.22157
# Poissons Ratio (z) = 0.40347 0.83522
#
# Static dielectric constant tensor:
#      x y z
#    x 1.619800 0.000000 0.000000 
#    y 0.000000 1.674030 0.000000 
#    z 0.000000 0.000000 1.630860 
# 
# From -- ./inp_files/12187.got.cif
#   From: 2010.05.17/outbox.cif.g08.bks.cpg/sg51_7_cif.got.tgz:12187.got - 2010.06.03 11:52:47.
