data_PCOD9402832
_publ_section_title
;
Structure prediction by ZEFSAII (Michael W. Deem and Ramdas Pophale) SiO2 
 PCOD9402832
Probable space group: P M M A
;
_chemical_formula_sum "Si O2"
_cell_formula_units_Z 44
_cell_length_a 9.076890
_cell_length_b 7.807968
_cell_length_c 32.171786
_cell_angle_alpha 90.000000
_cell_angle_beta 90.000000
_cell_angle_gamma 90.000000
_cell_volume 2280.080962
_symmetry_space_group_name_H-M "P M M A"
_symmetry_group_IT_number 51
_symmetry_cell_setting 'orthorhombic'
loop_
_space_group_symop_operation_xyz
x,y,z
1/2-x,-y,z
1/2+x,-y,-z
-x,y,-z
-x,-y,-z
1/2+x,y,-z
1/2-x,y,z
x,-y,z
loop_
_atom_site_type_symbol
_atom_site_label
_atom_site_fract_x
_atom_site_fract_y
_atom_site_fract_z
Si Si1 0.570098 0.197698 0.606920
Si Si2 0.081930 0.205118 0.302473
Si Si3 0.071766 0.500000 0.454917
Si Si4 0.918813 0.209794 0.041979
Si Si5 0.918455 0.296839 0.786046
Si Si6 0.417979 0.205159 0.124652
O O1 0.750000 0.197084 0.609125
O O2 0.517971 0.257383 0.652889
O O3 0.528222 0.331764 0.571564
O O4 0.525011 0.000000 0.599329
O O5 0.250000 0.275833 0.300470
O O6 0.011062 0.247096 0.258069
O O7 0.091204 0.000000 0.305084
O O8 0.250000 0.500000 0.458407
O O9 0.000000 0.500000 0.500000
O O10 0.750000 0.263013 0.041025
O O11 0.995923 0.268917 0.084389
O O12 0.922163 0.000000 0.042191
O O13 0.000000 0.264963 0.000000
O O14 0.750000 0.222804 0.785980
O O15 0.908858 0.500000 0.786514
O O16 0.985677 0.242687 0.830056
O O17 0.250000 0.272857 0.124315
O O18 0.410434 0.000000 0.121027
#
# Coordination Sequence:
#
# PCOD9402832 Si02
#       6
#     8   8   4   8   8   8
#     4   8  15  27  43  65  94 126 159 198 243 289
#     4   8  13  22  37  59  88 119 148 181 224 270
#     4  10  20  32  48  70  96 128 164 202 245 290
#     4   9  16  26  42  64  86 108 139 180 222 261
#     4   9  16  23  35  58  87 117 145 174 212 259
#     4   9  16  26  40  59  86 116 140 167 208 257
#
# _framework density 19.297561000000002
#
# number of rings (size 3 to 8) (size 9 to 14) (size 15 to 20)
#    0.000    3.273    0.000    2.182    1.273    4.727 
#    0.000    0.000    0.000    1.091    0.000    1.273 
#    0.000    1.455    0.000    0.000    0.000    0.000 
#
# Total GULP energy -244957.713409 kJ/mol
# GULP energy per Si atom -5567.220759 kJ/mol
# Density = 1.925364 g / cm^3
# Si number density = 19.297561 Si / 1000 Ang^3
#
#
#
# Elastic Constant Matrix: (Units=GPa)
#
#
# Indices 1 2 3 4 5 6 
#
# 1 28.8284 12.3485 50.1850 0.0000 0.0000 0.0000
# 2 12.3485 51.4704 53.5056 0.0000 0.0000 0.0000
# 3 50.1850 53.5056 248.3006 0.0000 0.0000 0.0000
# 4 0.0000 0.0000 0.0000 103.6890 0.0000 0.0000
# 5 0.0000 0.0000 0.0000 0.0000 19.7929 0.0000
# 6 0.0000 0.0000 0.0000 0.0000 0.0000 2.5714
#
#
#
# Elastic Compliance Matrix: (Units=1/GPa)
#
#
# Indices 1 2 3 4 5 6 
#
# 1 0.053687 -0.002062 -0.010407 0.000000 0.000000 0.000000
# 2 -0.002062 0.025116 -0.004995 0.000000 0.000000 0.000000
# 3 -0.010407 -0.004995 0.007207 0.000000 0.000000 0.000000
# 4 0.000000 0.000000 0.000000 0.009644 0.000000 0.000000
# 5 0.000000 0.000000 0.000000 0.000000 0.050523 0.000000
# 6 0.000000 0.000000 0.000000 0.000000 0.000000 0.388889
#
#
# Mechanical properties :
#
#
# Convention : Reuss Voigt Hill
#
# Bulk Modulus (GPa) = 19.57630 62.29754 40.93692
# Shear Modulus (GPa) = 8.51755 39.38135 23.94945
#
# Velocity S-wave (km/s) = 2.10318 4.52236 3.52669
# Velocity P-wave (km/s) = 4.00803 7.72151 6.15166
#
# Compressibility (1/GPa) = 0.05108219
#
# Stress axis : x y z
#
# Youngs Moduli (GPa) = 18.62639 39.81462 138.75134
#
# Poissons Ratio (x) = 0.08211 1.44392
# Poissons Ratio (y) = 0.03841 0.69312
# Poissons Ratio (z) = 0.19384 0.19889
#
# Static dielectric constant tensor:
#      x y z
#    x 1.671350 0.000000 0.000000 
#    y 0.000000 1.686280 0.000000 
#    z 0.000000 0.000000 1.717840 
# 
# From -- ./inp_files/36717.got.cif
#   From: 2010.05.17/outbox.cif.g08.bks.cpg/sg51_19_cif.got.tgz:36717.got - 2010.06.03 11:52:47.
