data_PCOD9402890
_publ_section_title
;
Structure prediction by ZEFSAII (Michael W. Deem and Ramdas Pophale) SiO2 
 PCOD9402890
Probable space group: P M M A
;
_chemical_formula_sum "Si O2"
_cell_formula_units_Z 56
_cell_length_a 9.018892
_cell_length_b 14.512209
_cell_length_c 24.029510
_cell_angle_alpha 90.000000
_cell_angle_beta 90.000000
_cell_angle_gamma 90.000000
_cell_volume 3145.079484
_symmetry_space_group_name_H-M "P M M A"
_symmetry_group_IT_number 51
_symmetry_cell_setting 'orthorhombic'
loop_
_space_group_symop_operation_xyz
x,y,z
1/2-x,-y,z
1/2+x,-y,-z
-x,y,-z
-x,-y,-z
1/2+x,y,-z
1/2-x,y,z
x,-y,z
loop_
_atom_site_type_symbol
_atom_site_label
_atom_site_fract_x
_atom_site_fract_y
_atom_site_fract_z
Si Si1 0.926866 0.605796 0.879297
Si Si2 0.427414 0.893728 0.277117
Si Si3 0.422449 0.389306 0.761919
Si Si4 0.073635 0.786559 0.058148
Si Si5 0.421914 0.110913 0.839719
Si Si6 0.073015 0.392702 0.560020
Si Si7 0.573195 0.285196 0.660357
O O1 0.750000 0.610405 0.867930
O O2 0.963392 0.500000 0.893844
O O3 0.960174 0.679968 0.926626
O O4 0.013102 0.631385 0.822957
O O5 0.250000 0.889637 0.267507
O O6 0.507887 0.865188 0.220036
O O7 0.462437 0.821233 0.325474
O O8 0.466560 0.000000 0.289617
O O9 0.250000 0.362233 0.757766
O O10 0.431212 0.500000 0.755049
O O11 0.517005 0.341483 0.714050
O O12 0.250000 0.797933 0.054812
O O13 0.010120 0.844502 0.109579
O O14 0.000000 0.812757 0.000000
O O15 0.250000 0.138915 0.841719
O O16 0.429757 0.000000 0.844292
O O17 0.250000 0.382447 0.556570
O O18 0.041536 0.500000 0.575103
O O19 0.000000 0.375756 0.500000
O O20 0.006510 0.326424 0.606644
O O21 0.750000 0.294699 0.654461
#
# Coordination Sequence:
#
# PCOD9402890 Si02
#       7
#     8   8   8   8   8   8   8
#     4   9  19  36  54  72  98 132 168 207 254 308
#     4   9  19  36  56  79 108 140 173 211 258 311
#     4  10  20  32  48  74 106 137 169 208 256 308
#     4  11  23  37  54  75  99 130 168 210 256 307
#     4  10  21  37  57  80 105 133 166 208 260 314
#     4  10  21  37  56  79 110 147 184 221 260 303
#     4  11  21  32  52  80 108 141 178 216 259 305
#
# _framework density 17.805591
#
# number of rings (size 3 to 8) (size 9 to 14) (size 15 to 20)
#    0.000    2.000    0.000    3.429    0.000   10.571 
#    0.000    0.000    0.000    0.429    0.000    0.000 
#    0.000    0.000    0.000    0.000    0.000    0.000 
#
# Total GULP energy -312806.421016 kJ/mol
# GULP energy per Si atom -5585.828947 kJ/mol
# Density = 1.776506 g / cm^3
# Si number density = 17.805591 Si / 1000 Ang^3
#
#
#
# Elastic Constant Matrix: (Units=GPa)
#
#
# Indices 1 2 3 4 5 6 
#
# 1 66.6831 49.2118 56.4629 0.0000 0.0000 0.0000
# 2 49.2118 70.7585 65.0284 0.0000 0.0000 0.0000
# 3 56.4629 65.0284 110.8883 0.0000 0.0000 0.0000
# 4 0.0000 0.0000 0.0000 22.8510 0.0000 0.0000
# 5 0.0000 0.0000 0.0000 0.0000 34.1269 0.0000
# 6 0.0000 0.0000 0.0000 0.0000 0.0000 22.5377
#
#
#
# Elastic Compliance Matrix: (Units=1/GPa)
#
#
# Indices 1 2 3 4 5 6 
#
# 1 0.033347 -0.016457 -0.007329 0.000000 0.000000 0.000000
# 2 -0.016457 0.038774 -0.014359 0.000000 0.000000 0.000000
# 3 -0.007329 -0.014359 0.021170 0.000000 0.000000 0.000000
# 4 0.000000 0.000000 0.000000 0.043762 0.000000 0.000000
# 5 0.000000 0.000000 0.000000 0.000000 0.029302 0.000000
# 6 0.000000 0.000000 0.000000 0.000000 0.000000 0.044370
#
#
# Mechanical properties :
#
#
# Convention : Reuss Voigt Hill
#
# Bulk Modulus (GPa) = 58.81612 65.52624 62.17118
# Shear Modulus (GPa) = 17.08329 21.07823 19.08076
#
# Velocity S-wave (km/s) = 3.10083 3.44437 3.27711
# Velocity P-wave (km/s) = 6.77675 7.25941 7.02223
#
# Compressibility (1/GPa) = 0.01700214
#
# Stress axis : x y z
#
# Youngs Moduli (GPa) = 29.98727 25.79028 47.23602
#
# Poissons Ratio (x) = 0.42444 0.34619
# Poissons Ratio (y) = 0.49351 0.67824
# Poissons Ratio (z) = 0.21978 0.37031
#
# Static dielectric constant tensor:
#      x y z
#    x 1.593440 0.000000 0.000000 
#    y 0.000000 1.636770 0.000000 
#    z 0.000000 0.000000 1.558270 
# 
# From -- ./inp_files/31885.got.cif
#   From: 2010.05.17/outbox.cif.g08.bks.cpg/sg51_16_cif.got.tgz:31885.got - 2010.06.03 11:52:47.
