data_PCOD9402147
_publ_section_title
;
Structure prediction by ZEFSAII (Michael W. Deem and Ramdas Pophale) SiO2 
 PCOD9402147
Probable space group: P M M A
;
_chemical_formula_sum "Si O2"
_cell_formula_units_Z 64
_cell_length_a 8.909551
_cell_length_b 25.780650
_cell_length_c 14.857271
_cell_angle_alpha 90.000000
_cell_angle_beta 90.000000
_cell_angle_gamma 90.000000
_cell_volume 3412.626243
_symmetry_space_group_name_H-M "P M M A"
_symmetry_group_IT_number 51
_symmetry_cell_setting 'orthorhombic'
loop_
_space_group_symop_operation_xyz
x,y,z
1/2-x,-y,z
1/2+x,-y,-z
-x,y,-z
-x,-y,-z
1/2+x,y,-z
1/2-x,y,z
x,-y,z
loop_
_atom_site_type_symbol
_atom_site_label
_atom_site_fract_x
_atom_site_fract_y
_atom_site_fract_z
Si Si1 0.429707 0.651815 0.596879
Si Si2 0.070137 0.248956 0.718804
Si Si3 0.077912 0.563259 0.091622
Si Si4 0.432742 0.941934 0.285852
Si Si5 0.071347 0.100981 0.093845
Si Si6 0.068815 0.842554 0.400919
Si Si7 0.428676 0.225062 0.094672
Si Si8 0.930972 0.440377 0.279112
O O1 0.500000 0.660452 0.500000
O O2 0.250000 0.649704 0.587173
O O3 0.464260 0.698774 0.664199
O O4 0.481148 0.598257 0.642757
O O5 0.250000 0.241804 0.721204
O O6 0.993600 0.201829 0.664880
O O7 0.005247 0.250725 0.819203
O O8 0.250000 0.579997 0.094752
O O9 0.075652 0.500000 0.089159
O O10 0.992659 0.577793 0.182643
O O11 0.000000 0.581482 0.000000
O O12 0.250000 0.941602 0.283645
O O13 0.483001 0.926512 0.184965
O O14 0.475757 0.897686 0.356656
O O15 0.482325 0.000000 0.308969
O O16 0.250000 0.093499 0.087900
O O17 0.043978 0.162799 0.103150
O O18 0.000000 0.083173 0.000000
O O19 0.250000 0.839412 0.404741
O O20 0.000000 0.836624 0.500000
O O21 0.250000 0.233208 0.094880
O O22 0.500000 0.241782 0.000000
O O23 0.750000 0.439490 0.275094
O O24 0.978516 0.500000 0.293964
#
# Coordination Sequence:
#
# PCOD9402147 Si02
#       8
#     8   8   8   8   8   8   8   8
#     4  10  23  40  58  83 112 143 183 229 280 331
#     4  11  22  38  60  85 113 146 183 229 277 328
#     4   9  16  27  47  77 110 144 183 224 266 316
#     4   9  18  34  54  76 108 147 183 224 276 331
#     4   9  17  31  51  78 108 142 179 217 263 319
#     4  11  22  38  58  82 107 140 186 233 284 338
#     4  10  19  34  57  87 117 149 185 226 273 328
#     4   9  18  35  57  80 110 147 184 225 273 327
#
# _framework density 18.753885
#
# number of rings (size 3 to 8) (size 9 to 14) (size 15 to 20)
#    0.000    2.250    1.250    1.875    0.000    5.250 
#    0.000    0.625    0.000    2.625    0.000    0.000 
#    0.000    0.000    0.000    0.000    0.000    0.000 
#
# Total GULP energy -357250.373069 kJ/mol
# GULP energy per Si atom -5582.037079 kJ/mol
# Density = 1.871120 g / cm^3
# Si number density = 18.753885 Si / 1000 Ang^3
#
#
#
# Elastic Constant Matrix: (Units=GPa)
#
#
# Indices 1 2 3 4 5 6 
#
# 1 38.7328 40.8367 48.7479 0.0000 0.0000 0.0000
# 2 40.8367 77.1197 67.5263 0.0000 0.0000 0.0000
# 3 48.7479 67.5263 165.3304 0.0000 0.0000 0.0000
# 4 0.0000 0.0000 0.0000 12.0923 0.0000 0.0000
# 5 0.0000 0.0000 0.0000 0.0000 34.6443 0.0000
# 6 0.0000 0.0000 0.0000 0.0000 0.0000 15.6469
#
#
#
# Elastic Compliance Matrix: (Units=1/GPa)
#
#
# Indices 1 2 3 4 5 6 
#
# 1 0.064434 -0.027218 -0.007882 0.000000 0.000000 0.000000
# 2 -0.027218 0.031683 -0.004915 0.000000 0.000000 0.000000
# 3 -0.007882 -0.004915 0.010380 0.000000 0.000000 0.000000
# 4 0.000000 0.000000 0.000000 0.082697 0.000000 0.000000
# 5 0.000000 0.000000 0.000000 0.000000 0.028865 0.000000
# 6 0.000000 0.000000 0.000000 0.000000 0.000000 0.063910
#
#
# Mechanical properties :
#
#
# Convention : Reuss Voigt Hill
#
# Bulk Modulus (GPa) = 37.78248 66.15611 51.96929
# Shear Modulus (GPa) = 13.48355 20.74819 17.11587
#
# Velocity S-wave (km/s) = 2.68428 3.32978 3.02430
# Velocity P-wave (km/s) = 5.45869 7.08066 6.32191
#
# Compressibility (1/GPa) = 0.02646729
#
# Stress axis : x y z
#
# Youngs Moduli (GPa) = 15.51968 31.56239 96.33963
#
# Poissons Ratio (x) = 0.85907 0.75932
# Poissons Ratio (y) = 0.42242 0.47352
# Poissons Ratio (z) = 0.12232 0.15513
#
# Static dielectric constant tensor:
#      x y z
#    x 1.630080 0.000000 0.000000 
#    y 0.000000 1.660610 0.000000 
#    z 0.000000 0.000000 1.620930 
# 
# From -- ./inp_files/22311.got.cif
#   From: 2010.05.17/outbox.cif.g08.bks.cpg/sg51_12_cif.got.tgz:22311.got - 2010.06.03 11:52:47.
