data_PCOD9402085
_publ_section_title
;
Structure prediction by ZEFSAII (Michael W. Deem and Ramdas Pophale) SiO2 
 PCOD9402085
Probable space group: P M M A
;
_chemical_formula_sum "Si O2"
_cell_formula_units_Z 40
_cell_length_a 21.233813
_cell_length_b 10.452005
_cell_length_c 10.382713
_cell_angle_alpha 90.000000
_cell_angle_beta 90.000000
_cell_angle_gamma 90.000000
_cell_volume 2304.296958
_symmetry_space_group_name_H-M "P M M A"
_symmetry_group_IT_number 51
_symmetry_cell_setting 'orthorhombic'
loop_
_space_group_symop_operation_xyz
x,y,z
1/2-x,-y,z
1/2+x,-y,-z
-x,y,-z
-x,-y,-z
1/2+x,y,-z
1/2-x,y,z
x,-y,z
loop_
_atom_site_type_symbol
_atom_site_label
_atom_site_fract_x
_atom_site_fract_y
_atom_site_fract_z
Si Si1 0.099775 0.000000 0.535128
Si Si2 0.323615 0.745852 0.474333
Si Si3 0.953553 0.254416 0.878667
Si Si4 0.395648 0.500000 0.548510
Si Si5 0.982681 0.500000 0.706594
Si Si6 0.013952 0.000000 0.280749
Si Si7 0.322975 0.344538 0.176936
O O1 0.141050 0.873032 0.518283
O O2 0.054493 0.000000 0.410911
O O3 0.057620 0.000000 0.664805
O O4 0.250000 0.757405 0.499888
O O5 0.353422 0.625361 0.546302
O O6 0.330440 0.712827 0.321614
O O7 0.878764 0.277853 0.904671
O O8 0.969599 0.373793 0.787462
O O9 0.967934 0.124397 0.801755
O O10 0.000000 0.258334 0.000000
O O11 0.445529 0.500000 0.661989
O O12 0.437815 0.500000 0.418284
O O13 0.250000 0.321121 0.137375
O O14 0.331170 0.500000 0.180890
#
# Coordination Sequence:
#
# PCOD9402085 Si02
#       7
#     4   8   8   4   4   4   8
#     4  11  21  36  56  79 118 140 181 231 281 356
#     4  11  19  32  54  83 114 144 182 231 285 340
#     4  12  22  38  58  84 115 148 198 236 274 334
#     4  11  19  34  56  81 120 140 177 231 283 352
#     4  11  21  34  56  85 110 150 183 225 289 330
#     4  11  23  38  54  83 114 150 177 229 297 328
#     4  10  19  34  56  85 117 143 182 239 291 327
#
# _framework density 17.358872999999999
#
# number of rings (size 3 to 8) (size 9 to 14) (size 15 to 20)
#    0.000    1.000    6.000    2.400    0.000    3.200 
#    0.000    0.500    0.000    7.200    0.000    0.000 
#    0.000    0.000    0.000    0.000    0.000    0.000 
#
# Total GULP energy -223240.027188 kJ/mol
# GULP energy per Si atom -5581.000680 kJ/mol
# Density = 1.731936 g / cm^3
# Si number density = 17.358873 Si / 1000 Ang^3
#
#
#
# Elastic Constant Matrix: (Units=GPa)
#
#
# Indices 1 2 3 4 5 6 
#
# 1 172.5425 70.4816 40.5588 0.0000 0.0000 0.0000
# 2 70.4816 161.5062 30.6113 0.0000 0.0000 0.0000
# 3 40.5588 30.6113 36.6464 0.0000 0.0000 0.0000
# 4 0.0000 0.0000 0.0000 -1.5146 0.0000 0.0000
# 5 0.0000 0.0000 0.0000 0.0000 30.5862 0.0000
# 6 0.0000 0.0000 0.0000 0.0000 0.0000 45.1652
#
#
#
# Elastic Compliance Matrix: (Units=1/GPa)
#
#
# Indices 1 2 3 4 5 6 
#
# 1 0.008489 -0.002286 -0.007486 0.000000 0.000000 0.000000
# 2 -0.002286 0.007972 -0.004129 0.000000 0.000000 0.000000
# 3 -0.007486 -0.004129 0.039022 0.000000 0.000000 0.000000
# 4 0.000000 0.000000 0.000000 -0.660241 0.000000 0.000000
# 5 0.000000 0.000000 0.000000 0.000000 0.032695 0.000000
# 6 0.000000 0.000000 0.000000 0.000000 0.000000 0.022141
#
#
# Mechanical properties :
#
#
# Convention : Reuss Voigt Hill
#
# Bulk Modulus (GPa) = 36.12569 72.66651 54.39610
# Shear Modulus (GPa) = -9.74861 30.11692 10.18415
#
# Velocity S-wave (km/s) = -2.37237 4.16980 2.42478
# Velocity P-wave (km/s) = 3.65405 8.07064 6.26447
#
# Compressibility (1/GPa) = 0.02768114
#
# Stress axis : x y z
#
# Youngs Moduli (GPa) = 117.79803 125.44108 25.62639
#
# Poissons Ratio (x) = 0.28673 0.19184
# Poissons Ratio (y) = 0.26926 0.10582
# Poissons Ratio (z) = 0.88184 0.51797
#
# Static dielectric constant tensor:
#      x y z
#    x 1.629180 0.000000 0.000000 
#    y 0.000000 1.561240 0.000000 
#    z 0.000000 0.000000 1.563190 
# 
# From -- ./inp_files/18025.got.cif
#   From: 2010.05.17/outbox.cif.g08.bks.cpg/sg51_10_cif.got.tgz:18025.got - 2010.06.03 11:52:47.
