data_PCOD9402827
_publ_section_title
;
Structure prediction by ZEFSAII (Michael W. Deem and Ramdas Pophale) SiO2 
 PCOD9402827
Probable space group: P M M A
;
_chemical_formula_sum "Si O2"
_cell_formula_units_Z 40
_cell_length_a 9.538257
_cell_length_b 10.428365
_cell_length_c 24.996655
_cell_angle_alpha 90.000000
_cell_angle_beta 90.000000
_cell_angle_gamma 90.000000
_cell_volume 2486.377915
_symmetry_space_group_name_H-M "P M M A"
_symmetry_group_IT_number 51
_symmetry_cell_setting 'orthorhombic'
loop_
_space_group_symop_operation_xyz
x,y,z
1/2-x,-y,z
1/2+x,-y,-z
-x,y,-z
-x,-y,-z
1/2+x,y,-z
1/2-x,y,z
x,-y,z
loop_
_atom_site_type_symbol
_atom_site_label
_atom_site_fract_x
_atom_site_fract_y
_atom_site_fract_z
Si Si1 0.411013 0.844047 0.153763
Si Si2 0.416272 0.000000 0.554793
Si Si3 0.082865 0.249557 0.625780
Si Si4 0.918403 0.151575 0.724919
Si Si5 0.911305 0.156464 0.051871
Si Si6 0.418009 0.500000 0.555893
O O1 0.250000 0.803661 0.143964
O O2 0.452873 0.808363 0.214161
O O3 0.512784 0.801511 0.106447
O O4 0.409996 0.000000 0.153367
O O5 0.500000 0.000000 0.500000
O O6 0.448788 0.125522 0.589506
O O7 0.250000 0.000000 0.543652
O O8 0.250000 0.250536 0.636742
O O9 0.048413 0.375123 0.591353
O O10 0.997903 0.232824 0.680422
O O11 0.750000 0.161069 0.719054
O O12 0.955046 0.000000 0.718647
O O13 0.750000 0.197596 0.048889
O O14 0.911438 0.000000 0.052099
O O15 0.000000 0.196275 0.000000
O O16 0.250000 0.500000 0.545636
O O17 0.500000 0.500000 0.500000
#
# Coordination Sequence:
#
# PCOD9402827 Si02
#       6
#     8   4   8   8   8   4
#     4   8  14  24  36  52  77 107 141 183 226 268
#     4  10  20  32  48  70  92 116 147 184 223 266
#     4  10  20  34  50  70  95 121 151 188 231 276
#     4   9  17  29  46  68  91 117 151 190 233 278
#     4   9  15  21  30  46  70 105 148 188 226 268
#     4  10  22  38  54  72  96 124 153 188 231 280
#
# _framework density 16.08766
#
# number of rings (size 3 to 8) (size 9 to 14) (size 15 to 20)
#    0.000    2.800    1.000    2.400    0.000    4.800 
#    0.000    2.000    0.000    0.000    0.000    0.000 
#    0.000    0.000    0.000    0.900    0.000   12.000 
#
# Total GULP energy -222883.370870 kJ/mol
# GULP energy per Si atom -5572.084272 kJ/mol
# Density = 1.605104 g / cm^3
# Si number density = 16.087660 Si / 1000 Ang^3
#
#
#
# Elastic Constant Matrix: (Units=GPa)
#
#
# Indices 1 2 3 4 5 6 
#
# 1 82.6136 30.5802 100.5505 0.0000 0.0000 0.0000
# 2 30.5802 65.9402 48.7178 0.0000 0.0000 0.0000
# 3 100.5505 48.7178 183.9907 0.0000 0.0000 0.0000
# 4 0.0000 0.0000 0.0000 10.1836 0.0000 0.0000
# 5 0.0000 0.0000 0.0000 0.0000 38.1794 0.0000
# 6 0.0000 0.0000 0.0000 0.0000 0.0000 6.2583
#
#
#
# Elastic Compliance Matrix: (Units=1/GPa)
#
#
# Indices 1 2 3 4 5 6 
#
# 1 0.036539 -0.002725 -0.019247 0.000000 0.000000 0.000000
# 2 -0.002725 0.019057 -0.003557 0.000000 0.000000 0.000000
# 3 -0.019247 -0.003557 0.016895 0.000000 0.000000 0.000000
# 4 0.000000 0.000000 0.000000 0.098197 0.000000 0.000000
# 5 0.000000 0.000000 0.000000 0.000000 0.026192 0.000000
# 6 0.000000 0.000000 0.000000 0.000000 0.000000 0.159787
#
#
# Mechanical properties :
#
#
# Convention : Reuss Voigt Hill
#
# Bulk Modulus (GPa) = 46.65590 76.91573 61.78582
# Shear Modulus (GPa) = 12.05200 21.10400 16.57800
#
# Velocity S-wave (km/s) = 2.74002 3.62583 3.21359
# Velocity P-wave (km/s) = 6.25094 8.08968 7.22901
#
# Compressibility (1/GPa) = 0.02143351
#
# Stress axis : x y z
#
# Youngs Moduli (GPa) = 27.36793 52.47479 59.18844
#
# Poissons Ratio (x) = 0.14301 1.13920
# Poissons Ratio (y) = 0.07458 0.21051
# Poissons Ratio (z) = 0.52675 0.18663
#
# Static dielectric constant tensor:
#      x y z
#    x 1.536190 0.000000 0.000000 
#    y 0.000000 1.525800 0.000000 
#    z 0.000000 0.000000 1.532260 
# 
# From -- ./inp_files/36044.got.cif
#   From: 2010.05.17/outbox.cif.g08.bks.cpg/sg51_19_cif.got.tgz:36044.got - 2010.06.03 11:52:47.
