data_PCOD9402644
_publ_section_title
;
Structure prediction by ZEFSAII (Michael W. Deem and Ramdas Pophale) SiO2 
 PCOD9402644
Probable space group: P M M A
;
_chemical_formula_sum "Si O2"
_cell_formula_units_Z 44
_cell_length_a 8.785066
_cell_length_b 24.391609
_cell_length_c 14.577445
_cell_angle_alpha 90.000000
_cell_angle_beta 90.000000
_cell_angle_gamma 90.000000
_cell_volume 3123.682538
_symmetry_space_group_name_H-M "P M M A"
_symmetry_group_IT_number 51
_symmetry_cell_setting 'orthorhombic'
loop_
_space_group_symop_operation_xyz
x,y,z
1/2-x,-y,z
1/2+x,-y,-z
-x,y,-z
-x,-y,-z
1/2+x,y,-z
1/2-x,y,z
x,-y,z
loop_
_atom_site_type_symbol
_atom_site_label
_atom_site_fract_x
_atom_site_fract_y
_atom_site_fract_z
Si Si1 0.068409 0.830100 0.602706
Si Si2 0.432533 0.292245 0.602902
Si Si3 0.567902 0.940009 0.603287
Si Si4 0.432136 0.564563 0.901187
Si Si5 0.567098 0.392191 0.716577
Si Si6 0.566841 0.500000 0.601516
O O1 0.250000 0.836167 0.597604
O O2 0.033436 0.769347 0.639703
O O3 0.000000 0.828585 0.500000
O O4 0.998889 0.884774 0.647707
O O5 0.500000 0.297416 0.500000
O O6 0.250000 0.297881 0.597210
O O7 0.502001 0.338691 0.667082
O O8 0.500000 0.941342 0.500000
O O9 0.750000 0.935353 0.597455
O O10 0.530825 0.000000 0.644609
O O11 0.250000 0.569602 0.902320
O O12 0.470457 0.500000 0.886152
O O13 0.502430 0.598736 0.818128
O O14 0.500000 0.579949 0.000000
O O15 0.750000 0.390090 0.719070
O O16 0.520728 0.445586 0.656848
O O17 0.750000 0.500000 0.595598
O O18 0.500000 0.500000 0.500000
#
# Coordination Sequence:
#
# PCOD9402644 Si02
#       6
#     8   8   8   8   8   4
#     4   9  16  25  37  51  71  99 133 172 208 246
#     4  10  20  32  44  61  83 111 147 181 215 255
#     4   9  15  21  31  48  69  93 125 166 208 247
#     4  10  20  34  53  73  91 111 133 166 209 256
#     4  11  21  34  49  66  87 112 141 175 213 257
#     4  10  22  34  45  62  85 110 139 174 210 250
#
# _framework density 14.085939
#
# number of rings (size 3 to 8) (size 9 to 14) (size 15 to 20)
#    0.000    2.182    0.909    4.364    0.000    6.909 
#    0.000    0.000    0.000    0.000    0.000    0.000 
#    0.000    0.000    0.000    0.000    0.000    0.909 
#
# Total GULP energy -245182.349846 kJ/mol
# GULP energy per Si atom -5572.326133 kJ/mol
# Density = 1.405388 g / cm^3
# Si number density = 14.085939 Si / 1000 Ang^3
#
#
#
# Elastic Constant Matrix: (Units=GPa)
#
#
# Indices 1 2 3 4 5 6 
#
# 1 57.4926 54.3015 28.7060 0.0000 0.0000 0.0000
# 2 54.3015 150.8455 52.3880 0.0000 0.0000 0.0000
# 3 28.7060 52.3880 72.2189 0.0000 0.0000 0.0000
# 4 0.0000 0.0000 0.0000 5.3593 0.0000 0.0000
# 5 0.0000 0.0000 0.0000 0.0000 19.7002 0.0000
# 6 0.0000 0.0000 0.0000 0.0000 0.0000 25.3936
#
#
#
# Elastic Compliance Matrix: (Units=1/GPa)
#
#
# Indices 1 2 3 4 5 6 
#
# 1 0.027662 -0.008207 -0.005042 0.000000 0.000000 0.000000
# 2 -0.008207 0.011297 -0.004933 0.000000 0.000000 0.000000
# 3 -0.005042 -0.004933 0.019429 0.000000 0.000000 0.000000
# 4 0.000000 0.000000 0.000000 0.186592 0.000000 0.000000
# 5 0.000000 0.000000 0.000000 0.000000 0.050761 0.000000
# 6 0.000000 0.000000 0.000000 0.000000 0.000000 0.039380
#
#
# Mechanical properties :
#
#
# Convention : Reuss Voigt Hill
#
# Bulk Modulus (GPa) = 45.40279 61.26089 53.33184
# Shear Modulus (GPa) = 13.19870 19.76806 16.48338
#
# Velocity S-wave (km/s) = 3.06439 3.75025 3.42453
# Velocity P-wave (km/s) = 6.69502 7.89542 7.31987
#
# Compressibility (1/GPa) = 0.02202508
#
# Stress axis : x y z
#
# Youngs Moduli (GPa) = 36.15023 88.52182 51.46934
#
# Poissons Ratio (x) = 0.72648 0.25951
# Poissons Ratio (y) = 0.29668 0.25388
# Poissons Ratio (z) = 0.18227 0.43664
#
# Static dielectric constant tensor:
#      x y z
#    x 1.469410 0.000000 0.000000 
#    y 0.000000 1.517200 0.000000 
#    z 0.000000 0.000000 1.416770 
# 
# From -- ./inp_files/14431.got.cif
#   From: 2010.05.17/outbox.cif.g08.bks.cpg/sg51_8_cif.got.tgz:14431.got - 2010.06.03 11:52:47.
