data_PCOD9402306
_publ_section_title
;
Structure prediction by ZEFSAII (Michael W. Deem and Ramdas Pophale) SiO2 
 PCOD9402306
Probable space group: P M M A
;
_chemical_formula_sum "Si O2"
_cell_formula_units_Z 64
_cell_length_a 18.227704
_cell_length_b 8.809333
_cell_length_c 22.197813
_cell_angle_alpha 90.000000
_cell_angle_beta 90.000000
_cell_angle_gamma 90.000000
_cell_volume 3564.389724
_symmetry_space_group_name_H-M "P M M A"
_symmetry_group_IT_number 51
_symmetry_cell_setting 'orthorhombic'
loop_
_space_group_symop_operation_xyz
x,y,z
1/2-x,-y,z
1/2+x,-y,-z
-x,y,-z
-x,-y,-z
1/2+x,y,-z
1/2-x,y,z
x,-y,z
loop_
_atom_site_type_symbol
_atom_site_label
_atom_site_fract_x
_atom_site_fract_y
_atom_site_fract_z
Si Si1 0.907364 0.816967 0.619606
Si Si2 0.946407 0.818921 0.184038
Si Si3 0.835514 0.318010 0.275474
Si Si4 0.164415 0.681173 0.497639
Si Si5 0.981990 0.316312 0.931821
Si Si6 0.169595 0.317362 0.127045
Si Si7 0.396704 0.818289 0.243825
Si Si8 0.920247 0.181667 0.389874
O O1 0.861451 0.737834 0.567547
O O2 0.884153 0.773042 0.687259
O O3 0.993561 0.779362 0.612463
O O4 0.900295 0.000000 0.614210
O O5 0.877510 0.744948 0.217086
O O6 0.964185 0.753422 0.118176
O O7 0.019101 0.785281 0.224412
O O8 0.938212 0.000000 0.181668
O O9 0.750000 0.273575 0.276505
O O10 0.839712 0.500000 0.276263
O O11 0.877084 0.253619 0.333903
O O12 0.250000 0.718237 0.507280
O O13 0.155843 0.500000 0.502173
O O14 0.115560 0.760443 0.548541
O O15 0.986050 0.500000 0.927782
O O16 0.899614 0.267482 0.913010
O O17 0.000000 0.271994 0.000000
O O18 0.250000 0.264790 0.106834
O O19 0.169237 0.500000 0.126610
O O20 0.153795 0.261312 0.194616
O O21 0.387244 0.000000 0.239408
O O22 0.914626 0.000000 0.385734
#
# Coordination Sequence:
#
# PCOD9402306 Si02
#       8
#     8   8   8   8   8   8   8   8
#     4  10  21  38  58  81 107 138 181 226 274 334
#     4  10  19  35  57  81 111 144 182 226 273 325
#     4  11  23  37  56  84 115 146 182 226 277 333
#     4  11  25  41  54  76 110 144 183 230 279 331
#     4   9  18  34  56  81 111 151 194 231 275 329
#     4   9  18  32  51  78 110 143 182 227 273 322
#     4   9  18  34  54  78 107 138 174 219 270 324
#     4  11  22  39  61  83 107 140 184 230 277 333
#
# _framework density 17.955387000000002
#
# number of rings (size 3 to 8) (size 9 to 14) (size 15 to 20)
#    0.000    2.000    1.250    2.250    0.000    8.000 
#    0.000    3.125    0.000    2.250    0.000    0.000 
#    0.000    0.000    0.000    0.000    0.000    0.000 
#
# Total GULP energy -357383.556592 kJ/mol
# GULP energy per Si atom -5584.118072 kJ/mol
# Density = 1.791452 g / cm^3
# Si number density = 17.955387 Si / 1000 Ang^3
#
#
#
# Elastic Constant Matrix: (Units=GPa)
#
#
# Indices 1 2 3 4 5 6 
#
# 1 43.7438 9.3059 11.6664 0.0000 0.0000 0.0000
# 2 9.3059 15.7723 9.6370 0.0000 0.0000 0.0000
# 3 11.6664 9.6370 106.7508 0.0000 0.0000 0.0000
# 4 0.0000 0.0000 0.0000 16.4690 0.0000 0.0000
# 5 0.0000 0.0000 0.0000 0.0000 13.8097 0.0000
# 6 0.0000 0.0000 0.0000 0.0000 0.0000 22.6978
#
#
#
# Elastic Compliance Matrix: (Units=1/GPa)
#
#
# Indices 1 2 3 4 5 6 
#
# 1 0.026386 -0.014612 -0.001565 0.000000 0.000000 0.000000
# 2 -0.014612 0.075196 -0.005191 0.000000 0.000000 0.000000
# 3 -0.001565 -0.005191 0.010007 0.000000 0.000000 0.000000
# 4 0.000000 0.000000 0.000000 0.060720 0.000000 0.000000
# 5 0.000000 0.000000 0.000000 0.000000 0.072413 0.000000
# 6 0.000000 0.000000 0.000000 0.000000 0.000000 0.044057
#
#
# Mechanical properties :
#
#
# Convention : Reuss Voigt Hill
#
# Bulk Modulus (GPa) = 14.52379 25.27619 19.89999
# Shear Modulus (GPa) = 14.10570 19.63914 16.87242
#
# Velocity S-wave (km/s) = 2.80589 3.31081 3.06876
# Velocity P-wave (km/s) = 4.31321 5.35939 4.86451
#
# Compressibility (1/GPa) = 0.06885253
#
# Stress axis : x y z
#
# Youngs Moduli (GPa) = 37.89857 13.29864 99.92754
#
# Poissons Ratio (x) = 0.19432 0.15634
# Poissons Ratio (y) = 0.55379 0.51877
# Poissons Ratio (z) = 0.05929 0.06904
#
# Static dielectric constant tensor:
#      x y z
#    x 1.612570 0.000000 0.000000 
#    y 0.000000 1.602360 0.000000 
#    z 0.000000 0.000000 1.588210 
# 
# From -- ./inp_files/33872.got.cif
#   From: 2010.05.17/outbox.cif.g08.bks.cpg/sg51_17_cif.got.tgz:33872.got - 2010.06.03 11:52:47.
