data_PCOD9402629
_publ_section_title
;
Structure prediction by ZEFSAII (Michael W. Deem and Ramdas Pophale) SiO2 
 PCOD9402629
Probable space group: P M M A
;
_chemical_formula_sum "Si O2"
_cell_formula_units_Z 48
_cell_length_a 14.381067
_cell_length_b 11.304702
_cell_length_c 15.576862
_cell_angle_alpha 90.000000
_cell_angle_beta 90.000000
_cell_angle_gamma 90.000000
_cell_volume 2532.387730
_symmetry_space_group_name_H-M "P M M A"
_symmetry_group_IT_number 51
_symmetry_cell_setting 'orthorhombic'
loop_
_space_group_symop_operation_xyz
x,y,z
1/2-x,-y,z
1/2+x,-y,-z
-x,y,-z
-x,-y,-z
1/2+x,y,-z
1/2-x,y,z
x,-y,z
loop_
_atom_site_type_symbol
_atom_site_label
_atom_site_fract_x
_atom_site_fract_y
_atom_site_fract_z
Si Si1 0.143039 0.500000 0.141926
Si Si2 0.861776 0.236709 0.654513
Si Si3 0.447312 0.731042 0.160354
Si Si4 0.851457 0.761564 0.164555
Si Si5 0.853832 0.136364 0.976750
Si Si6 0.646966 0.000000 0.276951
Si Si7 0.859445 0.500000 0.649253
Si Si8 0.468478 0.000000 0.402034
O O1 0.250000 0.500000 0.119418
O O2 0.095633 0.381079 0.112313
O O3 0.133944 0.500000 0.246402
O O4 0.750000 0.229988 0.645313
O O5 0.889016 0.237987 0.755127
O O6 0.893839 0.368654 0.621541
O O7 0.910299 0.120481 0.615772
O O8 0.552019 0.699542 0.186711
O O9 0.432848 0.835429 0.092379
O O10 0.750000 0.707248 0.183168
O O11 0.856296 0.884783 0.216594
O O12 0.856931 0.788172 0.063286
O O13 0.750000 0.155637 0.937364
O O14 0.859190 0.000000 0.002449
O O15 0.559710 0.000000 0.340768
O O16 0.750000 0.000000 0.319759
O O17 0.750000 0.500000 0.628252
O O18 0.500000 0.000000 0.500000
#
# Coordination Sequence:
#
# PCOD9402629 Si02
#       8
#     4   8   8   8   8   4   4   4
#     4   9  18  34  52  77 111 146 185 226 281 342
#     4  10  20  36  59  87 120 149 187 234 285 344
#     4  11  20  33  56  81 109 148 189 230 282 330
#     4  10  20  35  52  75 107 148 197 234 265 323
#     4  10  20  31  48  79 113 141 179 236 288 325
#     4  10  20  39  58  73 105 159 195 216 266 345
#     4   7  14  32  57  81 109 154 189 216 265 337
#     4  12  25  39  57  92 123 144 174 234 301 359
#
# _framework density 18.954442
#
# number of rings (size 3 to 8) (size 9 to 14) (size 15 to 20)
#    0.000    2.000    2.500    3.250    2.333    1.333 
#    0.000    2.500    0.000    2.000    0.000    0.583 
#    0.000    0.000    0.000    0.000    0.000    0.000 
#
# Total GULP energy -267381.182979 kJ/mol
# GULP energy per Si atom -5570.441312 kJ/mol
# Density = 1.891130 g / cm^3
# Si number density = 18.954442 Si / 1000 Ang^3
#
#
#
# Elastic Constant Matrix: (Units=GPa)
#
#
# Indices 1 2 3 4 5 6 
#
# 1 121.7109 27.8811 13.9527 0.0000 0.0000 0.0000
# 2 27.8811 92.2915 20.8499 0.0000 0.0000 0.0000
# 3 13.9527 20.8499 53.7318 0.0000 0.0000 0.0000
# 4 0.0000 0.0000 0.0000 3.2053 0.0000 0.0000
# 5 0.0000 0.0000 0.0000 0.0000 13.4513 0.0000
# 6 0.0000 0.0000 0.0000 0.0000 0.0000 16.1265
#
#
#
# Elastic Compliance Matrix: (Units=1/GPa)
#
#
# Indices 1 2 3 4 5 6 
#
# 1 0.008921 -0.002380 -0.001393 0.000000 0.000000 0.000000
# 2 -0.002380 0.012511 -0.004237 0.000000 0.000000 0.000000
# 3 -0.001393 -0.004237 0.020617 0.000000 0.000000 0.000000
# 4 0.000000 0.000000 0.000000 0.311982 0.000000 0.000000
# 5 0.000000 0.000000 0.000000 0.000000 0.074342 0.000000
# 6 0.000000 0.000000 0.000000 0.000000 0.000000 0.062010
#
#
# Mechanical properties :
#
#
# Convention : Reuss Voigt Hill
#
# Bulk Modulus (GPa) = 38.41843 43.67795 41.04819
# Shear Modulus (GPa) = 9.70723 20.22667 14.96695
#
# Velocity S-wave (km/s) = 2.26549 3.27022 2.81308
# Velocity P-wave (km/s) = 5.21115 6.11170 5.67930
#
# Compressibility (1/GPa) = 0.02602917
#
# Stress axis : x y z
#
# Youngs Moduli (GPa) = 112.09301 79.92655 48.50438
#
# Poissons Ratio (x) = 0.19026 0.06756
# Poissons Ratio (y) = 0.26683 0.20550
# Poissons Ratio (z) = 0.15614 0.33863
#
# Static dielectric constant tensor:
#      x y z
#    x 1.747030 0.000000 0.000000 
#    y 0.000000 1.599600 0.000000 
#    z 0.000000 0.000000 1.614560 
# 
# From -- ./inp_files/24135.got.cif
#   From: 2010.05.17/outbox.cif.g08.bks.cpg/sg51_13_cif.got.tgz:24135.got - 2010.06.03 11:52:47.
