data_PCOD9402811
_publ_section_title
;
Structure prediction by ZEFSAII (Michael W. Deem and Ramdas Pophale) SiO2 
 PCOD9402811
Probable space group: P M M A
;
_chemical_formula_sum "Si O2"
_cell_formula_units_Z 64
_cell_length_a 14.432852
_cell_length_b 8.996802
_cell_length_c 26.449883
_cell_angle_alpha 90.000000
_cell_angle_beta 90.000000
_cell_angle_gamma 90.000000
_cell_volume 3434.504393
_symmetry_space_group_name_H-M "P M M A"
_symmetry_group_IT_number 51
_symmetry_cell_setting 'orthorhombic'
loop_
_space_group_symop_operation_xyz
x,y,z
1/2-x,-y,z
1/2+x,-y,-z
-x,y,-z
-x,-y,-z
1/2+x,y,-z
1/2-x,y,z
x,-y,z
loop_
_atom_site_type_symbol
_atom_site_label
_atom_site_fract_x
_atom_site_fract_y
_atom_site_fract_z
Si Si1 0.107114 0.668609 0.483022
Si Si2 0.355254 0.681167 0.867771
Si Si3 0.445780 0.178565 0.381516
Si Si4 0.859139 0.321020 0.717938
Si Si5 0.958401 0.679208 0.821378
Si Si6 0.138034 0.826974 0.082947
Si Si7 0.362784 0.671237 0.980154
Si Si8 0.849202 0.178441 0.413821
O O1 0.141459 0.500000 0.477562
O O2 0.107660 0.754892 0.430123
O O3 0.150933 0.754930 0.529854
O O4 0.000000 0.660564 0.500000
O O5 0.250000 0.731412 0.857690
O O6 0.352440 0.500000 0.869805
O O7 0.434150 0.724236 0.828241
O O8 0.386291 0.729445 0.924217
O O9 0.402654 0.242996 0.330690
O O10 0.554664 0.224054 0.387182
O O11 0.440583 0.000000 0.382569
O O12 0.750000 0.287722 0.722118
O O13 0.868755 0.500000 0.712797
O O14 0.911736 0.273505 0.769041
O O15 0.954064 0.500000 0.823185
O O16 0.903973 0.741198 0.869619
O O17 0.250000 0.812919 0.084562
O O18 0.114350 0.000000 0.085995
O O19 0.106107 0.760561 0.029162
O O20 0.250000 0.671007 0.980430
O O21 0.392731 0.500000 0.984619
O O22 0.750000 0.220042 0.389452
O O23 0.852798 0.000000 0.417448
#
# Coordination Sequence:
#
# PCOD9402811 Si02
#       8
#     8   8   8   8   8   8   8   8
#     4   9  17  30  50  77 109 142 175 213 254 295
#     4   8  15  30  53  79 103 128 163 206 249 298
#     4  10  20  35  56  79 104 139 181 219 256 303
#     4  10  22  39  56  75 101 132 168 214 265 310
#     4  10  20  35  56  77  98 129 169 212 257 306
#     4  10  20  32  47  71 104 137 168 207 254 301
#     4   8  14  27  48  72  99 132 167 201 241 297
#     4   9  18  33  53  79 112 146 177 210 251 302
#
# _framework density 18.634421
#
# number of rings (size 3 to 8) (size 9 to 14) (size 15 to 20)
#    0.000    2.750    0.000    2.250    0.000    5.250 
#    0.000    3.750    0.000    1.875    0.000    0.000 
#    0.000    0.000    0.000    0.000    0.000    0.000 
#
# Total GULP energy -356891.773503 kJ/mol
# GULP energy per Si atom -5576.433961 kJ/mol
# Density = 1.859201 g / cm^3
# Si number density = 18.634421 Si / 1000 Ang^3
#
#
#
# Elastic Constant Matrix: (Units=GPa)
#
#
# Indices 1 2 3 4 5 6 
#
# 1 103.8986 27.4559 71.8678 0.0000 0.0000 0.0000
# 2 27.4559 22.5686 37.5742 0.0000 0.0000 0.0000
# 3 71.8678 37.5742 143.5299 0.0000 0.0000 0.0000
# 4 0.0000 0.0000 0.0000 -35.0134 0.0000 0.0000
# 5 0.0000 0.0000 0.0000 0.0000 23.5214 0.0000
# 6 0.0000 0.0000 0.0000 0.0000 0.0000 9.2645
#
#
#
# Elastic Compliance Matrix: (Units=1/GPa)
#
#
# Indices 1 2 3 4 5 6 
#
# 1 0.016117 -0.010939 -0.005206 0.000000 0.000000 0.000000
# 2 -0.010939 0.085966 -0.017027 0.000000 0.000000 0.000000
# 3 -0.005206 -0.017027 0.014032 0.000000 0.000000 0.000000
# 4 0.000000 0.000000 0.000000 -0.028561 0.000000 0.000000
# 5 0.000000 0.000000 0.000000 0.000000 0.042514 0.000000
# 6 0.000000 0.000000 0.000000 0.000000 0.000000 0.107939
#
#
# Mechanical properties :
#
#
# Convention : Reuss Voigt Hill
#
# Bulk Modulus (GPa) = 20.09288 60.42144 40.25716
# Shear Modulus (GPa) = 15.57917 8.42779 12.00348
#
# Velocity S-wave (km/s) = 2.89458 2.12897 2.54078
# Velocity P-wave (km/s) = 4.68802 6.20793 5.50072
#
# Compressibility (1/GPa) = 0.04976887
#
# Stress axis : x y z
#
# Youngs Moduli (GPa) = 62.04757 11.63254 71.26807
#
# Poissons Ratio (x) = 0.12725 0.37103
# Poissons Ratio (y) = 0.67874 1.21350
# Poissons Ratio (z) = 0.32303 0.19807
#
# Static dielectric constant tensor:
#      x y z
#    x 1.704850 0.000000 0.000000 
#    y 0.000000 1.624330 0.000000 
#    z 0.000000 0.000000 1.606580 
# 
# From -- ./inp_files/35639.got.cif
#   From: 2010.05.17/outbox.cif.g08.bks.cpg/sg51_18_cif.got.tgz:35639.got - 2010.06.03 11:52:47.
