data_PCOD9402042
_publ_section_title
;
Structure prediction by ZEFSAII (Michael W. Deem and Ramdas Pophale) SiO2 
 PCOD9402042
Probable space group: P M M A
;
_chemical_formula_sum "Si O2"
_cell_formula_units_Z 48
_cell_length_a 8.542940
_cell_length_b 31.839313
_cell_length_c 9.472078
_cell_angle_alpha 90.000000
_cell_angle_beta 90.000000
_cell_angle_gamma 90.000000
_cell_volume 2576.417914
_symmetry_space_group_name_H-M "P M M A"
_symmetry_group_IT_number 51
_symmetry_cell_setting 'orthorhombic'
loop_
_space_group_symop_operation_xyz
x,y,z
1/2-x,-y,z
1/2+x,-y,-z
-x,y,-z
-x,-y,-z
1/2+x,y,-z
1/2-x,y,z
x,-y,z
loop_
_atom_site_type_symbol
_atom_site_label
_atom_site_fract_x
_atom_site_fract_y
_atom_site_fract_z
Si Si1 0.439023 0.247750 0.343350
Si Si2 0.061613 0.000000 0.660145
Si Si3 0.061595 0.578060 0.158967
Si Si4 0.562298 0.830713 0.842005
Si Si5 0.061646 0.091878 0.660600
Si Si6 0.438815 0.343028 0.343149
Si Si7 0.062898 0.500000 0.659716
O O1 0.500000 0.237980 0.500000
O O2 0.250000 0.247439 0.346586
O O3 0.491790 0.212093 0.235183
O O4 0.489956 0.295391 0.308022
O O5 0.013130 0.954473 0.718747
O O6 0.000000 0.000000 0.500000
O O7 0.250000 0.000000 0.658087
O O8 0.250000 0.576168 0.157532
O O9 0.011657 0.622070 0.230723
O O10 0.997798 0.540619 0.255986
O O11 0.000000 0.574286 0.000000
O O12 0.750000 0.830811 0.843264
O O13 0.504031 0.870549 0.753399
O O14 0.500000 0.832554 0.000000
O O15 0.250000 0.093948 0.658098
O O16 0.000000 0.095488 0.500000
O O17 0.500000 0.353204 0.500000
O O18 0.250000 0.343347 0.348192
O O19 0.250000 0.500000 0.657151
O O20 0.000000 0.500000 0.500000
#
# Coordination Sequence:
#
# PCOD9402042 Si02
#       7
#     8   4   8   8   8   8   4
#     4   9  19  36  57  81 108 140 180 224 270 321
#     4   8  16  30  51  78 105 134 170 216 264 314
#     4  11  23  39  59  85 117 151 188 229 276 327
#     4  11  23  37  53  76 108 144 182 224 272 324
#     4  10  19  34  56  81 108 138 176 219 266 319
#     4   9  19  36  58  83 111 143 181 225 271 322
#     4  12  25  42  63  86 114 148 188 232 279 328
#
# _framework density 18.630517999999999
#
# number of rings (size 3 to 8) (size 9 to 14) (size 15 to 20)
#    0.000    2.000    0.000    3.500    0.000    6.667 
#    0.000    0.417    0.000    0.000    0.000    0.000 
#    0.000    0.000    0.000    0.000    0.000    0.000 
#
# Total GULP energy -267972.214304 kJ/mol
# GULP energy per Si atom -5582.754465 kJ/mol
# Density = 1.858811 g / cm^3
# Si number density = 18.630518 Si / 1000 Ang^3
#
#
#
# Elastic Constant Matrix: (Units=GPa)
#
#
# Indices 1 2 3 4 5 6 
#
# 1 49.0391 45.0372 37.6214 0.0000 0.0000 0.0000
# 2 45.0372 168.4982 119.7961 0.0000 0.0000 0.0000
# 3 37.6214 119.7961 149.7010 0.0000 0.0000 0.0000
# 4 0.0000 0.0000 0.0000 -21.1024 0.0000 0.0000
# 5 0.0000 0.0000 0.0000 0.0000 33.1652 0.0000
# 6 0.0000 0.0000 0.0000 0.0000 0.0000 13.2424
#
#
#
# Elastic Compliance Matrix: (Units=1/GPa)
#
#
# Indices 1 2 3 4 5 6 
#
# 1 0.027386 -0.005630 -0.002377 0.000000 0.000000 0.000000
# 2 -0.005630 0.014925 -0.010529 0.000000 0.000000 0.000000
# 3 -0.002377 -0.010529 0.015703 0.000000 0.000000 0.000000
# 4 0.000000 0.000000 0.000000 -0.047388 0.000000 0.000000
# 5 0.000000 0.000000 0.000000 0.000000 0.030152 0.000000
# 6 0.000000 0.000000 0.000000 0.000000 0.000000 0.075515
#
#
# Mechanical properties :
#
#
# Convention : Reuss Voigt Hill
#
# Bulk Modulus (GPa) = 47.75000 85.79419 66.77210
# Shear Modulus (GPa) = 31.18267 16.04661 23.61464
#
# Velocity S-wave (km/s) = 4.09558 2.93799 3.56409
# Velocity P-wave (km/s) = 6.93186 7.59338 7.27014
#
# Compressibility (1/GPa) = 0.02094241
#
# Stress axis : x y z
#
# Youngs Moduli (GPa) = 36.51506 67.00108 63.68233
#
# Poissons Ratio (x) = 0.37720 0.15139
# Poissons Ratio (y) = 0.20557 0.67050
# Poissons Ratio (z) = 0.08681 0.70544
#
# Static dielectric constant tensor:
#      x y z
#    x 1.636100 0.000000 0.000000 
#    y 0.000000 1.673790 0.000000 
#    z 0.000000 0.000000 1.588120 
# 
# From -- ./inp_files/6113.got.cif
#   From: 2010.05.17/outbox.cif.g08.bks.cpg/sg51_4_cif.got.tgz:6113.got - 2010.06.03 11:52:47.
