data_PCOD9402952
_publ_section_title
;
Structure prediction by ZEFSAII (Michael W. Deem and Ramdas Pophale) SiO2 
 PCOD9402952
Probable space group: P M M A
;
_chemical_formula_sum "Si O2"
_cell_formula_units_Z 64
_cell_length_a 14.375408
_cell_length_b 8.821627
_cell_length_c 26.712444
_cell_angle_alpha 90.000000
_cell_angle_beta 90.000000
_cell_angle_gamma 90.000000
_cell_volume 3387.524892
_symmetry_space_group_name_H-M "P M M A"
_symmetry_group_IT_number 51
_symmetry_cell_setting 'orthorhombic'
loop_
_space_group_symop_operation_xyz
x,y,z
1/2-x,-y,z
1/2+x,-y,-z
-x,y,-z
-x,-y,-z
1/2+x,y,-z
1/2-x,y,z
x,-y,z
loop_
_atom_site_type_symbol
_atom_site_label
_atom_site_fract_x
_atom_site_fract_y
_atom_site_fract_z
Si Si1 0.361676 0.823824 0.528250
Si Si2 0.636759 0.173633 0.969992
Si Si3 0.144300 0.682684 0.421137
Si Si4 0.966860 0.818406 0.178740
Si Si5 0.041968 0.682673 0.624896
Si Si6 0.141351 0.316582 0.727142
Si Si7 0.857990 0.680262 0.864461
Si Si8 0.142655 0.184548 0.920678
O O1 0.250000 0.813345 0.533238
O O2 0.384933 0.746334 0.475341
O O3 0.407042 0.744787 0.575844
O O4 0.388112 0.000000 0.526700
O O5 0.750000 0.168475 0.973747
O O6 0.615476 0.269012 0.920891
O O7 0.604003 0.000000 0.962319
O O8 0.605708 0.231489 0.024539
O O9 0.250000 0.733914 0.410508
O O10 0.145378 0.500000 0.424314
O O11 0.066354 0.726704 0.380892
O O12 0.912641 0.751172 0.225763
O O13 0.915318 0.768397 0.127444
O O14 0.071835 0.759824 0.173487
O O15 0.964834 0.000000 0.180732
O O16 0.047174 0.500000 0.623859
O O17 0.092003 0.733498 0.675607
O O18 0.250000 0.272651 0.727483
O O19 0.137082 0.500000 0.729442
O O20 0.750000 0.724349 0.856932
O O21 0.865210 0.500000 0.860056
O O22 0.250000 0.233485 0.915009
O O23 0.142820 0.000000 0.922301
#
# Coordination Sequence:
#
# PCOD9402952 Si02
#       8
#     8   8   8   8   8   8   8   8
#     4  10  20  32  49  78 114 147 179 220 271 322
#     4   8  14  28  51  76 103 136 173 213 258 312
#     4   9  18  33  53  78 109 144 181 219 260 312
#     4  11  22  36  57  81 105 137 180 227 270 318
#     4  10  20  35  56  79 105 143 188 227 264 311
#     4  10  22  40  59  80 109 141 174 219 273 323
#     4  10  21  37  55  76 106 141 176 217 266 321
#     4   8  15  29  50  77 107 138 173 213 260 317
#
# _framework density 18.892849999999999
#
# number of rings (size 3 to 8) (size 9 to 14) (size 15 to 20)
#    0.000    2.500    0.000    3.000    0.000    5.750 
#    0.000    4.375    0.000    5.250    0.000    0.000 
#    0.000    0.000    0.000    0.000    0.000    0.000 
#
# Total GULP energy -357246.219759 kJ/mol
# GULP energy per Si atom -5581.972184 kJ/mol
# Density = 1.884985 g / cm^3
# Si number density = 18.892850 Si / 1000 Ang^3
#
#
#
# Elastic Constant Matrix: (Units=GPa)
#
#
# Indices 1 2 3 4 5 6 
#
# 1 126.5395 35.2693 96.9221 0.0000 0.0000 0.0000
# 2 35.2693 17.1050 31.1536 0.0000 0.0000 0.0000
# 3 96.9221 31.1536 125.3938 0.0000 0.0000 0.0000
# 4 0.0000 0.0000 0.0000 31.1661 0.0000 0.0000
# 5 0.0000 0.0000 0.0000 0.0000 34.8841 0.0000
# 6 0.0000 0.0000 0.0000 0.0000 0.0000 18.1968
#
#
#
# Elastic Compliance Matrix: (Units=1/GPa)
#
#
# Indices 1 2 3 4 5 6 
#
# 1 0.026140 -0.031233 -0.012445 0.000000 0.000000 0.000000
# 2 -0.031233 0.144099 -0.011660 0.000000 0.000000 0.000000
# 3 -0.012445 -0.011660 0.020491 0.000000 0.000000 0.000000
# 4 0.000000 0.000000 0.000000 0.032086 0.000000 0.000000
# 5 0.000000 0.000000 0.000000 0.000000 0.028666 0.000000
# 6 0.000000 0.000000 0.000000 0.000000 0.000000 0.054955
#
#
# Mechanical properties :
#
#
# Convention : Reuss Voigt Hill
#
# Bulk Modulus (GPa) = 12.49147 66.19202 39.34175
# Shear Modulus (GPa) = 11.26641 23.89561 17.58101
#
# Velocity S-wave (km/s) = 2.44464 3.56026 3.05382
# Velocity P-wave (km/s) = 3.82027 7.21194 5.77090
#
# Compressibility (1/GPa) = 0.08005461
#
# Stress axis : x y z
#
# Youngs Moduli (GPa) = 38.25514 6.93970 48.80171
#
# Poissons Ratio (x) = 0.21675 0.60735
# Poissons Ratio (y) = 1.19482 0.56901
# Poissons Ratio (z) = 0.47609 0.08091
#
# Static dielectric constant tensor:
#      x y z
#    x 1.697810 0.000000 0.000000 
#    y 0.000000 1.634930 0.000000 
#    z 0.000000 0.000000 1.625610 
# 
# From -- ./inp_files/35871.got.cif
#   From: 2010.05.17/outbox.cif.g08.bks.cpg/sg51_18_cif.got.tgz:35871.got - 2010.06.03 11:52:47.
