data_PCOD9402785
_publ_section_title
;
Structure prediction by ZEFSAII (Michael W. Deem and Ramdas Pophale) SiO2 
 PCOD9402785
Probable space group: P M M A
;
_chemical_formula_sum "Si O2"
_cell_formula_units_Z 44
_cell_length_a 8.585692
_cell_length_b 29.762701
_cell_length_c 9.851664
_cell_angle_alpha 90.000000
_cell_angle_beta 90.000000
_cell_angle_gamma 90.000000
_cell_volume 2517.429039
_symmetry_space_group_name_H-M "P M M A"
_symmetry_group_IT_number 51
_symmetry_cell_setting 'orthorhombic'
loop_
_space_group_symop_operation_xyz
x,y,z
1/2-x,-y,z
1/2+x,-y,-z
-x,y,-z
-x,-y,-z
1/2+x,y,-z
1/2-x,y,z
x,-y,z
loop_
_atom_site_type_symbol
_atom_site_label
_atom_site_fract_x
_atom_site_fract_y
_atom_site_fract_z
Si Si1 0.937139 0.272592 0.847809
Si Si2 0.062173 0.000000 0.654508
Si Si3 0.436500 0.190963 0.346618
Si Si4 0.562892 0.097129 0.345203
Si Si5 0.062013 0.550542 0.651391
Si Si6 0.562705 0.369520 0.151899
O O1 0.750000 0.274470 0.852762
O O2 0.984697 0.232581 0.747324
O O3 0.000883 0.320979 0.801252
O O4 0.000000 0.264941 0.000000
O O5 0.015749 0.951559 0.715682
O O6 0.000000 0.000000 0.500000
O O7 0.250000 0.000000 0.648818
O O8 0.500000 0.195916 0.500000
O O9 0.250000 0.189572 0.353504
O O10 0.495766 0.143338 0.287331
O O11 0.500000 0.096386 0.500000
O O12 0.750000 0.099943 0.347123
O O13 0.250000 0.551285 0.647875
O O14 0.013572 0.500000 0.693734
O O15 0.010383 0.589793 0.752088
O O16 0.000000 0.558146 0.500000
O O17 0.750000 0.368272 0.148701
O O18 0.500000 0.376344 0.000000
#
# Coordination Sequence:
#
# PCOD9402785 Si02
#       6
#     8   4   8   8   8   8
#     4  10  21  36  53  72  96 126 162 201 241 287
#     4   8  14  22  34  56  85 118 153 186 228 278
#     4  10  20  32  47  70  97 125 158 196 238 285
#     4   9  15  24  39  60  89 122 154 191 233 278
#     4   9  19  35  53  75 103 133 164 198 237 282
#     4  10  20  34  53  75  99 127 161 200 240 284
#
# _framework density 17.478148999999998
#
# number of rings (size 3 to 8) (size 9 to 14) (size 15 to 20)
#    0.000    2.545    0.000    4.364    0.000    6.182 
#    0.000    3.636    0.000    0.000    0.000    0.636 
#    0.000    0.000    0.000    0.000    0.000    0.000 
#
# Total GULP energy -245151.620234 kJ/mol
# GULP energy per Si atom -5571.627733 kJ/mol
# Density = 1.743837 g / cm^3
# Si number density = 17.478149 Si / 1000 Ang^3
#
#
#
# Elastic Constant Matrix: (Units=GPa)
#
#
# Indices 1 2 3 4 5 6 
#
# 1 37.5291 42.4350 17.5294 0.0000 0.0000 0.0000
# 2 42.4350 225.5715 85.9923 0.0000 0.0000 0.0000
# 3 17.5294 85.9923 45.2318 0.0000 0.0000 0.0000
# 4 0.0000 0.0000 0.0000 10.1084 0.0000 0.0000
# 5 0.0000 0.0000 0.0000 0.0000 19.9103 0.0000
# 6 0.0000 0.0000 0.0000 0.0000 0.0000 -52.6109
#
#
#
# Elastic Compliance Matrix: (Units=1/GPa)
#
#
# Indices 1 2 3 4 5 6 
#
# 1 0.034015 -0.004990 -0.003695 0.000000 0.000000 0.000000
# 2 -0.004990 0.016838 -0.030078 0.000000 0.000000 0.000000
# 3 -0.003695 -0.030078 0.080723 0.000000 0.000000 0.000000
# 4 0.000000 0.000000 0.000000 0.098928 0.000000 0.000000
# 5 0.000000 0.000000 0.000000 0.000000 0.050225 0.000000
# 6 0.000000 0.000000 0.000000 0.000000 0.000000 -0.019007
#
#
# Mechanical properties :
#
#
# Convention : Reuss Voigt Hill
#
# Bulk Modulus (GPa) = 18.50160 66.69398 42.59779
# Shear Modulus (GPa) = 13.99520 6.30660 10.15090
#
# Velocity S-wave (km/s) = 2.83278 1.90161 2.41254
# Velocity P-wave (km/s) = 4.61606 6.56223 5.67322
#
# Compressibility (1/GPa) = 0.05404939
#
# Stress axis : x y z
#
# Youngs Moduli (GPa) = 29.39921 59.38808 12.38799
#
# Poissons Ratio (x) = 0.29637 0.04577
# Poissons Ratio (y) = 0.14671 0.37261
# Poissons Ratio (z) = 0.10863 1.78629
#
# Static dielectric constant tensor:
#      x y z
#    x 1.591130 0.000000 0.000000 
#    y 0.000000 1.650680 0.000000 
#    z 0.000000 0.000000 1.556030 
# 
# From -- ./inp_files/5829.got.cif
#   From: 2010.05.17/outbox.cif.g08.bks.cpg/sg51_3_cif.got.tgz:5829.got - 2010.06.03 11:52:47.
