data_PCOD9402934
_publ_section_title
;
Structure prediction by ZEFSAII (Michael W. Deem and Ramdas Pophale) SiO2 
 PCOD9402934
Probable space group: P M M A
;
_chemical_formula_sum "Si O2"
_cell_formula_units_Z 40
_cell_length_a 8.928964
_cell_length_b 19.048951
_cell_length_c 13.993900
_cell_angle_alpha 90.000000
_cell_angle_beta 90.000000
_cell_angle_gamma 90.000000
_cell_volume 2380.186035
_symmetry_space_group_name_H-M "P M M A"
_symmetry_group_IT_number 51
_symmetry_cell_setting 'orthorhombic'
loop_
_space_group_symop_operation_xyz
x,y,z
1/2-x,-y,z
1/2+x,-y,-z
-x,y,-z
-x,-y,-z
1/2+x,y,-z
1/2-x,y,z
x,-y,z
loop_
_atom_site_type_symbol
_atom_site_label
_atom_site_fract_x
_atom_site_fract_y
_atom_site_fract_z
Si Si1 0.070400 0.708674 0.101360
Si Si2 0.070499 0.648131 0.396721
Si Si3 0.428849 0.581094 0.788150
Si Si4 0.928185 0.207070 0.709584
Si Si5 0.571448 0.080408 0.396448
O O1 0.250000 0.703544 0.095319
O O2 0.033623 0.764338 0.185035
O O3 0.003932 0.634740 0.137854
O O4 0.000000 0.727292 0.000000
O O5 0.250000 0.638957 0.398162
O O6 0.039015 0.728090 0.362188
O O7 0.000000 0.635448 0.500000
O O8 0.998176 0.599457 0.315306
O O9 0.250000 0.592508 0.785833
O O10 0.457535 0.500000 0.811938
O O11 0.750000 0.194688 0.705914
O O12 0.012688 0.137778 0.677289
O O13 0.500000 0.095226 0.500000
O O14 0.750000 0.084766 0.404580
O O15 0.531092 0.000000 0.370592
#
# Coordination Sequence:
#
# PCOD9402934 Si02
#       5
#     8   8   8   8   8
#     4  10  21  37  57  79 101 128 165 208 256 306
#     4  10  20  33  50  73 101 134 172 210 251 301
#     4  10  21  36  53  74 100 131 168 209 254 303
#     4   9  19  34  52  75 101 131 167 207 250 295
#     4  10  20  32  49  76 108 141 173 204 242 289
#
# _framework density 16.805409999999998
#
# number of rings (size 3 to 8) (size 9 to 14) (size 15 to 20)
#    0.000    2.200    0.000    4.200    0.000   10.000 
#    0.000    0.000    0.000    0.600    0.000    0.000 
#    0.000    0.000    0.000    0.000    0.000    0.000 
#
# Total GULP energy -223301.757676 kJ/mol
# GULP energy per Si atom -5582.543942 kJ/mol
# Density = 1.676716 g / cm^3
# Si number density = 16.805410 Si / 1000 Ang^3
#
#
#
# Elastic Constant Matrix: (Units=GPa)
#
#
# Indices 1 2 3 4 5 6 
#
# 1 63.0552 58.2714 39.1091 0.0000 0.0000 0.0000
# 2 58.2714 107.3980 47.5058 0.0000 0.0000 0.0000
# 3 39.1091 47.5058 80.2085 0.0000 0.0000 0.0000
# 4 0.0000 0.0000 0.0000 7.7953 0.0000 0.0000
# 5 0.0000 0.0000 0.0000 0.0000 33.4944 0.0000
# 6 0.0000 0.0000 0.0000 0.0000 0.0000 30.8191
#
#
#
# Elastic Compliance Matrix: (Units=1/GPa)
#
#
# Indices 1 2 3 4 5 6 
#
# 1 0.035168 -0.015577 -0.007922 0.000000 0.000000 0.000000
# 2 -0.015577 0.019516 -0.003964 0.000000 0.000000 0.000000
# 3 -0.007922 -0.003964 0.018678 0.000000 0.000000 0.000000
# 4 0.000000 0.000000 0.000000 0.128282 0.000000 0.000000
# 5 0.000000 0.000000 0.000000 0.000000 0.029856 0.000000
# 6 0.000000 0.000000 0.000000 0.000000 0.000000 0.032447
#
#
# Mechanical properties :
#
#
# Convention : Reuss Voigt Hill
#
# Bulk Modulus (GPa) = 54.23953 60.04826 57.14389
# Shear Modulus (GPa) = 15.38381 21.47345 18.42863
#
# Velocity S-wave (km/s) = 3.02885 3.57847 3.31507
# Velocity P-wave (km/s) = 6.67660 7.27207 6.98069
#
# Compressibility (1/GPa) = 0.01843674
#
# Stress axis : x y z
#
# Youngs Moduli (GPa) = 28.43526 51.23956 53.54002
#
# Poissons Ratio (x) = 0.79816 0.42412
# Poissons Ratio (y) = 0.44294 0.21222
# Poissons Ratio (z) = 0.22525 0.20310
#
# Static dielectric constant tensor:
#      x y z
#    x 1.558070 0.000000 0.000000 
#    y 0.000000 1.558670 0.000000 
#    z 0.000000 0.000000 1.546970 
# 
# From -- ./inp_files/14015.got.cif
#   From: 2010.05.17/outbox.cif.g08.bks.cpg/sg51_8_cif.got.tgz:14015.got - 2010.06.03 11:52:47.
