data_PCOD9402070
_publ_section_title
;
Structure prediction by ZEFSAII (Michael W. Deem and Ramdas Pophale) SiO2 
 PCOD9402070
Probable space group: P M M A
;
_chemical_formula_sum "Si O2"
_cell_formula_units_Z 44
_cell_length_a 8.479727
_cell_length_b 15.521037
_cell_length_c 16.535377
_cell_angle_alpha 90.000000
_cell_angle_beta 90.000000
_cell_angle_gamma 90.000000
_cell_volume 2176.289697
_symmetry_space_group_name_H-M "P M M A"
_symmetry_group_IT_number 51
_symmetry_cell_setting 'orthorhombic'
loop_
_space_group_symop_operation_xyz
x,y,z
1/2-x,-y,z
1/2+x,-y,-z
-x,y,-z
-x,-y,-z
1/2+x,y,-z
1/2-x,y,z
x,-y,z
loop_
_atom_site_type_symbol
_atom_site_label
_atom_site_fract_x
_atom_site_fract_y
_atom_site_fract_z
Si Si1 0.750000 0.097365 0.153230
Si Si2 0.992774 0.596546 0.179678
Si Si3 0.066972 0.406319 0.366468
Si Si4 0.750000 0.406281 0.959439
Si Si5 0.250000 0.281635 0.889972
Si Si6 0.565784 0.100439 0.736396
Si Si7 0.938881 0.777654 0.584786
O O1 0.750000 0.180538 0.096131
O O2 0.584689 0.106588 0.203218
O O3 0.750000 0.000000 0.119203
O O4 0.919544 0.500000 0.179005
O O5 0.891815 0.681046 0.163630
O O6 0.066039 0.602579 0.268757
O O7 0.106253 0.597017 0.102534
O O8 0.250000 0.409379 0.391498
O O9 0.994369 0.500000 0.386557
O O10 0.994440 0.319228 0.401841
O O11 0.750000 0.500000 0.000731
O O12 0.750000 0.333344 0.026108
O O13 0.750000 0.120164 0.764314
O O14 0.527899 0.162305 0.661321
O O15 0.569544 0.000000 0.711318
O O16 0.750000 0.771464 0.580835
O O17 0.000000 0.812792 0.500000
#
# Coordination Sequence:
#
# PCOD9402070 Si02
#       7
#     4   8   8   4   4   8   8
#     4  10  22  40  62  87 117 155 196 241 289 345
#     4  10  19  34  56  82 113 149 190 235 285 341
#     4   9  17  33  54  73 100 146 194 228 263 323
#     4  10  20  36  58  83 119 157 188 231 293 353
#     4  12  22  32  52  88 118 144 180 238 296 350
#     4   9  19  38  62  86 113 148 191 238 291 348
#     4  10  21  34  51  79 113 147 183 233 285 341
#
# _framework density 20.217897000000001
#
# number of rings (size 3 to 8) (size 9 to 14) (size 15 to 20)
#    0.000    2.182    0.909    2.455    1.273    2.182 
#    3.273    0.000    0.000    2.182    0.000    0.000 
#    0.000    0.000    0.000    0.000    0.000    0.000 
#
# Total GULP energy -244988.277716 kJ/mol
# GULP energy per Si atom -5567.915403 kJ/mol
# Density = 2.017188 g / cm^3
# Si number density = 20.217897 Si / 1000 Ang^3
#
#
#
# Elastic Constant Matrix: (Units=GPa)
#
#
# Indices 1 2 3 4 5 6 
#
# 1 48.9927 25.4938 0.3496 0.0000 0.0000 0.0000
# 2 25.4938 124.8581 23.3803 0.0000 0.0000 0.0000
# 3 0.3496 23.3803 35.7899 0.0000 0.0000 0.0000
# 4 0.0000 0.0000 0.0000 4.4394 0.0000 0.0000
# 5 0.0000 0.0000 0.0000 0.0000 -37.7597 0.0000
# 6 0.0000 0.0000 0.0000 0.0000 0.0000 19.3378
#
#
#
# Elastic Compliance Matrix: (Units=1/GPa)
#
#
# Indices 1 2 3 4 5 6 
#
# 1 0.023167 -0.005341 0.003263 0.000000 0.000000 0.000000
# 2 -0.005341 0.010357 -0.006714 0.000000 0.000000 0.000000
# 3 0.003263 -0.006714 0.032295 0.000000 0.000000 0.000000
# 4 0.000000 0.000000 0.000000 0.225257 0.000000 0.000000
# 5 0.000000 0.000000 0.000000 0.000000 -0.026483 0.000000
# 6 0.000000 0.000000 0.000000 0.000000 0.000000 0.051712
#
#
# Mechanical properties :
#
#
# Convention : Reuss Voigt Hill
#
# Bulk Modulus (GPa) = 20.73182 34.23203 27.48193
# Shear Modulus (GPa) = 14.28707 7.89796 11.09252
#
# Velocity S-wave (km/s) = 2.66118 1.97861 2.34487
# Velocity P-wave (km/s) = 4.44060 4.71043 4.57751
#
# Compressibility (1/GPa) = 0.04823503
#
# Stress axis : x y z
#
# Youngs Moduli (GPa) = 43.16415 96.55432 30.96482
#
# Poissons Ratio (x) = 0.51573 -0.10104
# Poissons Ratio (y) = 0.23056 0.20789
# Poissons Ratio (z) = -0.14085 0.64823
#
# Static dielectric constant tensor:
#      x y z
#    x 1.711480 0.000000 0.000000 
#    y 0.000000 1.740110 0.000000 
#    z 0.000000 0.000000 1.675510 
# 
# From -- ./inp_files/27466.got.cif
#   From: 2010.05.17/outbox.cif.g08.bks.cpg/sg51_14_cif.got.tgz:27466.got - 2010.06.03 11:52:47.
