data_PCOD9402298
_publ_section_title
;
Structure prediction by ZEFSAII (Michael W. Deem and Ramdas Pophale) SiO2 
 PCOD9402298
Probable space group: P M M A
;
_chemical_formula_sum "Si O2"
_cell_formula_units_Z 48
_cell_length_a 16.593091
_cell_length_b 7.674797
_cell_length_c 17.220801
_cell_angle_alpha 90.000000
_cell_angle_beta 90.000000
_cell_angle_gamma 90.000000
_cell_volume 2193.044985
_symmetry_space_group_name_H-M "P M M A"
_symmetry_group_IT_number 51
_symmetry_cell_setting 'orthorhombic'
loop_
_space_group_symop_operation_xyz
x,y,z
1/2-x,-y,z
1/2+x,-y,-z
-x,y,-z
-x,-y,-z
1/2+x,y,-z
1/2-x,y,z
x,-y,z
loop_
_atom_site_type_symbol
_atom_site_label
_atom_site_fract_x
_atom_site_fract_y
_atom_site_fract_z
Si Si1 0.595719 0.701296 0.826919
Si Si2 0.657211 0.789295 0.997240
Si Si3 0.589304 0.209151 0.159701
Si Si4 0.661071 0.213197 0.319198
Si Si5 0.162081 0.201033 0.330274
Si Si6 0.498800 0.212950 0.590230
O O1 0.607213 0.500000 0.809500
O O2 0.620369 0.734754 0.915459
O O3 0.502287 0.749681 0.818992
O O4 0.647614 0.798809 0.762319
O O5 0.750000 0.734270 0.001398
O O6 0.654729 0.000000 0.998305
O O7 0.611513 0.724471 0.074117
O O8 0.645884 0.268299 0.230008
O O9 0.596930 0.000000 0.156462
O O10 0.750000 0.268613 0.345823
O O11 0.583848 0.271525 0.368713
O O12 0.660462 0.000000 0.320538
O O13 0.250000 0.279780 0.347693
O O14 0.080757 0.276314 0.368225
O O15 0.165161 0.000000 0.356622
O O16 0.500000 0.259632 0.500000
O O17 0.498464 0.000000 0.595817
#
# Coordination Sequence:
#
# PCOD9402298 Si02
#       6
#     8   8   8   8   8   8
#     4  12  24  36  53  78 110 148 190 230 276 325
#     4  10  21  36  55  80 108 141 185 233 279 329
#     4  10  19  35  57  79 106 142 186 229 275 329
#     4   9  16  28  51  81 110 140 177 222 271 322
#     4  10  20  36  58  82 111 149 188 226 272 327
#     4   9  17  30  51  83 119 145 171 219 280 335
#
# _framework density 21.887376
#
# number of rings (size 3 to 8) (size 9 to 14) (size 15 to 20)
#    0.000    2.000    1.667    3.000    0.000    8.000 
#    0.000    3.333    0.000    2.000    0.000    0.000 
#    0.000    0.000    0.000    0.000    0.000    0.000 
#
# Total GULP energy -268127.379536 kJ/mol
# GULP energy per Si atom -5585.987074 kJ/mol
# Density = 2.183756 g / cm^3
# Si number density = 21.887376 Si / 1000 Ang^3
#
#
#
# Elastic Constant Matrix: (Units=GPa)
#
#
# Indices 1 2 3 4 5 6 
#
# 1 191.4682 5.2274 69.1487 0.0000 0.0000 0.0000
# 2 5.2274 43.5791 -1.8629 0.0000 0.0000 0.0000
# 3 69.1487 -1.8629 127.7410 0.0000 0.0000 0.0000
# 4 0.0000 0.0000 0.0000 -53.1833 0.0000 0.0000
# 5 0.0000 0.0000 0.0000 0.0000 11.1068 0.0000
# 6 0.0000 0.0000 0.0000 0.0000 0.0000 -43.3905
#
#
#
# Elastic Compliance Matrix: (Units=1/GPa)
#
#
# Indices 1 2 3 4 5 6 
#
# 1 0.006530 -0.000935 -0.003548 0.000000 0.000000 0.000000
# 2 -0.000935 0.023095 0.000843 0.000000 0.000000 0.000000
# 3 -0.003548 0.000843 0.009761 0.000000 0.000000 0.000000
# 4 0.000000 0.000000 0.000000 -0.018803 0.000000 0.000000
# 5 0.000000 0.000000 0.000000 0.000000 0.090035 0.000000
# 6 0.000000 0.000000 0.000000 0.000000 0.000000 -0.023047
#
#
# Mechanical properties :
#
#
# Convention : Reuss Voigt Hill
#
# Bulk Modulus (GPa) = 31.14740 56.42385 43.78563
# Shear Modulus (GPa) = 47.36893 2.25829 24.81361
#
# Velocity S-wave (km/s) = 4.65716 1.01687 3.37069
# Velocity P-wave (km/s) = 6.57118 5.21669 5.93272
#
# Compressibility (1/GPa) = 0.03210540
#
# Stress axis : x y z
#
# Youngs Moduli (GPa) = 153.14391 43.29952 102.44415
#
# Poissons Ratio (x) = 0.04048 0.36351
# Poissons Ratio (y) = 0.14318 -0.08635
# Poissons Ratio (z) = 0.54341 -0.03650
#
# Static dielectric constant tensor:
#      x y z
#    x 1.782740 0.000000 0.000000 
#    y 0.000000 1.804350 0.000000 
#    z 0.000000 0.000000 1.752880 
# 
# From -- ./inp_files/29414.got.cif
#   From: 2010.05.17/outbox.cif.g08.bks.cpg/sg51_15_cif.got.tgz:29414.got - 2010.06.03 11:52:47.
