data_PCOD9402492
_publ_section_title
;
Structure prediction by ZEFSAII (Michael W. Deem and Ramdas Pophale) SiO2 
 PCOD9402492
Probable space group: P M M A
;
_chemical_formula_sum "Si O2"
_cell_formula_units_Z 40
_cell_length_a 8.537593
_cell_length_b 12.211910
_cell_length_c 20.937255
_cell_angle_alpha 90.000000
_cell_angle_beta 90.000000
_cell_angle_gamma 90.000000
_cell_volume 2182.924850
_symmetry_space_group_name_H-M "P M M A"
_symmetry_group_IT_number 51
_symmetry_cell_setting 'orthorhombic'
loop_
_space_group_symop_operation_xyz
x,y,z
1/2-x,-y,z
1/2+x,-y,-z
-x,y,-z
-x,-y,-z
1/2+x,y,-z
1/2-x,y,z
x,-y,z
loop_
_atom_site_type_symbol
_atom_site_label
_atom_site_fract_x
_atom_site_fract_y
_atom_site_fract_z
Si Si1 0.560975 0.767243 0.569916
Si Si2 0.562221 0.626304 0.070866
Si Si3 0.937945 0.768649 0.813141
Si Si4 0.439558 0.000000 0.373509
Si Si5 0.058945 0.625402 0.309130
Si Si6 0.563737 0.000000 0.228607
O O1 0.500000 0.739449 0.500000
O O2 0.750000 0.766604 0.568789
O O3 0.510049 0.889624 0.590483
O O4 0.509384 0.683913 0.625355
O O5 0.750000 0.632146 0.070976
O O6 0.515959 0.500000 0.085632
O O7 0.494124 0.707276 0.123550
O O8 0.500000 0.651230 0.000000
O O9 0.750000 0.773335 0.812211
O O10 0.990353 0.697428 0.751566
O O11 0.003448 0.890427 0.805523
O O12 0.499641 0.000000 0.301143
O O13 0.250000 0.000000 0.370789
O O14 0.250000 0.624796 0.308923
O O15 0.006023 0.500000 0.304606
O O16 0.750000 0.000000 0.230154
#
# Coordination Sequence:
#
# PCOD9402492 Si02
#       6
#     8   8   8   4   8   4
#     4  10  20  34  53  77 109 144 187 236 288 346
#     4  10  21  38  61  92 128 162 198 239 283 333
#     4  11  21  38  62  86 116 154 197 240 289 347
#     4  10  19  37  57  77 105 145 190 237 291 349
#     4   9  18  33  55  81 109 145 188 232 282 343
#     4  12  24  37  58  87 117 147 188 241 297 351
#
# _framework density 18.32404
#
# number of rings (size 3 to 8) (size 9 to 14) (size 15 to 20)
#    0.000    1.800    2.000    3.000    0.000    3.200 
#    0.000    0.500    0.000    2.400    0.000    0.000 
#    0.000    0.000    0.000    0.000    0.000    0.000 
#
# Total GULP energy -223468.305157 kJ/mol
# GULP energy per Si atom -5586.707629 kJ/mol
# Density = 1.828233 g / cm^3
# Si number density = 18.324040 Si / 1000 Ang^3
#
#
#
# Elastic Constant Matrix: (Units=GPa)
#
#
# Indices 1 2 3 4 5 6 
#
# 1 28.1006 28.5073 24.9798 0.0000 0.0000 0.0000
# 2 28.5073 170.8444 98.1400 0.0000 0.0000 0.0000
# 3 24.9798 98.1400 149.2836 0.0000 0.0000 0.0000
# 4 0.0000 0.0000 0.0000 33.3275 0.0000 0.0000
# 5 0.0000 0.0000 0.0000 0.0000 34.1896 0.0000
# 6 0.0000 0.0000 0.0000 0.0000 0.0000 9.2394
#
#
#
# Elastic Compliance Matrix: (Units=1/GPa)
#
#
# Indices 1 2 3 4 5 6 
#
# 1 0.044352 -0.005041 -0.004107 0.000000 0.000000 0.000000
# 2 -0.005041 0.009978 -0.005716 0.000000 0.000000 0.000000
# 3 -0.004107 -0.005716 0.011144 0.000000 0.000000 0.000000
# 4 0.000000 0.000000 0.000000 0.030005 0.000000 0.000000
# 5 0.000000 0.000000 0.000000 0.000000 0.029249 0.000000
# 6 0.000000 0.000000 0.000000 0.000000 0.000000 0.108232
#
#
# Mechanical properties :
#
#
# Convention : Reuss Voigt Hill
#
# Bulk Modulus (GPa) = 27.97646 72.38698 50.18172
# Shear Modulus (GPa) = 18.20808 28.45806 23.33307
#
# Velocity S-wave (km/s) = 3.15568 3.94514 3.57229
# Velocity P-wave (km/s) = 5.34589 7.76800 6.66784
#
# Compressibility (1/GPa) = 0.03574434
#
# Stress axis : x y z
#
# Youngs Moduli (GPa) = 22.54702 100.22064 89.73676
#
# Poissons Ratio (x) = 0.50523 0.36858
# Poissons Ratio (y) = 0.11366 0.51294
# Poissons Ratio (z) = 0.09261 0.57287
#
# Static dielectric constant tensor:
#      x y z
#    x 1.623250 0.000000 0.000000 
#    y 0.000000 1.619000 0.000000 
#    z 0.000000 0.000000 1.593590 
# 
# From -- ./inp_files/31393.got.cif
#   From: 2010.05.17/outbox.cif.g08.bks.cpg/sg51_16_cif.got.tgz:31393.got - 2010.06.03 11:52:47.
