data_PCOD9402231
_publ_section_title
;
Structure prediction by ZEFSAII (Michael W. Deem and Ramdas Pophale) SiO2 
 PCOD9402231
Probable space group: P M M A
;
_chemical_formula_sum "Si O2"
_cell_formula_units_Z 32
_cell_length_a 15.276059
_cell_length_b 17.177754
_cell_length_c 5.343754
_cell_angle_alpha 90.000000
_cell_angle_beta 90.000000
_cell_angle_gamma 90.000000
_cell_volume 1402.245849
_symmetry_space_group_name_H-M "P M M A"
_symmetry_group_IT_number 51
_symmetry_cell_setting 'orthorhombic'
loop_
_space_group_symop_operation_xyz
x,y,z
1/2-x,-y,z
1/2+x,-y,-z
-x,y,-z
-x,-y,-z
1/2+x,y,-z
1/2-x,y,z
x,-y,z
loop_
_atom_site_type_symbol
_atom_site_label
_atom_site_fract_x
_atom_site_fract_y
_atom_site_fract_z
Si Si1 0.349938 0.679453 0.074832
Si Si2 0.102263 0.091134 0.719054
Si Si3 0.596768 0.154340 0.780868
Si Si4 0.602637 0.589349 0.433364
O O1 0.250000 0.704889 0.035092
O O2 0.405328 0.755550 0.146823
O O3 0.353335 0.624075 0.317878
O O4 0.381008 0.637773 0.820359
O O5 0.139709 0.139660 0.487911
O O6 0.000841 0.118750 0.749614
O O7 0.105557 0.000000 0.663134
O O8 0.141249 0.109885 0.989242
O O9 0.500000 0.590506 0.500000
O O10 0.629972 0.500000 0.390465
#
# Coordination Sequence:
#
# PCOD9402231 Si02
#       4
#     8   8   8   8
#     4  12  26  42  66  98 137 176 214 263 337 407
#     4  10  19  34  60  90 119 165 221 268 314 374
#     4  10  20  33  56  89 123 160 205 269 312 372
#     4  11  26  46  70  97 128 168 223 279 322 383
#
# _framework density 22.820537000000002
#
# number of rings (size 3 to 8) (size 9 to 14) (size 15 to 20)
#    0.000    1.250    0.000    7.500   10.500    5.000 
#    0.000    0.000    0.000    8.250    0.000    0.000 
#    0.000    0.000    0.000    0.000    0.000    0.000 
#
# Total GULP energy -178900.962994 kJ/mol
# GULP energy per Si atom -5590.655094 kJ/mol
# Density = 2.276860 g / cm^3
# Si number density = 22.820537 Si / 1000 Ang^3
#
#
#
# Elastic Constant Matrix: (Units=GPa)
#
#
# Indices 1 2 3 4 5 6 
#
# 1 53.1281 9.1003 11.2967 0.0000 0.0000 0.0000
# 2 9.1003 135.1005 65.2222 0.0000 0.0000 0.0000
# 3 11.2967 65.2222 238.2874 0.0000 0.0000 0.0000
# 4 0.0000 0.0000 0.0000 50.7060 0.0000 0.0000
# 5 0.0000 0.0000 0.0000 0.0000 -17.9939 0.0000
# 6 0.0000 0.0000 0.0000 0.0000 0.0000 -22.6549
#
#
#
# Elastic Compliance Matrix: (Units=1/GPa)
#
#
# Indices 1 2 3 4 5 6 
#
# 1 0.019126 -0.000980 -0.000638 0.000000 0.000000 0.000000
# 2 -0.000980 0.008579 -0.002302 0.000000 0.000000 0.000000
# 3 -0.000638 -0.002302 0.004857 0.000000 0.000000 0.000000
# 4 0.000000 0.000000 0.000000 0.019722 0.000000 0.000000
# 5 0.000000 0.000000 0.000000 0.000000 -0.055575 0.000000
# 6 0.000000 0.000000 0.000000 0.000000 0.000000 -0.044141
#
#
# Mechanical properties :
#
#
# Convention : Reuss Voigt Hill
#
# Bulk Modulus (GPa) = 40.45064 66.41714 53.43389
# Shear Modulus (GPa) = -159.48729 24.73792 -67.37468
#
# Velocity S-wave (km/s) = -8.36895 3.29602 -5.43947
# Velocity P-wave (km/s) = 8.69608 6.60699 3.99809
#
# Compressibility (1/GPa) = 0.02472149
#
# Stress axis : x y z
#
# Youngs Moduli (GPa) = 52.28469 116.56195 205.89269
#
# Poissons Ratio (x) = 0.11424 0.13145
# Poissons Ratio (y) = 0.05124 0.47391
# Poissons Ratio (z) = 0.03338 0.26830
#
# Static dielectric constant tensor:
#      x y z
#    x 1.812080 0.000000 0.000000 
#    y 0.000000 1.817640 0.000000 
#    z 0.000000 0.000000 1.916360 
# 
# From -- ./inp_files/1910.got.cif
#   From: 2010.05.17/outbox.cif.g08.bks.cpg/sg51_1_cif.got.tgz:1910.got - 2010.06.03 11:52:47.
