data_PCOD9402723
_publ_section_title
;
Structure prediction by ZEFSAII (Michael W. Deem and Ramdas Pophale) SiO2 
 PCOD9402723
Probable space group: P M M A
;
_chemical_formula_sum "Si O2"
_cell_formula_units_Z 64
_cell_length_a 15.078931
_cell_length_b 9.392963
_cell_length_c 21.844062
_cell_angle_alpha 90.000000
_cell_angle_beta 90.000000
_cell_angle_gamma 90.000000
_cell_volume 3093.902091
_symmetry_space_group_name_H-M "P M M A"
_symmetry_group_IT_number 51
_symmetry_cell_setting 'orthorhombic'
loop_
_space_group_symop_operation_xyz
x,y,z
1/2-x,-y,z
1/2+x,-y,-z
-x,y,-z
-x,-y,-z
1/2+x,y,-z
1/2-x,y,z
x,-y,z
loop_
_atom_site_type_symbol
_atom_site_label
_atom_site_fract_x
_atom_site_fract_y
_atom_site_fract_z
Si Si1 0.359009 0.337949 0.509194
Si Si2 0.592153 0.830151 0.873645
Si Si3 0.096563 0.330048 0.877651
Si Si4 0.601811 0.330705 0.257357
Si Si5 0.917650 0.831461 0.741272
Si Si6 0.853424 0.158031 0.376262
Si Si7 0.144413 0.840787 0.394526
Si Si8 0.891422 0.835547 0.005152
O O1 0.250000 0.339251 0.510003
O O2 0.387895 0.500000 0.515470
O O3 0.391298 0.244417 0.566463
O O4 0.388243 0.269494 0.445063
O O5 0.501206 0.740714 0.873871
O O6 0.633081 0.809962 0.806035
O O7 0.641026 0.794430 0.937068
O O8 0.571740 0.000000 0.879146
O O9 0.090184 0.500000 0.884271
O O10 0.138799 0.300500 0.810941
O O11 0.137853 0.260753 0.938223
O O12 0.606388 0.500000 0.267110
O O13 0.501523 0.272196 0.256943
O O14 0.642516 0.246432 0.313830
O O15 0.871657 0.805200 0.676471
O O16 0.943653 0.000000 0.741570
O O17 0.750000 0.141598 0.390709
O O18 0.892583 0.000000 0.368785
O O19 0.250000 0.847338 0.402670
O O20 0.108873 0.000000 0.406305
O O21 0.868906 0.000000 0.017418
O O22 0.000000 0.827180 0.000000
#
# Coordination Sequence:
#
# PCOD9402723 Si02
#       8
#     8   8   8   8   8   8   8   8
#     4   9  17  30  49  71  94 120 149 184 226 268
#     4   8  14  24  37  55  81 114 150 184 223 268
#     4   9  16  24  36  57  84 113 145 181 222 265
#     4  10  20  32  46  67  96 125 152 186 229 275
#     4   9  17  30  47  66  93 127 157 188 229 275
#     4  10  20  34  53  74  93 116 149 187 225 269
#     4   9  17  30  49  72  95 120 153 191 228 268
#     4   8  13  21  34  53  78 110 147 184 222 264
#
# _framework density 20.685851
#
# number of rings (size 3 to 8) (size 9 to 14) (size 15 to 20)
#    0.000    3.000    0.000    2.250    0.000    6.500 
#    0.000    0.625    0.000    3.750    0.000    0.875 
#    0.000    3.000    0.000    0.000    0.000    0.250 
#
# Total GULP energy -356503.912565 kJ/mol
# GULP energy per Si atom -5570.373634 kJ/mol
# Density = 2.063877 g / cm^3
# Si number density = 20.685851 Si / 1000 Ang^3
#
#
#
# Elastic Constant Matrix: (Units=GPa)
#
#
# Indices 1 2 3 4 5 6 
#
# 1 33.3024 11.4590 5.4152 0.0000 0.0000 0.0000
# 2 11.4590 113.3913 109.2103 0.0000 0.0000 0.0000
# 3 5.4152 109.2103 219.0806 0.0000 0.0000 0.0000
# 4 0.0000 0.0000 0.0000 30.9323 0.0000 0.0000
# 5 0.0000 0.0000 0.0000 0.0000 18.1369 0.0000
# 6 0.0000 0.0000 0.0000 0.0000 0.0000 4.0134
#
#
#
# Elastic Compliance Matrix: (Units=1/GPa)
#
#
# Indices 1 2 3 4 5 6 
#
# 1 0.031381 -0.004663 0.001549 0.000000 0.000000 0.000000
# 2 -0.004663 0.017656 -0.008686 0.000000 0.000000 0.000000
# 3 0.001549 -0.008686 0.008856 0.000000 0.000000 0.000000
# 4 0.000000 0.000000 0.000000 0.032329 0.000000 0.000000
# 5 0.000000 0.000000 0.000000 0.000000 0.055136 0.000000
# 6 0.000000 0.000000 0.000000 0.000000 0.000000 0.249166
#
#
# Mechanical properties :
#
#
# Convention : Reuss Voigt Hill
#
# Bulk Modulus (GPa) = 29.16110 68.66037 48.91073
# Shear Modulus (GPa) = 11.63994 26.59582 19.11788
#
# Velocity S-wave (km/s) = 2.37470 3.58956 3.04337
# Velocity P-wave (km/s) = 4.65260 7.10239 6.00377
#
# Compressibility (1/GPa) = 0.03429226
#
# Stress axis : x y z
#
# Youngs Moduli (GPa) = 31.86691 56.63726 112.91399
#
# Poissons Ratio (x) = 0.26409 -0.17488
# Poissons Ratio (y) = 0.14859 0.98080
# Poissons Ratio (z) = -0.04935 0.49197
#
# Static dielectric constant tensor:
#      x y z
#    x 1.774420 0.000000 0.000000 
#    y 0.000000 1.704390 0.000000 
#    z 0.000000 0.000000 1.792670 
# 
# From -- ./inp_files/34229.got.cif
#   From: 2010.05.17/outbox.cif.g08.bks.cpg/sg51_18_cif.got.tgz:34229.got - 2010.06.03 11:52:47.
