data_PCOD9402079
_publ_section_title
;
Structure prediction by ZEFSAII (Michael W. Deem and Ramdas Pophale) SiO2 
 PCOD9402079
Probable space group: P M M A
;
_chemical_formula_sum "Si O2"
_cell_formula_units_Z 64
_cell_length_a 7.905555
_cell_length_b 15.774904
_cell_length_c 24.729904
_cell_angle_alpha 90.000000
_cell_angle_beta 90.000000
_cell_angle_gamma 90.000000
_cell_volume 3084.050777
_symmetry_space_group_name_H-M "P M M A"
_symmetry_group_IT_number 51
_symmetry_cell_setting 'orthorhombic'
loop_
_space_group_symop_operation_xyz
x,y,z
1/2-x,-y,z
1/2+x,-y,-z
-x,y,-z
-x,-y,-z
1/2+x,y,-z
1/2-x,y,z
x,-y,z
loop_
_atom_site_type_symbol
_atom_site_label
_atom_site_fract_x
_atom_site_fract_y
_atom_site_fract_z
Si Si1 0.546207 0.595682 0.062706
Si Si2 0.439926 0.898039 0.440811
Si Si3 0.545219 0.409362 0.232339
Si Si4 0.555351 0.683694 0.334188
Si Si5 0.953609 0.093659 0.796673
Si Si6 0.451520 0.401911 0.439924
Si Si7 0.942591 0.135486 0.677127
Si Si8 0.546078 0.268529 0.150096
O O1 0.750000 0.593832 0.067797
O O2 0.487065 0.500000 0.079200
O O3 0.486899 0.676347 0.098096
O O4 0.500000 0.606267 0.000000
O O5 0.500000 0.867516 0.500000
O O6 0.250000 0.863320 0.435376
O O7 0.524897 0.881819 0.382082
O O8 0.435401 0.000000 0.444891
O O9 0.750000 0.411557 0.225786
O O10 0.479056 0.500000 0.213767
O O11 0.510007 0.393823 0.295121
O O12 0.486439 0.328328 0.199343
O O13 0.750000 0.707087 0.322514
O O14 0.535229 0.656416 0.395411
O O15 0.442982 0.763478 0.319868
O O16 0.750000 0.094245 0.792849
O O17 0.017684 0.105370 0.734439
O O18 0.997731 0.172354 0.835513
O O19 0.007597 0.000000 0.815825
O O20 0.500000 0.375222 0.500000
O O21 0.250000 0.398757 0.433338
O O22 0.507274 0.500000 0.433381
O O23 0.750000 0.101164 0.674528
O O24 0.750000 0.268327 0.148373
#
# Coordination Sequence:
#
# PCOD9402079 Si02
#       8
#     8   8   8   8   8   8   8   8
#     4   9  18  33  56  87 124 163 198 231 272 325
#     4   9  18  33  52  72  93 121 160 209 268 334
#     4   9  17  30  50  76 107 142 177 215 264 322
#     4  11  21  33  51  75 104 135 172 216 266 325
#     4  10  21  37  57  80 109 148 191 238 294 347
#     4  10  21  37  55  73  95 127 171 221 271 326
#     4  10  20  35  53  72 101 137 177 223 275 335
#     4  10  19  34  56  84 115 148 190 235 277 324
#
# _framework density 20.751929000000001
#
# number of rings (size 3 to 8) (size 9 to 14) (size 15 to 20)
#    0.000    2.250    1.250    1.875    0.000    6.000 
#    0.000    1.250    0.000    4.500    0.000    0.000 
#    0.000    0.000    0.000    0.000    0.000    0.000 
#
# Total GULP energy -356740.618945 kJ/mol
# GULP energy per Si atom -5574.072171 kJ/mol
# Density = 2.070470 g / cm^3
# Si number density = 20.751929 Si / 1000 Ang^3
#
#
#
# Elastic Constant Matrix: (Units=GPa)
#
#
# Indices 1 2 3 4 5 6 
#
# 1 26.9703 11.2952 7.7808 0.0000 0.0000 0.0000
# 2 11.2952 151.1197 67.1925 0.0000 0.0000 0.0000
# 3 7.7808 67.1925 114.5409 0.0000 0.0000 0.0000
# 4 0.0000 0.0000 0.0000 16.2301 0.0000 0.0000
# 5 0.0000 0.0000 0.0000 0.0000 14.9215 0.0000
# 6 0.0000 0.0000 0.0000 0.0000 0.0000 17.4555
#
#
#
# Elastic Compliance Matrix: (Units=1/GPa)
#
#
# Indices 1 2 3 4 5 6 
#
# 1 0.038408 -0.002314 -0.001251 0.000000 0.000000 0.000000
# 2 -0.002314 0.009092 -0.005176 0.000000 0.000000 0.000000
# 3 -0.001251 -0.005176 0.011852 0.000000 0.000000 0.000000
# 4 0.000000 0.000000 0.000000 0.061614 0.000000 0.000000
# 5 0.000000 0.000000 0.000000 0.000000 0.067017 0.000000
# 6 0.000000 0.000000 0.000000 0.000000 0.000000 0.057289
#
#
# Mechanical properties :
#
#
# Convention : Reuss Voigt Hill
#
# Bulk Modulus (GPa) = 23.88468 51.68533 37.78500
# Shear Modulus (GPa) = 18.06937 23.47893 20.77415
#
# Velocity S-wave (km/s) = 2.95402 3.36729 3.16740
# Velocity P-wave (km/s) = 4.81348 6.33076 5.62353
#
# Compressibility (1/GPa) = 0.04186784
#
# Stress axis : x y z
#
# Youngs Moduli (GPa) = 26.03621 109.98963 84.37377
#
# Poissons Ratio (x) = 0.25455 0.10559
# Poissons Ratio (y) = 0.06026 0.43674
# Poissons Ratio (z) = 0.03258 0.56933
#
# Static dielectric constant tensor:
#      x y z
#    x 1.723830 0.000000 0.000000 
#    y 0.000000 1.752720 0.000000 
#    z 0.000000 0.000000 1.770940 
# 
# From -- ./inp_files/34956.got.cif
#   From: 2010.05.17/outbox.cif.g08.bks.cpg/sg51_18_cif.got.tgz:34956.got - 2010.06.03 11:52:47.
