data_PCOD9402599
_publ_section_title
;
Structure prediction by ZEFSAII (Michael W. Deem and Ramdas Pophale) SiO2 
 PCOD9402599
Probable space group: P M M A
;
_chemical_formula_sum "Si O2"
_cell_formula_units_Z 48
_cell_length_a 13.718579
_cell_length_b 7.413377
_cell_length_c 19.536041
_cell_angle_alpha 90.000000
_cell_angle_beta 90.000000
_cell_angle_gamma 90.000000
_cell_volume 1986.834867
_symmetry_space_group_name_H-M "P M M A"
_symmetry_group_IT_number 51
_symmetry_cell_setting 'orthorhombic'
loop_
_space_group_symop_operation_xyz
x,y,z
1/2-x,-y,z
1/2+x,-y,-z
-x,y,-z
-x,-y,-z
1/2+x,y,-z
1/2-x,y,z
x,-y,z
loop_
_atom_site_type_symbol
_atom_site_label
_atom_site_fract_x
_atom_site_fract_y
_atom_site_fract_z
Si Si1 0.137223 0.285102 0.960262
Si Si2 0.362609 0.281891 0.808991
Si Si3 0.355925 0.219493 0.543206
Si Si4 0.442767 0.207941 0.251023
Si Si5 0.138772 0.215934 0.109462
Si Si6 0.437765 0.220592 0.398740
O O1 0.250000 0.219622 0.965183
O O2 0.139433 0.500000 0.953340
O O3 0.104111 0.218419 0.885520
O O4 0.092414 0.252954 0.035140
O O5 0.250000 0.228036 0.799038
O O6 0.365273 0.500000 0.806992
O O7 0.439971 0.212614 0.754475
O O8 0.250000 0.280301 0.567680
O O9 0.373278 0.272381 0.463898
O O10 0.451364 0.277397 0.584362
O O11 0.356648 0.000000 0.544718
O O12 0.407367 0.289293 0.179231
O O13 0.409403 0.285517 0.323384
O O14 0.410058 0.000000 0.250968
O O15 0.250000 0.282778 0.107092
O O16 0.140009 0.000000 0.113862
O O17 0.437026 0.000000 0.397070
#
# Coordination Sequence:
#
# PCOD9402599 Si02
#       6
#     8   8   8   8   8   8
#     4   8  15  30  50  67  84 113 157 203 238 271
#     4   9  19  35  51  67  90 121 157 196 237 280
#     4   8  13  23  41  62  85 117 152 184 220 260
#     4  10  20  31  45  69  99 127 153 186 232 281
#     4   9  18  31  45  64  93 126 157 191 233 279
#     4   8  15  26  38  60  93 119 145 183 222 265
#
# _framework density 24.159027999999999
#
# number of rings (size 3 to 8) (size 9 to 14) (size 15 to 20)
#    0.000    3.333    0.000    2.000    0.000    3.667 
#    0.000   10.000    0.000    0.000    0.000    2.333 
#    0.000    1.333    0.000    0.000    0.000    0.000 
#
# Total GULP energy -267829.820615 kJ/mol
# GULP energy per Si atom -5579.787929 kJ/mol
# Density = 2.410404 g / cm^3
# Si number density = 24.159028 Si / 1000 Ang^3
#
#
#
# Elastic Constant Matrix: (Units=GPa)
#
#
# Indices 1 2 3 4 5 6 
#
# 1 44.7177 -8.3703 -11.6759 0.0000 0.0000 0.0000
# 2 -8.3703 82.1160 -0.2479 0.0000 0.0000 0.0000
# 3 -11.6759 -0.2479 92.6659 0.0000 0.0000 0.0000
# 4 0.0000 0.0000 0.0000 9.2487 0.0000 0.0000
# 5 0.0000 0.0000 0.0000 0.0000 8.9453 0.0000
# 6 0.0000 0.0000 0.0000 0.0000 0.0000 0.9500
#
#
#
# Elastic Compliance Matrix: (Units=1/GPa)
#
#
# Indices 1 2 3 4 5 6 
#
# 1 0.023592 0.002414 0.002979 0.000000 0.000000 0.000000
# 2 0.002414 0.012425 0.000337 0.000000 0.000000 0.000000
# 3 0.002979 0.000337 0.011168 0.000000 0.000000 0.000000
# 4 0.000000 0.000000 0.000000 0.108123 0.000000 0.000000
# 5 0.000000 0.000000 0.000000 0.000000 0.111790 0.000000
# 6 0.000000 0.000000 0.000000 0.000000 0.000000 1.052659
#
#
# Mechanical properties :
#
#
# Convention : Reuss Voigt Hill
#
# Bulk Modulus (GPa) = 17.05165 19.87905 18.46535
# Shear Modulus (GPa) = 3.76550 19.81504 11.79027
#
# Velocity S-wave (km/s) = 1.24981 2.86701 2.21153
# Velocity P-wave (km/s) = 3.02590 4.38245 3.76577
#
# Compressibility (1/GPa) = 0.05864534
#
# Stress axis : x y z
#
# Youngs Moduli (GPa) = 42.38693 80.48314 89.54378
#
# Poissons Ratio (x) = -0.19427 -0.26676
# Poissons Ratio (y) = -0.10231 -0.03021
# Poissons Ratio (z) = -0.12627 -0.02715
#
# Static dielectric constant tensor:
#      x y z
#    x 1.950950 0.000000 0.000000 
#    y 0.000000 1.926660 0.000000 
#    z 0.000000 0.000000 1.934860 
# 
# From -- ./inp_files/24056.got.cif
#   From: 2010.05.17/outbox.cif.g08.bks.cpg/sg51_13_cif.got.tgz:24056.got - 2010.06.03 11:52:47.
