data_PCOD9402193
_publ_section_title
;
Structure prediction by ZEFSAII (Michael W. Deem and Ramdas Pophale) SiO2 
 PCOD9402193
Probable space group: P M M A
;
_chemical_formula_sum "Si O2"
_cell_formula_units_Z 64
_cell_length_a 20.299632
_cell_length_b 7.620092
_cell_length_c 19.198225
_cell_angle_alpha 90.000000
_cell_angle_beta 90.000000
_cell_angle_gamma 90.000000
_cell_volume 2969.678651
_symmetry_space_group_name_H-M "P M M A"
_symmetry_group_IT_number 51
_symmetry_cell_setting 'orthorhombic'
loop_
_space_group_symop_operation_xyz
x,y,z
1/2-x,-y,z
1/2+x,-y,-z
-x,y,-z
-x,-y,-z
1/2+x,y,-z
1/2-x,y,z
x,-y,z
loop_
_atom_site_type_symbol
_atom_site_label
_atom_site_fract_x
_atom_site_fract_y
_atom_site_fract_z
Si Si1 0.510426 0.295594 0.788562
Si Si2 0.176071 0.713101 0.978582
Si Si3 0.565433 0.287101 0.640855
Si Si4 0.865729 0.714347 0.174717
Si Si5 0.674602 0.795198 0.540276
Si Si6 0.951468 0.797566 0.939550
Si Si7 0.570154 0.292106 0.420808
Si Si8 0.680656 0.714021 0.320913
O O1 0.498885 0.500000 0.771660
O O2 0.546378 0.227350 0.719269
O O3 0.438496 0.220943 0.805942
O O4 0.546138 0.284956 0.863014
O O5 0.250000 0.765663 0.996276
O O6 0.172856 0.500000 0.979588
O O7 0.121096 0.783409 0.029803
O O8 0.158530 0.772664 0.900287
O O9 0.568454 0.500000 0.639169
O O10 0.636428 0.226495 0.613502
O O11 0.504787 0.226263 0.589698
O O12 0.866900 0.500000 0.171379
O O13 0.821591 0.761645 0.240292
O O14 0.750000 0.722346 0.537602
O O15 0.619256 0.725631 0.486316
O O16 0.679967 0.000000 0.524945
O O17 0.971273 0.000000 0.930479
O O18 0.000000 0.721182 0.000000
O O19 0.561835 0.500000 0.412168
O O20 0.615610 0.220735 0.358594
O O21 0.750000 0.771063 0.353525
O O22 0.678816 0.500000 0.325088
#
# Coordination Sequence:
#
# PCOD9402193 Si02
#       8
#     8   8   8   8   8   8   8   8
#     4  10  19  35  60  87 114 145 185 238 289 333
#     4  10  20  34  56  85 113 146 189 235 286 341
#     4  10  21  38  62  91 117 143 185 238 289 342
#     4   9  15  27  49  79 114 145 177 222 276 332
#     4  11  25  42  58  80 113 154 197 237 282 337
#     4  11  23  37  55  81 114 154 195 231 273 331
#     4  10  19  34  58  89 118 146 183 230 281 337
#     4   9  15  24  44  78 117 150 178 214 267 329
#
# _framework density 21.551152999999999
#
# number of rings (size 3 to 8) (size 9 to 14) (size 15 to 20)
#    0.000    2.000    2.500    1.875    0.000    6.250 
#    0.000    0.625    0.000    1.500    0.000    0.000 
#    0.000    0.000    0.000    0.000    0.000    0.000 
#
# Total GULP energy -356985.385927 kJ/mol
# GULP energy per Si atom -5577.896655 kJ/mol
# Density = 2.150210 g / cm^3
# Si number density = 21.551153 Si / 1000 Ang^3
#
#
#
# Elastic Constant Matrix: (Units=GPa)
#
#
# Indices 1 2 3 4 5 6 
#
# 1 147.1272 -5.9026 64.1637 0.0000 0.0000 0.0000
# 2 -5.9026 41.9312 -7.2366 0.0000 0.0000 0.0000
# 3 64.1637 -7.2366 92.7489 0.0000 0.0000 0.0000
# 4 0.0000 0.0000 0.0000 67.7376 0.0000 0.0000
# 5 0.0000 0.0000 0.0000 0.0000 22.2418 0.0000
# 6 0.0000 0.0000 0.0000 0.0000 0.0000 -153.3046
#
#
#
# Elastic Compliance Matrix: (Units=1/GPa)
#
#
# Indices 1 2 3 4 5 6 
#
# 1 0.009735 0.000211 -0.006718 0.000000 0.000000 0.000000
# 2 0.000211 0.024179 0.001741 0.000000 0.000000 0.000000
# 3 -0.006718 0.001741 0.015565 0.000000 0.000000 0.000000
# 4 0.000000 0.000000 0.000000 0.014763 0.000000 0.000000
# 5 0.000000 0.000000 0.000000 0.000000 0.044960 0.000000
# 6 0.000000 0.000000 0.000000 0.000000 0.000000 -0.006523
#
#
# Mechanical properties :
#
#
# Convention : Reuss Voigt Hill
#
# Bulk Modulus (GPa) = 25.03407 42.65071 33.84239
# Shear Modulus (GPa) = 39.83157 2.72047 21.27602
#
# Velocity S-wave (km/s) = 4.30377 1.12475 3.14544
# Velocity P-wave (km/s) = 6.02810 4.63898 5.37857
#
# Compressibility (1/GPa) = 0.03994556
#
# Stress axis : x y z
#
# Youngs Moduli (GPa) = 102.71936 41.35878 64.24510
#
# Poissons Ratio (x) = -0.00872 0.43162
# Poissons Ratio (y) = -0.02167 -0.11182
# Poissons Ratio (z) = 0.69011 -0.07199
#
# Static dielectric constant tensor:
#      x y z
#    x 1.795650 0.000000 0.000000 
#    y 0.000000 1.830110 0.000000 
#    z 0.000000 0.000000 1.810500 
# 
# From -- ./inp_files/30656.got.cif
#   From: 2010.05.17/outbox.cif.g08.bks.cpg/sg51_16_cif.got.tgz:30656.got - 2010.06.03 11:52:47.
