data_PCOD9402903
_publ_section_title
;
Structure prediction by ZEFSAII (Michael W. Deem and Ramdas Pophale) SiO2 
 PCOD9402903
Probable space group: P M M A
;
_chemical_formula_sum "Si O2"
_cell_formula_units_Z 48
_cell_length_a 8.022484
_cell_length_b 8.712614
_cell_length_c 35.603141
_cell_angle_alpha 90.000000
_cell_angle_beta 90.000000
_cell_angle_gamma 90.000000
_cell_volume 2488.545854
_symmetry_space_group_name_H-M "P M M A"
_symmetry_group_IT_number 51
_symmetry_cell_setting 'orthorhombic'
loop_
_space_group_symop_operation_xyz
x,y,z
1/2-x,-y,z
1/2+x,-y,-z
-x,y,-z
-x,-y,-z
1/2+x,y,-z
1/2-x,y,z
x,-y,z
loop_
_atom_site_type_symbol
_atom_site_label
_atom_site_fract_x
_atom_site_fract_y
_atom_site_fract_z
Si Si1 0.554281 0.177933 0.302940
Si Si2 0.436915 0.186101 0.223221
Si Si3 0.948294 0.323398 0.460174
Si Si4 0.250000 0.813628 0.905953
Si Si5 0.750000 0.316911 0.177754
Si Si6 0.559257 0.813050 0.958307
Si Si7 0.051536 0.324223 0.380494
O O1 0.750000 0.187971 0.293965
O O2 0.458456 0.239563 0.266518
O O3 0.521462 0.252355 0.343006
O O4 0.507201 0.000000 0.306775
O O5 0.250000 0.223453 0.209973
O O6 0.585235 0.254993 0.198789
O O7 0.454267 0.000000 0.223101
O O8 0.750000 0.330499 0.459296
O O9 0.017432 0.500000 0.460657
O O10 0.000000 0.251956 0.500000
O O11 0.006530 0.251775 0.420862
O O12 0.250000 0.744843 0.864622
O O13 0.416807 0.766933 0.928757
O O14 0.250000 0.000000 0.903769
O O15 0.750000 0.500000 0.178474
O O16 0.750000 0.762444 0.950909
O O17 0.561659 0.000000 0.958169
O O18 0.500000 0.766332 0.000000
O O19 0.250000 0.323396 0.377055
O O20 0.990141 0.500000 0.382024
#
# Coordination Sequence:
#
# PCOD9402903 Si02
#       7
#     8   8   8   4   4   8   8
#     4  10  20  36  59  84 110 140 177 225 282 344
#     4  10  21  41  68  90 112 149 200 251 298 356
#     4   9  16  27  44  66  95 134 177 219 263 313
#     4  10  20  34  56  84 118 156 200 250 296 352
#     4  12  26  42  60  86 126 166 202 248 302 364
#     4   9  15  26  49  84 118 147 187 246 306 346
#     4  10  20  32  48  75 109 140 175 221 269 325
#
# _framework density 19.288371999999999
#
# number of rings (size 3 to 8) (size 9 to 14) (size 15 to 20)
#    0.000    2.167    1.667    2.250    0.000    5.667 
#    0.000    1.667    0.000    1.000    0.000    0.000 
#    0.000    0.000    0.000    0.000    0.000    0.000 
#
# Total GULP energy -267727.003586 kJ/mol
# GULP energy per Si atom -5577.645908 kJ/mol
# Density = 1.924447 g / cm^3
# Si number density = 19.288372 Si / 1000 Ang^3
#
#
#
# Elastic Constant Matrix: (Units=GPa)
#
#
# Indices 1 2 3 4 5 6 
#
# 1 112.1956 30.1610 79.8229 0.0000 0.0000 0.0000
# 2 30.1610 19.7595 33.1687 0.0000 0.0000 0.0000
# 3 79.8229 33.1687 168.6923 0.0000 0.0000 0.0000
# 4 0.0000 0.0000 0.0000 19.8879 0.0000 0.0000
# 5 0.0000 0.0000 0.0000 0.0000 28.6347 0.0000
# 6 0.0000 0.0000 0.0000 0.0000 0.0000 11.8722
#
#
#
# Elastic Compliance Matrix: (Units=1/GPa)
#
#
# Indices 1 2 3 4 5 6 
#
# 1 0.017060 -0.018643 -0.004407 0.000000 0.000000 0.000000
# 2 -0.018643 0.095915 -0.010037 0.000000 0.000000 0.000000
# 3 -0.004407 -0.010037 0.009987 0.000000 0.000000 0.000000
# 4 0.000000 0.000000 0.000000 0.050282 0.000000 0.000000
# 5 0.000000 0.000000 0.000000 0.000000 0.034923 0.000000
# 6 0.000000 0.000000 0.000000 0.000000 0.000000 0.084231
#
#
# Mechanical properties :
#
#
# Convention : Reuss Voigt Hill
#
# Bulk Modulus (GPa) = 17.60973 65.21696 41.41334
# Shear Modulus (GPa) = 13.24501 22.57859 17.91180
#
# Velocity S-wave (km/s) = 2.62331 3.42509 3.05065
# Velocity P-wave (km/s) = 4.28079 7.03751 5.82459
#
# Compressibility (1/GPa) = 0.05678678
#
# Stress axis : x y z
#
# Youngs Moduli (GPa) = 58.61612 10.42594 100.13181
#
# Poissons Ratio (x) = 0.19437 0.44128
# Poissons Ratio (y) = 1.09279 1.00505
# Poissons Ratio (z) = 0.25832 0.10465
#
# Static dielectric constant tensor:
#      x y z
#    x 1.672810 0.000000 0.000000 
#    y 0.000000 1.686550 0.000000 
#    z 0.000000 0.000000 1.684750 
# 
# From -- ./inp_files/37079.got.cif
#   From: 2010.05.17/outbox.cif.g08.bks.cpg/sg51_19_cif.got.tgz:37079.got - 2010.06.03 11:52:47.
