data_PCOD9402656
_publ_section_title
;
Structure prediction by ZEFSAII (Michael W. Deem and Ramdas Pophale) SiO2 
 PCOD9402656
Probable space group: P M M A
;
_chemical_formula_sum "Si O2"
_cell_formula_units_Z 56
_cell_length_a 9.010680
_cell_length_b 15.334477
_cell_length_c 21.615537
_cell_angle_alpha 90.000000
_cell_angle_beta 90.000000
_cell_angle_gamma 90.000000
_cell_volume 2986.706619
_symmetry_space_group_name_H-M "P M M A"
_symmetry_group_IT_number 51
_symmetry_cell_setting 'orthorhombic'
loop_
_space_group_symop_operation_xyz
x,y,z
1/2-x,-y,z
1/2+x,-y,-z
-x,y,-z
-x,-y,-z
1/2+x,y,-z
1/2-x,y,z
x,-y,z
loop_
_atom_site_type_symbol
_atom_site_label
_atom_site_fract_x
_atom_site_fract_y
_atom_site_fract_z
Si Si1 0.573675 0.103541 0.933521
Si Si2 0.582262 0.374853 0.319397
Si Si3 0.913330 0.398733 0.556075
Si Si4 0.581898 0.832963 0.311527
Si Si5 0.420183 0.105228 0.436200
Si Si6 0.073011 0.402610 0.193341
Si Si7 0.570232 0.213946 0.175875
O O1 0.750000 0.121934 0.934894
O O2 0.492955 0.159275 0.881002
O O3 0.554656 0.000000 0.921583
O O4 0.500000 0.122109 0.000000
O O5 0.750000 0.405556 0.308594
O O6 0.516238 0.399624 0.384633
O O7 0.588715 0.270752 0.319984
O O8 0.473595 0.404376 0.265269
O O9 0.750000 0.361014 0.568154
O O10 0.891606 0.500000 0.539417
O O11 0.000000 0.354306 0.500000
O O12 0.750000 0.869256 0.312877
O O13 0.493626 0.868355 0.370680
O O14 0.523843 0.835140 0.240347
O O15 0.500000 0.134525 0.500000
O O16 0.250000 0.135129 0.437147
O O17 0.421978 0.000000 0.437667
O O18 0.250000 0.392309 0.186363
O O19 0.032690 0.500000 0.167845
O O20 0.991511 0.313621 0.171533
O O21 0.750000 0.217757 0.176756
#
# Coordination Sequence:
#
# PCOD9402656 Si02
#       7
#     8   8   8   8   8   8   8
#     4  10  21  38  62  92 126 163 200 237 280 335
#     4  10  20  33  49  70  96 127 166 212 265 326
#     4  10  20  32  45  62  85 116 156 202 255 315
#     4   9  20  36  52  74 103 135 172 216 268 323
#     4  10  21  36  54  74  96 128 172 221 275 337
#     4  10  20  34  54  80 110 146 188 234 284 337
#     4  10  21  37  58  86 120 156 195 240 289 342
#
# _framework density 18.749748
#
# number of rings (size 3 to 8) (size 9 to 14) (size 15 to 20)
#    0.000    2.143    0.000    3.857    0.000   10.000 
#    0.000    2.857    0.000    0.429    0.000    0.000 
#    0.000    0.000    0.000    0.000    0.000    0.000 
#
# Total GULP energy -312058.826987 kJ/mol
# GULP energy per Si atom -5572.479053 kJ/mol
# Density = 1.870707 g / cm^3
# Si number density = 18.749748 Si / 1000 Ang^3
#
#
#
# Elastic Constant Matrix: (Units=GPa)
#
#
# Indices 1 2 3 4 5 6 
#
# 1 95.2206 35.6151 62.8496 0.0000 0.0000 0.0000
# 2 35.6151 62.5411 59.3525 0.0000 0.0000 0.0000
# 3 62.8496 59.3525 137.2662 0.0000 0.0000 0.0000
# 4 0.0000 0.0000 0.0000 1.7803 0.0000 0.0000
# 5 0.0000 0.0000 0.0000 0.0000 31.5759 0.0000
# 6 0.0000 0.0000 0.0000 0.0000 0.0000 23.6707
#
#
#
# Elastic Compliance Matrix: (Units=1/GPa)
#
#
# Indices 1 2 3 4 5 6 
#
# 1 0.015501 -0.003547 -0.005563 0.000000 0.000000 0.000000
# 2 -0.003547 0.027929 -0.010452 0.000000 0.000000 0.000000
# 3 -0.005563 -0.010452 0.014352 0.000000 0.000000 0.000000
# 4 0.000000 0.000000 0.000000 0.561699 0.000000 0.000000
# 5 0.000000 0.000000 0.000000 0.000000 0.031670 0.000000
# 6 0.000000 0.000000 0.000000 0.000000 0.000000 0.042246
#
#
# Mechanical properties :
#
#
# Convention : Reuss Voigt Hill
#
# Bulk Modulus (GPa) = 53.60271 67.85138 60.72704
# Shear Modulus (GPa) = 6.76828 20.55277 13.66052
#
# Velocity S-wave (km/s) = 1.90201 3.31443 2.70213
# Velocity P-wave (km/s) = 5.78568 7.13538 6.49568
#
# Compressibility (1/GPa) = 0.01865577
#
# Stress axis : x y z
#
# Youngs Moduli (GPa) = 64.51243 35.80568 69.67822
#
# Poissons Ratio (x) = 0.12702 0.38765
# Poissons Ratio (y) = 0.22885 0.72826
# Poissons Ratio (z) = 0.35891 0.37423
#
# Static dielectric constant tensor:
#      x y z
#    x 1.698160 0.000000 0.000000 
#    y 0.000000 1.682960 0.000000 
#    z 0.000000 0.000000 1.646230 
# 
# From -- ./inp_files/31897.got.cif
#   From: 2010.05.17/outbox.cif.g08.bks.cpg/sg51_16_cif.got.tgz:31897.got - 2010.06.03 11:52:47.
