data_PCOD9402032
_publ_section_title
;
Structure prediction by ZEFSAII (Michael W. Deem and Ramdas Pophale) SiO2 
 PCOD9402032
Probable space group: P M M A
;
_chemical_formula_sum "Si O2"
_cell_formula_units_Z 48
_cell_length_a 9.597383
_cell_length_b 15.611166
_cell_length_c 17.824502
_cell_angle_alpha 90.000000
_cell_angle_beta 90.000000
_cell_angle_gamma 90.000000
_cell_volume 2670.579882
_symmetry_space_group_name_H-M "P M M A"
_symmetry_group_IT_number 51
_symmetry_cell_setting 'orthorhombic'
loop_
_space_group_symop_operation_xyz
x,y,z
1/2-x,-y,z
1/2+x,-y,-z
-x,y,-z
-x,-y,-z
1/2+x,y,-z
1/2-x,y,z
x,-y,z
loop_
_atom_site_type_symbol
_atom_site_label
_atom_site_fract_x
_atom_site_fract_y
_atom_site_fract_z
Si Si1 0.408981 0.679883 0.160007
Si Si2 0.086456 0.595473 0.576573
Si Si3 0.414028 0.500000 0.078545
Si Si4 0.414451 0.816457 0.922927
Si Si5 0.586400 0.000000 0.076749
Si Si6 0.915820 0.098971 0.576660
Si Si7 0.409766 0.730289 0.334821
O O1 0.250000 0.700287 0.134258
O O2 0.437850 0.583763 0.130572
O O3 0.523578 0.740055 0.123812
O O4 0.412119 0.702758 0.247907
O O5 0.250000 0.608694 0.562573
O O6 0.069707 0.500000 0.610774
O O7 0.000000 0.595771 0.500000
O O8 0.020548 0.669371 0.625876
O O9 0.250000 0.500000 0.058168
O O10 0.500000 0.500000 0.000000
O O11 0.250000 0.807286 0.936169
O O12 0.440679 0.909341 0.884473
O O13 0.500000 0.817084 0.000000
O O14 0.750000 0.000000 0.056742
O O15 0.500000 0.000000 0.000000
O O16 0.750000 0.101172 0.560458
O O17 0.940755 0.171406 0.640316
O O18 0.000000 0.119184 0.500000
O O19 0.950246 0.000000 0.598216
O O20 0.250000 0.713438 0.361200
#
# Coordination Sequence:
#
# PCOD9402032 Si02
#       7
#     8   8   4   8   4   8   8
#     4  10  22  38  55  81 111 144 183 226 284 339
#     4  10  21  36  55  81 111 145 185 227 272 327
#     4  10  22  40  60  80 107 142 185 232 277 338
#     4  10  19  34  56  80 108 141 179 225 271 326
#     4   8  16  30  50  76 104 134 169 210 263 318
#     4   9  18  34  56  82 112 147 189 232 273 323
#     4  10  21  36  56  81 112 148 184 230 282 332
#
# _framework density 17.973624999999998
#
# number of rings (size 3 to 8) (size 9 to 14) (size 15 to 20)
#    0.000    2.333    0.000    2.000    1.167    6.333 
#    1.500    0.000    0.000    0.000    0.000    0.000 
#    0.000    0.000    0.000    0.000    0.000    0.000 
#
# Total GULP energy -267258.041911 kJ/mol
# GULP energy per Si atom -5567.875873 kJ/mol
# Density = 1.793272 g / cm^3
# Si number density = 17.973625 Si / 1000 Ang^3
#
#
#
# Elastic Constant Matrix: (Units=GPa)
#
#
# Indices 1 2 3 4 5 6 
#
# 1 86.0900 81.2614 36.8013 0.0000 0.0000 0.0000
# 2 81.2614 154.9783 61.8919 0.0000 0.0000 0.0000
# 3 36.8013 61.8919 64.5821 0.0000 0.0000 0.0000
# 4 0.0000 0.0000 0.0000 21.5011 0.0000 0.0000
# 5 0.0000 0.0000 0.0000 0.0000 27.0230 0.0000
# 6 0.0000 0.0000 0.0000 0.0000 0.0000 30.7191
#
#
#
# Elastic Compliance Matrix: (Units=1/GPa)
#
#
# Indices 1 2 3 4 5 6 
#
# 1 0.023252 -0.011179 -0.002537 0.000000 0.000000 0.000000
# 2 -0.011179 0.015828 -0.008798 0.000000 0.000000 0.000000
# 3 -0.002537 -0.008798 0.025361 0.000000 0.000000 0.000000
# 4 0.000000 0.000000 0.000000 0.046509 0.000000 0.000000
# 5 0.000000 0.000000 0.000000 0.000000 0.037006 0.000000
# 6 0.000000 0.000000 0.000000 0.000000 0.000000 0.032553
#
#
# Mechanical properties :
#
#
# Convention : Reuss Voigt Hill
#
# Bulk Modulus (GPa) = 51.51036 73.95108 62.73072
# Shear Modulus (GPa) = 21.55099 24.22836 22.88968
#
# Velocity S-wave (km/s) = 3.46646 3.67549 3.57251
# Velocity P-wave (km/s) = 6.68901 7.69713 7.21071
#
# Compressibility (1/GPa) = 0.01941357
#
# Stress axis : x y z
#
# Youngs Moduli (GPa) = 43.00688 63.18001 39.43007
#
# Poissons Ratio (x) = 0.70629 0.10002
# Poissons Ratio (y) = 0.48077 0.34692
# Poissons Ratio (z) = 0.10909 0.55587
#
# Static dielectric constant tensor:
#      x y z
#    x 1.598940 0.000000 0.000000 
#    y 0.000000 1.667240 0.000000 
#    z 0.000000 0.000000 1.670880 
# 
# From -- ./inp_files/27687.got.cif
#   From: 2010.05.17/outbox.cif.g08.bks.cpg/sg51_14_cif.got.tgz:27687.got - 2010.06.03 11:52:47.
