data_PCOD9402684
_publ_section_title
;
Structure prediction by ZEFSAII (Michael W. Deem and Ramdas Pophale) SiO2 
 PCOD9402684
Probable space group: P M M A
;
_chemical_formula_sum "Si O2"
_cell_formula_units_Z 40
_cell_length_a 22.278247
_cell_length_b 7.596072
_cell_length_c 12.101864
_cell_angle_alpha 90.000000
_cell_angle_beta 90.000000
_cell_angle_gamma 90.000000
_cell_volume 2047.964175
_symmetry_space_group_name_H-M "P M M A"
_symmetry_group_IT_number 51
_symmetry_cell_setting 'orthorhombic'
loop_
_space_group_symop_operation_xyz
x,y,z
1/2-x,-y,z
1/2+x,-y,-z
-x,y,-z
-x,-y,-z
1/2+x,y,-z
1/2-x,y,z
x,-y,z
loop_
_atom_site_type_symbol
_atom_site_label
_atom_site_fract_x
_atom_site_fract_y
_atom_site_fract_z
Si Si1 0.680986 0.203408 0.526278
Si Si2 0.683064 0.292636 0.771587
Si Si3 0.036056 0.785309 0.828151
Si Si4 0.443373 0.216059 0.576814
Si Si5 0.585944 0.211305 0.948326
O O1 0.750000 0.276812 0.515941
O O2 0.663876 0.207645 0.656077
O O3 0.622483 0.278067 0.464185
O O4 0.685525 0.000000 0.491372
O O5 0.750000 0.228751 0.794444
O O6 0.684082 0.500000 0.749221
O O7 0.642635 0.260736 0.876900
O O8 0.046552 0.727070 0.703452
O O9 0.972109 0.728922 0.878508
O O10 0.036245 0.000000 0.824090
O O11 0.082222 0.729112 0.924545
O O12 0.500000 0.269783 0.500000
O O13 0.442677 0.000000 0.573269
O O14 0.582188 0.000000 0.951667
#
# Coordination Sequence:
#
# PCOD9402684 Si02
#       5
#     8   8   8   8   8
#     4   9  17  29  46  67  89 115 150 189 226 269
#     4  10  20  32  46  65  90 119 151 189 230 268
#     4   8  15  27  45  71  97 118 144 182 227 269
#     4   9  15  24  43  70  95 118 146 182 224 267
#     4   9  16  29  49  69  91 119 150 184 221 266
#
# _framework density 19.531592
#
# number of rings (size 3 to 8) (size 9 to 14) (size 15 to 20)
#    0.000    3.000    0.000    3.000    0.000    4.400 
#    0.000    3.000    0.000   10.200    0.000    2.800 
#    0.000    0.000    0.000    0.000    0.000    0.000 
#
# Total GULP energy -222816.413593 kJ/mol
# GULP energy per Si atom -5570.410340 kJ/mol
# Density = 1.948714 g / cm^3
# Si number density = 19.531592 Si / 1000 Ang^3
#
#
#
# Elastic Constant Matrix: (Units=GPa)
#
#
# Indices 1 2 3 4 5 6 
#
# 1 95.4319 6.9996 96.1787 0.0000 0.0000 0.0000
# 2 6.9996 37.2926 7.1043 0.0000 0.0000 0.0000
# 3 96.1787 7.1043 179.9829 0.0000 0.0000 0.0000
# 4 0.0000 0.0000 0.0000 -19.7220 0.0000 0.0000
# 5 0.0000 0.0000 0.0000 0.0000 35.9533 0.0000
# 6 0.0000 0.0000 0.0000 0.0000 0.0000 13.8265
#
#
#
# Elastic Compliance Matrix: (Units=1/GPa)
#
#
# Indices 1 2 3 4 5 6 
#
# 1 0.022852 -0.001978 -0.012134 0.000000 0.000000 0.000000
# 2 -0.001978 0.027189 -0.000016 0.000000 0.000000 0.000000
# 3 -0.012134 -0.000016 0.012041 0.000000 0.000000 0.000000
# 4 0.000000 0.000000 0.000000 -0.050705 0.000000 0.000000
# 5 0.000000 0.000000 0.000000 0.000000 0.027814 0.000000
# 6 0.000000 0.000000 0.000000 0.000000 0.000000 0.072325
#
#
# Mechanical properties :
#
#
# Convention : Reuss Voigt Hill
#
# Bulk Modulus (GPa) = 29.56240 59.25252 44.40746
# Shear Modulus (GPa) = 33.10213 19.50654 26.30434
#
# Velocity S-wave (km/s) = 4.12126 3.16368 3.67380
# Velocity P-wave (km/s) = 6.14938 6.61421 6.38603
#
# Compressibility (1/GPa) = 0.03382676
#
# Stress axis : x y z
#
# Youngs Moduli (GPa) = 43.75893 36.77915 83.05138
#
# Poissons Ratio (x) = 0.07274 1.00773
# Poissons Ratio (y) = 0.08654 0.00136
# Poissons Ratio (z) = 0.53096 0.00060
#
# Static dielectric constant tensor:
#      x y z
#    x 1.703670 0.000000 0.000000 
#    y 0.000000 1.727740 0.000000 
#    z 0.000000 0.000000 1.673420 
# 
# From -- ./inp_files/17889.got.cif
#   From: 2010.05.17/outbox.cif.g08.bks.cpg/sg51_9_cif.got.tgz:17889.got - 2010.06.03 11:52:47.
