data_PCOD9402583
_publ_section_title
;
Structure prediction by ZEFSAII (Michael W. Deem and Ramdas Pophale) SiO2 
 PCOD9402583
Probable space group: P M M A
;
_chemical_formula_sum "Si O2"
_cell_formula_units_Z 44
_cell_length_a 7.520232
_cell_length_b 22.489004
_cell_length_c 13.993690
_cell_angle_alpha 90.000000
_cell_angle_beta 90.000000
_cell_angle_gamma 90.000000
_cell_volume 2366.648222
_symmetry_space_group_name_H-M "P M M A"
_symmetry_group_IT_number 51
_symmetry_cell_setting 'orthorhombic'
loop_
_space_group_symop_operation_xyz
x,y,z
1/2-x,-y,z
1/2+x,-y,-z
-x,y,-z
-x,-y,-z
1/2+x,y,-z
1/2-x,y,z
x,-y,z
loop_
_atom_site_type_symbol
_atom_site_label
_atom_site_fract_x
_atom_site_fract_y
_atom_site_fract_z
Si Si1 0.963276 0.436021 0.886178
Si Si2 0.036798 0.064819 0.113267
Si Si3 0.043246 0.813687 0.203243
Si Si4 0.036307 0.306839 0.113037
Si Si5 0.038477 0.870656 0.611933
Si Si6 0.962509 0.000000 0.386185
O O1 0.750000 0.436273 0.873268
O O2 0.031265 0.500000 0.849052
O O3 0.031361 0.371611 0.852461
O O4 0.000000 0.435971 0.000000
O O5 0.250000 0.063910 0.126813
O O6 0.964441 0.125189 0.160178
O O7 0.968154 0.000000 0.147983
O O8 0.000000 0.067662 0.000000
O O9 0.250000 0.813481 0.173638
O O10 0.965976 0.751983 0.165169
O O11 0.033361 0.821247 0.316953
O O12 0.250000 0.308365 0.125474
O O13 0.000000 0.301364 0.000000
O O14 0.250000 0.871829 0.622031
O O15 0.000000 0.862589 0.500000
O O16 0.966643 0.935791 0.645298
O O17 0.000000 0.000000 0.500000
O O18 0.750000 0.000000 0.372368
#
# Coordination Sequence:
#
# PCOD9402583 Si02
#       6
#     8   8   8   8   8   4
#     4   8  13  22  37  57  82 113 146 177 209 246
#     4   9  18  31  44  59  80 109 144 180 214 247
#     4  10  20  31  44  63  87 114 144 178 217 260
#     4   9  17  28  42  62  89 119 150 182 214 250
#     4  10  20  34  50  67  86 108 137 175 220 267
#     4   8  16  30  46  64  81  98 125 164 211 258
#
# _framework density 18.591695999999999
#
# number of rings (size 3 to 8) (size 9 to 14) (size 15 to 20)
#    0.000    2.909    0.000    1.091    1.273    2.182 
#    0.000    0.000    0.000    0.000    0.000    0.000 
#    0.000    0.727    0.000    1.273    0.000    2.182 
#
# Total GULP energy -245151.071931 kJ/mol
# GULP energy per Si atom -5571.615271 kJ/mol
# Density = 1.854938 g / cm^3
# Si number density = 18.591696 Si / 1000 Ang^3
#
#
#
# Elastic Constant Matrix: (Units=GPa)
#
#
# Indices 1 2 3 4 5 6 
#
# 1 58.3358 11.3403 -8.2072 0.0000 0.0000 0.0000
# 2 11.3403 218.5315 64.7408 0.0000 0.0000 0.0000
# 3 -8.2072 64.7408 52.8307 0.0000 0.0000 0.0000
# 4 0.0000 0.0000 0.0000 10.3957 0.0000 0.0000
# 5 0.0000 0.0000 0.0000 0.0000 16.6387 0.0000
# 6 0.0000 0.0000 0.0000 0.0000 0.0000 -2.9359
#
#
#
# Elastic Compliance Matrix: (Units=1/GPa)
#
#
# Indices 1 2 3 4 5 6 
#
# 1 0.018597 -0.002859 0.006392 0.000000 0.000000 0.000000
# 2 -0.002859 0.007624 -0.009786 0.000000 0.000000 0.000000
# 3 0.006392 -0.009786 0.031914 0.000000 0.000000 0.000000
# 4 0.000000 0.000000 0.000000 0.096194 0.000000 0.000000
# 5 0.000000 0.000000 0.000000 0.000000 0.060101 0.000000
# 6 0.000000 0.000000 0.000000 0.000000 0.000000 -0.340606
#
#
# Mechanical properties :
#
#
# Convention : Reuss Voigt Hill
#
# Bulk Modulus (GPa) = 21.91578 51.71619 36.81599
# Shear Modulus (GPa) = -50.78168 22.27461 -14.25353
#
# Velocity S-wave (km/s) = -5.23197 3.46511 -2.77187
# Velocity P-wave (km/s) = 4.96834 6.62469 3.09855
#
# Compressibility (1/GPa) = 0.04562923
#
# Stress axis : x y z
#
# Youngs Moduli (GPa) = 53.77146 131.17150 31.33417
#
# Poissons Ratio (x) = 0.37500 -0.20030
# Poissons Ratio (y) = 0.15372 0.30665
# Poissons Ratio (z) = -0.34373 1.28369
#
# Static dielectric constant tensor:
#      x y z
#    x 1.682250 0.000000 0.000000 
#    y 0.000000 1.732490 0.000000 
#    z 0.000000 0.000000 1.610740 
# 
# From -- ./inp_files/21389.got.cif
#   From: 2010.05.17/outbox.cif.g08.bks.cpg/sg51_11_cif.got.tgz:21389.got - 2010.06.03 11:52:47.
