data_PCOD9402679
_publ_section_title
;
Structure prediction by ZEFSAII (Michael W. Deem and Ramdas Pophale) SiO2 
 PCOD9402679
Probable space group: P M M A
;
_chemical_formula_sum "Si O2"
_cell_formula_units_Z 64
_cell_length_a 8.711685
_cell_length_b 19.753657
_cell_length_c 24.281898
_cell_angle_alpha 90.000000
_cell_angle_beta 90.000000
_cell_angle_gamma 90.000000
_cell_volume 4178.614458
_symmetry_space_group_name_H-M "P M M A"
_symmetry_group_IT_number 51
_symmetry_cell_setting 'orthorhombic'
loop_
_space_group_symop_operation_xyz
x,y,z
1/2-x,-y,z
1/2+x,-y,-z
-x,y,-z
-x,-y,-z
1/2+x,y,-z
1/2-x,y,z
x,-y,z
loop_
_atom_site_type_symbol
_atom_site_label
_atom_site_fract_x
_atom_site_fract_y
_atom_site_fract_z
Si Si1 0.566559 0.788980 0.440644
Si Si2 0.934011 0.704426 0.334629
Si Si3 0.066567 0.421597 0.940758
Si Si4 0.936460 0.925492 0.740908
Si Si5 0.065286 0.652532 0.164177
Si Si6 0.935108 0.422089 0.722046
Si Si7 0.564226 0.781457 0.771219
Si Si8 0.065113 0.076521 0.388626
O O1 0.500000 0.771471 0.500000
O O2 0.750000 0.789193 0.443127
O O3 0.518123 0.736642 0.392758
O O4 0.510011 0.863492 0.422691
O O5 0.750000 0.706069 0.331231
O O6 0.992925 0.629029 0.322034
O O7 0.003188 0.750332 0.285798
O O8 0.250000 0.419857 0.943106
O O9 0.017908 0.500000 0.931064
O O10 0.007970 0.375958 0.890916
O O11 0.000000 0.400956 0.000000
O O12 0.750000 0.926809 0.743119
O O13 0.987593 0.859305 0.774090
O O14 0.975600 0.916433 0.676236
O O15 0.991277 0.000000 0.758605
O O16 0.250000 0.650309 0.158836
O O17 0.023557 0.606180 0.217137
O O18 0.018807 0.728914 0.181084
O O19 0.750000 0.418061 0.718098
O O20 0.981738 0.500000 0.715916
O O21 0.750000 0.780312 0.768790
O O22 0.250000 0.081916 0.392529
O O23 0.021816 0.000000 0.405768
#
# Coordination Sequence:
#
# PCOD9402679 Si02
#       8
#     8   8   8   8   8   8   8   8
#     4  11  23  35  48  65  86 115 149 186 226 271
#     4  10  20  32  46  67  91 113 142 182 228 271
#     4  10  20  32  46  64  89 125 163 195 226 259
#     4   8  13  23  43  68  90 116 151 185 218 262
#     4   9  17  28  44  68  96 124 153 185 217 256
#     4   9  18  32  51  73  94 119 148 178 218 268
#     4   9  16  28  47  67  91 123 153 184 224 268
#     4   9  17  30  49  69  88 114 148 185 223 265
#
# _framework density 15.316081000000001
#
# number of rings (size 3 to 8) (size 9 to 14) (size 15 to 20)
#    0.000    2.625    1.250    3.000    0.000    5.500 
#    0.000    0.000    0.000    0.750    0.000    0.000 
#    0.000    0.500    0.000    0.875    0.000    1.250 
#
# Total GULP energy -356694.548896 kJ/mol
# GULP energy per Si atom -5573.352327 kJ/mol
# Density = 1.528122 g / cm^3
# Si number density = 15.316081 Si / 1000 Ang^3
#
#
#
# Elastic Constant Matrix: (Units=GPa)
#
#
# Indices 1 2 3 4 5 6 
#
# 1 15.9609 25.0866 29.9611 0.0000 0.0000 0.0000
# 2 25.0866 134.2335 72.2820 0.0000 0.0000 0.0000
# 3 29.9611 72.2820 109.9205 0.0000 0.0000 0.0000
# 4 0.0000 0.0000 0.0000 24.3748 0.0000 0.0000
# 5 0.0000 0.0000 0.0000 0.0000 22.3312 0.0000
# 6 0.0000 0.0000 0.0000 0.0000 0.0000 14.3102
#
#
#
# Elastic Compliance Matrix: (Units=1/GPa)
#
#
# Indices 1 2 3 4 5 6 
#
# 1 0.134049 -0.008325 -0.031064 0.000000 0.000000 0.000000
# 2 -0.008325 0.012051 -0.005655 0.000000 0.000000 0.000000
# 3 -0.031064 -0.005655 0.021283 0.000000 0.000000 0.000000
# 4 0.000000 0.000000 0.000000 0.041026 0.000000 0.000000
# 5 0.000000 0.000000 0.000000 0.000000 0.044780 0.000000
# 6 0.000000 0.000000 0.000000 0.000000 0.000000 0.069880
#
#
# Mechanical properties :
#
#
# Convention : Reuss Voigt Hill
#
# Bulk Modulus (GPa) = 12.93731 57.19716 35.06723
# Shear Modulus (GPa) = 11.39152 21.05558 16.22355
#
# Velocity S-wave (km/s) = 2.73016 3.71177 3.25814
# Velocity P-wave (km/s) = 4.28994 7.46962 6.09093
#
# Compressibility (1/GPa) = 0.07729584
#
# Stress axis : x y z
#
# Youngs Moduli (GPa) = 7.45993 82.98207 46.98522
#
# Poissons Ratio (x) = 0.69083 1.45953
# Poissons Ratio (y) = 0.06210 0.26571
# Poissons Ratio (z) = 0.23173 0.46928
#
# Static dielectric constant tensor:
#      x y z
#    x 1.513970 0.000000 0.000000 
#    y 0.000000 1.533680 0.000000 
#    z 0.000000 0.000000 1.480270 
# 
# From -- ./inp_files/35088.got.cif
#   From: 2010.05.17/outbox.cif.g08.bks.cpg/sg51_18_cif.got.tgz:35088.got - 2010.06.03 11:52:47.
