data_PCOD9402705
_publ_section_title
;
Structure prediction by ZEFSAII (Michael W. Deem and Ramdas Pophale) SiO2 
 PCOD9402705
Probable space group: P M M A
;
_chemical_formula_sum "Si O2"
_cell_formula_units_Z 64
_cell_length_a 19.365457
_cell_length_b 7.468014
_cell_length_c 22.661324
_cell_angle_alpha 90.000000
_cell_angle_beta 90.000000
_cell_angle_gamma 90.000000
_cell_volume 3277.314759
_symmetry_space_group_name_H-M "P M M A"
_symmetry_group_IT_number 51
_symmetry_cell_setting 'orthorhombic'
loop_
_space_group_symop_operation_xyz
x,y,z
1/2-x,-y,z
1/2+x,-y,-z
-x,y,-z
-x,-y,-z
1/2+x,y,-z
1/2-x,y,z
x,-y,z
loop_
_atom_site_type_symbol
_atom_site_label
_atom_site_fract_x
_atom_site_fract_y
_atom_site_fract_z
Si Si1 0.671247 0.218917 0.592268
Si Si2 0.525741 0.208025 0.814565
Si Si3 0.866565 0.793705 0.229363
Si Si4 0.577877 0.781382 0.483022
Si Si5 0.431822 0.780934 0.307022
Si Si6 0.584573 0.781254 0.350355
Si Si7 0.522102 0.789945 0.063081
Si Si8 0.675358 0.705110 0.101749
O O1 0.750000 0.277764 0.592317
O O2 0.630076 0.275631 0.533938
O O3 0.629066 0.275888 0.650049
O O4 0.670797 0.000000 0.592184
O O5 0.447683 0.207768 0.788584
O O6 0.570343 0.283584 0.760681
O O7 0.517319 0.288414 0.879652
O O8 0.546284 0.000000 0.821523
O O9 0.866821 0.720499 0.296083
O O10 0.830224 0.708147 0.173164
O O11 0.843267 0.000000 0.230763
O O12 0.500000 0.726259 0.500000
O O13 0.598862 0.724475 0.417115
O O14 0.577178 0.000000 0.482416
O O15 0.505550 0.729938 0.335392
O O16 0.432026 0.000000 0.305370
O O17 0.586915 0.000000 0.348484
O O18 0.604240 0.782785 0.076147
O O19 0.503924 0.000000 0.061984
O O20 0.500000 0.713470 0.000000
O O21 0.750000 0.785814 0.085479
O O22 0.675351 0.500000 0.082441
#
# Coordination Sequence:
#
# PCOD9402705 Si02
#       8
#     8   8   8   8   8   8   8   8
#     4   9  15  19  23  36  61  94 129 164 206 255
#     4   7  11  20  36  56  75  96 126 165 202 241
#     4   8  14  25  41  61  82 106 141 183 221 258
#     4   9  13  18  28  42  64  97 137 174 208 258
#     4   8  11  17  29  43  61  89 125 163 199 239
#     4   8  12  19  33  51  68  93 135 178 212 252
#     4   9  17  30  49  72  95 119 149 184 224 270
#     4  10  20  32  46  66  93 124 156 188 225 271
#
# _framework density 19.528182000000001
#
# number of rings (size 3 to 8) (size 9 to 14) (size 15 to 20)
#    0.000    3.500    1.250    2.625    0.000    1.250 
#    0.000    0.625    0.000    3.000    0.000    3.500 
#    0.000    0.500    0.000    0.000    0.000    4.250 
#
# Total GULP energy -356315.347365 kJ/mol
# GULP energy per Si atom -5567.427303 kJ/mol
# Density = 1.948373 g / cm^3
# Si number density = 19.528182 Si / 1000 Ang^3
#
#
#
# Elastic Constant Matrix: (Units=GPa)
#
#
# Indices 1 2 3 4 5 6 
#
# 1 83.8110 -3.1051 66.6141 0.0000 0.0000 0.0000
# 2 -3.1051 51.8911 6.8066 0.0000 0.0000 0.0000
# 3 66.6141 6.8066 199.8672 0.0000 0.0000 0.0000
# 4 0.0000 0.0000 0.0000 -264.4385 0.0000 0.0000
# 5 0.0000 0.0000 0.0000 0.0000 14.0399 0.0000
# 6 0.0000 0.0000 0.0000 0.0000 0.0000 5.3002
#
#
#
# Elastic Compliance Matrix: (Units=1/GPa)
#
#
# Indices 1 2 3 4 5 6 
#
# 1 0.016380 0.001704 -0.005517 0.000000 0.000000 0.000000
# 2 0.001704 0.019535 -0.001233 0.000000 0.000000 0.000000
# 3 -0.005517 -0.001233 0.006884 0.000000 0.000000 0.000000
# 4 0.000000 0.000000 0.000000 -0.003782 0.000000 0.000000
# 5 0.000000 0.000000 0.000000 0.000000 0.071225 0.000000
# 6 0.000000 0.000000 0.000000 0.000000 0.000000 0.188674
#
#
# Mechanical properties :
#
#
# Convention : Reuss Voigt Hill
#
# Bulk Modulus (GPa) = 30.57563 52.91118 41.74341
# Shear Modulus (GPa) = 15.62931 -31.33610 -7.85339
#
# Velocity S-wave (km/s) = 2.83211 -4.01017 -2.00756
# Velocity P-wave (km/s) = 5.13669 2.38991 4.00608
#
# Compressibility (1/GPa) = 0.03270578
#
# Stress axis : x y z
#
# Youngs Moduli (GPa) = 61.05007 51.19056 145.26004
#
# Poissons Ratio (x) = -0.08722 0.80145
# Poissons Ratio (y) = -0.10402 0.17913
# Poissons Ratio (z) = 0.33683 0.06313
#
# Static dielectric constant tensor:
#      x y z
#    x 1.657710 0.000000 0.000000 
#    y 0.000000 1.741350 0.000000 
#    z 0.000000 0.000000 1.725700 
# 
# From -- ./inp_files/35945.got.cif
#   From: 2010.05.17/outbox.cif.g08.bks.cpg/sg51_18_cif.got.tgz:35945.got - 2010.06.03 11:52:47.
