data_PCOD9402430
_publ_section_title
;
Structure prediction by ZEFSAII (Michael W. Deem and Ramdas Pophale) SiO2 
 PCOD9402430
Probable space group: P M M A
;
_chemical_formula_sum "Si O2"
_cell_formula_units_Z 48
_cell_length_a 15.552186
_cell_length_b 17.954372
_cell_length_c 9.178170
_cell_angle_alpha 90.000000
_cell_angle_beta 90.000000
_cell_angle_gamma 90.000000
_cell_volume 2562.817957
_symmetry_space_group_name_H-M "P M M A"
_symmetry_group_IT_number 51
_symmetry_cell_setting 'orthorhombic'
loop_
_space_group_symop_operation_xyz
x,y,z
1/2-x,-y,z
1/2+x,-y,-z
-x,y,-z
-x,-y,-z
1/2+x,y,-z
1/2-x,y,z
x,-y,z
loop_
_atom_site_type_symbol
_atom_site_label
_atom_site_fract_x
_atom_site_fract_y
_atom_site_fract_z
Si Si1 0.355231 0.500000 0.078306
Si Si2 0.909626 0.189431 0.076363
Si Si3 0.250000 0.913943 0.924617
Si Si4 0.250000 0.084958 0.569619
Si Si5 0.848805 0.500000 0.600886
Si Si6 0.593503 0.811541 0.428185
Si Si7 0.405103 0.645746 0.565629
Si Si8 0.853987 0.355008 0.104044
O O1 0.250000 0.500000 0.073985
O O2 0.393120 0.500000 0.241343
O O3 0.379669 0.575889 0.996670
O O4 0.834824 0.132049 0.031068
O O5 0.917255 0.185203 0.252575
O O6 0.881174 0.274443 0.043009
O O7 0.000000 0.173493 0.000000
O O8 0.250000 0.914211 0.747130
O O9 0.250000 0.000000 0.972672
O O10 0.163864 0.128309 0.524843
O O11 0.250000 0.000000 0.520233
O O12 0.750000 0.500000 0.637455
O O13 0.865018 0.425670 0.510508
O O14 0.500000 0.821374 0.500000
O O15 0.630076 0.728854 0.463512
O O16 0.500000 0.648542 0.500000
O O17 0.397453 0.635423 0.738398
O O18 0.750000 0.354929 0.123759
#
# Coordination Sequence:
#
# PCOD9402430 Si02
#       8
#     4   8   4   4   4   8   8   8
#     4   9  21  35  50  78 110 142 187 230 277 327
#     4  10  20  35  59  86 113 148 192 231 278 333
#     4   9  18  36  59  86 115 150 188 229 277 335
#     4   9  18  34  61  86 111 150 190 225 275 339
#     4  11  22  35  53  78 111 145 184 237 284 324
#     4   9  20  36  56  84 116 146 187 235 277 333
#     4  10  21  35  54  79 108 141 190 235 276 327
#     4  10  19  36  58  78 108 152 193 228 272 336
#
# _framework density 18.729384
#
# number of rings (size 3 to 8) (size 9 to 14) (size 15 to 20)
#    0.000    2.333    0.833    1.250    4.667    5.333 
#    0.000    2.083    0.000    1.000    0.000    0.000 
#    0.000    0.000    0.000    0.000    0.000    0.000 
#
# Total GULP energy -267683.496920 kJ/mol
# GULP energy per Si atom -5576.739519 kJ/mol
# Density = 1.868676 g / cm^3
# Si number density = 18.729384 Si / 1000 Ang^3
#
#
#
# Elastic Constant Matrix: (Units=GPa)
#
#
# Indices 1 2 3 4 5 6 
#
# 1 96.3375 75.4777 30.9265 0.0000 0.0000 0.0000
# 2 75.4777 198.5299 60.1784 0.0000 0.0000 0.0000
# 3 30.9265 60.1784 43.2438 0.0000 0.0000 0.0000
# 4 0.0000 0.0000 0.0000 4.2356 0.0000 0.0000
# 5 0.0000 0.0000 0.0000 0.0000 28.2920 0.0000
# 6 0.0000 0.0000 0.0000 0.0000 0.0000 18.0060
#
#
#
# Elastic Compliance Matrix: (Units=1/GPa)
#
#
# Indices 1 2 3 4 5 6 
#
# 1 0.015372 -0.004344 -0.004948 0.000000 0.000000 0.000000
# 2 -0.004344 0.009940 -0.010725 0.000000 0.000000 0.000000
# 3 -0.004948 -0.010725 0.041589 0.000000 0.000000 0.000000
# 4 0.000000 0.000000 0.000000 0.236094 0.000000 0.000000
# 5 0.000000 0.000000 0.000000 0.000000 0.035346 0.000000
# 6 0.000000 0.000000 0.000000 0.000000 0.000000 0.055537
#
#
# Mechanical properties :
#
#
# Convention : Reuss Voigt Hill
#
# Bulk Modulus (GPa) = 37.22260 74.58625 55.90442
# Shear Modulus (GPa) = 11.29004 21.54197 16.41601
#
# Velocity S-wave (km/s) = 2.45786 3.39509 2.96376
# Velocity P-wave (km/s) = 5.28884 7.43495 6.45175
#
# Compressibility (1/GPa) = 0.02686540
#
# Stress axis : x y z
#
# Youngs Moduli (GPa) = 65.05185 100.60620 24.04503
#
# Poissons Ratio (x) = 0.43708 0.11897
# Poissons Ratio (y) = 0.28262 0.25789
# Poissons Ratio (z) = 0.32188 1.07902
#
# Static dielectric constant tensor:
#      x y z
#    x 1.533060 0.000000 0.000000 
#    y 0.000000 1.577320 0.000000 
#    z 0.000000 0.000000 1.649490 
# 
# From -- ./inp_files/8395.got.cif
#   From: 2010.05.17/outbox.cif.g08.bks.cpg/sg51_5_cif.got.tgz:8395.got - 2010.06.03 11:52:47.
