data_PCOD9402320
_publ_section_title
;
Structure prediction by ZEFSAII (Michael W. Deem and Ramdas Pophale) SiO2 
 PCOD9402320
Probable space group: P M M A
;
_chemical_formula_sum "Si O2"
_cell_formula_units_Z 64
_cell_length_a 16.485954
_cell_length_b 23.881484
_cell_length_c 9.204052
_cell_angle_alpha 90.000000
_cell_angle_beta 90.000000
_cell_angle_gamma 90.000000
_cell_volume 3623.718538
_symmetry_space_group_name_H-M "P M M A"
_symmetry_group_IT_number 51
_symmetry_cell_setting 'orthorhombic'
loop_
_space_group_symop_operation_xyz
x,y,z
1/2-x,-y,z
1/2+x,-y,-z
-x,y,-z
-x,-y,-z
1/2+x,y,-z
1/2-x,y,z
x,-y,z
loop_
_atom_site_type_symbol
_atom_site_label
_atom_site_fract_x
_atom_site_fract_y
_atom_site_fract_z
Si Si1 0.841109 0.564932 0.143714
Si Si2 0.846466 0.236711 0.845712
Si Si3 0.653774 0.939177 0.265713
Si Si4 0.581806 0.357896 0.906314
Si Si5 0.925293 0.156651 0.088845
Si Si6 0.500345 0.565896 0.329739
Si Si7 0.652718 0.933858 0.608179
Si Si8 0.542091 0.169373 0.656691
O O1 0.750000 0.574662 0.197020
O O2 0.847698 0.500000 0.096775
O O3 0.909235 0.573331 0.265595
O O4 0.861730 0.604647 0.009572
O O5 0.750000 0.232734 0.840655
O O6 0.876210 0.299800 0.868338
O O7 0.887157 0.212683 0.698752
O O8 0.879918 0.199177 0.981266
O O9 0.750000 0.943348 0.259739
O O10 0.628530 0.891605 0.155841
O O11 0.636001 0.927094 0.435078
O O12 0.617638 0.000000 0.230071
O O13 0.556353 0.394161 0.766163
O O14 0.500000 0.347034 0.000000
O O15 0.971151 0.182868 0.227505
O O16 0.000000 0.130941 0.000000
O O17 0.500000 0.578538 0.500000
O O18 0.478515 0.500000 0.309987
O O19 0.750000 0.921488 0.633977
O O20 0.588130 0.890892 0.678182
O O21 0.641082 0.000000 0.643443
O O22 0.500000 0.172036 0.500000
#
# Coordination Sequence:
#
# PCOD9402320 Si02
#       8
#     8   8   8   8   8   8   8   8
#     4   9  17  31  54  84 114 146 187 230 269 316
#     4  11  24  41  57  76 107 146 187 230 278 326
#     4   9  17  31  52  77 105 137 173 215 269 333
#     4  10  19  35  58  80 107 146 191 230 265 316
#     4  10  21  36  54  76 104 139 177 221 277 328
#     4   9  18  33  56  86 119 151 179 218 278 333
#     4   9  18  33  55  83 112 141 174 217 273 333
#     4  11  21  36  58  83 108 137 179 228 274 327
#
# _framework density 17.661417
#
# number of rings (size 3 to 8) (size 9 to 14) (size 15 to 20)
#    0.000    2.250    1.250    3.375    0.000    3.000 
#    0.000    3.125    0.000    9.750    0.000    0.000 
#    0.000    0.000    0.000    0.000    0.000    0.000 
#
# Total GULP energy -356589.263822 kJ/mol
# GULP energy per Si atom -5571.707247 kJ/mol
# Density = 1.762122 g / cm^3
# Si number density = 17.661417 Si / 1000 Ang^3
#
#
#
# Elastic Constant Matrix: (Units=GPa)
#
#
# Indices 1 2 3 4 5 6 
#
# 1 82.3833 56.7810 44.9152 0.0000 0.0000 0.0000
# 2 56.7810 94.1508 44.1272 0.0000 0.0000 0.0000
# 3 44.9152 44.1272 71.6085 0.0000 0.0000 0.0000
# 4 0.0000 0.0000 0.0000 5.4999 0.0000 0.0000
# 5 0.0000 0.0000 0.0000 0.0000 20.3701 0.0000
# 6 0.0000 0.0000 0.0000 0.0000 0.0000 26.1179
#
#
#
# Elastic Compliance Matrix: (Units=1/GPa)
#
#
# Indices 1 2 3 4 5 6 
#
# 1 0.024061 -0.010458 -0.008647 0.000000 0.000000 0.000000
# 2 -0.010458 0.019480 -0.005445 0.000000 0.000000 0.000000
# 3 -0.008647 -0.005445 0.022744 0.000000 0.000000 0.000000
# 4 0.000000 0.000000 0.000000 0.181822 0.000000 0.000000
# 5 0.000000 0.000000 0.000000 0.000000 0.049091 0.000000
# 6 0.000000 0.000000 0.000000 0.000000 0.000000 0.038288
#
#
# Mechanical properties :
#
#
# Convention : Reuss Voigt Hill
#
# Bulk Modulus (GPa) = 58.19000 59.97660 59.08330
# Shear Modulus (GPa) = 12.81020 17.21885 15.01452
#
# Velocity S-wave (km/s) = 2.69610 3.12579 2.91886
# Velocity P-wave (km/s) = 6.53536 6.86005 6.69967
#
# Compressibility (1/GPa) = 0.01718508
#
# Stress axis : x y z
#
# Youngs Moduli (GPa) = 41.56161 51.33456 43.96788
#
# Poissons Ratio (x) = 0.53685 0.38020
# Poissons Ratio (y) = 0.43464 0.23939
# Poissons Ratio (z) = 0.35939 0.27950
#
# Static dielectric constant tensor:
#      x y z
#    x 1.616960 0.000000 0.000000 
#    y 0.000000 1.606340 0.000000 
#    z 0.000000 0.000000 1.601240 
# 
# From -- ./inp_files/8710.got.cif
#   From: 2010.05.17/outbox.cif.g08.bks.cpg/sg51_5_cif.got.tgz:8710.got - 2010.06.03 11:52:47.
