data_PCOD9402551
_publ_section_title
;
Structure prediction by ZEFSAII (Michael W. Deem and Ramdas Pophale) SiO2 
 PCOD9402551
Probable space group: P M M A
;
_chemical_formula_sum "Si O2"
_cell_formula_units_Z 56
_cell_length_a 13.968793
_cell_length_b 16.132814
_cell_length_c 11.524454
_cell_angle_alpha 90.000000
_cell_angle_beta 90.000000
_cell_angle_gamma 90.000000
_cell_volume 2597.104156
_symmetry_space_group_name_H-M "P M M A"
_symmetry_group_IT_number 51
_symmetry_cell_setting 'orthorhombic'
loop_
_space_group_symop_operation_xyz
x,y,z
1/2-x,-y,z
1/2+x,-y,-z
-x,y,-z
-x,-y,-z
1/2+x,y,-z
1/2-x,y,z
x,-y,z
loop_
_atom_site_type_symbol
_atom_site_label
_atom_site_fract_x
_atom_site_fract_y
_atom_site_fract_z
Si Si1 0.402224 0.589249 0.928292
Si Si2 0.135298 0.354395 0.683641
Si Si3 0.367112 0.406349 0.423827
Si Si4 0.634395 0.750994 0.725859
Si Si5 0.135953 0.167982 0.772444
Si Si6 0.356705 0.766161 0.015724
Si Si7 0.970746 0.091119 0.633883
O O1 0.356740 0.500000 0.952619
O O2 0.413534 0.598650 0.790359
O O3 0.500000 0.590798 0.000000
O O4 0.350502 0.672341 0.968632
O O5 0.250000 0.370825 0.694399
O O6 0.105776 0.383029 0.555895
O O7 0.122678 0.256220 0.706017
O O8 0.250000 0.406193 0.421295
O O9 0.397879 0.500000 0.394918
O O10 0.398624 0.333199 0.337348
O O11 0.750000 0.747536 0.727164
O O12 0.597232 0.759088 0.857982
O O13 0.598892 0.832595 0.660728
O O14 0.250000 0.149272 0.768515
O O15 0.066442 0.104447 0.709846
O O16 0.105983 0.181666 0.906915
O O17 0.250000 0.799044 0.035854
O O18 0.000000 0.094598 0.500000
O O19 0.929123 0.000000 0.658659
#
# Coordination Sequence:
#
# PCOD9402551 Si02
#       7
#     8   8   8   8   8   8   8
#     4  10  20  30  45  76 115 153 196 250 304 350
#     4   9  17  31  55  81 107 150 202 252 305 357
#     4   9  17  31  55  86 117 155 205 255 303 355
#     4  10  22  40  61  88 126 166 201 247 303 362
#     4   9  19  38  64  91 118 153 200 254 306 357
#     4   9  20  37  59  84 110 155 206 243 298 365
#     4  11  25  42  64  94 122 156 201 245 303 373
#
# _framework density 21.562479
#
# number of rings (size 3 to 8) (size 9 to 14) (size 15 to 20)
#    0.000    2.429    0.000    2.571    4.000    4.571 
#    0.000    4.286    0.000    3.857    0.000    0.000 
#    0.000    0.000    0.000    0.000    0.000    0.000 
#
# Total GULP energy -312761.687538 kJ/mol
# GULP energy per Si atom -5585.030135 kJ/mol
# Density = 2.151340 g / cm^3
# Si number density = 21.562479 Si / 1000 Ang^3
#
#
#
# Elastic Constant Matrix: (Units=GPa)
#
#
# Indices 1 2 3 4 5 6 
#
# 1 65.3845 12.7609 34.3074 0.0000 0.0000 0.0000
# 2 12.7609 109.0173 62.5098 0.0000 0.0000 0.0000
# 3 34.3074 62.5098 155.4032 0.0000 0.0000 0.0000
# 4 0.0000 0.0000 0.0000 5.7929 0.0000 0.0000
# 5 0.0000 0.0000 0.0000 0.0000 25.7776 0.0000
# 6 0.0000 0.0000 0.0000 0.0000 0.0000 23.7355
#
#
#
# Elastic Compliance Matrix: (Units=1/GPa)
#
#
# Indices 1 2 3 4 5 6 
#
# 1 0.017302 0.000214 -0.003906 0.000000 0.000000 0.000000
# 2 0.000214 0.011925 -0.004844 0.000000 0.000000 0.000000
# 3 -0.003906 -0.004844 0.009246 0.000000 0.000000 0.000000
# 4 0.000000 0.000000 0.000000 0.172624 0.000000 0.000000
# 5 0.000000 0.000000 0.000000 0.000000 0.038793 0.000000
# 6 0.000000 0.000000 0.000000 0.000000 0.000000 0.042131
#
#
# Mechanical properties :
#
#
# Convention : Reuss Voigt Hill
#
# Bulk Modulus (GPa) = 46.72594 60.99572 53.86083
# Shear Modulus (GPa) = 15.81145 25.74299 20.77722
#
# Velocity S-wave (km/s) = 2.71086 3.45900 3.10753
# Velocity P-wave (km/s) = 5.61386 6.65599 6.15702
#
# Compressibility (1/GPa) = 0.02140139
#
# Stress axis : x y z
#
# Youngs Moduli (GPa) = 57.79783 83.85449 108.15851
#
# Poissons Ratio (x) = -0.01797 0.42245
# Poissons Ratio (y) = -0.01239 0.52394
# Poissons Ratio (z) = 0.22575 0.40621
#
# Static dielectric constant tensor:
#      x y z
#    x 1.840510 0.000000 0.000000 
#    y 0.000000 1.752010 0.000000 
#    z 0.000000 0.000000 1.778310 
# 
# From -- ./inp_files/16621.got.cif
#   From: 2010.05.17/outbox.cif.g08.bks.cpg/sg51_9_cif.got.tgz:16621.got - 2010.06.03 11:52:47.
