data_PCOD9402633
_publ_section_title
;
Structure prediction by ZEFSAII (Michael W. Deem and Ramdas Pophale) SiO2 
 PCOD9402633
Probable space group: P M M A
;
_chemical_formula_sum "Si O2"
_cell_formula_units_Z 44
_cell_length_a 19.531281
_cell_length_b 15.118182
_cell_length_c 7.219678
_cell_angle_alpha 90.000000
_cell_angle_beta 90.000000
_cell_angle_gamma 90.000000
_cell_volume 2131.808188
_symmetry_space_group_name_H-M "P M M A"
_symmetry_group_IT_number 51
_symmetry_cell_setting 'orthorhombic'
loop_
_space_group_symop_operation_xyz
x,y,z
1/2-x,-y,z
1/2+x,-y,-z
-x,y,-z
-x,-y,-z
1/2+x,y,-z
1/2-x,y,z
x,-y,z
loop_
_atom_site_type_symbol
_atom_site_label
_atom_site_fract_x
_atom_site_fract_y
_atom_site_fract_z
Si Si1 0.972768 0.597886 0.291559
Si Si2 0.581118 0.000000 0.549831
Si Si3 0.000000 0.745823 0.000000
Si Si4 0.672110 0.835855 0.525141
Si Si5 0.353292 0.187907 0.040289
Si Si6 0.673880 0.000000 0.917177
Si Si7 0.174401 0.329711 0.741917
O O1 0.993919 0.500000 0.225552
O O2 0.890524 0.606765 0.272977
O O3 0.000000 0.606409 0.500000
O O4 0.001125 0.679177 0.173318
O O5 0.500000 0.000000 0.500000
O O6 0.616746 0.089444 0.476290
O O7 0.611832 0.000000 0.764682
O O8 0.066220 0.805413 0.008953
O O9 0.750000 0.866534 0.490718
O O10 0.664928 0.812817 0.742989
O O11 0.662281 0.746746 0.410091
O O12 0.329742 0.091471 0.971953
O O13 0.325936 0.273287 0.932641
O O14 0.750000 0.000000 0.825272
O O15 0.250000 0.369128 0.715788
#
# Coordination Sequence:
#
# PCOD9402633 Si02
#       7
#     8   4   4   8   8   4   8
#     4  10  21  38  59  81 109 142 175 217 272 334
#     4  10  20  31  50  77 105 140 183 230 268 306
#     4  10  21  35  56  84 108 138 180 223 271 322
#     4  10  20  36  55  74 105 147 185 221 267 322
#     4  10  20  35  55  78 110 145 183 228 266 313
#     4  10  20  36  56  76 108 156 194 220 268 326
#     4  10  21  35  56  84 107 137 181 225 272 321
#
# _framework density 20.639754
#
# number of rings (size 3 to 8) (size 9 to 14) (size 15 to 20)
#    0.000    2.000    0.000    4.909    0.000    8.000 
#    0.000    0.909    0.000    0.000    0.000    5.727 
#    0.000    0.000    0.000    0.000    0.000    0.000 
#
# Total GULP energy -245482.351254 kJ/mol
# GULP energy per Si atom -5579.144347 kJ/mol
# Density = 2.059278 g / cm^3
# Si number density = 20.639754 Si / 1000 Ang^3
#
#
#
# Elastic Constant Matrix: (Units=GPa)
#
#
# Indices 1 2 3 4 5 6 
#
# 1 106.6723 23.0724 9.4054 0.0000 0.0000 0.0000
# 2 23.0724 66.9482 13.9151 0.0000 0.0000 0.0000
# 3 9.4054 13.9151 70.4986 0.0000 0.0000 0.0000
# 4 0.0000 0.0000 0.0000 5.6070 0.0000 0.0000
# 5 0.0000 0.0000 0.0000 0.0000 18.0106 0.0000
# 6 0.0000 0.0000 0.0000 0.0000 0.0000 129.6819
#
#
#
# Elastic Compliance Matrix: (Units=1/GPa)
#
#
# Indices 1 2 3 4 5 6 
#
# 1 0.010162 -0.003358 -0.000693 0.000000 0.000000 0.000000
# 2 -0.003358 0.016686 -0.002845 0.000000 0.000000 0.000000
# 3 -0.000693 -0.002845 0.014839 0.000000 0.000000 0.000000
# 4 0.000000 0.000000 0.000000 0.178350 0.000000 0.000000
# 5 0.000000 0.000000 0.000000 0.000000 0.055523 0.000000
# 6 0.000000 0.000000 0.000000 0.000000 0.000000 0.007711
#
#
# Mechanical properties :
#
#
# Convention : Reuss Voigt Hill
#
# Bulk Modulus (GPa) = 35.85068 37.43390 36.64229
# Shear Modulus (GPa) = 16.32061 43.84163 30.08112
#
# Velocity S-wave (km/s) = 2.81505 4.61383 3.82178
# Velocity P-wave (km/s) = 5.28900 6.82345 6.10463
#
# Compressibility (1/GPa) = 0.02789347
#
# Stress axis : x y z
#
# Youngs Moduli (GPa) = 98.40651 59.93180 67.39111
#
# Poissons Ratio (x) = 0.20126 0.04670
# Poissons Ratio (y) = 0.33046 0.19176
# Poissons Ratio (z) = 0.06819 0.17053
#
# Static dielectric constant tensor:
#      x y z
#    x 1.755310 0.000000 0.000000 
#    y 0.000000 1.674180 0.000000 
#    z 0.000000 0.000000 1.782680 
# 
# From -- ./inp_files/9538.got.cif
#   From: 2010.05.17/outbox.cif.g08.bks.cpg/sg51_5_cif.got.tgz:9538.got - 2010.06.03 11:52:47.
