data_PCOD9402447
_publ_section_title
;
Structure prediction by ZEFSAII (Michael W. Deem and Ramdas Pophale) SiO2 
 PCOD9402447
Probable space group: P M M A
;
_chemical_formula_sum "Si O2"
_cell_formula_units_Z 30
_cell_length_a 7.649961
_cell_length_b 12.713208
_cell_length_c 13.608254
_cell_angle_alpha 90.000000
_cell_angle_beta 90.000000
_cell_angle_gamma 90.000000
_cell_volume 1323.478165
_symmetry_space_group_name_H-M "P M M A"
_symmetry_group_IT_number 51
_symmetry_cell_setting 'orthorhombic'
loop_
_space_group_symop_operation_xyz
x,y,z
1/2-x,-y,z
1/2+x,-y,-z
-x,y,-z
-x,-y,-z
1/2+x,y,-z
1/2-x,y,z
x,-y,z
loop_
_atom_site_type_symbol
_atom_site_label
_atom_site_fract_x
_atom_site_fract_y
_atom_site_fract_z
Si Si1 0.750000 0.500000 0.648187
Si Si2 0.540348 0.000000 0.883553
Si Si3 0.958732 0.114472 0.615589
Si Si4 0.557706 0.661705 0.303370
Si Si5 0.459168 0.234185 0.114897
O O1 0.596149 0.591154 0.654490
O O2 0.477753 0.116550 0.853587
O O3 0.750000 0.000000 0.868064
O O4 0.500000 0.000000 0.000000
O O5 0.750000 0.120233 0.630583
O O6 0.000000 0.113127 0.500000
O O7 0.040092 0.219734 0.657147
O O8 0.016830 0.000000 0.655617
O O9 0.750000 0.621655 0.327865
O O10 0.535695 0.677204 0.185880
O O11 0.250000 0.236011 0.127404
O O12 0.500000 0.248743 0.000000
#
# Coordination Sequence:
#
# PCOD9402447 Si02
#       5
#     2   4   8   8   8
#     4  12  26  52  66  94 132 178 238 302 320 390
#     4   8  16  28  50  82 125 164 197 254 322 392
#     4  10  21  41  71 108 147 178 215 272 338 415
#     4  12  25  44  72  96 134 180 227 283 346 399
#     4  10  19  36  59  92 133 172 221 276 335 407
#
# _framework density 22.667542000000001
#
# number of rings (size 3 to 8) (size 9 to 14) (size 15 to 20)
#    0.000    1.600    2.667    2.000    1.867    2.667 
#    0.000    1.333    0.000    0.000    0.000    0.000 
#    0.000    0.000    0.000    0.000    0.000    0.000 
#
# Total GULP energy -167178.816932 kJ/mol
# GULP energy per Si atom -5572.627231 kJ/mol
# Density = 2.261595 g / cm^3
# Si number density = 22.667542 Si / 1000 Ang^3
#
#
#
# Elastic Constant Matrix: (Units=GPa)
#
#
# Indices 1 2 3 4 5 6 
#
# 1 164.0088 47.5087 -3.6466 0.0000 0.0000 0.0000
# 2 47.5087 121.9622 14.0435 0.0000 0.0000 0.0000
# 3 -3.6466 14.0435 41.4423 0.0000 0.0000 0.0000
# 4 0.0000 0.0000 0.0000 -19.3625 0.0000 0.0000
# 5 0.0000 0.0000 0.0000 0.0000 19.6163 0.0000
# 6 0.0000 0.0000 0.0000 0.0000 0.0000 -7.3004
#
#
#
# Elastic Compliance Matrix: (Units=1/GPa)
#
#
# Indices 1 2 3 4 5 6 
#
# 1 0.006973 -0.002900 0.001596 0.000000 0.000000 0.000000
# 2 -0.002900 0.009738 -0.003555 0.000000 0.000000 0.000000
# 3 0.001596 -0.003555 0.025475 0.000000 0.000000 0.000000
# 4 0.000000 0.000000 0.000000 -0.051646 0.000000 0.000000
# 5 0.000000 0.000000 0.000000 0.000000 0.050978 0.000000
# 6 0.000000 0.000000 0.000000 0.000000 0.000000 -0.136978
#
#
# Mechanical properties :
#
#
# Convention : Reuss Voigt Hill
#
# Bulk Modulus (GPa) = 30.79918 49.24717 40.02317
# Shear Modulus (GPa) = -66.73776 16.55787 -25.08994
#
# Velocity S-wave (km/s) = -5.43193 2.70565 -3.33057
# Velocity P-wave (km/s) = 5.07192 5.61549 1.70431
#
# Compressibility (1/GPa) = 0.03246840
#
# Stress axis : x y z
#
# Youngs Moduli (GPa) = 143.41532 102.68770 39.25401
#
# Poissons Ratio (x) = 0.29779 -0.06266
# Poissons Ratio (y) = 0.41590 0.13955
# Poissons Ratio (z) = -0.22893 0.36507
#
# Static dielectric constant tensor:
#      x y z
#    x 1.839190 0.000000 0.000000 
#    y 0.000000 1.816390 0.000000 
#    z 0.000000 0.000000 1.890550 
# 
# From -- ./inp_files/20016.got.cif
#   From: 2010.05.17/outbox.cif.g08.bks.cpg/sg51_11_cif.got.tgz:20016.got - 2010.06.03 11:52:47.
