data_PCOD9402755
_publ_section_title
;
Structure prediction by ZEFSAII (Michael W. Deem and Ramdas Pophale) SiO2 
 PCOD9402755
Probable space group: P M M A
;
_chemical_formula_sum "Si O2"
_cell_formula_units_Z 48
_cell_length_a 24.569991
_cell_length_b 7.361037
_cell_length_c 11.206431
_cell_angle_alpha 90.000000
_cell_angle_beta 90.000000
_cell_angle_gamma 90.000000
_cell_volume 2026.801978
_symmetry_space_group_name_H-M "P M M A"
_symmetry_group_IT_number 51
_symmetry_cell_setting 'orthorhombic'
loop_
_space_group_symop_operation_xyz
x,y,z
1/2-x,-y,z
1/2+x,-y,-z
-x,y,-z
-x,-y,-z
1/2+x,y,-z
1/2-x,y,z
x,-y,z
loop_
_atom_site_type_symbol
_atom_site_label
_atom_site_fract_x
_atom_site_fract_y
_atom_site_fract_z
Si Si1 0.311096 0.278063 0.335685
Si Si2 0.689197 0.785114 0.157509
Si Si3 0.969708 0.722053 0.303412
Si Si4 0.419699 0.722074 0.210969
Si Si5 0.077546 0.707223 0.947926
Si Si6 0.638356 0.282512 0.416430
O O1 0.250000 0.218103 0.307197
O O2 0.310358 0.500000 0.334946
O O3 0.359703 0.220181 0.248971
O O4 0.329759 0.217625 0.467759
O O5 0.750000 0.714613 0.138398
O O6 0.642311 0.706194 0.074116
O O7 0.670803 0.754104 0.294344
O O8 0.689336 0.000000 0.137055
O O9 0.968509 0.500000 0.307208
O O10 0.947560 0.783898 0.173435
O O11 0.923835 0.782836 0.396845
O O12 0.032838 0.774490 0.303726
O O13 0.419265 0.500000 0.207800
O O14 0.433939 0.785904 0.077531
O O15 0.058000 0.500000 0.950601
O O16 0.634997 0.500000 0.428970
#
# Coordination Sequence:
#
# PCOD9402755 Si02
#       6
#     8   8   8   8   8   8
#     4   9  17  27  40  64  97 127 154 187 228 273
#     4  10  20  32  47  68  93 121 155 196 237 275
#     4   8  14  25  43  68  93 118 152 192 234 274
#     4   9  16  26  43  68  98 126 151 187 231 275
#     4   9  17  29  47  70  94 122 155 191 232 277
#     4   9  17  30  49  70  92 119 152 193 236 276
#
# _framework density 23.68263
#
# number of rings (size 3 to 8) (size 9 to 14) (size 15 to 20)
#    0.000    3.000    0.000    2.500    0.000    5.333 
#    0.000    5.000    0.000    9.000    0.000    7.000 
#    0.000    0.000    0.000    0.000    0.000    0.000 
#
# Total GULP energy -268005.799139 kJ/mol
# GULP energy per Si atom -5583.454149 kJ/mol
# Density = 2.362873 g / cm^3
# Si number density = 23.682630 Si / 1000 Ang^3
#
#
#
# Elastic Constant Matrix: (Units=GPa)
#
#
# Indices 1 2 3 4 5 6 
#
# 1 127.4538 -19.1190 76.0500 0.0000 0.0000 0.0000
# 2 -19.1190 77.8959 34.1421 0.0000 0.0000 0.0000
# 3 76.0500 34.1421 -89.5295 0.0000 0.0000 0.0000
# 4 0.0000 0.0000 0.0000 -166.7690 0.0000 0.0000
# 5 0.0000 0.0000 0.0000 0.0000 41.5086 0.0000
# 6 0.0000 0.0000 0.0000 0.0000 0.0000 -99.7800
#
#
#
# Elastic Compliance Matrix: (Units=1/GPa)
#
#
# Indices 1 2 3 4 5 6 
#
# 1 0.005236 -0.000569 0.004231 0.000000 0.000000 0.000000
# 2 -0.000569 0.011061 0.003735 0.000000 0.000000 0.000000
# 3 0.004231 0.003735 -0.006152 0.000000 0.000000 0.000000
# 4 0.000000 0.000000 0.000000 -0.005996 0.000000 0.000000
# 5 0.000000 0.000000 0.000000 0.000000 0.024091 0.000000
# 6 0.000000 0.000000 0.000000 0.000000 0.000000 -0.010022
#
#
# Mechanical properties :
#
#
# Convention : Reuss Voigt Hill
#
# Bulk Modulus (GPa) = 40.09928 33.10739 36.60334
# Shear Modulus (GPa) = 425.93228 -43.35827 191.28701
#
# Velocity S-wave (km/s) = 13.42537 -4.28343 8.99702
# Velocity P-wave (km/s) = 16.04024 3.23323 11.10936
#
# Compressibility (1/GPa) = 0.02493810
#
# Stress axis : x y z
#
# Youngs Moduli (GPa) = 190.97951 90.40749 -162.56137
#
# Poissons Ratio (x) = 0.05146 0.68776
# Poissons Ratio (y) = 0.10870 0.60711
# Poissons Ratio (z) = -0.80799 -0.33764
#
# Static dielectric constant tensor:
#      x y z
#    x 1.878670 0.000000 0.000000 
#    y 0.000000 2.207180 0.000000 
#    z 0.000000 0.000000 1.886380 
# 
# From -- ./inp_files/18562.got.cif
#   From: 2010.05.17/outbox.cif.g08.bks.cpg/sg51_10_cif.got.tgz:18562.got - 2010.06.03 11:52:47.
