data_PCOD9402260
_publ_section_title
;
Structure prediction by ZEFSAII (Michael W. Deem and Ramdas Pophale) SiO2 
 PCOD9402260
Probable space group: P M M A
;
_chemical_formula_sum "Si O2"
_cell_formula_units_Z 48
_cell_length_a 18.395854
_cell_length_b 8.901472
_cell_length_c 16.975167
_cell_angle_alpha 90.000000
_cell_angle_beta 90.000000
_cell_angle_gamma 90.000000
_cell_volume 2779.686640
_symmetry_space_group_name_H-M "P M M A"
_symmetry_group_IT_number 51
_symmetry_cell_setting 'orthorhombic'
loop_
_space_group_symop_operation_xyz
x,y,z
1/2-x,-y,z
1/2+x,-y,-z
-x,y,-z
-x,-y,-z
1/2+x,y,-z
1/2-x,y,z
x,-y,z
loop_
_atom_site_type_symbol
_atom_site_label
_atom_site_fract_x
_atom_site_fract_y
_atom_site_fract_z
Si Si1 0.103749 0.320797 0.318669
Si Si2 0.914201 0.318931 0.503820
Si Si3 0.051435 0.321200 0.761076
Si Si4 0.165229 0.820191 0.646120
Si Si5 0.830147 0.819217 0.833035
Si Si6 0.520022 0.181656 0.911325
O O1 0.115240 0.500000 0.312596
O O2 0.113933 0.276360 0.409265
O O3 0.153125 0.238801 0.254746
O O4 0.020123 0.291732 0.292975
O O5 0.908502 0.500000 0.495555
O O6 0.870682 0.242116 0.433791
O O7 0.000000 0.282122 0.500000
O O8 0.060157 0.500000 0.766414
O O9 0.119855 0.247988 0.718400
O O10 0.032691 0.252227 0.845933
O O11 0.250000 0.778497 0.649658
O O12 0.159364 0.000000 0.647533
O O13 0.750000 0.768333 0.858682
O O14 0.897979 0.771164 0.887171
O O15 0.830595 0.000000 0.832288
O O16 0.484133 0.000000 0.094205
O O17 0.500000 0.225323 0.000000
#
# Coordination Sequence:
#
# PCOD9402260 Si02
#       6
#     8   8   8   8   8   8
#     4   9  18  32  52  76 101 133 173 214 257 310
#     4  10  19  35  55  76 104 139 182 223 264 316
#     4  10  19  35  57  78 103 136 176 219 264 318
#     4  11  24  38  52  76 109 143 182 225 269 317
#     4   9  18  32  50  74 105 138 171 211 261 314
#     4   9  18  34  56  81 108 139 177 217 263 322
#
# _framework density 17.268132999999999
#
# number of rings (size 3 to 8) (size 9 to 14) (size 15 to 20)
#    0.000    2.333    1.667    1.000    0.000    4.333 
#    0.000    4.167    0.000    3.000    0.000    0.000 
#    0.000    0.000    0.000    0.000    0.000    0.000 
#
# Total GULP energy -267799.976948 kJ/mol
# GULP energy per Si atom -5579.166186 kJ/mol
# Density = 1.722883 g / cm^3
# Si number density = 17.268133 Si / 1000 Ang^3
#
#
#
# Elastic Constant Matrix: (Units=GPa)
#
#
# Indices 1 2 3 4 5 6 
#
# 1 131.7593 43.2641 86.4827 0.0000 0.0000 0.0000
# 2 43.2641 25.1689 41.2943 0.0000 0.0000 0.0000
# 3 86.4827 41.2943 162.6058 0.0000 0.0000 0.0000
# 4 0.0000 0.0000 0.0000 21.5723 0.0000 0.0000
# 5 0.0000 0.0000 0.0000 0.0000 14.8076 0.0000
# 6 0.0000 0.0000 0.0000 0.0000 0.0000 16.7247
#
#
#
# Elastic Compliance Matrix: (Units=1/GPa)
#
#
# Indices 1 2 3 4 5 6 
#
# 1 0.018229 -0.026447 -0.002979 0.000000 0.000000 0.000000
# 2 -0.026447 0.106482 -0.012975 0.000000 0.000000 0.000000
# 3 -0.002979 -0.012975 0.011029 0.000000 0.000000 0.000000
# 4 0.000000 0.000000 0.000000 0.046356 0.000000 0.000000
# 5 0.000000 0.000000 0.000000 0.000000 0.067533 0.000000
# 6 0.000000 0.000000 0.000000 0.000000 0.000000 0.059792
#
#
# Mechanical properties :
#
#
# Convention : Reuss Voigt Hill
#
# Bulk Modulus (GPa) = 19.63208 73.51291 46.57249
# Shear Modulus (GPa) = 12.15948 20.52045 16.33996
#
# Velocity S-wave (km/s) = 2.65647 3.45097 3.07945
# Velocity P-wave (km/s) = 4.56101 7.65133 6.29863
#
# Compressibility (1/GPa) = 0.05093704
#
# Stress axis : x y z
#
# Youngs Moduli (GPa) = 54.85782 9.39129 90.66858
#
# Poissons Ratio (x) = 0.24838 0.27008
# Poissons Ratio (y) = 1.45085 1.17644
# Poissons Ratio (z) = 0.16341 0.12185
#
# Static dielectric constant tensor:
#      x y z
#    x 1.588530 0.000000 0.000000 
#    y 0.000000 1.576680 0.000000 
#    z 0.000000 0.000000 1.562120 
# 
# From -- ./inp_files/30078.got.cif
#   From: 2010.05.17/outbox.cif.g08.bks.cpg/sg51_16_cif.got.tgz:30078.got - 2010.06.03 11:52:47.
