data_PCOD9402807
_publ_section_title
;
Structure prediction by ZEFSAII (Michael W. Deem and Ramdas Pophale) SiO2 
 PCOD9402807
Probable space group: P M M A
;
_chemical_formula_sum "Si O2"
_cell_formula_units_Z 64
_cell_length_a 23.524798
_cell_length_b 9.263383
_cell_length_c 18.461695
_cell_angle_alpha 90.000000
_cell_angle_beta 90.000000
_cell_angle_gamma 90.000000
_cell_volume 4023.158061
_symmetry_space_group_name_H-M "P M M A"
_symmetry_group_IT_number 51
_symmetry_cell_setting 'orthorhombic'
loop_
_space_group_symop_operation_xyz
x,y,z
1/2-x,-y,z
1/2+x,-y,-z
-x,y,-z
-x,-y,-z
1/2+x,y,-z
1/2-x,y,z
x,-y,z
loop_
_atom_site_type_symbol
_atom_site_label
_atom_site_fract_x
_atom_site_fract_y
_atom_site_fract_z
Si Si1 0.627135 0.828554 0.858798
Si Si2 0.817642 0.671613 0.723751
Si Si3 0.819162 0.834449 0.576906
Si Si4 0.611328 0.326621 0.134652
Si Si5 0.815413 0.675702 0.273369
Si Si6 0.317248 0.830341 0.988053
Si Si7 0.999906 0.827927 0.914374
Si Si8 0.180826 0.333362 0.565715
O O1 0.648568 0.739797 0.790377
O O2 0.664592 0.795624 0.929945
O O3 0.561977 0.799755 0.880857
O O4 0.632961 0.000000 0.843947
O O5 0.750000 0.700258 0.733841
O O6 0.825323 0.500000 0.720077
O O7 0.835314 0.744433 0.647931
O O8 0.750000 0.833590 0.574992
O O9 0.838452 0.761004 0.502125
O O10 0.837701 0.000000 0.582372
O O11 0.608846 0.500000 0.132446
O O12 0.643149 0.281513 0.208671
O O13 0.549233 0.258743 0.125674
O O14 0.648506 0.266256 0.068183
O O15 0.750000 0.723133 0.260536
O O16 0.814060 0.500000 0.275196
O O17 0.834652 0.720890 0.353912
O O18 0.250000 0.812680 0.978735
O O19 0.331878 0.000000 0.976336
O O20 0.011018 0.000000 0.909737
O O21 0.000000 0.790634 0.000000
O O22 0.250000 0.334346 0.565573
O O23 0.162703 0.500000 0.556932
#
# Coordination Sequence:
#
# PCOD9402807 Si02
#       8
#     8   8   8   8   8   8   8   8
#     4  10  20  35  54  70  89 124 166 206 245 287
#     4  10  20  32  47  71 103 132 158 194 240 291
#     4   9  16  26  42  66  97 130 162 194 230 277
#     4  11  21  32  50  74 100 127 162 206 249 291
#     4   8  15  28  45  68 100 134 162 192 237 291
#     4  10  20  34  51  70  95 129 165 197 239 297
#     4  10  20  38  57  69  89 124 167 210 250 294
#     4   8  13  24  43  64  90 127 165 194 226 275
#
# _framework density 15.907901000000001
#
# number of rings (size 3 to 8) (size 9 to 14) (size 15 to 20)
#    0.000    2.500    1.250    2.625    0.000    4.750 
#    0.000    1.250    0.000    3.000    0.000    0.875 
#    0.000    7.000    0.000    0.000    0.000    0.000 
#
# Total GULP energy -356818.152346 kJ/mol
# GULP energy per Si atom -5575.283630 kJ/mol
# Density = 1.587169 g / cm^3
# Si number density = 15.907901 Si / 1000 Ang^3
#
#
#
# Elastic Constant Matrix: (Units=GPa)
#
#
# Indices 1 2 3 4 5 6 
#
# 1 42.7745 32.8089 34.7535 0.0000 0.0000 0.0000
# 2 32.8089 57.3649 58.7418 0.0000 0.0000 0.0000
# 3 34.7535 58.7418 129.0238 0.0000 0.0000 0.0000
# 4 0.0000 0.0000 0.0000 114.9339 0.0000 0.0000
# 5 0.0000 0.0000 0.0000 0.0000 1.9280 0.0000
# 6 0.0000 0.0000 0.0000 0.0000 0.0000 21.3468
#
#
#
# Elastic Compliance Matrix: (Units=1/GPa)
#
#
# Indices 1 2 3 4 5 6 
#
# 1 0.041683 -0.023123 -0.000700 0.000000 0.000000 0.000000
# 2 -0.023123 0.045484 -0.014480 0.000000 0.000000 0.000000
# 3 -0.000700 -0.014480 0.014531 0.000000 0.000000 0.000000
# 4 0.000000 0.000000 0.000000 0.008701 0.000000 0.000000
# 5 0.000000 0.000000 0.000000 0.000000 0.518677 0.000000
# 6 0.000000 0.000000 0.000000 0.000000 0.000000 0.046845
#
#
# Mechanical properties :
#
#
# Convention : Reuss Voigt Hill
#
# Bulk Modulus (GPa) = 39.85163 53.53018 46.69090
# Shear Modulus (GPa) = 6.57123 34.49900 20.53512
#
# Velocity S-wave (km/s) = 2.03464 4.66195 3.59677
# Velocity P-wave (km/s) = 5.53403 7.91843 6.83107
#
# Compressibility (1/GPa) = 0.02509308
#
# Stress axis : x y z
#
# Youngs Moduli (GPa) = 23.99049 21.98562 68.81635
#
# Poissons Ratio (x) = 0.50837 0.04819
# Poissons Ratio (y) = 0.55473 0.99644
# Poissons Ratio (z) = 0.01680 0.31834
#
# Static dielectric constant tensor:
#      x y z
#    x 1.509890 0.000000 0.000000 
#    y 0.000000 1.532180 0.000000 
#    z 0.000000 0.000000 1.528240 
# 
# From -- ./inp_files/30906.got.cif
#   From: 2010.05.17/outbox.cif.g08.bks.cpg/sg51_16_cif.got.tgz:30906.got - 2010.06.03 11:52:47.
