data_PCOD9402544
_publ_section_title
;
Structure prediction by ZEFSAII (Michael W. Deem and Ramdas Pophale) SiO2 
 PCOD9402544
Probable space group: P M M A
;
_chemical_formula_sum "Si O2"
_cell_formula_units_Z 64
_cell_length_a 18.546082
_cell_length_b 14.181088
_cell_length_c 16.863709
_cell_angle_alpha 90.000000
_cell_angle_beta 90.000000
_cell_angle_gamma 90.000000
_cell_volume 4435.216529
_symmetry_space_group_name_H-M "P M M A"
_symmetry_group_IT_number 51
_symmetry_cell_setting 'orthorhombic'
loop_
_space_group_symop_operation_xyz
x,y,z
1/2-x,-y,z
1/2+x,-y,-z
-x,y,-z
-x,-y,-z
1/2+x,y,-z
1/2-x,y,z
x,-y,z
loop_
_atom_site_type_symbol
_atom_site_label
_atom_site_fract_x
_atom_site_fract_y
_atom_site_fract_z
Si Si1 0.525508 0.613980 0.085249
Si Si2 0.168552 0.386492 0.826093
Si Si3 0.834440 0.387750 0.481033
Si Si4 0.547012 0.386283 0.750228
Si Si5 0.098904 0.892258 0.422028
Si Si6 0.903049 0.302855 0.325926
Si Si7 0.073564 0.892171 0.604701
Si Si8 0.164633 0.291245 0.351935
O O1 0.527294 0.500000 0.080244
O O2 0.605773 0.642894 0.112891
O O3 0.472252 0.636155 0.158283
O O4 0.500000 0.650416 0.000000
O O5 0.250000 0.366027 0.851831
O O6 0.162259 0.500000 0.814924
O O7 0.150832 0.338611 0.742140
O O8 0.750000 0.364622 0.466997
O O9 0.841979 0.500000 0.481243
O O10 0.880909 0.344735 0.410599
O O11 0.853856 0.347530 0.567061
O O12 0.548870 0.500000 0.741462
O O13 0.480825 0.343354 0.699546
O O14 0.619130 0.338258 0.718178
O O15 0.106555 0.875507 0.516760
O O16 0.140487 0.815330 0.370919
O O17 0.013185 0.885457 0.405179
O O18 0.121179 0.000000 0.405967
O O19 0.903483 0.190272 0.336353
O O20 0.090635 0.000000 0.627905
O O21 0.250000 0.297563 0.338825
#
# Coordination Sequence:
#
# PCOD9402544 Si02
#       8
#     8   8   8   8   8   8   8   8
#     4   8  15  30  50  69  90 118 152 186 219 265
#     4   9  17  28  44  69  98 123 148 184 228 270
#     4  10  20  30  40  58  87 124 159 187 216 258
#     4  10  20  31  45  67  91 118 149 185 227 269
#     4   9  17  32  47  61  81 112 157 204 241 270
#     4  11  17  28  47  64  87 117 154 192 226 265
#     4   9  17  29  47  65  83 110 151 201 245 273
#     4  11  21  32  43  59  88 124 157 193 231 263
#
# _framework density 14.429961
#
# number of rings (size 3 to 8) (size 9 to 14) (size 15 to 20)
#    0.000    2.375    2.500    3.375    0.000    2.500 
#    0.000    1.875    0.000    3.750    0.000    0.000 
#    0.000   12.500    0.000    1.000    0.000    0.000 
#
# Total GULP energy -356641.472283 kJ/mol
# GULP energy per Si atom -5572.523004 kJ/mol
# Density = 1.439712 g / cm^3
# Si number density = 14.429961 Si / 1000 Ang^3
#
#
#
# Elastic Constant Matrix: (Units=GPa)
#
#
# Indices 1 2 3 4 5 6 
#
# 1 71.6870 30.2372 58.6597 0.0000 0.0000 0.0000
# 2 30.2372 67.3528 39.5053 0.0000 0.0000 0.0000
# 3 58.6597 39.5053 89.8886 0.0000 0.0000 0.0000
# 4 0.0000 0.0000 0.0000 3.9266 0.0000 0.0000
# 5 0.0000 0.0000 0.0000 0.0000 11.3361 0.0000
# 6 0.0000 0.0000 0.0000 0.0000 0.0000 15.9947
#
#
#
# Elastic Compliance Matrix: (Units=1/GPa)
#
#
# Indices 1 2 3 4 5 6 
#
# 1 0.030294 -0.002701 -0.018583 0.000000 0.000000 0.000000
# 2 -0.002701 0.020245 -0.007135 0.000000 0.000000 0.000000
# 3 -0.018583 -0.007135 0.026387 0.000000 0.000000 0.000000
# 4 0.000000 0.000000 0.000000 0.254673 0.000000 0.000000
# 5 0.000000 0.000000 0.000000 0.000000 0.088214 0.000000
# 6 0.000000 0.000000 0.000000 0.000000 0.000000 0.062521
#
#
# Mechanical properties :
#
#
# Convention : Reuss Voigt Hill
#
# Bulk Modulus (GPa) = 49.77662 53.97033 51.87348
# Shear Modulus (GPa) = 9.15974 12.95323 11.05649
#
# Velocity S-wave (km/s) = 2.52220 2.99935 2.77107
# Velocity P-wave (km/s) = 6.56142 7.03403 6.80183
#
# Compressibility (1/GPa) = 0.02008975
#
# Stress axis : x y z
#
# Youngs Moduli (GPa) = 33.00944 49.39600 37.89708
#
# Poissons Ratio (x) = 0.13341 0.70423
# Poissons Ratio (y) = 0.08915 0.27039
# Poissons Ratio (z) = 0.61340 0.35243
#
# Static dielectric constant tensor:
#      x y z
#    x 1.489520 0.000000 0.000000 
#    y 0.000000 1.473460 0.000000 
#    z 0.000000 0.000000 1.459660 
# 
# From -- ./inp_files/25365.got.cif
#   From: 2010.05.17/outbox.cif.g08.bks.cpg/sg51_13_cif.got.tgz:25365.got - 2010.06.03 11:52:47.
