data_PCOD9402846
_publ_section_title
;
Structure prediction by ZEFSAII (Michael W. Deem and Ramdas Pophale) SiO2 
 PCOD9402846
Probable space group: P M M A
;
_chemical_formula_sum "Si O2"
_cell_formula_units_Z 48
_cell_length_a 9.869524
_cell_length_b 18.343379
_cell_length_c 14.674213
_cell_angle_alpha 90.000000
_cell_angle_beta 90.000000
_cell_angle_gamma 90.000000
_cell_volume 2656.625674
_symmetry_space_group_name_H-M "P M M A"
_symmetry_group_IT_number 51
_symmetry_cell_setting 'orthorhombic'
loop_
_space_group_symop_operation_xyz
x,y,z
1/2-x,-y,z
1/2+x,-y,-z
-x,y,-z
-x,-y,-z
1/2+x,y,-z
1/2-x,y,z
x,-y,z
loop_
_atom_site_type_symbol
_atom_site_label
_atom_site_fract_x
_atom_site_fract_y
_atom_site_fract_z
Si Si1 0.910067 0.215064 0.089199
Si Si2 0.585218 0.083121 0.214590
Si Si3 0.599131 0.414184 0.921920
Si Si4 0.592024 0.414751 0.413455
Si Si5 0.906633 0.353956 0.219318
Si Si6 0.905566 0.088903 0.417565
O O1 0.750000 0.212077 0.065380
O O2 0.953341 0.139340 0.136654
O O3 0.922190 0.276586 0.168313
O O4 0.000000 0.227601 0.000000
O O5 0.750000 0.081984 0.217638
O O6 0.543970 0.108369 0.316235
O O7 0.539383 0.000000 0.199352
O O8 0.750000 0.381624 0.923587
O O9 0.613070 0.500000 0.938646
O O10 0.518941 0.403137 0.828961
O O11 0.500000 0.384760 0.000000
O O12 0.500000 0.397583 0.500000
O O13 0.750000 0.410659 0.439244
O O14 0.565788 0.500000 0.386535
O O15 0.572113 0.361877 0.327091
O O16 0.750000 0.378308 0.201844
O O17 0.750000 0.113295 0.429048
O O18 0.000000 0.113740 0.500000
O O19 0.903664 0.000000 0.418531
#
# Coordination Sequence:
#
# PCOD9402846 Si02
#       6
#     8   8   8   8   8   8
#     4  10  21  36  53  73  98 130 169 212 259 310
#     4   8  15  30  51  72  96 130 170 209 254 311
#     4  10  20  32  48  72 100 130 165 204 244 288
#     4   9  18  33  53  76 102 133 168 205 245 290
#     4  10  20  34  52  73 100 134 168 204 249 301
#     4   8  13  23  42  67  93 121 152 188 234 288
#
# _framework density 18.068031999999999
#
# number of rings (size 3 to 8) (size 9 to 14) (size 15 to 20)
#    0.000    2.833    0.000    2.500    0.000    4.667 
#    0.000    3.333    0.000    1.000    0.000    0.000 
#    0.000    0.000    0.000    0.000    0.000    0.000 
#
# Total GULP energy -267343.058035 kJ/mol
# GULP energy per Si atom -5569.647042 kJ/mol
# Density = 1.802691 g / cm^3
# Si number density = 18.068032 Si / 1000 Ang^3
#
#
#
# Elastic Constant Matrix: (Units=GPa)
#
#
# Indices 1 2 3 4 5 6 
#
# 1 89.1906 33.6133 76.8031 0.0000 0.0000 0.0000
# 2 33.6133 58.9344 53.9467 0.0000 0.0000 0.0000
# 3 76.8031 53.9467 141.1146 0.0000 0.0000 0.0000
# 4 0.0000 0.0000 0.0000 24.5552 0.0000 0.0000
# 5 0.0000 0.0000 0.0000 0.0000 32.5038 0.0000
# 6 0.0000 0.0000 0.0000 0.0000 0.0000 -7.0442
#
#
#
# Elastic Compliance Matrix: (Units=1/GPa)
#
#
# Indices 1 2 3 4 5 6 
#
# 1 0.021314 -0.002366 -0.010696 0.000000 0.000000 0.000000
# 2 -0.002366 0.026365 -0.008791 0.000000 0.000000 0.000000
# 3 -0.010696 -0.008791 0.016269 0.000000 0.000000 0.000000
# 4 0.000000 0.000000 0.000000 0.040725 0.000000 0.000000
# 5 0.000000 0.000000 0.000000 0.000000 0.030766 0.000000
# 6 0.000000 0.000000 0.000000 0.000000 0.000000 -0.141961
#
#
# Mechanical properties :
#
#
# Convention : Reuss Voigt Hill
#
# Bulk Modulus (GPa) = 49.40418 68.66286 59.03352
# Shear Modulus (GPa) = 113.81804 18.32806 66.07305
#
# Velocity S-wave (km/s) = 7.94550 3.18841 6.05379
# Velocity P-wave (km/s) = 10.56302 7.18606 9.03374
#
# Compressibility (1/GPa) = 0.02024120
#
# Stress axis : x y z
#
# Youngs Moduli (GPa) = 46.91768 37.92957 61.46786
#
# Poissons Ratio (x) = 0.08973 0.65746
# Poissons Ratio (y) = 0.11099 0.54039
# Poissons Ratio (z) = 0.50183 0.33345
#
# Static dielectric constant tensor:
#      x y z
#    x 1.615920 0.000000 0.000000 
#    y 0.000000 1.658360 0.000000 
#    z 0.000000 0.000000 1.629280 
# 
# From -- ./inp_files/21400.got.cif
#   From: 2010.05.17/outbox.cif.g08.bks.cpg/sg51_11_cif.got.tgz:21400.got - 2010.06.03 11:52:47.
