data_PCOD9402263
_publ_section_title
;
Structure prediction by ZEFSAII (Michael W. Deem and Ramdas Pophale) SiO2 
 PCOD9402263
Probable space group: P M M A
;
_chemical_formula_sum "Si O2"
_cell_formula_units_Z 48
_cell_length_a 21.139276
_cell_length_b 7.672387
_cell_length_c 14.902845
_cell_angle_alpha 90.000000
_cell_angle_beta 90.000000
_cell_angle_gamma 90.000000
_cell_volume 2417.073152
_symmetry_space_group_name_H-M "P M M A"
_symmetry_group_IT_number 51
_symmetry_cell_setting 'orthorhombic'
loop_
_space_group_symop_operation_xyz
x,y,z
1/2-x,-y,z
1/2+x,-y,-z
-x,y,-z
-x,-y,-z
1/2+x,y,-z
1/2-x,y,z
x,-y,z
loop_
_atom_site_type_symbol
_atom_site_label
_atom_site_fract_x
_atom_site_fract_y
_atom_site_fract_z
Si Si1 0.867334 0.200907 0.748110
Si Si2 0.487448 0.294530 0.748305
Si Si3 0.561187 0.713138 0.442300
Si Si4 0.439518 0.210730 0.941815
Si Si5 0.178799 0.213372 0.058616
Si Si6 0.179640 0.295670 0.446203
O O1 0.943282 0.210136 0.754521
O O2 0.838962 0.272580 0.840775
O O3 0.843596 0.285526 0.656578
O O4 0.847527 0.000000 0.742064
O O5 0.499445 0.500000 0.736670
O O6 0.450270 0.232676 0.660117
O O7 0.449507 0.265891 0.839691
O O8 0.500000 0.765932 0.500000
O O9 0.562768 0.500000 0.444321
O O10 0.624832 0.778337 0.489909
O O11 0.439791 0.000000 0.943605
O O12 0.500000 0.270145 0.000000
O O13 0.375223 0.270780 0.989475
O O14 0.250000 0.265967 0.035415
O O15 0.176888 0.000000 0.059914
O O16 0.250000 0.219472 0.454874
O O17 0.184071 0.500000 0.468687
#
# Coordination Sequence:
#
# PCOD9402263 Si02
#       6
#     8   8   8   8   8   8
#     4  11  20  33  54  81 112 139 173 220 273 322
#     4  11  21  34  55  81 107 137 181 224 266 312
#     4   9  17  33  54  74 103 140 175 212 258 317
#     4  10  19  35  55  77 106 139 177 218 264 323
#     4   9  18  33  53  75 103 141 176 207 258 326
#     4  10  20  35  55  79 106 140 180 220 266 319
#
# _framework density 19.858730000000001
#
# number of rings (size 3 to 8) (size 9 to 14) (size 15 to 20)
#    0.000    2.000    3.333    1.500    0.000    1.333 
#    0.000    3.333    0.000    3.500    0.000    0.000 
#    0.000    0.000    0.000    0.000    0.000    0.000 
#
# Total GULP energy -268070.521591 kJ/mol
# GULP energy per Si atom -5584.802533 kJ/mol
# Density = 1.981353 g / cm^3
# Si number density = 19.858730 Si / 1000 Ang^3
#
#
#
# Elastic Constant Matrix: (Units=GPa)
#
#
# Indices 1 2 3 4 5 6 
#
# 1 181.4755 -0.4026 94.7548 0.0000 0.0000 0.0000
# 2 -0.4026 35.6411 -4.2110 0.0000 0.0000 0.0000
# 3 94.7548 -4.2110 164.2984 0.0000 0.0000 0.0000
# 4 0.0000 0.0000 0.0000 24.2555 0.0000 0.0000
# 5 0.0000 0.0000 0.0000 0.0000 21.0328 0.0000
# 6 0.0000 0.0000 0.0000 0.0000 0.0000 0.5452
#
#
#
# Elastic Compliance Matrix: (Units=1/GPa)
#
#
# Indices 1 2 3 4 5 6 
#
# 1 0.007892 -0.000450 -0.004563 0.000000 0.000000 0.000000
# 2 -0.000450 0.028168 0.000981 0.000000 0.000000 0.000000
# 3 -0.004563 0.000981 0.008743 0.000000 0.000000 0.000000
# 4 0.000000 0.000000 0.000000 0.041228 0.000000 0.000000
# 5 0.000000 0.000000 0.000000 0.000000 0.047545 0.000000
# 6 0.000000 0.000000 0.000000 0.000000 0.000000 1.834099
#
#
# Mechanical properties :
#
#
# Convention : Reuss Voigt Hill
#
# Bulk Modulus (GPa) = 27.21790 62.41083 44.81437
# Shear Modulus (GPa) = 2.51511 28.58497 15.55004
#
# Velocity S-wave (km/s) = 1.12661 3.79808 2.80131
# Velocity P-wave (km/s) = 3.92783 7.12246 5.75141
#
# Compressibility (1/GPa) = 0.03674052
#
# Stress axis : x y z
#
# Youngs Moduli (GPa) = 126.71266 35.50080 114.37453
#
# Poissons Ratio (x) = 0.01597 0.52189
# Poissons Ratio (y) = 0.05702 -0.11225
# Poissons Ratio (z) = 0.57818 -0.03484
#
# Static dielectric constant tensor:
#      x y z
#    x 1.689820 0.000000 0.000000 
#    y 0.000000 1.763080 0.000000 
#    z 0.000000 0.000000 1.666080 
# 
# From -- ./inp_files/24723.got.cif
#   From: 2010.05.17/outbox.cif.g08.bks.cpg/sg51_13_cif.got.tgz:24723.got - 2010.06.03 11:52:47.
