data_PCOD9402528
_publ_section_title
;
Structure prediction by ZEFSAII (Michael W. Deem and Ramdas Pophale) SiO2 
 PCOD9402528
Probable space group: P M M A
;
_chemical_formula_sum "Si O2"
_cell_formula_units_Z 64
_cell_length_a 21.393216
_cell_length_b 8.645786
_cell_length_c 17.971552
_cell_angle_alpha 90.000000
_cell_angle_beta 90.000000
_cell_angle_gamma 90.000000
_cell_volume 3324.039238
_symmetry_space_group_name_H-M "P M M A"
_symmetry_group_IT_number 51
_symmetry_cell_setting 'orthorhombic'
loop_
_space_group_symop_operation_xyz
x,y,z
1/2-x,-y,z
1/2+x,-y,-z
-x,y,-z
-x,-y,-z
1/2+x,y,-z
1/2-x,y,z
x,-y,z
loop_
_atom_site_type_symbol
_atom_site_label
_atom_site_fract_x
_atom_site_fract_y
_atom_site_fract_z
Si Si1 0.882015 0.819247 0.875775
Si Si2 0.464208 0.187815 0.703950
Si Si3 0.611403 0.184344 0.711107
Si Si4 0.493103 0.668633 0.912295
Si Si5 0.823521 0.327307 0.019901
Si Si6 0.066485 0.813285 0.536049
Si Si7 0.613802 0.176013 0.156408
Si Si8 0.177428 0.685045 0.434437
O O1 0.856515 0.794509 0.792164
O O2 0.940837 0.706804 0.878334
O O3 0.900214 0.000000 0.878866
O O4 0.845182 0.778631 0.951000
O O5 0.537487 0.234229 0.712780
O O6 0.439286 0.229312 0.622625
O O7 0.414218 0.240929 0.766250
O O8 0.465032 0.000000 0.710758
O O9 0.649448 0.264623 0.645438
O O10 0.610156 0.000000 0.695443
O O11 0.469952 0.500000 0.886229
O O12 0.448443 0.809989 0.893318
O O13 0.500000 0.663011 0.000000
O O14 0.750000 0.337035 0.014060
O O15 0.851206 0.500000 0.010145
O O16 0.839534 0.267306 0.102633
O O17 0.127316 0.748253 0.494532
O O18 0.000000 0.764544 0.500000
O O19 0.069164 0.000000 0.530422
O O20 0.635004 0.000000 0.166469
O O21 0.250000 0.738492 0.443561
O O22 0.177713 0.500000 0.439041
#
# Coordination Sequence:
#
# PCOD9402528 Si02
#       8
#     8   8   8   8   8   8   8   8
#     4  11  22  36  59  87 115 148 194 245 291 344
#     4   9  18  35  59  93 125 147 185 246 306 351
#     4  10  20  38  61  89 123 156 195 242 295 357
#     4  11  21  32  51  82 118 150 185 229 287 349
#     4  11  25  43  58  76 111 158 204 248 298 357
#     4  10  19  37  67  94 120 157 200 249 300 358
#     4  11  21  36  60  86 116 149 191 247 297 344
#     4  11  25  42  59  87 128 166 201 243 295 359
#
# _framework density 19.253684
#
# number of rings (size 3 to 8) (size 9 to 14) (size 15 to 20)
#    0.000    1.500    3.750    1.875    0.000    4.250 
#    0.000    4.375    0.000    3.750    0.000    0.000 
#    0.000    0.000    0.000    0.000    0.000    0.000 
#
# Total GULP energy -356581.748195 kJ/mol
# GULP energy per Si atom -5571.589816 kJ/mol
# Density = 1.920986 g / cm^3
# Si number density = 19.253684 Si / 1000 Ang^3
#
#
#
# Elastic Constant Matrix: (Units=GPa)
#
#
# Indices 1 2 3 4 5 6 
#
# 1 86.0467 19.1484 39.3045 0.0000 0.0000 0.0000
# 2 19.1484 45.3976 34.2371 0.0000 0.0000 0.0000
# 3 39.3045 34.2371 125.0320 0.0000 0.0000 0.0000
# 4 0.0000 0.0000 0.0000 32.5086 0.0000 0.0000
# 5 0.0000 0.0000 0.0000 0.0000 11.9282 0.0000
# 6 0.0000 0.0000 0.0000 0.0000 0.0000 25.0993
#
#
#
# Elastic Compliance Matrix: (Units=1/GPa)
#
#
# Indices 1 2 3 4 5 6 
#
# 1 0.013939 -0.003245 -0.003493 0.000000 0.000000 0.000000
# 2 -0.003245 0.028516 -0.006788 0.000000 0.000000 0.000000
# 3 -0.003493 -0.006788 0.010955 0.000000 0.000000 0.000000
# 4 0.000000 0.000000 0.000000 0.030761 0.000000 0.000000
# 5 0.000000 0.000000 0.000000 0.000000 0.083835 0.000000
# 6 0.000000 0.000000 0.000000 0.000000 0.000000 0.039842
#
#
# Mechanical properties :
#
#
# Convention : Reuss Voigt Hill
#
# Bulk Modulus (GPa) = 37.94085 49.09515 43.51800
# Shear Modulus (GPa) = 20.51815 24.82631 22.67223
#
# Velocity S-wave (km/s) = 3.26801 3.59476 3.43527
# Velocity P-wave (km/s) = 5.82996 6.54096 6.19567
#
# Compressibility (1/GPa) = 0.02635681
#
# Stress axis : x y z
#
# Youngs Moduli (GPa) = 71.73893 35.06827 91.28313
#
# Poissons Ratio (x) = 0.11380 0.31889
# Poissons Ratio (y) = 0.23279 0.61966
# Poissons Ratio (z) = 0.25061 0.23805
#
# Static dielectric constant tensor:
#      x y z
#    x 1.674260 0.000000 0.000000 
#    y 0.000000 1.674060 0.000000 
#    z 0.000000 0.000000 1.696730 
# 
# From -- ./inp_files/30588.got.cif
#   From: 2010.05.17/outbox.cif.g08.bks.cpg/sg51_16_cif.got.tgz:30588.got - 2010.06.03 11:52:47.
