data_PCOD9402382
_publ_section_title
;
Structure prediction by ZEFSAII (Michael W. Deem and Ramdas Pophale) SiO2 
 PCOD9402382
Probable space group: P M M A
;
_chemical_formula_sum "Si O2"
_cell_formula_units_Z 48
_cell_length_a 19.743236
_cell_length_b 7.959132
_cell_length_c 16.645468
_cell_angle_alpha 90.000000
_cell_angle_beta 90.000000
_cell_angle_gamma 90.000000
_cell_volume 2615.652553
_symmetry_space_group_name_H-M "P M M A"
_symmetry_group_IT_number 51
_symmetry_cell_setting 'orthorhombic'
loop_
_space_group_symop_operation_xyz
x,y,z
1/2-x,-y,z
1/2+x,-y,-z
-x,y,-z
-x,-y,-z
1/2+x,y,-z
1/2-x,y,z
x,-y,z
loop_
_atom_site_type_symbol
_atom_site_label
_atom_site_fract_x
_atom_site_fract_y
_atom_site_fract_z
Si Si1 0.570647 0.500000 0.048431
Si Si2 0.172151 0.500000 0.098224
Si Si3 0.546559 0.812586 0.160141
Si Si4 0.072686 0.302314 0.661789
Si Si5 0.424810 0.199266 0.377641
Si Si6 0.327684 0.702858 0.523550
Si Si7 0.612430 0.806003 0.804237
O O1 0.573335 0.664651 0.104264
O O2 0.500000 0.500000 0.000000
O O3 0.627970 0.500000 0.981780
O O4 0.250000 0.500000 0.077505
O O5 0.154241 0.334209 0.149689
O O6 0.569436 0.788396 0.252454
O O7 0.464786 0.798736 0.163286
O O8 0.564491 0.000000 0.132122
O O9 0.082697 0.500000 0.677387
O O10 0.131502 0.239834 0.602682
O O11 0.999224 0.281255 0.619515
O O12 0.373347 0.249164 0.447279
O O13 0.393098 0.237071 0.290267
O O14 0.436367 0.000000 0.380608
O O15 0.250000 0.763508 0.518848
O O16 0.325798 0.500000 0.526708
O O17 0.635886 0.000000 0.812478
#
# Coordination Sequence:
#
# PCOD9402382 Si02
#       7
#     4   4   8   8   8   8   8
#     4  12  22  40  66  91 119 150 191 244 291 355
#     4  12  26  40  60  89 121 161 193 230 296 362
#     4  10  20  37  65  96 118 147 196 250 298 348
#     4  10  19  35  60  86 116 152 198 251 295 343
#     4  10  21  35  56  85 117 150 197 251 295 342
#     4  10  22  37  53  80 117 161 205 244 292 346
#     4   9  20  38  59  88 120 152 194 245 294 349
#
# _framework density 18.35106
#
# number of rings (size 3 to 8) (size 9 to 14) (size 15 to 20)
#    0.000    1.833    2.500    2.500    4.667    5.667 
#    0.000    2.500    0.000    1.000    0.000    0.000 
#    0.000    0.000    0.000    0.000    0.000    0.000 
#
# Total GULP energy -268050.801917 kJ/mol
# GULP energy per Si atom -5584.391707 kJ/mol
# Density = 1.830929 g / cm^3
# Si number density = 18.351060 Si / 1000 Ang^3
#
#
#
# Elastic Constant Matrix: (Units=GPa)
#
#
# Indices 1 2 3 4 5 6 
#
# 1 82.8378 37.8494 51.9129 0.0000 0.0000 0.0000
# 2 37.8494 83.8975 46.0007 0.0000 0.0000 0.0000
# 3 51.9129 46.0007 71.7920 0.0000 0.0000 0.0000
# 4 0.0000 0.0000 0.0000 -6.3654 0.0000 0.0000
# 5 0.0000 0.0000 0.0000 0.0000 16.6393 0.0000
# 6 0.0000 0.0000 0.0000 0.0000 0.0000 -8.3667
#
#
#
# Elastic Compliance Matrix: (Units=1/GPa)
#
#
# Indices 1 2 3 4 5 6 
#
# 1 0.022265 -0.001876 -0.014898 0.000000 0.000000 0.000000
# 2 -0.001876 0.018533 -0.010518 0.000000 0.000000 0.000000
# 3 -0.014898 -0.010518 0.031441 0.000000 0.000000 0.000000
# 4 0.000000 0.000000 0.000000 -0.157099 0.000000 0.000000
# 5 0.000000 0.000000 0.000000 0.000000 0.060099 0.000000
# 6 0.000000 0.000000 0.000000 0.000000 0.000000 -0.119521
#
#
# Mechanical properties :
#
#
# Convention : Reuss Voigt Hill
#
# Bulk Modulus (GPa) = 56.64169 56.67257 56.65713
# Shear Modulus (GPa) = -59.65688 7.23239 -26.21224
#
# Velocity S-wave (km/s) = -5.70782 1.98738 -3.78349
# Velocity P-wave (km/s) = 3.53644 6.01795 3.44306
#
# Compressibility (1/GPa) = 0.01765484
#
# Stress axis : x y z
#
# Youngs Moduli (GPa) = 44.91306 53.95823 31.80538
#
# Poissons Ratio (x) = 0.10124 0.47383
# Poissons Ratio (y) = 0.08427 0.33453
# Poissons Ratio (z) = 0.66910 0.56754
#
# Static dielectric constant tensor:
#      x y z
#    x 1.604810 0.000000 0.000000 
#    y 0.000000 1.655690 0.000000 
#    z 0.000000 0.000000 1.618310 
# 
# From -- ./inp_files/24918.got.cif
#   From: 2010.05.17/outbox.cif.g08.bks.cpg/sg51_13_cif.got.tgz:24918.got - 2010.06.03 11:52:47.
