data_PCOD9402212
_publ_section_title
;
Structure prediction by ZEFSAII (Michael W. Deem and Ramdas Pophale) SiO2 
 PCOD9402212
Probable space group: P M M A
;
_chemical_formula_sum "Si O2"
_cell_formula_units_Z 38
_cell_length_a 23.898274
_cell_length_b 7.321663
_cell_length_c 12.131389
_cell_angle_alpha 90.000000
_cell_angle_beta 90.000000
_cell_angle_gamma 90.000000
_cell_volume 2122.691107
_symmetry_space_group_name_H-M "P M M A"
_symmetry_group_IT_number 51
_symmetry_cell_setting 'orthorhombic'
loop_
_space_group_symop_operation_xyz
x,y,z
1/2-x,-y,z
1/2+x,-y,-z
-x,y,-z
-x,-y,-z
1/2+x,y,-z
1/2-x,y,z
x,-y,z
loop_
_atom_site_type_symbol
_atom_site_label
_atom_site_fract_x
_atom_site_fract_y
_atom_site_fract_z
Si Si1 0.750000 0.000000 0.750858
Si Si2 0.130041 0.720966 0.539721
Si Si3 0.059763 0.281981 0.747110
Si Si4 0.939508 0.000000 0.059088
Si Si5 0.627707 0.000000 0.839442
Si Si6 0.250000 0.279746 0.447047
Si Si7 0.567849 0.717796 0.682612
O O1 0.693852 0.000000 0.821893
O O2 0.750000 0.825863 0.668628
O O3 0.128285 0.500000 0.542202
O O4 0.104658 0.779885 0.655846
O O5 0.193599 0.772252 0.512029
O O6 0.091264 0.775833 0.436560
O O7 0.064732 0.500000 0.763955
O O8 0.064984 0.173575 0.860420
O O9 0.997903 0.246627 0.697627
O O10 0.893273 0.000000 0.964137
O O11 0.000000 0.000000 0.000000
O O12 0.601350 0.826714 0.775548
O O13 0.250000 0.500000 0.431153
O O14 0.576641 0.500000 0.693190
#
# Coordination Sequence:
#
# PCOD9402212 Si02
#       7
#     2   8   8   4   4   4   8
#     4  12  24  38  60  80 112 154 188 232 286 334
#     4   9  18  34  57  89 120 145 181 228 286 349
#     4  10  21  37  59  86 117 152 185 230 290 344
#     4  12  24  40  56  80 112 150 202 242 268 321
#     4  12  24  39  55  84 112 147 201 235 276 328
#     4  10  20  36  59  87 117 147 184 229 278 350
#     4  10  19  34  59  87 118 146 176 232 294 345
#
# _framework density 17.901803000000001
#
# number of rings (size 3 to 8) (size 9 to 14) (size 15 to 20)
#    0.000    1.684    4.211    0.632    0.000    5.474 
#    0.000    3.158    0.000    0.000    0.000    0.000 
#    0.000    0.000    0.000    0.000    0.000    0.000 
#
# Total GULP energy -212269.270913 kJ/mol
# GULP energy per Si atom -5586.033445 kJ/mol
# Density = 1.786106 g / cm^3
# Si number density = 17.901803 Si / 1000 Ang^3
#
#
#
# Elastic Constant Matrix: (Units=GPa)
#
#
# Indices 1 2 3 4 5 6 
#
# 1 152.9730 43.8885 97.2149 0.0000 0.0000 0.0000
# 2 43.8885 80.1436 48.5890 0.0000 0.0000 0.0000
# 3 97.2149 48.5890 169.5049 0.0000 0.0000 0.0000
# 4 0.0000 0.0000 0.0000 33.9031 0.0000 0.0000
# 5 0.0000 0.0000 0.0000 0.0000 28.3553 0.0000
# 6 0.0000 0.0000 0.0000 0.0000 0.0000 9.7142
#
#
#
# Elastic Compliance Matrix: (Units=1/GPa)
#
#
# Indices 1 2 3 4 5 6 
#
# 1 0.010713 -0.002592 -0.005401 0.000000 0.000000 0.000000
# 2 -0.002592 0.015729 -0.003022 0.000000 0.000000 0.000000
# 3 -0.005401 -0.003022 0.009864 0.000000 0.000000 0.000000
# 4 0.000000 0.000000 0.000000 0.029496 0.000000 0.000000
# 5 0.000000 0.000000 0.000000 0.000000 0.035267 0.000000
# 6 0.000000 0.000000 0.000000 0.000000 0.000000 0.102943
#
#
# Mechanical properties :
#
#
# Convention : Reuss Voigt Hill
#
# Bulk Modulus (GPa) = 70.05243 86.88959 78.47101
# Shear Modulus (GPa) = 21.66366 28.58979 25.12672
#
# Velocity S-wave (km/s) = 3.48248 4.00063 3.75051
# Velocity P-wave (km/s) = 7.44222 8.36553 7.91735
#
# Compressibility (1/GPa) = 0.01427502
#
# Stress axis : x y z
#
# Youngs Moduli (GPa) = 93.34147 63.57509 101.38282
#
# Poissons Ratio (x) = 0.16480 0.54760
# Poissons Ratio (y) = 0.24196 0.30640
# Poissons Ratio (z) = 0.50416 0.19214
#
# Static dielectric constant tensor:
#      x y z
#    x 1.600020 0.000000 0.000000 
#    y 0.000000 1.663760 0.000000 
#    z 0.000000 0.000000 1.570600 
# 
# From -- ./inp_files/11487.got.cif
#   From: 2010.05.17/outbox.cif.g08.bks.cpg/sg51_6_cif.got.tgz:11487.got - 2010.06.03 11:52:47.
