data_PCOD9402237
_publ_section_title
;
Structure prediction by ZEFSAII (Michael W. Deem and Ramdas Pophale) SiO2 
 PCOD9402237
Probable space group: P M M A
;
_chemical_formula_sum "Si O2"
_cell_formula_units_Z 56
_cell_length_a 15.891660
_cell_length_b 14.293828
_cell_length_c 12.161401
_cell_angle_alpha 90.000000
_cell_angle_beta 90.000000
_cell_angle_gamma 90.000000
_cell_volume 2762.494522
_symmetry_space_group_name_H-M "P M M A"
_symmetry_group_IT_number 51
_symmetry_cell_setting 'orthorhombic'
loop_
_space_group_symop_operation_xyz
x,y,z
1/2-x,-y,z
1/2+x,-y,-z
-x,y,-z
-x,-y,-z
1/2+x,y,-z
1/2-x,y,z
x,-y,z
loop_
_atom_site_type_symbol
_atom_site_label
_atom_site_fract_x
_atom_site_fract_y
_atom_site_fract_z
Si Si1 0.342477 0.353604 0.225362
Si Si2 0.503378 0.308245 0.628389
Si Si3 0.003503 0.895020 0.723313
Si Si4 0.655932 0.854976 0.862387
Si Si5 0.591860 0.392113 0.012822
Si Si6 0.845401 0.887816 0.110379
Si Si7 0.342969 0.613535 0.755491
O O1 0.250000 0.385395 0.262839
O O2 0.418689 0.360607 0.311069
O O3 0.338205 0.244160 0.197017
O O4 0.364191 0.393703 0.105109
O O5 0.500000 0.328997 0.500000
O O6 0.510263 0.195394 0.646357
O O7 0.418623 0.343474 0.686733
O O8 0.922318 0.901786 0.802694
O O9 0.084178 0.870343 0.798872
O O10 0.016186 0.000000 0.674708
O O11 0.750000 0.897432 0.855559
O O12 0.637337 0.842833 0.991644
O O13 0.576415 0.500000 0.044735
O O14 0.643725 0.355951 0.116868
O O15 0.500000 0.345756 0.000000
O O16 0.750000 0.863994 0.145082
O O17 0.847707 0.000000 0.089777
O O18 0.250000 0.643103 0.718926
O O19 0.345747 0.500000 0.748129
#
# Coordination Sequence:
#
# PCOD9402237 Si02
#       7
#     8   8   8   8   8   8   8
#     4  10  21  36  56  84 119 155 195 243 296 357
#     4  11  25  42  61  84 116 160 209 261 302 345
#     4  10  21  36  55  79 110 152 201 248 297 347
#     4   9  18  30  49  79 113 148 186 230 289 358
#     4  10  19  34  60  94 128 157 184 228 294 366
#     4   9  17  29  47  75 109 141 177 226 288 357
#     4  10  22  41  66  95 124 156 195 239 296 365
#
# _framework density 20.271533000000002
#
# number of rings (size 3 to 8) (size 9 to 14) (size 15 to 20)
#    0.000    2.143    1.429    1.286    2.000    4.571 
#    0.000    0.000    0.000    0.000    0.000    4.000 
#    0.000    0.000    0.000    0.000    0.000    0.000 
#
# Total GULP energy -312370.465294 kJ/mol
# GULP energy per Si atom -5578.044023 kJ/mol
# Density = 2.022539 g / cm^3
# Si number density = 20.271533 Si / 1000 Ang^3
#
#
#
# Elastic Constant Matrix: (Units=GPa)
#
#
# Indices 1 2 3 4 5 6 
#
# 1 149.9956 21.0734 54.7472 0.0000 0.0000 0.0000
# 2 21.0734 47.6958 8.2460 0.0000 0.0000 0.0000
# 3 54.7472 8.2460 106.0425 0.0000 0.0000 0.0000
# 4 0.0000 0.0000 0.0000 12.9727 0.0000 0.0000
# 5 0.0000 0.0000 0.0000 0.0000 -0.9685 0.0000
# 6 0.0000 0.0000 0.0000 0.0000 0.0000 24.9679
#
#
#
# Elastic Compliance Matrix: (Units=1/GPa)
#
#
# Indices 1 2 3 4 5 6 
#
# 1 0.008641 -0.003088 -0.004221 0.000000 0.000000 0.000000
# 2 -0.003088 0.022356 -0.000144 0.000000 0.000000 0.000000
# 3 -0.004221 -0.000144 0.011621 0.000000 0.000000 0.000000
# 4 0.000000 0.000000 0.000000 0.077085 0.000000 0.000000
# 5 0.000000 0.000000 0.000000 0.000000 -1.032526 0.000000
# 6 0.000000 0.000000 0.000000 0.000000 0.000000 0.040052
#
#
# Mechanical properties :
#
#
# Convention : Reuss Voigt Hill
#
# Bulk Modulus (GPa) = 36.08706 52.42968 44.25837
# Shear Modulus (GPa) = -5.89186 22.03890 8.07352
#
# Velocity S-wave (km/s) = -1.70669 3.30083 1.99783
# Velocity P-wave (km/s) = 3.73588 6.35980 5.21555
#
# Compressibility (1/GPa) = 0.02771076
#
# Stress axis : x y z
#
# Youngs Moduli (GPa) = 115.72125 44.73154 86.05330
#
# Poissons Ratio (x) = 0.13814 0.36325
# Poissons Ratio (y) = 0.35738 0.01239
# Poissons Ratio (z) = 0.48849 0.00644
#
# Static dielectric constant tensor:
#      x y z
#    x 1.743220 0.000000 0.000000 
#    y 0.000000 1.814560 0.000000 
#    z 0.000000 0.000000 1.668630 
# 
# From -- ./inp_files/16653.got.cif
#   From: 2010.05.17/outbox.cif.g08.bks.cpg/sg51_9_cif.got.tgz:16653.got - 2010.06.03 11:52:47.
