data_PCOD9402357
_publ_section_title
;
Structure prediction by ZEFSAII (Michael W. Deem and Ramdas Pophale) SiO2 
 PCOD9402357
Probable space group: P M M A
;
_chemical_formula_sum "Si O2"
_cell_formula_units_Z 48
_cell_length_a 31.612500
_cell_length_b 9.087814
_cell_length_c 9.110176
_cell_angle_alpha 90.000000
_cell_angle_beta 90.000000
_cell_angle_gamma 90.000000
_cell_volume 2617.248981
_symmetry_space_group_name_H-M "P M M A"
_symmetry_group_IT_number 51
_symmetry_cell_setting 'orthorhombic'
loop_
_space_group_symop_operation_xyz
x,y,z
1/2-x,-y,z
1/2+x,-y,-z
-x,y,-z
-x,-y,-z
1/2+x,y,-z
1/2-x,y,z
x,-y,z
loop_
_atom_site_type_symbol
_atom_site_label
_atom_site_fract_x
_atom_site_fract_y
_atom_site_fract_z
Si Si1 0.494353 0.673537 0.327518
Si Si2 0.583029 0.824777 0.832818
Si Si3 0.662664 0.676144 0.676912
Si Si4 0.836198 0.324692 0.329189
Si Si5 0.419765 0.675563 0.853047
Si Si6 0.750000 0.170516 0.678293
Si Si7 0.250000 0.831560 0.678988
O O1 0.500000 0.700952 0.500000
O O2 0.483332 0.500000 0.308996
O O3 0.457378 0.770355 0.259256
O O4 0.538514 0.699417 0.244501
O O5 0.624524 0.749827 0.763823
O O6 0.586710 0.000000 0.829268
O O7 0.577708 0.765723 0.997751
O O8 0.662788 0.500000 0.696280
O O9 0.657324 0.707279 0.502346
O O10 0.707493 0.745368 0.723970
O O11 0.830316 0.500000 0.317401
O O12 0.877734 0.283914 0.237891
O O13 0.793378 0.247105 0.275979
O O14 0.417666 0.500000 0.885610
O O15 0.750000 0.172645 0.499644
O O16 0.750000 0.000000 0.724539
O O17 0.250000 0.000000 0.726629
#
# Coordination Sequence:
#
# PCOD9402357 Si02
#       7
#     8   8   8   8   8   4   4
#     4  10  21  40  65  88 109 139 183 231 276 329
#     4  12  25  38  54  81 117 152 184 225 278 332
#     4  10  19  35  59  84 110 146 192 235 276 327
#     4   9  18  34  58  84 108 140 187 236 275 319
#     4  10  21  38  59  82 110 146 186 228 275 329
#     4   9  17  31  52  83 118 147 180 228 284 333
#     4   9  17  29  50  81 116 149 178 218 276 333
#
# _framework density 18.339866000000001
#
# number of rings (size 3 to 8) (size 9 to 14) (size 15 to 20)
#    0.000    2.000    0.000    4.000    0.000    9.000 
#    0.000    2.500    0.000    3.000    0.000    0.000 
#    0.000    0.000    0.000    0.000    0.000    0.000 
#
# Total GULP energy -268135.655669 kJ/mol
# GULP energy per Si atom -5586.159493 kJ/mol
# Density = 1.829812 g / cm^3
# Si number density = 18.339866 Si / 1000 Ang^3
#
#
#
# Elastic Constant Matrix: (Units=GPa)
#
#
# Indices 1 2 3 4 5 6 
#
# 1 156.2225 89.0115 64.4175 0.0000 0.0000 0.0000
# 2 89.0115 101.6108 69.9485 0.0000 0.0000 0.0000
# 3 64.4175 69.9485 84.4357 0.0000 0.0000 0.0000
# 4 0.0000 0.0000 0.0000 13.8629 0.0000 0.0000
# 5 0.0000 0.0000 0.0000 0.0000 -31.2572 0.0000
# 6 0.0000 0.0000 0.0000 0.0000 0.0000 18.4322
#
#
#
# Elastic Compliance Matrix: (Units=1/GPa)
#
#
# Indices 1 2 3 4 5 6 
#
# 1 0.012824 -0.010470 -0.001111 0.000000 0.000000 0.000000
# 2 -0.010470 0.031450 -0.018066 0.000000 0.000000 0.000000
# 3 -0.001111 -0.018066 0.027657 0.000000 0.000000 0.000000
# 4 0.000000 0.000000 0.000000 0.072135 0.000000 0.000000
# 5 0.000000 0.000000 0.000000 0.000000 -0.031993 0.000000
# 6 0.000000 0.000000 0.000000 0.000000 0.000000 0.054253
#
#
# Mechanical properties :
#
#
# Convention : Reuss Voigt Hill
#
# Bulk Modulus (GPa) = 79.12501 87.66933 83.39717
# Shear Modulus (GPa) = 21.75504 8.13367 14.94436
#
# Velocity S-wave (km/s) = 3.44789 2.10822 2.85767
# Velocity P-wave (km/s) = 7.68687 7.33706 7.51400
#
# Compressibility (1/GPa) = 0.01263823
#
# Stress axis : x y z
#
# Youngs Moduli (GPa) = 77.97583 31.79695 36.15729
#
# Poissons Ratio (x) = 0.33291 0.04016
# Poissons Ratio (y) = 0.81639 0.65322
# Poissons Ratio (z) = 0.08661 0.57444
#
# Static dielectric constant tensor:
#      x y z
#    x 1.606770 0.000000 0.000000 
#    y 0.000000 1.610490 0.000000 
#    z 0.000000 0.000000 1.613200 
# 
# From -- ./inp_files/12975.got.cif
#   From: 2010.05.17/outbox.cif.g08.bks.cpg/sg51_7_cif.got.tgz:12975.got - 2010.06.03 11:52:47.
