data_PCOD9402962
_publ_section_title
;
Structure prediction by ZEFSAII (Michael W. Deem and Ramdas Pophale) SiO2 
 PCOD9402962
Probable space group: P M M A
;
_chemical_formula_sum "Si O2"
_cell_formula_units_Z 40
_cell_length_a 8.814193
_cell_length_b 10.469565
_cell_length_c 24.634494
_cell_angle_alpha 90.000000
_cell_angle_beta 90.000000
_cell_angle_gamma 90.000000
_cell_volume 2273.289990
_symmetry_space_group_name_H-M "P M M A"
_symmetry_group_IT_number 51
_symmetry_cell_setting 'orthorhombic'
loop_
_space_group_symop_operation_xyz
x,y,z
1/2-x,-y,z
1/2+x,-y,-z
-x,y,-z
-x,-y,-z
1/2+x,y,-z
1/2-x,y,z
x,-y,z
loop_
_atom_site_type_symbol
_atom_site_label
_atom_site_fract_x
_atom_site_fract_y
_atom_site_fract_z
Si Si1 0.431675 0.353287 0.940263
Si Si2 0.566873 0.148152 0.857957
Si Si3 0.566552 0.500000 0.439722
Si Si4 0.066890 0.000000 0.559989
Si Si5 0.432745 0.250188 0.627113
Si Si6 0.932525 0.147349 0.733101
O O1 0.250000 0.344783 0.942964
O O2 0.472026 0.500000 0.924701
O O3 0.494660 0.249390 0.898505
O O4 0.500000 0.330536 0.000000
O O5 0.750000 0.155203 0.861584
O O6 0.524244 0.176222 0.795278
O O7 0.524428 0.000000 0.869515
O O8 0.750000 0.500000 0.443731
O O9 0.500000 0.500000 0.500000
O O10 0.519707 0.375234 0.405870
O O11 0.019381 0.874405 0.593015
O O12 0.000000 0.000000 0.500000
O O13 0.250000 0.000000 0.556545
O O14 0.250000 0.250161 0.630480
O O15 0.497995 0.237019 0.687382
O O16 0.750000 0.151921 0.730145
O O17 0.979372 0.000000 0.722035
#
# Coordination Sequence:
#
# PCOD9402962 Si02
#       6
#     8   8   4   4   8   8
#     4  10  21  37  57  82 112 148 188 227 271 321
#     4   9  19  36  57  82 112 145 183 227 272 320
#     4  10  22  38  54  74 104 138 171 214 265 316
#     4  10  20  32  50  76 100 128 171 214 257 310
#     4  10  20  35  53  75 104 137 172 213 263 315
#     4   9  18  34  56  81 107 137 176 220 264 311
#
# _framework density 17.595642999999999
#
# number of rings (size 3 to 8) (size 9 to 14) (size 15 to 20)
#    0.000    2.400    1.000    2.400    0.000    4.400 
#    1.800    2.000    0.000    0.000    0.000    0.000 
#    0.000    0.000    0.000    0.000    0.000    0.000 
#
# Total GULP energy -223190.450502 kJ/mol
# GULP energy per Si atom -5579.761263 kJ/mol
# Density = 1.755559 g / cm^3
# Si number density = 17.595643 Si / 1000 Ang^3
#
#
#
# Elastic Constant Matrix: (Units=GPa)
#
#
# Indices 1 2 3 4 5 6 
#
# 1 21.1906 42.9890 45.0371 0.0000 0.0000 0.0000
# 2 42.9890 160.6547 119.3307 0.0000 0.0000 0.0000
# 3 45.0371 119.3307 165.9064 0.0000 0.0000 0.0000
# 4 0.0000 0.0000 0.0000 36.9857 0.0000 0.0000
# 5 0.0000 0.0000 0.0000 0.0000 37.7539 0.0000
# 6 0.0000 0.0000 0.0000 0.0000 0.0000 19.1417
#
#
#
# Elastic Compliance Matrix: (Units=1/GPa)
#
#
# Indices 1 2 3 4 5 6 
#
# 1 0.133968 -0.018970 -0.022722 0.000000 0.000000 0.000000
# 2 -0.018970 0.016051 -0.006395 0.000000 0.000000 0.000000
# 3 -0.022722 -0.006395 0.016796 0.000000 0.000000 0.000000
# 4 0.000000 0.000000 0.000000 0.027037 0.000000 0.000000
# 5 0.000000 0.000000 0.000000 0.000000 0.026487 0.000000
# 6 0.000000 0.000000 0.000000 0.000000 0.000000 0.052242
#
#
# Mechanical properties :
#
#
# Convention : Reuss Voigt Hill
#
# Bulk Modulus (GPa) = 14.15651 84.71836 49.43744
# Shear Modulus (GPa) = 12.74523 28.13593 20.44058
#
# Velocity S-wave (km/s) = 2.69428 4.00312 3.41205
# Velocity P-wave (km/s) = 4.21210 8.34377 6.60910
#
# Compressibility (1/GPa) = 0.07063888
#
# Stress axis : x y z
#
# Youngs Moduli (GPa) = 7.46445 62.30171 59.53963
#
# Poissons Ratio (x) = 1.18189 1.35288
# Poissons Ratio (y) = 0.14160 0.38077
# Poissons Ratio (z) = 0.16961 0.39843
#
# Static dielectric constant tensor:
#      x y z
#    x 1.592000 0.000000 0.000000 
#    y 0.000000 1.595650 0.000000 
#    z 0.000000 0.000000 1.570800 
# 
# From -- ./inp_files/36087.got.cif
#   From: 2010.05.17/outbox.cif.g08.bks.cpg/sg51_19_cif.got.tgz:36087.got - 2010.06.03 11:52:47.
