data_PCOD9402825
_publ_section_title
;
Structure prediction by ZEFSAII (Michael W. Deem and Ramdas Pophale) SiO2 
 PCOD9402825
Probable space group: P M M A
;
_chemical_formula_sum "Si O2"
_cell_formula_units_Z 52
_cell_length_a 7.271583
_cell_length_b 8.956820
_cell_length_c 36.124843
_cell_angle_alpha 90.000000
_cell_angle_beta 90.000000
_cell_angle_gamma 90.000000
_cell_volume 2352.820419
_symmetry_space_group_name_H-M "P M M A"
_symmetry_group_IT_number 51
_symmetry_cell_setting 'orthorhombic'
loop_
_space_group_symop_operation_xyz
x,y,z
1/2-x,-y,z
1/2+x,-y,-z
-x,y,-z
-x,-y,-z
1/2+x,y,-z
1/2-x,y,z
x,-y,z
loop_
_atom_site_type_symbol
_atom_site_label
_atom_site_fract_x
_atom_site_fract_y
_atom_site_fract_z
Si Si1 0.474093 0.329569 0.689742
Si Si2 0.972699 0.668835 0.162574
Si Si3 0.526476 0.325013 0.077266
Si Si4 0.030960 0.669169 0.540409
Si Si5 0.967475 0.000000 0.043726
Si Si6 0.525839 0.169615 0.235661
Si Si7 0.025542 0.829291 0.614584
O O1 0.250000 0.323211 0.690065
O O2 0.528805 0.500000 0.686774
O O3 0.534568 0.263393 0.728926
O O4 0.534203 0.244296 0.652966
O O5 0.750000 0.677632 0.161517
O O6 0.022058 0.500000 0.172713
O O7 0.029514 0.694311 0.120280
O O8 0.036340 0.773808 0.195553
O O9 0.750000 0.328094 0.074712
O O10 0.471444 0.500000 0.066306
O O11 0.467415 0.166787 0.057928
O O12 0.250000 0.660628 0.544490
O O13 0.958124 0.500000 0.539127
O O14 0.962287 0.750246 0.577010
O O15 0.000000 0.740151 0.500000
O O16 0.750000 0.000000 0.052429
O O17 0.000000 0.000000 0.000000
O O18 0.750000 0.176840 0.234982
O O19 0.472532 0.000000 0.241388
O O20 0.250000 0.823517 0.614621
O O21 0.970699 0.000000 0.613921
#
# Coordination Sequence:
#
# PCOD9402825 Si02
#       7
#     8   8   8   8   4   8   8
#     4   9  15  22  31  43  64  96 132 166 198 237
#     4   8  13  21  32  47  69  99 135 172 208 248
#     4   8  15  27  42  60  83 112 147 185 223 267
#     4   9  17  29  44  61  80 103 132 165 201 242
#     4  10  20  32  48  68  90 118 152 188 228 272
#     4   9  15  19  26  43  67  96 131 169 204 239
#     4   9  16  25  37  52  71  96 128 164 200 240
#
# _framework density 22.101133999999998
#
# number of rings (size 3 to 8) (size 9 to 14) (size 15 to 20)
#    0.000    3.231    0.000    2.308    1.077    6.154 
#    0.000    0.000    0.000    0.000    0.000    0.000 
#    0.000    0.000    0.000    1.385    0.615   13.231 
#
# Total GULP energy -289912.671235 kJ/mol
# GULP energy per Si atom -5575.243678 kJ/mol
# Density = 2.205083 g / cm^3
# Si number density = 22.101134 Si / 1000 Ang^3
#
#
#
# Elastic Constant Matrix: (Units=GPa)
#
#
# Indices 1 2 3 4 5 6 
#
# 1 95.9095 4.0833 -1.2380 0.0000 0.0000 0.0000
# 2 4.0833 170.6528 106.6481 0.0000 0.0000 0.0000
# 3 -1.2380 106.6481 150.0843 0.0000 0.0000 0.0000
# 4 0.0000 0.0000 0.0000 55.5607 0.0000 0.0000
# 5 0.0000 0.0000 0.0000 0.0000 -5.3554 0.0000
# 6 0.0000 0.0000 0.0000 0.0000 0.0000 -45.0880
#
#
#
# Elastic Compliance Matrix: (Units=1/GPa)
#
#
# Indices 1 2 3 4 5 6 
#
# 1 0.010456 -0.000547 0.000475 0.000000 0.000000 0.000000
# 2 -0.000547 0.010569 -0.007515 0.000000 0.000000 0.000000
# 3 0.000475 -0.007515 0.012007 0.000000 0.000000 0.000000
# 4 0.000000 0.000000 0.000000 0.017998 0.000000 0.000000
# 5 0.000000 0.000000 0.000000 0.000000 -0.186729 0.000000
# 6 0.000000 0.000000 0.000000 0.000000 0.000000 -0.022179
#
#
# Mechanical properties :
#
#
# Convention : Reuss Voigt Hill
#
# Bulk Modulus (GPa) = 55.99701 70.62594 63.31147
# Shear Modulus (GPa) = -36.56292 21.50035 -7.53129
#
# Velocity S-wave (km/s) = -4.07178 3.12238 -1.84798
# Velocity P-wave (km/s) = 1.81270 6.71001 4.91478
#
# Compressibility (1/GPa) = 0.01785810
#
# Stress axis : x y z
#
# Youngs Moduli (GPa) = 95.63970 94.61309 83.28549
#
# Poissons Ratio (x) = 0.05175 -0.03955
# Poissons Ratio (y) = 0.05231 0.62589
# Poissons Ratio (z) = -0.04542 0.71102
#
# Static dielectric constant tensor:
#      x y z
#    x 1.638780 0.000000 0.000000 
#    y 0.000000 1.782050 0.000000 
#    z 0.000000 0.000000 1.765740 
# 
# From -- ./inp_files/37698.got.cif
#   From: 2010.05.17/outbox.cif.g08.bks.cpg/sg51_19_cif.got.tgz:37698.got - 2010.06.03 11:52:47.
