data_PCOD9402907
_publ_section_title
;
Structure prediction by ZEFSAII (Michael W. Deem and Ramdas Pophale) SiO2 
 PCOD9402907
Probable space group: P M M A
;
_chemical_formula_sum "Si O2"
_cell_formula_units_Z 44
_cell_length_a 9.290915
_cell_length_b 17.994021
_cell_length_c 14.616031
_cell_angle_alpha 90.000000
_cell_angle_beta 90.000000
_cell_angle_gamma 90.000000
_cell_volume 2443.521504
_symmetry_space_group_name_H-M "P M M A"
_symmetry_group_IT_number 51
_symmetry_cell_setting 'orthorhombic'
loop_
_space_group_symop_operation_xyz
x,y,z
1/2-x,-y,z
1/2+x,-y,-z
-x,y,-z
-x,-y,-z
1/2+x,y,-z
1/2-x,y,z
x,-y,z
loop_
_atom_site_type_symbol
_atom_site_label
_atom_site_fract_x
_atom_site_fract_y
_atom_site_fract_z
Si Si1 0.921737 0.360286 0.226532
Si Si2 0.577735 0.224070 0.094131
Si Si3 0.421850 0.500000 0.902927
Si Si4 0.425689 0.084882 0.791490
Si Si5 0.085251 0.090609 0.588906
Si Si6 0.920178 0.589182 0.594174
O O1 0.750000 0.364215 0.245745
O O2 0.951874 0.284555 0.172474
O O3 0.957520 0.427813 0.157604
O O4 0.008916 0.370357 0.319562
O O5 0.750000 0.223493 0.079710
O O6 0.531152 0.143691 0.132293
O O7 0.500000 0.242800 0.000000
O O8 0.250000 0.500000 0.918354
O O9 0.500000 0.500000 0.000000
O O10 0.250000 0.084488 0.787815
O O11 0.473339 0.109631 0.689584
O O12 0.471817 0.000000 0.808358
O O13 0.250000 0.115842 0.582561
O O14 0.000000 0.116409 0.500000
O O15 0.086229 0.000000 0.587610
O O16 0.750000 0.603492 0.587739
O O17 0.940144 0.500000 0.607441
O O18 0.000000 0.609269 0.500000
#
# Coordination Sequence:
#
# PCOD9402907 Si02
#       6
#     8   8   4   8   8   8
#     4  10  20  35  53  75 106 141 176 216 261 312
#     4  10  21  36  54  75 101 136 175 220 273 321
#     4  10  20  32  49  72  99 132 171 216 260 304
#     4   8  15  30  51  73  99 134 174 213 260 320
#     4   8  13  23  42  67  93 121 153 191 238 293
#     4  10  20  34  56  84 111 142 178 216 257 306
#
# _framework density 18.006798
#
# number of rings (size 3 to 8) (size 9 to 14) (size 15 to 20)
#    0.000    2.727    0.909    2.182    0.000    2.545 
#    0.000    1.818    0.000    3.273    0.000    0.000 
#    0.000    0.000    0.000    0.000    0.000    0.000 
#
# Total GULP energy -245337.880601 kJ/mol
# GULP energy per Si atom -5575.860923 kJ/mol
# Density = 1.796581 g / cm^3
# Si number density = 18.006798 Si / 1000 Ang^3
#
#
#
# Elastic Constant Matrix: (Units=GPa)
#
#
# Indices 1 2 3 4 5 6 
#
# 1 50.3186 33.2428 71.9853 0.0000 0.0000 0.0000
# 2 33.2428 67.8750 49.6215 0.0000 0.0000 0.0000
# 3 71.9853 49.6215 155.0116 0.0000 0.0000 0.0000
# 4 0.0000 0.0000 0.0000 22.4584 0.0000 0.0000
# 5 0.0000 0.0000 0.0000 0.0000 36.0020 0.0000
# 6 0.0000 0.0000 0.0000 0.0000 0.0000 7.8135
#
#
#
# Elastic Compliance Matrix: (Units=1/GPa)
#
#
# Indices 1 2 3 4 5 6 
#
# 1 0.067165 -0.013176 -0.026973 0.000000 0.000000 0.000000
# 2 -0.013176 0.021819 -0.000866 0.000000 0.000000 0.000000
# 3 -0.026973 -0.000866 0.019254 0.000000 0.000000 0.000000
# 4 0.000000 0.000000 0.000000 0.044527 0.000000 0.000000
# 5 0.000000 0.000000 0.000000 0.000000 0.027776 0.000000
# 6 0.000000 0.000000 0.000000 0.000000 0.000000 0.127984
#
#
# Mechanical properties :
#
#
# Convention : Reuss Voigt Hill
#
# Bulk Modulus (GPa) = 38.15483 64.76715 51.46099
# Shear Modulus (GPa) = 12.52222 21.14515 16.83368
#
# Velocity S-wave (km/s) = 2.63994 3.43050 3.06085
# Velocity P-wave (km/s) = 5.52517 7.19287 6.41346
#
# Compressibility (1/GPa) = 0.02620900
#
# Stress axis : x y z
#
# Youngs Moduli (GPa) = 14.88873 45.83137 51.93721
#
# Poissons Ratio (x) = 0.60388 1.40088
# Poissons Ratio (y) = 0.19617 0.04497
# Poissons Ratio (z) = 0.40159 0.03968
#
# Static dielectric constant tensor:
#      x y z
#    x 1.600840 0.000000 0.000000 
#    y 0.000000 1.630750 0.000000 
#    z 0.000000 0.000000 1.599440 
# 
# From -- ./inp_files/20962.got.cif
#   From: 2010.05.17/outbox.cif.g08.bks.cpg/sg51_11_cif.got.tgz:20962.got - 2010.06.03 11:52:47.
