data_PCOD9402737
_publ_section_title
;
Structure prediction by ZEFSAII (Michael W. Deem and Ramdas Pophale) SiO2 
 PCOD9402737
Probable space group: P M M A
;
_chemical_formula_sum "Si O2"
_cell_formula_units_Z 48
_cell_length_a 8.625973
_cell_length_b 14.814655
_cell_length_c 21.074455
_cell_angle_alpha 90.000000
_cell_angle_beta 90.000000
_cell_angle_gamma 90.000000
_cell_volume 2693.121760
_symmetry_space_group_name_H-M "P M M A"
_symmetry_group_IT_number 51
_symmetry_cell_setting 'orthorhombic'
loop_
_space_group_symop_operation_xyz
x,y,z
1/2-x,-y,z
1/2+x,-y,-z
-x,y,-z
-x,-y,-z
1/2+x,y,-z
1/2-x,y,z
x,-y,z
loop_
_atom_site_type_symbol
_atom_site_label
_atom_site_fract_x
_atom_site_fract_y
_atom_site_fract_z
Si Si1 0.565413 0.500000 0.431862
Si Si2 0.433947 0.400471 0.200175
Si Si3 0.067167 0.854507 0.673198
Si Si4 0.065149 0.195704 0.191001
Si Si5 0.433810 0.356166 0.666565
Si Si6 0.070974 0.891331 0.933056
Si Si7 0.435569 0.000000 0.426259
O O1 0.750000 0.500000 0.433871
O O2 0.500000 0.500000 0.500000
O O3 0.517210 0.411836 0.393952
O O4 0.250000 0.401084 0.187660
O O5 0.494258 0.500000 0.178057
O O6 0.493002 0.300010 0.180569
O O7 0.469212 0.393411 0.274758
O O8 0.250000 0.876521 0.675105
O O9 0.046120 0.749522 0.656087
O O10 0.003699 0.853491 0.746094
O O11 0.989677 0.916170 0.618927
O O12 0.250000 0.199673 0.200203
O O13 0.021681 0.143164 0.127602
O O14 0.250000 0.371868 0.680055
O O15 0.250000 0.863026 0.928071
O O16 0.066302 0.000000 0.933158
O O17 0.000000 0.860075 0.000000
O O18 0.500000 0.000000 0.500000
O O19 0.250000 0.000000 0.431197
#
# Coordination Sequence:
#
# PCOD9402737 Si02
#       7
#     4   8   8   8   8   8   4
#     4  10  20  32  46  70 100 132 169 208 261 322
#     4   9  17  30  51  78 107 139 177 220 267 315
#     4  10  21  38  59  83 109 141 183 232 278 327
#     4  10  20  34  55  85 117 149 186 229 275 325
#     4   9  18  33  52  73 101 133 170 217 268 319
#     4  10  21  37  57  82 114 151 188 227 276 331
#     4  12  26  44  62  80 105 142 183 230 284 340
#
# _framework density 17.823181999999999
#
# number of rings (size 3 to 8) (size 9 to 14) (size 15 to 20)
#    0.000    2.167    0.833    2.250    1.167    3.667 
#    0.000    1.667    0.000    0.500    0.000    0.000 
#    0.000    0.000    0.000    0.000    0.000    0.000 
#
# Total GULP energy -267249.930940 kJ/mol
# GULP energy per Si atom -5567.706895 kJ/mol
# Density = 1.778262 g / cm^3
# Si number density = 17.823182 Si / 1000 Ang^3
#
#
#
# Elastic Constant Matrix: (Units=GPa)
#
#
# Indices 1 2 3 4 5 6 
#
# 1 53.0636 28.3108 34.2083 0.0000 0.0000 0.0000
# 2 28.3108 55.8377 37.2179 0.0000 0.0000 0.0000
# 3 34.2083 37.2179 118.4376 0.0000 0.0000 0.0000
# 4 0.0000 0.0000 0.0000 20.8528 0.0000 0.0000
# 5 0.0000 0.0000 0.0000 0.0000 29.6661 0.0000
# 6 0.0000 0.0000 0.0000 0.0000 0.0000 12.8931
#
#
#
# Elastic Compliance Matrix: (Units=1/GPa)
#
#
# Indices 1 2 3 4 5 6 
#
# 1 0.027627 -0.010991 -0.004526 0.000000 0.000000 0.000000
# 2 -0.010991 0.027026 -0.005318 0.000000 0.000000 0.000000
# 3 -0.004526 -0.005318 0.011422 0.000000 0.000000 0.000000
# 4 0.000000 0.000000 0.000000 0.047955 0.000000 0.000000
# 5 0.000000 0.000000 0.000000 0.000000 0.033709 0.000000
# 6 0.000000 0.000000 0.000000 0.000000 0.000000 0.077561
#
#
# Mechanical properties :
#
#
# Convention : Reuss Voigt Hill
#
# Bulk Modulus (GPa) = 40.97480 47.42367 44.19924
# Shear Modulus (GPa) = 18.17494 21.18919 19.68207
#
# Velocity S-wave (km/s) = 3.19680 3.45172 3.32670
# Velocity P-wave (km/s) = 6.05521 6.52315 6.29353
#
# Compressibility (1/GPa) = 0.02440524
#
# Stress axis : x y z
#
# Youngs Moduli (GPa) = 36.19684 37.00081 87.55298
#
# Poissons Ratio (x) = 0.40667 0.39624
# Poissons Ratio (y) = 0.39783 0.46564
# Poissons Ratio (z) = 0.16382 0.19678
#
# Static dielectric constant tensor:
#      x y z
#    x 1.617230 0.000000 0.000000 
#    y 0.000000 1.651280 0.000000 
#    z 0.000000 0.000000 1.562140 
# 
# From -- ./inp_files/27629.got.cif
#   From: 2010.05.17/outbox.cif.g08.bks.cpg/sg51_14_cif.got.tgz:27629.got - 2010.06.03 11:52:47.
