data_PCOD9402065
_publ_section_title
;
Structure prediction by ZEFSAII (Michael W. Deem and Ramdas Pophale) SiO2 
 PCOD9402065
Probable space group: P M M A
;
_chemical_formula_sum "Si O2"
_cell_formula_units_Z 64
_cell_length_a 19.167282
_cell_length_b 18.044496
_cell_length_c 10.142410
_cell_angle_alpha 90.000000
_cell_angle_beta 90.000000
_cell_angle_gamma 90.000000
_cell_volume 3507.893918
_symmetry_space_group_name_H-M "P M M A"
_symmetry_group_IT_number 51
_symmetry_cell_setting 'orthorhombic'
loop_
_space_group_symop_operation_xyz
x,y,z
1/2-x,-y,z
1/2+x,-y,-z
-x,y,-z
-x,-y,-z
1/2+x,y,-z
1/2-x,y,z
x,-y,z
loop_
_atom_site_type_symbol
_atom_site_label
_atom_site_fract_x
_atom_site_fract_y
_atom_site_fract_z
Si Si1 0.668957 0.088771 0.691355
Si Si2 0.958741 0.177889 0.635206
Si Si3 0.172088 0.090076 0.001878
Si Si4 0.916118 0.666388 0.753274
Si Si5 0.937214 0.411605 0.207172
Si Si6 0.168128 0.586645 0.034128
Si Si7 0.038497 0.911529 0.859252
Si Si8 0.584574 0.583816 0.491143
O O1 0.750000 0.106661 0.663635
O O2 0.611420 0.130982 0.607068
O O3 0.661093 0.000000 0.679312
O O4 0.654963 0.108428 0.845850
O O5 0.935264 0.250322 0.715826
O O6 0.000000 0.195425 0.500000
O O7 0.005340 0.129876 0.736123
O O8 0.250000 0.116042 0.974222
O O9 0.116436 0.114429 0.894578
O O10 0.171658 0.000000 0.999489
O O11 0.951467 0.500000 0.220160
O O12 0.892549 0.630410 0.615102
O O13 0.988129 0.628085 0.804521
O O14 0.857217 0.645462 0.857772
O O15 0.889124 0.500000 0.502209
O O16 0.883341 0.401905 0.089325
O O17 0.902215 0.386690 0.344876
O O18 0.250000 0.594669 0.002542
O O19 0.157766 0.500000 0.078287
O O20 0.036308 0.000000 0.834334
O O21 0.000000 0.899870 0.000000
O O22 0.500000 0.581964 0.500000
#
# Coordination Sequence:
#
# PCOD9402065 Si02
#       8
#     8   8   8   8   8   8   8   8
#     4   9  18  36  61  84 107 143 190 233 282 347
#     4  12  25  37  54  83 120 155 191 238 292 337
#     4   8  14  29  56  84 106 133 174 227 284 339
#     4  11  21  35  55  78 112 154 194 227 270 338
#     4   9  17  33  58  84 110 141 180 232 288 336
#     4  10  21  37  58  86 116 144 183 239 294 338
#     4  10  19  34  56  82 112 143 186 241 293 339
#     4   8  14  28  53  80 103 135 184 229 264 314
#
# _framework density 18.244567
#
# number of rings (size 3 to 8) (size 9 to 14) (size 15 to 20)
#    0.000    2.375    1.250    4.500    0.000    3.500 
#    0.000    1.250    0.000    6.000    0.000    0.000 
#    0.000    0.000    0.000    0.000    0.000    0.000 
#
# Total GULP energy -356723.665680 kJ/mol
# GULP energy per Si atom -5573.807276 kJ/mol
# Density = 1.820304 g / cm^3
# Si number density = 18.244567 Si / 1000 Ang^3
#
#
#
# Elastic Constant Matrix: (Units=GPa)
#
#
# Indices 1 2 3 4 5 6 
#
# 1 77.6287 29.2900 21.9750 0.0000 0.0000 0.0000
# 2 29.2900 43.8899 26.1097 0.0000 0.0000 0.0000
# 3 21.9750 26.1097 59.4944 0.0000 0.0000 0.0000
# 4 0.0000 0.0000 0.0000 35.9055 0.0000 0.0000
# 5 0.0000 0.0000 0.0000 0.0000 14.9273 0.0000
# 6 0.0000 0.0000 0.0000 0.0000 0.0000 -12.0280
#
#
#
# Elastic Compliance Matrix: (Units=1/GPa)
#
#
# Indices 1 2 3 4 5 6 
#
# 1 0.017358 -0.010515 -0.001797 0.000000 0.000000 0.000000
# 2 -0.010515 0.037204 -0.012443 0.000000 0.000000 0.000000
# 3 -0.001797 -0.012443 0.022933 0.000000 0.000000 0.000000
# 4 0.000000 0.000000 0.000000 0.027851 0.000000 0.000000
# 5 0.000000 0.000000 0.000000 0.000000 0.066991 0.000000
# 6 0.000000 0.000000 0.000000 0.000000 0.000000 -0.083139
#
#
# Mechanical properties :
#
#
# Convention : Reuss Voigt Hill
#
# Bulk Modulus (GPa) = 35.73424 37.30693 36.52058
# Shear Modulus (GPa) = 33.77552 14.67018 24.22285
#
# Velocity S-wave (km/s) = 4.30730 2.83872 3.64768
# Velocity P-wave (km/s) = 6.66077 5.58901 6.14829
#
# Compressibility (1/GPa) = 0.02798436
#
# Stress axis : x y z
#
# Youngs Moduli (GPa) = 57.61094 26.87887 43.60548
#
# Poissons Ratio (x) = 0.28263 0.07835
# Poissons Ratio (y) = 0.60577 0.54260
# Poissons Ratio (z) = 0.10351 0.33447
#
# Static dielectric constant tensor:
#      x y z
#    x 1.644430 0.000000 0.000000 
#    y 0.000000 1.642760 0.000000 
#    z 0.000000 0.000000 1.643170 
# 
# From -- ./inp_files/11228.got.cif
#   From: 2010.05.17/outbox.cif.g08.bks.cpg/sg51_6_cif.got.tgz:11228.got - 2010.06.03 11:52:47.
