data_PCOD9402322
_publ_section_title
;
Structure prediction by ZEFSAII (Michael W. Deem and Ramdas Pophale) SiO2 
 PCOD9402322
Probable space group: P M M A
;
_chemical_formula_sum "Si O2"
_cell_formula_units_Z 48
_cell_length_a 18.759649
_cell_length_b 7.528969
_cell_length_c 15.238092
_cell_angle_alpha 90.000000
_cell_angle_beta 90.000000
_cell_angle_gamma 90.000000
_cell_volume 2152.240545
_symmetry_space_group_name_H-M "P M M A"
_symmetry_group_IT_number 51
_symmetry_cell_setting 'orthorhombic'
loop_
_space_group_symop_operation_xyz
x,y,z
1/2-x,-y,z
1/2+x,-y,-z
-x,y,-z
-x,-y,-z
1/2+x,y,-z
1/2-x,y,z
x,-y,z
loop_
_atom_site_type_symbol
_atom_site_label
_atom_site_fract_x
_atom_site_fract_y
_atom_site_fract_z
Si Si1 0.096899 0.296582 0.683562
Si Si2 0.099268 0.285909 0.062572
Si Si3 0.173388 0.791626 0.232242
Si Si4 0.558066 0.717101 0.125229
Si Si5 0.442142 0.208059 0.363845
Si Si6 0.170218 0.715629 0.514078
O O1 0.119760 0.500000 0.697786
O O2 0.085436 0.218249 0.780670
O O3 0.150780 0.219822 0.611996
O O4 0.019121 0.296363 0.637426
O O5 0.099256 0.500000 0.062914
O O6 0.159268 0.224325 0.129165
O O7 0.023116 0.227602 0.103468
O O8 0.102307 0.229782 0.961202
O O9 0.250000 0.713693 0.256212
O O10 0.106680 0.715909 0.285206
O O11 0.174882 0.000000 0.255193
O O12 0.556856 0.500000 0.128280
O O13 0.392196 0.226007 0.448581
O O14 0.457042 0.000000 0.349477
O O15 0.250000 0.772364 0.487522
O O16 0.169163 0.500000 0.514231
#
# Coordination Sequence:
#
# PCOD9402322 Si02
#       6
#     8   8   8   8   8   8
#     4  10  19  35  58  81 107 139 174 219 266 312
#     4   9  16  30  52  77 103 134 172 210 253 308
#     4  10  21  35  49  71 107 144 175 215 267 315
#     4   8  15  29  52  79 106 131 163 212 261 301
#     4  11  22  36  55  79 106 139 179 222 268 317
#     4  10  22  38  55  77 105 139 178 217 264 321
#
# _framework density 22.302341999999999
#
# number of rings (size 3 to 8) (size 9 to 14) (size 15 to 20)
#    0.000    2.333    1.667    2.500    0.000    4.667 
#    0.000    3.333    0.000    3.000    0.000    0.000 
#    0.000    0.000    0.000    0.000    0.000    0.000 
#
# Total GULP energy -267958.689133 kJ/mol
# GULP energy per Si atom -5582.472690 kJ/mol
# Density = 2.225158 g / cm^3
# Si number density = 22.302342 Si / 1000 Ang^3
#
#
#
# Elastic Constant Matrix: (Units=GPa)
#
#
# Indices 1 2 3 4 5 6 
#
# 1 33.6331 -8.0005 5.1912 0.0000 0.0000 0.0000
# 2 -8.0005 61.6724 -9.5306 0.0000 0.0000 0.0000
# 3 5.1912 -9.5306 129.4291 0.0000 0.0000 0.0000
# 4 0.0000 0.0000 0.0000 14.0546 0.0000 0.0000
# 5 0.0000 0.0000 0.0000 0.0000 -12.2493 0.0000
# 6 0.0000 0.0000 0.0000 0.0000 0.0000 4.1930
#
#
#
# Elastic Compliance Matrix: (Units=1/GPa)
#
#
# Indices 1 2 3 4 5 6 
#
# 1 0.030795 0.003848 -0.000952 0.000000 0.000000 0.000000
# 2 0.003848 0.016882 0.001089 0.000000 0.000000 0.000000
# 3 -0.000952 0.001089 0.007845 0.000000 0.000000 0.000000
# 4 0.000000 0.000000 0.000000 0.071151 0.000000 0.000000
# 5 0.000000 0.000000 0.000000 0.000000 -0.081637 0.000000
# 6 0.000000 0.000000 0.000000 0.000000 0.000000 0.238490
#
#
# Mechanical properties :
#
#
# Convention : Reuss Voigt Hill
#
# Bulk Modulus (GPa) = 15.75025 22.22831 18.98928
# Shear Modulus (GPa) = 16.85091 17.00464 16.92778
#
# Velocity S-wave (km/s) = 2.75174 2.76426 2.75801
# Velocity P-wave (km/s) = 4.14410 4.49184 4.32147
#
# Compressibility (1/GPa) = 0.06349106
#
# Stress axis : x y z
#
# Youngs Moduli (GPa) = 32.47304 59.23428 127.47644
#
# Poissons Ratio (x) = -0.22792 0.12133
# Poissons Ratio (y) = -0.12495 -0.13880
# Poissons Ratio (z) = 0.03091 -0.06449
#
# Static dielectric constant tensor:
#      x y z
#    x 1.795460 0.000000 0.000000 
#    y 0.000000 1.841490 0.000000 
#    z 0.000000 0.000000 1.858650 
# 
# From -- ./inp_files/24739.got.cif
#   From: 2010.05.17/outbox.cif.g08.bks.cpg/sg51_13_cif.got.tgz:24739.got - 2010.06.03 11:52:47.
