data_PCOD9402507
_publ_section_title
;
Structure prediction by ZEFSAII (Michael W. Deem and Ramdas Pophale) SiO2 
 PCOD9402507
Probable space group: P M M A
;
_chemical_formula_sum "Si O2"
_cell_formula_units_Z 48
_cell_length_a 8.590715
_cell_length_b 10.509143
_cell_length_c 29.107158
_cell_angle_alpha 90.000000
_cell_angle_beta 90.000000
_cell_angle_gamma 90.000000
_cell_volume 2627.824857
_symmetry_space_group_name_H-M "P M M A"
_symmetry_group_IT_number 51
_symmetry_cell_setting 'orthorhombic'
loop_
_space_group_symop_operation_xyz
x,y,z
1/2-x,-y,z
1/2+x,-y,-z
-x,y,-z
-x,-y,-z
1/2+x,y,-z
1/2-x,y,z
x,-y,z
loop_
_atom_site_type_symbol
_atom_site_label
_atom_site_fract_x
_atom_site_fract_y
_atom_site_fract_z
Si Si1 0.062497 0.352091 0.049601
Si Si2 0.064859 0.000000 0.801306
Si Si3 0.937288 0.752065 0.354058
Si Si4 0.061047 0.244829 0.145672
Si Si5 0.437750 0.500000 0.304726
Si Si6 0.561171 0.500000 0.801700
Si Si7 0.562613 0.352356 0.450444
Si Si8 0.564417 0.000000 0.697467
O O1 0.250000 0.351800 0.048413
O O2 0.014087 0.500000 0.057358
O O3 0.013991 0.266015 0.092637
O O4 0.000000 0.311999 0.000000
O O5 0.007509 0.123222 0.829162
O O6 0.250000 0.000000 0.798078
O O7 0.996825 0.000000 0.749756
O O8 0.750000 0.757374 0.352303
O O9 0.985637 0.733479 0.407338
O O10 0.995420 0.625608 0.328443
O O11 0.005200 0.875440 0.329342
O O12 0.250000 0.236890 0.147244
O O13 0.011489 0.372320 0.172586
O O14 0.250000 0.500000 0.307731
O O15 0.484273 0.500000 0.251300
O O16 0.750000 0.500000 0.803369
O O17 0.500000 0.311884 0.500000
O O18 0.750000 0.352736 0.451903
O O19 0.512346 0.500000 0.442704
O O20 0.750000 0.000000 0.698749
#
# Coordination Sequence:
#
# PCOD9402507 Si02
#       8
#     8   4   8   8   4   4   8   4
#     4   9  17  31  55  86 118 151 187 233 290 346
#     4  12  26  42  59  84 117 156 195 238 296 354
#     4  11  22  40  61  86 121 158 196 246 304 352
#     4  10  19  37  61  84 113 152 194 239 289 346
#     4  11  21  33  56  89 118 152 197 247 296 354
#     4   9  18  33  56  83 109 138 186 241 286 336
#     4   9  18  34  57  87 120 155 192 238 294 349
#     4  12  26  44  63  86 115 156 205 246 294 362
#
# _framework density 18.266055999999999
#
# number of rings (size 3 to 8) (size 9 to 14) (size 15 to 20)
#    0.000    1.833    1.667    3.250    0.000    3.333 
#    0.000    2.083    0.000    0.000    0.000    0.000 
#    0.000    0.000    0.000    0.000    0.000    0.000 
#
# Total GULP energy -268048.121029 kJ/mol
# GULP energy per Si atom -5584.335855 kJ/mol
# Density = 1.822448 g / cm^3
# Si number density = 18.266056 Si / 1000 Ang^3
#
#
#
# Elastic Constant Matrix: (Units=GPa)
#
#
# Indices 1 2 3 4 5 6 
#
# 1 60.1329 45.0842 57.6675 0.0000 0.0000 0.0000
# 2 45.0842 156.6043 109.3178 0.0000 0.0000 0.0000
# 3 57.6675 109.3178 217.1710 0.0000 0.0000 0.0000
# 4 0.0000 0.0000 0.0000 30.2297 0.0000 0.0000
# 5 0.0000 0.0000 0.0000 0.0000 32.4412 0.0000
# 6 0.0000 0.0000 0.0000 0.0000 0.0000 24.0168
#
#
#
# Elastic Compliance Matrix: (Units=1/GPa)
#
#
# Indices 1 2 3 4 5 6 
#
# 1 0.023651 -0.003738 -0.004398 0.000000 0.000000 0.000000
# 2 -0.003738 0.010436 -0.004260 0.000000 0.000000 0.000000
# 3 -0.004398 -0.004260 0.007917 0.000000 0.000000 0.000000
# 4 0.000000 0.000000 0.000000 0.033080 0.000000 0.000000
# 5 0.000000 0.000000 0.000000 0.000000 0.030825 0.000000
# 6 0.000000 0.000000 0.000000 0.000000 0.000000 0.041637
#
#
# Mechanical properties :
#
#
# Convention : Reuss Voigt Hill
#
# Bulk Modulus (GPa) = 58.10813 95.33858 76.72335
# Shear Modulus (GPa) = 28.07776 32.12679 30.10228
#
# Velocity S-wave (km/s) = 3.92491 4.19838 4.06395
# Velocity P-wave (km/s) = 7.24024 8.70687 8.00720
#
# Compressibility (1/GPa) = 0.01720929
#
# Stress axis : x y z
#
# Youngs Moduli (GPa) = 42.28193 95.82499 126.30809
#
# Poissons Ratio (x) = 0.35823 0.55555
# Poissons Ratio (y) = 0.15807 0.53811
# Poissons Ratio (z) = 0.18597 0.40825
#
# Static dielectric constant tensor:
#      x y z
#    x 1.621840 0.000000 0.000000 
#    y 0.000000 1.598280 0.000000 
#    z 0.000000 0.000000 1.627960 
# 
# From -- ./inp_files/37273.got.cif
#   From: 2010.05.17/outbox.cif.g08.bks.cpg/sg51_19_cif.got.tgz:37273.got - 2010.06.03 11:52:47.
