data_PCOD9402403
_publ_section_title
;
Structure prediction by ZEFSAII (Michael W. Deem and Ramdas Pophale) SiO2 
 PCOD9402403
Probable space group: P M M A
;
_chemical_formula_sum "Si O2"
_cell_formula_units_Z 64
_cell_length_a 8.764146
_cell_length_b 15.733073
_cell_length_c 24.346672
_cell_angle_alpha 90.000000
_cell_angle_beta 90.000000
_cell_angle_gamma 90.000000
_cell_volume 3357.088316
_symmetry_space_group_name_H-M "P M M A"
_symmetry_group_IT_number 51
_symmetry_cell_setting 'orthorhombic'
loop_
_space_group_symop_operation_xyz
x,y,z
1/2-x,-y,z
1/2+x,-y,-z
-x,y,-z
-x,-y,-z
1/2+x,y,-z
1/2-x,y,z
x,-y,z
loop_
_atom_site_type_symbol
_atom_site_label
_atom_site_fract_x
_atom_site_fract_y
_atom_site_fract_z
Si Si1 0.067734 0.902893 0.136671
Si Si2 0.433555 0.755751 0.939110
Si Si3 0.070007 0.853678 0.746543
Si Si4 0.069685 0.350796 0.745461
Si Si5 0.068283 0.250660 0.560797
Si Si6 0.068404 0.403433 0.368730
Si Si7 0.567607 0.096382 0.630353
Si Si8 0.935737 0.594694 0.132619
O O1 0.250000 0.891094 0.136115
O O2 0.990347 0.835303 0.096539
O O3 0.005979 0.887651 0.198076
O O4 0.033901 0.000000 0.120341
O O5 0.250000 0.756372 0.940936
O O6 0.484946 0.669771 0.907747
O O7 0.500000 0.758836 0.000000
O O8 0.250000 0.873771 0.746448
O O9 0.054519 0.751281 0.745491
O O10 0.991932 0.890266 0.692248
O O11 0.250000 0.370803 0.738755
O O12 0.018655 0.385202 0.804685
O O13 0.979228 0.388618 0.694402
O O14 0.250000 0.248516 0.558586
O O15 0.000000 0.253578 0.500000
O O16 0.014640 0.332929 0.594890
O O17 0.008239 0.167405 0.592414
O O18 0.250000 0.392602 0.374302
O O19 0.028300 0.500000 0.384622
O O20 0.750000 0.107324 0.629443
O O21 0.531532 0.000000 0.612709
O O22 0.750000 0.595864 0.132588
O O23 0.985739 0.500000 0.116715
#
# Coordination Sequence:
#
# PCOD9402403 Si02
#       8
#     8   8   8   8   8   8   8   8
#     4  11  24  41  62  89 121 160 203 250 307 365
#     4  11  23  41  62  87 118 156 204 252 305 362
#     4  11  21  36  62  96 128 163 203 248 305 365
#     4  10  19  35  61  92 124 163 204 246 303 365
#     4  12  26  45  68  92 122 163 210 260 313 367
#     4  11  24  41  63  94 130 166 205 253 309 368
#     4  11  24  42  65  94 128 166 207 254 308 366
#     4   9  18  35  60  88 120 157 197 242 294 356
#
# _framework density 19.064139000000001
#
# number of rings (size 3 to 8) (size 9 to 14) (size 15 to 20)
#    0.000    1.250    2.500    3.750    0.000    6.500 
#    0.000    0.000    0.000    1.875    0.000    0.000 
#    0.000    0.000    0.000    0.000    0.000    0.000 
#
# Total GULP energy -357930.891703 kJ/mol
# GULP energy per Si atom -5592.670183 kJ/mol
# Density = 1.902075 g / cm^3
# Si number density = 19.064139 Si / 1000 Ang^3
#
#
#
# Elastic Constant Matrix: (Units=GPa)
#
#
# Indices 1 2 3 4 5 6 
#
# 1 86.7183 76.6897 50.2233 0.0000 0.0000 0.0000
# 2 76.6897 156.7324 78.3545 0.0000 0.0000 0.0000
# 3 50.2233 78.3545 143.4503 0.0000 0.0000 0.0000
# 4 0.0000 0.0000 0.0000 -8.5521 0.0000 0.0000
# 5 0.0000 0.0000 0.0000 0.0000 25.9098 0.0000
# 6 0.0000 0.0000 0.0000 0.0000 0.0000 19.6654
#
#
#
# Elastic Compliance Matrix: (Units=1/GPa)
#
#
# Indices 1 2 3 4 5 6 
#
# 1 0.020903 -0.009037 -0.002382 0.000000 0.000000 0.000000
# 2 -0.009037 0.012684 -0.003764 0.000000 0.000000 0.000000
# 3 -0.002382 -0.003764 0.009861 0.000000 0.000000 0.000000
# 4 0.000000 0.000000 0.000000 -0.116930 0.000000 0.000000
# 5 0.000000 0.000000 0.000000 0.000000 0.038595 0.000000
# 6 0.000000 0.000000 0.000000 0.000000 0.000000 0.050851
#
#
# Mechanical properties :
#
#
# Convention : Reuss Voigt Hill
#
# Bulk Modulus (GPa) = 76.44476 88.60400 82.52438
# Shear Modulus (GPa) = 98.63551 19.51353 59.07452
#
# Velocity S-wave (km/s) = 7.20077 3.20280 5.57266
# Velocity P-wave (km/s) = 10.45565 7.76241 9.20803
#
# Compressibility (1/GPa) = 0.01308134
#
# Stress axis : x y z
#
# Youngs Moduli (GPa) = 47.83942 78.83955 101.40796
#
# Poissons Ratio (x) = 0.71248 0.24158
# Poissons Ratio (y) = 0.43233 0.38172
# Poissons Ratio (z) = 0.11397 0.29677
#
# Static dielectric constant tensor:
#      x y z
#    x 1.636430 0.000000 0.000000 
#    y 0.000000 1.671030 0.000000 
#    z 0.000000 0.000000 1.618800 
# 
# From -- ./inp_files/34888.got.cif
#   From: 2010.05.17/outbox.cif.g08.bks.cpg/sg51_18_cif.got.tgz:34888.got - 2010.06.03 11:52:47.
