data_PCOD9402226
_publ_section_title
;
Structure prediction by ZEFSAII (Michael W. Deem and Ramdas Pophale) SiO2 
 PCOD9402226
Probable space group: P M M A
;
_chemical_formula_sum "Si O2"
_cell_formula_units_Z 56
_cell_length_a 15.739290
_cell_length_b 8.770886
_cell_length_c 21.870286
_cell_angle_alpha 90.000000
_cell_angle_beta 90.000000
_cell_angle_gamma 90.000000
_cell_volume 3019.138707
_symmetry_space_group_name_H-M "P M M A"
_symmetry_group_IT_number 51
_symmetry_cell_setting 'orthorhombic'
loop_
_space_group_symop_operation_xyz
x,y,z
1/2-x,-y,z
1/2+x,-y,-z
-x,y,-z
-x,-y,-z
1/2+x,y,-z
1/2-x,y,z
x,-y,z
loop_
_atom_site_type_symbol
_atom_site_label
_atom_site_fract_x
_atom_site_fract_y
_atom_site_fract_z
Si Si1 0.847518 0.183364 0.062890
Si Si2 0.998831 0.817100 0.848262
Si Si3 0.997409 0.683002 0.287166
Si Si4 0.153615 0.183617 0.632876
Si Si5 0.848339 0.317543 0.928640
Si Si6 0.101107 0.818660 0.497115
Si Si7 0.344022 0.316434 0.369098
O O1 0.750000 0.220315 0.080753
O O2 0.917742 0.228175 0.112508
O O3 0.852511 0.000000 0.054870
O O4 0.865040 0.260705 0.997673
O O5 0.915711 0.757633 0.883451
O O6 0.002780 0.749814 0.780597
O O7 0.997025 0.000000 0.845382
O O8 0.998771 0.500000 0.284322
O O9 0.915512 0.738036 0.324654
O O10 0.080642 0.736643 0.324799
O O11 0.250000 0.218291 0.651353
O O12 0.139739 0.229302 0.562095
O O13 0.141719 0.000000 0.635601
O O14 0.750000 0.277160 0.914215
O O15 0.856139 0.500000 0.925963
O O16 0.138491 0.737353 0.438019
O O17 0.000000 0.792242 0.500000
O O18 0.115522 0.000000 0.490390
O O19 0.250000 0.264942 0.349793
O O20 0.345281 0.500000 0.368317
#
# Coordination Sequence:
#
# PCOD9402226 Si02
#       7
#     8   8   8   8   8   8   8
#     4   9  19  37  60  86 116 149 186 231 283 338
#     4  11  23  38  59  85 115 153 196 236 283 338
#     4  11  24  40  57  80 113 152 194 239 286 338
#     4  10  21  38  59  83 113 149 188 233 287 343
#     4  10  21  37  59  88 120 152 187 232 284 335
#     4  10  19  34  60  88 114 142 181 234 287 339
#     4  10  22  39  58  81 111 148 188 232 286 344
#
# _framework density 18.548335000000002
#
# number of rings (size 3 to 8) (size 9 to 14) (size 15 to 20)
#    0.000    1.857    1.429    2.143    0.000    7.429 
#    0.000    2.857    0.000    0.000    0.000    0.000 
#    0.000    0.000    0.000    0.000    0.000    0.000 
#
# Total GULP energy -312846.189655 kJ/mol
# GULP energy per Si atom -5586.539101 kJ/mol
# Density = 1.850612 g / cm^3
# Si number density = 18.548335 Si / 1000 Ang^3
#
#
#
# Elastic Constant Matrix: (Units=GPa)
#
#
# Indices 1 2 3 4 5 6 
#
# 1 145.9370 52.1547 108.6439 0.0000 0.0000 0.0000
# 2 52.1547 30.6381 43.6903 0.0000 0.0000 0.0000
# 3 108.6439 43.6903 148.9641 0.0000 0.0000 0.0000
# 4 0.0000 0.0000 0.0000 43.1238 0.0000 0.0000
# 5 0.0000 0.0000 0.0000 0.0000 -6.1063 0.0000
# 6 0.0000 0.0000 0.0000 0.0000 0.0000 27.5622
#
#
#
# Elastic Compliance Matrix: (Units=1/GPa)
#
#
# Indices 1 2 3 4 5 6 
#
# 1 0.022934 -0.026108 -0.009070 0.000000 0.000000 0.000000
# 2 -0.026108 0.085824 -0.006131 0.000000 0.000000 0.000000
# 3 -0.009070 -0.006131 0.015126 0.000000 0.000000 0.000000
# 4 0.000000 0.000000 0.000000 0.023189 0.000000 0.000000
# 5 0.000000 0.000000 0.000000 0.000000 -0.163765 0.000000
# 6 0.000000 0.000000 0.000000 0.000000 0.000000 0.036282
#
#
# Mechanical properties :
#
#
# Convention : Reuss Voigt Hill
#
# Bulk Modulus (GPa) = 24.23144 81.61300 52.92222
# Shear Modulus (GPa) = 43.11755 20.98595 32.05175
#
# Velocity S-wave (km/s) = 4.82665 3.36731 4.16145
# Velocity P-wave (km/s) = 6.64487 7.69507 7.18917
#
# Compressibility (1/GPa) = 0.04126870
#
# Stress axis : x y z
#
# Youngs Moduli (GPa) = 43.60244 11.65173 66.11213
#
# Poissons Ratio (x) = 0.30420 0.59961
# Poissons Ratio (y) = 1.13836 0.40531
# Poissons Ratio (z) = 0.39546 0.07143
#
# Static dielectric constant tensor:
#      x y z
#    x 1.648730 0.000000 0.000000 
#    y 0.000000 1.628410 0.000000 
#    z 0.000000 0.000000 1.594750 
# 
# From -- ./inp_files/33307.got.cif
#   From: 2010.05.17/outbox.cif.g08.bks.cpg/sg51_17_cif.got.tgz:33307.got - 2010.06.03 11:52:47.
