data_PCOD9402680
_publ_section_title
;
Structure prediction by ZEFSAII (Michael W. Deem and Ramdas Pophale) SiO2 
 PCOD9402680
Probable space group: P M M A
;
_chemical_formula_sum "Si O2"
_cell_formula_units_Z 64
_cell_length_a 7.995710
_cell_length_b 19.802287
_cell_length_c 24.343556
_cell_angle_alpha 90.000000
_cell_angle_beta 90.000000
_cell_angle_gamma 90.000000
_cell_volume 3854.396631
_symmetry_space_group_name_H-M "P M M A"
_symmetry_group_IT_number 51
_symmetry_cell_setting 'orthorhombic'
loop_
_space_group_symop_operation_xyz
x,y,z
1/2-x,-y,z
1/2+x,-y,-z
-x,y,-z
-x,-y,-z
1/2+x,y,-z
1/2-x,y,z
x,-y,z
loop_
_atom_site_type_symbol
_atom_site_label
_atom_site_fract_x
_atom_site_fract_y
_atom_site_fract_z
Si Si1 0.454440 0.924933 0.267392
Si Si2 0.952577 0.576580 0.723330
Si Si3 0.050830 0.576655 0.938623
Si Si4 0.451076 0.344327 0.168312
Si Si5 0.453583 0.074592 0.395830
Si Si6 0.555416 0.213189 0.775377
Si Si7 0.550064 0.783159 0.560614
Si Si8 0.443820 0.709678 0.669692
O O1 0.250000 0.923388 0.266481
O O2 0.500658 0.916729 0.331640
O O3 0.517819 0.861509 0.232377
O O4 0.506578 0.000000 0.249646
O O5 0.750000 0.576717 0.722633
O O6 0.009909 0.500000 0.714970
O O7 0.007574 0.605241 0.782948
O O8 0.013663 0.631328 0.679381
O O9 0.250000 0.573428 0.936683
O O10 0.983813 0.500000 0.929603
O O11 0.993822 0.626114 0.890635
O O12 0.000000 0.597591 0.000000
O O13 0.250000 0.341192 0.172583
O O14 0.517172 0.269513 0.183493
O O15 0.250000 0.073981 0.397621
O O16 0.512182 0.139890 0.428913
O O17 0.510828 0.000000 0.414203
O O18 0.750000 0.204253 0.790278
O O19 0.546336 0.248255 0.715279
O O20 0.500000 0.760904 0.500000
O O21 0.750000 0.783667 0.565098
O O22 0.482474 0.736615 0.609360
O O23 0.250000 0.720935 0.682375
#
# Coordination Sequence:
#
# PCOD9402680 Si02
#       8
#     8   8   8   8   8   8   8   8
#     4   8  12  21  42  68  89 115 153 190 225 268
#     4   9  18  33  53  74  95 121 150 183 226 272
#     4  10  20  32  46  64  90 126 164 197 228 263
#     4   9  17  28  45  69  97 125 155 188 223 265
#     4   8  14  25  44  67  88 114 148 186 225 266
#     4   9  16  29  47  67  92 124 156 190 231 272
#     4  11  21  34  50  66  88 116 150 189 228 275
#     4  11  21  32  47  68  93 119 149 184 226 274
#
# _framework density 16.604413999999998
#
# number of rings (size 3 to 8) (size 9 to 14) (size 15 to 20)
#    0.000    2.625    1.250    3.750    0.000    3.750 
#    0.000    0.000    0.000    2.625    0.000    0.000 
#    0.000    0.500    0.000    0.875    0.000    1.250 
#
# Total GULP energy -356724.722067 kJ/mol
# GULP energy per Si atom -5573.823782 kJ/mol
# Density = 1.656662 g / cm^3
# Si number density = 16.604414 Si / 1000 Ang^3
#
#
#
# Elastic Constant Matrix: (Units=GPa)
#
#
# Indices 1 2 3 4 5 6 
#
# 1 16.4946 -0.3813 -4.3063 0.0000 0.0000 0.0000
# 2 -0.3813 121.5122 58.3450 0.0000 0.0000 0.0000
# 3 -4.3063 58.3450 93.1650 0.0000 0.0000 0.0000
# 4 0.0000 0.0000 0.0000 33.8746 0.0000 0.0000
# 5 0.0000 0.0000 0.0000 0.0000 16.7196 0.0000
# 6 0.0000 0.0000 0.0000 0.0000 0.0000 0.8465
#
#
#
# Elastic Compliance Matrix: (Units=1/GPa)
#
#
# Indices 1 2 3 4 5 6 
#
# 1 0.061605 -0.001679 0.003899 0.000000 0.000000 0.000000
# 2 -0.001679 0.011814 -0.007476 0.000000 0.000000 0.000000
# 3 0.003899 -0.007476 0.015596 0.000000 0.000000 0.000000
# 4 0.000000 0.000000 0.000000 0.029521 0.000000 0.000000
# 5 0.000000 0.000000 0.000000 0.000000 0.059810 0.000000
# 6 0.000000 0.000000 0.000000 0.000000 0.000000 1.181286
#
#
# Mechanical properties :
#
#
# Convention : Reuss Voigt Hill
#
# Bulk Modulus (GPa) = 12.73843 37.60963 25.17403
# Shear Modulus (GPa) = 3.58086 22.12245 12.85166
#
# Velocity S-wave (km/s) = 1.47012 3.65406 2.78509
# Velocity P-wave (km/s) = 3.25116 6.36415 5.05334
#
# Compressibility (1/GPa) = 0.07850264
#
# Stress axis : x y z
#
# Youngs Moduli (GPa) = 16.23246 84.64437 64.11950
#
# Poissons Ratio (x) = 0.14209 -0.24999
# Poissons Ratio (y) = 0.02725 0.47937
# Poissons Ratio (z) = -0.06329 0.63282
#
# Static dielectric constant tensor:
#      x y z
#    x 1.594780 0.000000 0.000000 
#    y 0.000000 1.598000 0.000000 
#    z 0.000000 0.000000 1.532570 
# 
# From -- ./inp_files/32627.got.cif
#   From: 2010.05.17/outbox.cif.g08.bks.cpg/sg51_17_cif.got.tgz:32627.got - 2010.06.03 11:52:47.
