data_PCOD9402386
_publ_section_title
;
Structure prediction by ZEFSAII (Michael W. Deem and Ramdas Pophale) SiO2 
 PCOD9402386
Probable space group: P M M A
;
_chemical_formula_sum "Si O2"
_cell_formula_units_Z 64
_cell_length_a 31.837926
_cell_length_b 8.526354
_cell_length_c 12.237158
_cell_angle_alpha 90.000000
_cell_angle_beta 90.000000
_cell_angle_gamma 90.000000
_cell_volume 3321.916382
_symmetry_space_group_name_H-M "P M M A"
_symmetry_group_IT_number 51
_symmetry_cell_setting 'orthorhombic'
loop_
_space_group_symop_operation_xyz
x,y,z
1/2-x,-y,z
1/2+x,-y,-z
-x,y,-z
-x,-y,-z
1/2+x,y,-z
1/2-x,y,z
x,-y,z
loop_
_atom_site_type_symbol
_atom_site_label
_atom_site_fract_x
_atom_site_fract_y
_atom_site_fract_z
Si Si1 0.797378 0.190002 0.262448
Si Si2 0.328694 0.809562 0.500152
Si Si3 0.046352 0.187662 0.737980
Si Si4 0.203076 0.189813 0.264359
Si Si5 0.043504 0.687394 0.265657
Si Si6 0.875279 0.687925 0.123882
Si Si7 0.124583 0.689480 0.127811
Si Si8 0.073162 0.810482 0.496110
O O1 0.750000 0.237711 0.232952
O O2 0.807915 0.242115 0.386533
O O3 0.833254 0.252488 0.182998
O O4 0.799110 0.000000 0.261143
O O5 0.306201 0.758305 0.389078
O O6 0.377679 0.765188 0.496345
O O7 0.327211 0.000000 0.501066
O O8 0.084268 0.251790 0.810521
O O9 0.053622 0.238060 0.611831
O O10 0.000723 0.245166 0.774350
O O11 0.047972 0.000000 0.739840
O O12 0.250000 0.238980 0.231598
O O13 0.166344 0.251665 0.187541
O O14 0.201682 0.000000 0.263230
O O15 0.041897 0.500000 0.260430
O O16 0.083370 0.742790 0.194457
O O17 0.051173 0.740138 0.390256
O O18 0.875511 0.500000 0.125702
O O19 0.876741 0.741039 0.997972
O O20 0.124759 0.500000 0.129832
O O21 0.070586 0.000000 0.488684
#
# Coordination Sequence:
#
# PCOD9402386 Si02
#       8
#     8   8   8   8   8   8   8   8
#     4  10  20  37  62  90 120 154 192 236 289 347
#     4   9  16  32  58  87 119 152 184 228 288 344
#     4  11  23  40  62  89 119 150 189 235 292 350
#     4  10  20  35  60  91 117 146 190 239 283 335
#     4  11  23  39  60  87 118 152 194 237 286 344
#     4  11  24  42  61  81 113 155 199 243 288 338
#     4  10  24  43  59  79 113 158 197 236 288 344
#     4  10  19  35  60  87 118 154 187 228 286 349
#
# _framework density 19.265988
#
# number of rings (size 3 to 8) (size 9 to 14) (size 15 to 20)
#    0.000    1.750    2.500    1.875    0.000    7.000 
#    0.000    5.625    0.000    1.500    0.000    0.000 
#    0.000    0.000    0.000    0.000    0.000    0.000 
#
# Total GULP energy -357593.730173 kJ/mol
# GULP energy per Si atom -5587.402034 kJ/mol
# Density = 1.922214 g / cm^3
# Si number density = 19.265988 Si / 1000 Ang^3
#
#
#
# Elastic Constant Matrix: (Units=GPa)
#
#
# Indices 1 2 3 4 5 6 
#
# 1 198.6990 32.1730 91.7201 0.0000 0.0000 0.0000
# 2 32.1730 19.8116 27.8323 0.0000 0.0000 0.0000
# 3 91.7201 27.8323 153.5501 0.0000 0.0000 0.0000
# 4 0.0000 0.0000 0.0000 26.6944 0.0000 0.0000
# 5 0.0000 0.0000 0.0000 0.0000 -2.9949 0.0000
# 6 0.0000 0.0000 0.0000 0.0000 0.0000 5.8038
#
#
#
# Elastic Compliance Matrix: (Units=1/GPa)
#
#
# Indices 1 2 3 4 5 6 
#
# 1 0.007841 -0.008255 -0.003187 0.000000 0.000000 0.000000
# 2 -0.008255 0.076412 -0.008919 0.000000 0.000000 0.000000
# 3 -0.003187 -0.008919 0.010033 0.000000 0.000000 0.000000
# 4 0.000000 0.000000 0.000000 0.037461 0.000000 0.000000
# 5 0.000000 0.000000 0.000000 0.000000 -0.333898 0.000000
# 6 0.000000 0.000000 0.000000 0.000000 0.000000 0.172302
#
#
# Mechanical properties :
#
#
# Convention : Reuss Voigt Hill
#
# Bulk Modulus (GPa) = 18.66992 75.05683 46.86338
# Shear Modulus (GPa) = 174.05134 20.58967 97.32051
#
# Velocity S-wave (km/s) = 9.51511 3.27265 7.11504
# Velocity P-wave (km/s) = 11.42051 7.30227 9.58518
#
# Compressibility (1/GPa) = 0.05356209
#
# Stress axis : x y z
#
# Youngs Moduli (GPa) = 127.54137 13.08702 99.67174
#
# Poissons Ratio (x) = 0.10804 0.31766
# Poissons Ratio (y) = 1.05290 0.88898
# Poissons Ratio (z) = 0.40648 0.11672
#
# Static dielectric constant tensor:
#      x y z
#    x 1.656180 0.000000 0.000000 
#    y 0.000000 1.663150 0.000000 
#    z 0.000000 0.000000 1.653780 
# 
# From -- ./inp_files/19520.got.cif
#   From: 2010.05.17/outbox.cif.g08.bks.cpg/sg51_10_cif.got.tgz:19520.got - 2010.06.03 11:52:47.
