data_PCOD9402683
_publ_section_title
;
Structure prediction by ZEFSAII (Michael W. Deem and Ramdas Pophale) SiO2 
 PCOD9402683
Probable space group: P M M A
;
_chemical_formula_sum "Si O2"
_cell_formula_units_Z 56
_cell_length_a 8.562952
_cell_length_b 15.096577
_cell_length_c 23.886777
_cell_angle_alpha 90.000000
_cell_angle_beta 90.000000
_cell_angle_gamma 90.000000
_cell_volume 3087.873861
_symmetry_space_group_name_H-M "P M M A"
_symmetry_group_IT_number 51
_symmetry_cell_setting 'orthorhombic'
loop_
_space_group_symop_operation_xyz
x,y,z
1/2-x,-y,z
1/2+x,-y,-z
-x,y,-z
-x,-y,-z
1/2+x,y,-z
1/2-x,y,z
x,-y,z
loop_
_atom_site_type_symbol
_atom_site_label
_atom_site_fract_x
_atom_site_fract_y
_atom_site_fract_z
Si Si1 0.061366 0.279304 0.559625
Si Si2 0.938066 0.399476 0.787468
Si Si3 0.936716 0.103991 0.259343
Si Si4 0.063355 0.100768 0.938015
Si Si5 0.440132 0.900962 0.611209
Si Si6 0.563330 0.603755 0.335113
Si Si7 0.935721 0.221675 0.839940
O O1 0.250000 0.280946 0.558642
O O2 0.007942 0.178647 0.571860
O O3 0.010073 0.338210 0.612424
O O4 0.000000 0.310651 0.500000
O O5 0.750000 0.401484 0.789765
O O6 0.995496 0.500000 0.798284
O O7 0.992786 0.322136 0.828972
O O8 0.986784 0.374287 0.724302
O O9 0.750000 0.119276 0.254883
O O10 0.982318 0.118799 0.324098
O O11 0.022397 0.165717 0.215461
O O12 0.964088 0.000000 0.247026
O O13 0.250000 0.100758 0.939531
O O14 0.007742 0.170930 0.892472
O O15 0.011483 0.000000 0.922965
O O16 0.000000 0.119916 0.000000
O O17 0.250000 0.902555 0.610307
O O18 0.494648 0.000000 0.596580
O O19 0.750000 0.616287 0.329084
O O20 0.533834 0.500000 0.346166
O O21 0.750000 0.223736 0.847024
#
# Coordination Sequence:
#
# PCOD9402683 Si02
#       7
#     8   8   8   8   8   8   8
#     4  10  20  32  46  65  89 117 152 195 239 287
#     4   9  19  35  53  75 103 133 165 203 249 298
#     4   9  17  30  49  72  97 127 163 201 244 297
#     4  10  21  37  56  78 107 143 179 212 245 284
#     4   8  15  29  47  64  85 117 155 193 235 284
#     4   9  18  33  52  72  93 119 154 197 245 296
#     4  11  21  31  49  77 107 137 167 204 249 294
#
# _framework density 18.135455
#
# number of rings (size 3 to 8) (size 9 to 14) (size 15 to 20)
#    0.000    2.571    0.000    3.000    0.000    6.286 
#    0.000    0.714    0.000    1.286    0.000    0.000 
#    0.000    0.000    0.000    0.000    0.000    0.000 
#
# Total GULP energy -312423.596182 kJ/mol
# GULP energy per Si atom -5578.992789 kJ/mol
# Density = 1.809418 g / cm^3
# Si number density = 18.135455 Si / 1000 Ang^3
#
#
#
# Elastic Constant Matrix: (Units=GPa)
#
#
# Indices 1 2 3 4 5 6 
#
# 1 12.1656 26.3907 17.0951 0.0000 0.0000 0.0000
# 2 26.3907 97.5974 76.5811 0.0000 0.0000 0.0000
# 3 17.0951 76.5811 83.1522 0.0000 0.0000 0.0000
# 4 0.0000 0.0000 0.0000 22.7208 0.0000 0.0000
# 5 0.0000 0.0000 0.0000 0.0000 23.6978 0.0000
# 6 0.0000 0.0000 0.0000 0.0000 0.0000 17.6050
#
#
#
# Elastic Compliance Matrix: (Units=1/GPa)
#
#
# Indices 1 2 3 4 5 6 
#
# 1 0.224042 -0.088122 0.035098 0.000000 0.000000 0.000000
# 2 -0.088122 0.071605 -0.047829 0.000000 0.000000 0.000000
# 3 0.035098 -0.047829 0.048860 0.000000 0.000000 0.000000
# 4 0.000000 0.000000 0.000000 0.044013 0.000000 0.000000
# 5 0.000000 0.000000 0.000000 0.000000 0.042198 0.000000
# 6 0.000000 0.000000 0.000000 0.000000 0.000000 0.056802
#
#
# Mechanical properties :
#
#
# Convention : Reuss Voigt Hill
#
# Bulk Modulus (GPa) = 7.00280 48.11656 27.55968
# Shear Modulus (GPa) = 6.78586 17.66126 12.22356
#
# Velocity S-wave (km/s) = 1.93646 3.12405 2.59900
# Velocity P-wave (km/s) = 2.97819 6.29303 4.92300
#
# Compressibility (1/GPa) = 0.14280002
#
# Stress axis : x y z
#
# Youngs Moduli (GPa) = 4.46345 13.96556 20.46655
#
# Poissons Ratio (x) = 1.23067 -0.71833
# Poissons Ratio (y) = 0.39333 0.97890
# Poissons Ratio (z) = -0.15666 0.66796
#
# Static dielectric constant tensor:
#      x y z
#    x 1.618380 0.000000 0.000000 
#    y 0.000000 1.656130 0.000000 
#    z 0.000000 0.000000 1.588740 
# 
# From -- ./inp_files/31937.got.cif
#   From: 2010.05.17/outbox.cif.g08.bks.cpg/sg51_16_cif.got.tgz:31937.got - 2010.06.03 11:52:47.
