data_PCOD9402523
_publ_section_title
;
Structure prediction by ZEFSAII (Michael W. Deem and Ramdas Pophale) SiO2 
 PCOD9402523
Probable space group: P M M A
;
_chemical_formula_sum "Si O2"
_cell_formula_units_Z 64
_cell_length_a 24.096589
_cell_length_b 9.025438
_cell_length_c 15.707684
_cell_angle_alpha 90.000000
_cell_angle_beta 90.000000
_cell_angle_gamma 90.000000
_cell_volume 3416.142773
_symmetry_space_group_name_H-M "P M M A"
_symmetry_group_IT_number 51
_symmetry_cell_setting 'orthorhombic'
loop_
_space_group_symop_operation_xyz
x,y,z
1/2-x,-y,z
1/2+x,-y,-z
-x,y,-z
-x,-y,-z
1/2+x,y,-z
1/2-x,y,z
x,-y,z
loop_
_atom_site_type_symbol
_atom_site_label
_atom_site_fract_x
_atom_site_fract_y
_atom_site_fract_z
Si Si1 0.184207 0.823501 0.490512
Si Si2 0.376323 0.676864 0.840728
Si Si3 0.387652 0.822953 0.162926
Si Si4 0.384158 0.323908 0.339481
Si Si5 0.000805 0.324113 0.101643
Si Si6 0.185400 0.177847 0.998648
Si Si7 0.120418 0.822430 0.663017
Si Si8 0.496632 0.175260 0.398115
O O1 0.250000 0.799196 0.491371
O O2 0.154524 0.736977 0.414747
O O3 0.156903 0.781919 0.580826
O O4 0.173789 0.000000 0.478686
O O5 0.371364 0.500000 0.840959
O O6 0.440699 0.714460 0.860977
O O7 0.339588 0.744736 0.915786
O O8 0.361702 0.742460 0.748974
O O9 0.367679 0.747125 0.249442
O O10 0.449859 0.767853 0.143408
O O11 0.386553 0.000000 0.172290
O O12 0.349985 0.780684 0.081972
O O13 0.382261 0.500000 0.335233
O O14 0.446533 0.268997 0.360230
O O15 0.010718 0.500000 0.115308
O O16 0.000000 0.298300 0.000000
O O17 0.250000 0.214478 0.009778
O O18 0.180603 0.000000 0.988430
O O19 0.056204 0.787075 0.641769
O O20 0.124418 0.000000 0.674233
O O21 0.500000 0.196532 0.500000
O O22 0.485746 0.000000 0.383308
#
# Coordination Sequence:
#
# PCOD9402523 Si02
#       8
#     8   8   8   8   8   8   8   8
#     4  10  22  43  67  87 113 156 208 255 299 350
#     4  11  23  38  60  90 124 159 195 238 296 362
#     4  11  23  39  63  91 119 156 206 251 296 353
#     4  12  25  39  60  91 128 161 196 242 304 368
#     4  10  20  37  60  88 125 161 192 237 303 365
#     4  10  23  43  64  86 114 152 202 255 299 345
#     4  10  21  38  62  91 122 157 199 247 298 350
#     4  10  19  37  64  91 122 157 200 248 295 353
#
# _framework density 18.734580999999999
#
# number of rings (size 3 to 8) (size 9 to 14) (size 15 to 20)
#    0.000    1.500    2.500    2.625    0.000    6.500 
#    0.000    2.500    0.000    0.000    0.000    0.000 
#    0.000    0.000    0.000    0.000    0.000    0.000 
#
# Total GULP energy -357856.280414 kJ/mol
# GULP energy per Si atom -5591.504381 kJ/mol
# Density = 1.869194 g / cm^3
# Si number density = 18.734581 Si / 1000 Ang^3
#
#
#
# Elastic Constant Matrix: (Units=GPa)
#
#
# Indices 1 2 3 4 5 6 
#
# 1 84.7709 45.2156 48.4435 0.0000 0.0000 0.0000
# 2 45.2156 53.3018 60.1703 0.0000 0.0000 0.0000
# 3 48.4435 60.1703 146.8278 0.0000 0.0000 0.0000
# 4 0.0000 0.0000 0.0000 16.1842 0.0000 0.0000
# 5 0.0000 0.0000 0.0000 0.0000 -3.5368 0.0000
# 6 0.0000 0.0000 0.0000 0.0000 0.0000 -2.0685
#
#
#
# Elastic Compliance Matrix: (Units=1/GPa)
#
#
# Indices 1 2 3 4 5 6 
#
# 1 0.021585 -0.019113 0.000711 0.000000 0.000000 0.000000
# 2 -0.019113 0.051835 -0.014936 0.000000 0.000000 0.000000
# 3 0.000711 -0.014936 0.012697 0.000000 0.000000 0.000000
# 4 0.000000 0.000000 0.000000 0.061789 0.000000 0.000000
# 5 0.000000 0.000000 0.000000 0.000000 -0.282741 0.000000
# 6 0.000000 0.000000 0.000000 0.000000 0.000000 -0.483436
#
#
# Mechanical properties :
#
#
# Convention : Reuss Voigt Hill
#
# Bulk Modulus (GPa) = 51.43794 65.83992 58.63893
# Shear Modulus (GPa) = -9.17236 10.85385 0.84075
#
# Velocity S-wave (km/s) = -2.21508 2.40958 0.67063
# Velocity P-wave (km/s) = 4.57970 6.55448 5.65398
#
# Compressibility (1/GPa) = 0.01944090
#
# Stress axis : x y z
#
# Youngs Moduli (GPa) = 46.32928 19.29198 78.75847
#
# Poissons Ratio (x) = 0.36872 -0.05598
# Poissons Ratio (y) = 0.88547 1.17635
# Poissons Ratio (z) = -0.03293 0.28815
#
# Static dielectric constant tensor:
#      x y z
#    x 1.630650 0.000000 0.000000 
#    y 0.000000 1.621630 0.000000 
#    z 0.000000 0.000000 1.631130 
# 
# From -- ./inp_files/26175.got.cif
#   From: 2010.05.17/outbox.cif.g08.bks.cpg/sg51_14_cif.got.tgz:26175.got - 2010.06.03 11:52:47.
