data_PCOD9402517
_publ_section_title
;
Structure prediction by ZEFSAII (Michael W. Deem and Ramdas Pophale) SiO2 
 PCOD9402517
Probable space group: P M M A
;
_chemical_formula_sum "Si O2"
_cell_formula_units_Z 36
_cell_length_a 14.392902
_cell_length_b 13.858933
_cell_length_c 8.493863
_cell_angle_alpha 90.000000
_cell_angle_beta 90.000000
_cell_angle_gamma 90.000000
_cell_volume 1694.273099
_symmetry_space_group_name_H-M "P M M A"
_symmetry_group_IT_number 51
_symmetry_cell_setting 'orthorhombic'
loop_
_space_group_symop_operation_xyz
x,y,z
1/2-x,-y,z
1/2+x,-y,-z
-x,y,-z
-x,-y,-z
1/2+x,y,-z
1/2-x,y,z
x,-y,z
loop_
_atom_site_type_symbol
_atom_site_label
_atom_site_fract_x
_atom_site_fract_y
_atom_site_fract_z
Si Si1 0.391962 0.391659 0.952652
Si Si2 0.637109 0.893187 0.923670
Si Si3 0.641488 0.796875 0.247495
Si Si4 0.000000 0.261001 0.500000
Si Si5 0.353011 0.296070 0.268913
O O1 0.370735 0.500000 0.901615
O O2 0.346361 0.364715 0.118807
O O3 0.500000 0.384155 0.000000
O O4 0.365260 0.311186 0.825702
O O5 0.750000 0.893752 0.927115
O O6 0.615106 0.807431 0.803371
O O7 0.604497 0.000000 0.881742
O O8 0.609331 0.863356 0.100787
O O9 0.750000 0.817823 0.283559
O O10 0.572505 0.800006 0.394687
O O11 0.933158 0.323916 0.611036
O O12 0.250000 0.287058 0.340268
#
# Coordination Sequence:
#
# PCOD9402517 Si02
#       5
#     8   8   8   4   8
#     4  10  19  37  63  85 108 140 184 237 279 317
#     4   8  16  35  61  84 107 140 187 236 275 318
#     4  10  21  37  59  83 110 149 186 224 278 327
#     4  12  22  38  54  78 124 150 180 228 268 334
#     4  10  21  37  59  83 110 149 186 224 278 327
#
# _framework density 21.248051
#
# number of rings (size 3 to 8) (size 9 to 14) (size 15 to 20)
#    0.000    2.222    2.222    2.667    0.000    1.778 
#    0.000    6.667    0.000    8.000    0.000    0.000 
#    0.000    0.000    0.000    0.000    0.000    0.000 
#
# Total GULP energy -200947.702023 kJ/mol
# GULP energy per Si atom -5581.880612 kJ/mol
# Density = 2.119969 g / cm^3
# Si number density = 21.248051 Si / 1000 Ang^3
#
#
#
# Elastic Constant Matrix: (Units=GPa)
#
#
# Indices 1 2 3 4 5 6 
#
# 1 126.3247 -4.5745 40.9506 0.0000 0.0000 0.0000
# 2 -4.5745 68.4794 -5.1250 0.0000 0.0000 0.0000
# 3 40.9506 -5.1250 72.8862 0.0000 0.0000 0.0000
# 4 0.0000 0.0000 0.0000 1.3094 0.0000 0.0000
# 5 0.0000 0.0000 0.0000 0.0000 37.0877 0.0000
# 6 0.0000 0.0000 0.0000 0.0000 0.0000 -15.2406
#
#
#
# Elastic Compliance Matrix: (Units=1/GPa)
#
#
# Indices 1 2 3 4 5 6 
#
# 1 0.009683 0.000241 -0.005423 0.000000 0.000000 0.000000
# 2 0.000241 0.014686 0.000897 0.000000 0.000000 0.000000
# 3 -0.005423 0.000897 0.016830 0.000000 0.000000 0.000000
# 4 0.000000 0.000000 0.000000 0.763724 0.000000 0.000000
# 5 0.000000 0.000000 0.000000 0.000000 0.026963 0.000000
# 6 0.000000 0.000000 0.000000 0.000000 0.000000 -0.065614
#
#
# Mechanical properties :
#
#
# Convention : Reuss Voigt Hill
#
# Bulk Modulus (GPa) = 30.64752 36.68805 33.66779
# Shear Modulus (GPa) = 6.36360 20.39389 13.37875
#
# Velocity S-wave (km/s) = 1.73246 3.10143 2.51200
# Velocity P-wave (km/s) = 4.29615 5.48900 4.92879
#
# Compressibility (1/GPa) = 0.03262907
#
# Stress axis : x y z
#
# Youngs Moduli (GPa) = 103.27477 68.09122 59.41716
#
# Poissons Ratio (x) = -0.01641 0.32224
# Poissons Ratio (y) = -0.02488 -0.05331
# Poissons Ratio (z) = 0.56009 -0.06110
#
# Static dielectric constant tensor:
#      x y z
#    x 1.843980 0.000000 0.000000 
#    y 0.000000 1.738780 0.000000 
#    z 0.000000 0.000000 1.778280 
# 
# From -- ./inp_files/7796.got.cif
#   From: 2010.05.17/outbox.cif.g08.bks.cpg/sg51_4_cif.got.tgz:7796.got - 2010.06.03 11:52:47.
