data_PCOD9402973
_publ_section_title
;
Structure prediction by ZEFSAII (Michael W. Deem and Ramdas Pophale) SiO2 
 PCOD9402973
Probable space group: P M M A
;
_chemical_formula_sum "Si O2"
_cell_formula_units_Z 64
_cell_length_a 8.727970
_cell_length_b 14.517711
_cell_length_c 27.111477
_cell_angle_alpha 90.000000
_cell_angle_beta 90.000000
_cell_angle_gamma 90.000000
_cell_volume 3435.299211
_symmetry_space_group_name_H-M "P M M A"
_symmetry_group_IT_number 51
_symmetry_cell_setting 'orthorhombic'
loop_
_space_group_symop_operation_xyz
x,y,z
1/2-x,-y,z
1/2+x,-y,-z
-x,y,-z
-x,-y,-z
1/2+x,y,-z
1/2-x,y,z
x,-y,z
loop_
_atom_site_type_symbol
_atom_site_label
_atom_site_fract_x
_atom_site_fract_y
_atom_site_fract_z
Si Si1 0.936593 0.107169 0.647825
Si Si2 0.576930 0.611623 0.696054
Si Si3 0.431724 0.606929 0.591958
Si Si4 0.567684 0.215644 0.550989
Si Si5 0.431638 0.110860 0.243108
Si Si6 0.565668 0.214367 0.149310
Si Si7 0.434929 0.892795 0.947027
Si Si8 0.934761 0.394226 0.199636
O O1 0.750000 0.110045 0.648527
O O2 0.988821 0.163037 0.600082
O O3 0.985912 0.141282 0.702146
O O4 0.980328 0.000000 0.643146
O O5 0.750000 0.647772 0.690088
O O6 0.584221 0.500000 0.697497
O O7 0.477483 0.632786 0.648098
O O8 0.505326 0.637856 0.748279
O O9 0.250000 0.614776 0.585406
O O10 0.475991 0.500000 0.584096
O O11 0.518310 0.678492 0.557611
O O12 0.500000 0.178683 0.500000
O O13 0.750000 0.208733 0.549370
O O14 0.250000 0.129897 0.239540
O O15 0.513347 0.157539 0.197158
O O16 0.450900 0.000000 0.241183
O O17 0.750000 0.211676 0.147679
O O18 0.509541 0.168213 0.098847
O O19 0.519276 0.320196 0.158592
O O20 0.250000 0.888782 0.948938
O O21 0.478165 0.000000 0.938828
O O22 0.500000 0.864108 0.000000
O O23 0.750000 0.393577 0.204288
O O24 0.981759 0.500000 0.190063
#
# Coordination Sequence:
#
# PCOD9402973 Si02
#       8
#     8   8   8   8   8   8   8   8
#     4   8  17  36  58  78 103 135 169 209 259 312
#     4   9  17  30  49  73 100 132 171 212 254 303
#     4  10  21  37  56  77 104 137 171 212 261 313
#     4  11  23  38  57  80 104 134 173 218 263 313
#     4   9  18  33  53  78 107 137 169 207 257 319
#     4  10  20  32  50  78 108 141 177 220 266 306
#     4   9  18  33  52  74 103 137 175 220 268 316
#     4   9  18  32  48  70 104 144 181 215 256 307
#
# _framework density 18.630108
#
# number of rings (size 3 to 8) (size 9 to 14) (size 15 to 20)
#    0.000    2.625    0.000    2.250    1.750    4.500 
#    0.000    1.875    0.000    3.000    0.000    0.000 
#    0.000    0.000    0.000    0.000    0.000    0.000 
#
# Total GULP energy -357099.755266 kJ/mol
# GULP energy per Si atom -5579.683676 kJ/mol
# Density = 1.858771 g / cm^3
# Si number density = 18.630108 Si / 1000 Ang^3
#
#
#
# Elastic Constant Matrix: (Units=GPa)
#
#
# Indices 1 2 3 4 5 6 
#
# 1 11.4781 13.5171 16.6123 0.0000 0.0000 0.0000
# 2 13.5171 66.2234 63.1452 0.0000 0.0000 0.0000
# 3 16.6123 63.1452 148.1438 0.0000 0.0000 0.0000
# 4 0.0000 0.0000 0.0000 28.5404 0.0000 0.0000
# 5 0.0000 0.0000 0.0000 0.0000 27.1962 0.0000
# 6 0.0000 0.0000 0.0000 0.0000 0.0000 14.7389
#
#
#
# Elastic Compliance Matrix: (Units=1/GPa)
#
#
# Indices 1 2 3 4 5 6 
#
# 1 0.116804 -0.019125 -0.004946 0.000000 0.000000 0.000000
# 2 -0.019125 0.028572 -0.010034 0.000000 0.000000 0.000000
# 3 -0.004946 -0.010034 0.011582 0.000000 0.000000 0.000000
# 4 0.000000 0.000000 0.000000 0.035038 0.000000 0.000000
# 5 0.000000 0.000000 0.000000 0.000000 0.036770 0.000000
# 6 0.000000 0.000000 0.000000 0.000000 0.000000 0.067848
#
#
# Mechanical properties :
#
#
# Convention : Reuss Voigt Hill
#
# Bulk Modulus (GPa) = 11.26797 45.82162 28.54480
# Shear Modulus (GPa) = 12.67732 22.93314 17.80523
#
# Velocity S-wave (km/s) = 2.61142 3.51233 3.09483
# Velocity P-wave (km/s) = 3.89282 6.41073 5.30337
#
# Compressibility (1/GPa) = 0.08874711
#
# Stress axis : x y z
#
# Youngs Moduli (GPa) = 8.56135 34.99989 86.34359
#
# Poissons Ratio (x) = 0.66938 0.42705
# Poissons Ratio (y) = 0.16374 0.86635
# Poissons Ratio (z) = 0.04234 0.35118
#
# Static dielectric constant tensor:
#      x y z
#    x 1.629060 0.000000 0.000000 
#    y 0.000000 1.680350 0.000000 
#    z 0.000000 0.000000 1.634350 
# 
# From -- ./inp_files/34831.got.cif
#   From: 2010.05.17/outbox.cif.g08.bks.cpg/sg51_18_cif.got.tgz:34831.got - 2010.06.03 11:52:47.
