data_PCOD9402001
_publ_section_title
;
Structure prediction by ZEFSAII (Michael W. Deem and Ramdas Pophale) SiO2 
 PCOD9402001
Probable space group: P M M A
;
_chemical_formula_sum "Si O2"
_cell_formula_units_Z 52
_cell_length_a 22.597872
_cell_length_b 7.988264
_cell_length_c 14.152713
_cell_angle_alpha 90.000000
_cell_angle_beta 90.000000
_cell_angle_gamma 90.000000
_cell_volume 2554.816153
_symmetry_space_group_name_H-M "P M M A"
_symmetry_group_IT_number 51
_symmetry_cell_setting 'orthorhombic'
loop_
_space_group_symop_operation_xyz
x,y,z
1/2-x,-y,z
1/2+x,-y,-z
-x,y,-z
-x,-y,-z
1/2+x,y,-z
1/2-x,y,z
x,-y,z
loop_
_atom_site_type_symbol
_atom_site_label
_atom_site_fract_x
_atom_site_fract_y
_atom_site_fract_z
Si Si1 0.019575 0.682748 0.714067
Si Si2 0.624254 0.304352 0.571357
Si Si3 0.250000 0.798420 0.518682
Si Si4 0.128970 0.202240 0.826342
Si Si5 0.401866 0.811044 0.223602
Si Si6 0.500000 0.748822 0.500000
Si Si7 0.250000 0.204669 0.737430
Si Si8 0.568180 0.795144 0.980947
O O1 0.003006 0.500000 0.751867
O O2 0.083132 0.733407 0.749154
O O3 0.971925 0.812047 0.752899
O O4 0.015826 0.676213 0.601768
O O5 0.610252 0.500000 0.551119
O O6 0.688523 0.261051 0.529295
O O7 0.625012 0.280888 0.685257
O O8 0.568499 0.195710 0.529887
O O9 0.250000 0.742561 0.628241
O O10 0.250000 0.000000 0.515419
O O11 0.192744 0.260329 0.794203
O O12 0.127865 0.000000 0.825922
O O13 0.106528 0.256241 0.928928
O O14 0.402358 0.738765 0.117655
O O15 0.378078 0.000000 0.222338
O O16 0.250000 0.000000 0.735789
O O17 0.566928 0.000000 0.975638
O O18 0.500000 0.742674 0.000000
#
# Coordination Sequence:
#
# PCOD9402001 Si02
#       8
#     8   8   4   8   8   4   4   8
#     4  11  20  32  50  77 108 143 183 229 281 339
#     4  11  22  39  60  85 116 155 197 242 295 352
#     4  11  23  41  60  85 118 154 199 241 290 357
#     4  10  19  35  55  77 108 144 186 232 284 342
#     4  10  19  34  55  82 113 146 184 233 281 334
#     4  10  21  36  55  80 115 148 187 238 293 358
#     4   9  20  35  56  83 108 138 183 239 282 331
#     4   9  16  30  54  82 111 146 185 229 283 345
#
# _framework density 20.353715999999999
#
# number of rings (size 3 to 8) (size 9 to 14) (size 15 to 20)
#    0.000    1.846    1.538    4.846    0.000    0.000 
#    0.000   17.308    0.000    2.769    0.000    0.000 
#    0.000    0.000    0.000    0.000    0.000    0.000 
#
# Total GULP energy -289587.264395 kJ/mol
# GULP energy per Si atom -5568.985854 kJ/mol
# Density = 2.030739 g / cm^3
# Si number density = 20.353716 Si / 1000 Ang^3
#
#
#
# Elastic Constant Matrix: (Units=GPa)
#
#
# Indices 1 2 3 4 5 6 
#
# 1 154.3201 16.0669 100.2305 0.0000 0.0000 0.0000
# 2 16.0669 44.1713 17.4303 0.0000 0.0000 0.0000
# 3 100.2305 17.4303 156.5496 0.0000 0.0000 0.0000
# 4 0.0000 0.0000 0.0000 -4.9140 0.0000 0.0000
# 5 0.0000 0.0000 0.0000 0.0000 32.7408 0.0000
# 6 0.0000 0.0000 0.0000 0.0000 0.0000 5.6369
#
#
#
# Elastic Compliance Matrix: (Units=1/GPa)
#
#
# Indices 1 2 3 4 5 6 
#
# 1 0.011164 -0.001297 -0.007003 0.000000 0.000000 0.000000
# 2 -0.001297 0.023830 -0.001823 0.000000 0.000000 0.000000
# 3 -0.007003 -0.001823 0.011074 0.000000 0.000000 0.000000
# 4 0.000000 0.000000 0.000000 -0.203501 0.000000 0.000000
# 5 0.000000 0.000000 0.000000 0.000000 0.030543 0.000000
# 6 0.000000 0.000000 0.000000 0.000000 0.000000 0.177403
#
#
# Mechanical properties :
#
#
# Convention : Reuss Voigt Hill
#
# Bulk Modulus (GPa) = 38.72628 69.16627 53.94627
# Shear Modulus (GPa) = 62.99884 21.44695 42.22290
#
# Velocity S-wave (km/s) = 5.56949 3.24961 4.55956
# Velocity P-wave (km/s) = 7.77347 6.93800 7.36759
#
# Compressibility (1/GPa) = 0.02582226
#
# Stress axis : x y z
#
# Youngs Moduli (GPa) = 89.57753 41.96346 90.29887
#
# Poissons Ratio (x) = 0.05444 0.63236
# Poissons Ratio (y) = 0.11620 0.16459
# Poissons Ratio (z) = 0.62731 0.07649
#
# Static dielectric constant tensor:
#      x y z
#    x 1.706790 0.000000 0.000000 
#    y 0.000000 1.737790 0.000000 
#    z 0.000000 0.000000 1.720610 
# 
# From -- ./inp_files/25593.got.cif
#   From: 2010.05.17/outbox.cif.g08.bks.cpg/sg51_13_cif.got.tgz:25593.got - 2010.06.03 11:52:47.
