data_PCOD9402799
_publ_section_title
;
Structure prediction by ZEFSAII (Michael W. Deem and Ramdas Pophale) SiO2 
 PCOD9402799
Probable space group: P M M A
;
_chemical_formula_sum "Si O2"
_cell_formula_units_Z 64
_cell_length_a 23.441656
_cell_length_b 9.341165
_cell_length_c 18.461000
_cell_angle_alpha 90.000000
_cell_angle_beta 90.000000
_cell_angle_gamma 90.000000
_cell_volume 4042.449044
_symmetry_space_group_name_H-M "P M M A"
_symmetry_group_IT_number 51
_symmetry_cell_setting 'orthorhombic'
loop_
_space_group_symop_operation_xyz
x,y,z
1/2-x,-y,z
1/2+x,-y,-z
-x,y,-z
-x,-y,-z
1/2+x,y,-z
1/2-x,y,z
x,-y,z
loop_
_atom_site_type_symbol
_atom_site_label
_atom_site_fract_x
_atom_site_fract_y
_atom_site_fract_z
Si Si1 0.629849 0.829548 0.863163
Si Si2 0.818641 0.669333 0.726104
Si Si3 0.819245 0.833750 0.581875
Si Si4 0.608167 0.328349 0.138369
Si Si5 0.816700 0.672146 0.276441
Si Si6 0.316675 0.667912 0.003139
Si Si7 0.998685 0.829209 0.915211
Si Si8 0.180843 0.166487 0.579275
O O1 0.650007 0.751681 0.790494
O O2 0.665684 0.765295 0.929757
O O3 0.563616 0.801937 0.882186
O O4 0.638220 0.000000 0.857324
O O5 0.750000 0.690266 0.733883
O O6 0.829532 0.500000 0.729180
O O7 0.836581 0.735138 0.648681
O O8 0.750000 0.831657 0.580774
O O9 0.838408 0.787769 0.501274
O O10 0.835904 0.000000 0.593102
O O11 0.600252 0.500000 0.141585
O O12 0.643744 0.284282 0.209308
O O13 0.548145 0.250984 0.127984
O O14 0.645848 0.297241 0.067080
O O15 0.750000 0.712365 0.263899
O O16 0.818202 0.500000 0.281855
O O17 0.836830 0.740745 0.351954
O O18 0.250000 0.684190 0.986138
O O19 0.326408 0.500000 0.021690
O O20 0.009081 0.000000 0.913532
O O21 0.000000 0.784517 0.000000
O O22 0.250000 0.172858 0.578215
O O23 0.165148 0.000000 0.588885
#
# Coordination Sequence:
#
# PCOD9402799 Si02
#       8
#     8   8   8   8   8   8   8   8
#     4  11  22  35  51  69  92 124 160 199 244 288
#     4  10  20  32  47  71 102 130 158 195 237 284
#     4   8  14  26  44  66  95 130 164 195 229 275
#     4  10  20  33  51  72  94 125 163 199 239 285
#     4   9  17  29  45  69 102 133 160 194 236 283
#     4  10  20  33  49  70  97 126 156 192 235 284
#     4  10  21  38  54  69  91 119 158 209 251 284
#     4   8  14  25  42  66  96 130 165 196 228 273
#
# _framework density 15.831987
#
# number of rings (size 3 to 8) (size 9 to 14) (size 15 to 20)
#    0.000    2.500    1.250    2.250    0.000    6.250 
#    0.000    2.500    0.000    2.250    0.000    0.875 
#    0.000    7.000    0.000    0.000    0.000    0.000 
#
# Total GULP energy -356743.691665 kJ/mol
# GULP energy per Si atom -5574.120182 kJ/mol
# Density = 1.579595 g / cm^3
# Si number density = 15.831987 Si / 1000 Ang^3
#
#
#
# Elastic Constant Matrix: (Units=GPa)
#
#
# Indices 1 2 3 4 5 6 
#
# 1 33.6030 21.4960 19.5068 0.0000 0.0000 0.0000
# 2 21.4960 36.4752 43.9019 0.0000 0.0000 0.0000
# 3 19.5068 43.9019 116.4263 0.0000 0.0000 0.0000
# 4 0.0000 0.0000 0.0000 31.5407 0.0000 0.0000
# 5 0.0000 0.0000 0.0000 0.0000 1.2588 0.0000
# 6 0.0000 0.0000 0.0000 0.0000 0.0000 20.1297
#
#
#
# Elastic Compliance Matrix: (Units=1/GPa)
#
#
# Indices 1 2 3 4 5 6 
#
# 1 0.049267 -0.034972 0.004933 0.000000 0.000000 0.000000
# 2 -0.034972 0.075023 -0.022430 0.000000 0.000000 0.000000
# 3 0.004933 -0.022430 0.016221 0.000000 0.000000 0.000000
# 4 0.000000 0.000000 0.000000 0.031705 0.000000 0.000000
# 5 0.000000 0.000000 0.000000 0.000000 0.794435 0.000000
# 6 0.000000 0.000000 0.000000 0.000000 0.000000 0.049678
#
#
# Mechanical properties :
#
#
# Convention : Reuss Voigt Hill
#
# Bulk Modulus (GPa) = 28.11174 39.59044 33.85109
# Shear Modulus (GPa) = 4.41258 17.35914 10.88586
#
# Velocity S-wave (km/s) = 1.67128 3.31488 2.62503
# Velocity P-wave (km/s) = 4.63887 6.30175 5.53314
#
# Compressibility (1/GPa) = 0.03557233
#
# Stress axis : x y z
#
# Youngs Moduli (GPa) = 20.29743 13.32926 61.64968
#
# Poissons Ratio (x) = 0.46615 -0.30409
# Poissons Ratio (y) = 0.70983 1.38282
# Poissons Ratio (z) = -0.10012 0.29898
#
# Static dielectric constant tensor:
#      x y z
#    x 1.508130 0.000000 0.000000 
#    y 0.000000 1.527790 0.000000 
#    z 0.000000 0.000000 1.528600 
# 
# From -- ./inp_files/30905.got.cif
#   From: 2010.05.17/outbox.cif.g08.bks.cpg/sg51_16_cif.got.tgz:30905.got - 2010.06.03 11:52:47.
