data_PCOD9402235
_publ_section_title
;
Structure prediction by ZEFSAII (Michael W. Deem and Ramdas Pophale) SiO2 
 PCOD9402235
Probable space group: P M M A
;
_chemical_formula_sum "Si O2"
_cell_formula_units_Z 56
_cell_length_a 15.556760
_cell_length_b 31.765618
_cell_length_c 5.322211
_cell_angle_alpha 90.000000
_cell_angle_beta 90.000000
_cell_angle_gamma 90.000000
_cell_volume 2630.077518
_symmetry_space_group_name_H-M "P M M A"
_symmetry_group_IT_number 51
_symmetry_cell_setting 'orthorhombic'
loop_
_space_group_symop_operation_xyz
x,y,z
1/2-x,-y,z
1/2+x,-y,-z
-x,y,-z
-x,-y,-z
1/2+x,y,-z
1/2-x,y,z
x,-y,z
loop_
_atom_site_type_symbol
_atom_site_label
_atom_site_fract_x
_atom_site_fract_y
_atom_site_fract_z
Si Si1 0.057913 0.453277 0.249788
Si Si2 0.401007 0.049753 0.768882
Si Si3 0.853190 0.365553 0.687361
Si Si4 0.145507 0.682601 0.813466
Si Si5 0.151127 0.175649 0.397410
Si Si6 0.596637 0.914885 0.731980
Si Si7 0.097244 0.221602 0.909055
O O1 0.098712 0.500000 0.229165
O O2 0.119908 0.413831 0.283481
O O3 0.000000 0.453550 0.500000
O O4 0.000000 0.447604 0.000000
O O5 0.361067 0.062012 0.503755
O O6 0.499529 0.066829 0.750443
O O7 0.402187 0.000000 0.808553
O O8 0.360989 0.073504 0.004549
O O9 0.750000 0.363243 0.682492
O O10 0.884528 0.342934 0.432545
O O11 0.883601 0.340629 0.933332
O O12 0.250000 0.682838 0.809205
O O13 0.115781 0.730577 0.828333
O O14 0.250000 0.163065 0.435843
O O15 0.097793 0.134555 0.317922
O O16 0.117345 0.194390 0.660301
O O17 0.148103 0.207609 0.160452
O O18 0.000000 0.217012 0.000000
#
# Coordination Sequence:
#
# PCOD9402235 Si02
#       7
#     8   8   8   8   8   8   8
#     4  10  21  37  57  86 122 162 201 252 313 363
#     4  10  19  34  60  91 123 159 202 253 306 355
#     4  10  21  37  62  89 117 160 205 249 301 375
#     4  10  21  40  62  88 123 160 200 248 318 377
#     4  12  26  44  65  91 131 173 207 254 330 385
#     4  10  20  33  58  86 118 158 203 242 296 365
#     4  12  27  43  67  95 125 160 218 272 312 373
#
# _framework density 21.292147
#
# number of rings (size 3 to 8) (size 9 to 14) (size 15 to 20)
#    0.000    1.429    0.000    6.429    6.000    3.143 
#    0.000    0.000    0.000    9.857    0.000    0.000 
#    0.000    0.000    0.000    0.000    0.000    0.000 
#
# Total GULP energy -312956.045597 kJ/mol
# GULP energy per Si atom -5588.500814 kJ/mol
# Density = 2.124369 g / cm^3
# Si number density = 21.292147 Si / 1000 Ang^3
#
#
#
# Elastic Constant Matrix: (Units=GPa)
#
#
# Indices 1 2 3 4 5 6 
#
# 1 27.7879 10.1608 18.5552 0.0000 0.0000 0.0000
# 2 10.1608 131.8170 58.9541 0.0000 0.0000 0.0000
# 3 18.5552 58.9541 213.0469 0.0000 0.0000 0.0000
# 4 0.0000 0.0000 0.0000 45.0963 0.0000 0.0000
# 5 0.0000 0.0000 0.0000 0.0000 2.5639 0.0000
# 6 0.0000 0.0000 0.0000 0.0000 0.0000 1575.5183
#
#
#
# Elastic Compliance Matrix: (Units=1/GPa)
#
#
# Indices 1 2 3 4 5 6 
#
# 1 0.038531 -0.001677 -0.002892 0.000000 0.000000 0.000000
# 2 -0.001677 0.008731 -0.002270 0.000000 0.000000 0.000000
# 3 -0.002892 -0.002270 0.005574 0.000000 0.000000 0.000000
# 4 0.000000 0.000000 0.000000 0.022175 0.000000 0.000000
# 5 0.000000 0.000000 0.000000 0.000000 0.390032 0.000000
# 6 0.000000 0.000000 0.000000 0.000000 0.000000 0.000635
#
#
# Mechanical properties :
#
#
# Convention : Reuss Voigt Hill
#
# Bulk Modulus (GPa) = 25.53718 60.88797 43.21257
# Shear Modulus (GPa) = 10.15421 343.63448 176.89435
#
# Velocity S-wave (km/s) = 2.18617 12.71773 9.12469
# Velocity P-wave (km/s) = 4.28861 15.63050 11.46091
#
# Compressibility (1/GPa) = 0.03915860
#
# Stress axis : x y z
#
# Youngs Moduli (GPa) = 25.95310 114.53806 179.41095
#
# Poissons Ratio (x) = 0.19205 0.51883
# Poissons Ratio (y) = 0.04352 0.40725
# Poissons Ratio (z) = 0.07505 0.25999
#
# Static dielectric constant tensor:
#      x y z
#    x 1.752690 0.000000 0.000000 
#    y 0.000000 1.745720 0.000000 
#    z 0.000000 0.000000 1.798890 
# 
# From -- ./inp_files/1482.got.cif
#   From: 2010.05.17/outbox.cif.g08.bks.cpg/sg51_1_cif.got.tgz:1482.got - 2010.06.03 11:52:47.
