data_PCOD9402649
_publ_section_title
;
Structure prediction by ZEFSAII (Michael W. Deem and Ramdas Pophale) SiO2 
 PCOD9402649
Probable space group: P M M A
;
_chemical_formula_sum "Si O2"
_cell_formula_units_Z 64
_cell_length_a 8.755003
_cell_length_b 15.030465
_cell_length_c 29.510923
_cell_angle_alpha 90.000000
_cell_angle_beta 90.000000
_cell_angle_gamma 90.000000
_cell_volume 3883.394479
_symmetry_space_group_name_H-M "P M M A"
_symmetry_group_IT_number 51
_symmetry_cell_setting 'orthorhombic'
loop_
_space_group_symop_operation_xyz
x,y,z
1/2-x,-y,z
1/2+x,-y,-z
-x,y,-z
-x,-y,-z
1/2+x,y,-z
1/2-x,y,z
x,-y,z
loop_
_atom_site_type_symbol
_atom_site_label
_atom_site_fract_x
_atom_site_fract_y
_atom_site_fract_z
Si Si1 0.568796 0.105183 0.194229
Si Si2 0.067513 0.896807 0.642896
Si Si3 0.574906 0.108042 0.546867
Si Si4 0.934107 0.100830 0.904850
Si Si5 0.065877 0.277083 0.047907
Si Si6 0.064518 0.397412 0.131577
Si Si7 0.936217 0.398432 0.765597
Si Si8 0.932795 0.782363 0.724063
O O1 0.750000 0.121429 0.196218
O O2 0.506006 0.122837 0.143921
O O3 0.483891 0.163262 0.231530
O O4 0.543119 0.000000 0.203358
O O5 0.250000 0.896284 0.645093
O O6 0.013955 0.869085 0.592707
O O7 0.001627 0.831984 0.680833
O O8 0.016602 0.000000 0.650546
O O9 0.500000 0.139575 0.500000
O O10 0.750000 0.137178 0.549907
O O11 0.574019 0.000000 0.544997
O O12 0.750000 0.103672 0.899900
O O13 0.978283 0.175387 0.940907
O O14 0.978585 0.000000 0.917023
O O15 0.250000 0.282406 0.046075
O O16 0.011998 0.335151 0.090844
O O17 0.000000 0.306491 0.000000
O O18 0.250000 0.392368 0.132054
O O19 0.023104 0.500000 0.123107
O O20 0.014874 0.374874 0.182800
O O21 0.750000 0.399344 0.765834
O O22 0.985092 0.500000 0.755640
O O23 0.983967 0.319843 0.732011
O O24 0.750000 0.783627 0.720682
#
# Coordination Sequence:
#
# PCOD9402649 Si02
#       8
#     8   8   8   8   8   8   8   8
#     4  10  20  32  46  66  92 121 151 183 222 269
#     4  10  20  32  44  62  94 134 171 205 240 277
#     4   9  16  27  44  65  90 124 167 210 248 285
#     4   9  18  33  50  65  82 108 145 184 215 250
#     4  10  20  32  46  66  89 111 137 170 211 258
#     4   8  14  27  47  67  86 109 137 170 210 259
#     4   8  15  29  49  71  91 113 147 189 229 272
#     4  11  20  29  46  70  95 124 156 191 232 277
#
# _framework density 16.480426999999999
#
# number of rings (size 3 to 8) (size 9 to 14) (size 15 to 20)
#    0.000    2.625    0.000    3.375    0.000    7.500 
#    0.000    0.000    0.000    1.500    0.000    3.500 
#    0.000    0.500    0.000    1.375    0.000    2.000 
#
# Total GULP energy -356820.804911 kJ/mol
# GULP energy per Si atom -5575.325077 kJ/mol
# Density = 1.644292 g / cm^3
# Si number density = 16.480427 Si / 1000 Ang^3
#
#
#
# Elastic Constant Matrix: (Units=GPa)
#
#
# Indices 1 2 3 4 5 6 
#
# 1 25.1367 24.1771 21.8104 0.0000 0.0000 0.0000
# 2 24.1771 76.9899 69.2712 0.0000 0.0000 0.0000
# 3 21.8104 69.2712 94.0758 0.0000 0.0000 0.0000
# 4 0.0000 0.0000 0.0000 17.9195 0.0000 0.0000
# 5 0.0000 0.0000 0.0000 0.0000 27.4742 0.0000
# 6 0.0000 0.0000 0.0000 0.0000 0.0000 6.1171
#
#
#
# Elastic Compliance Matrix: (Units=1/GPa)
#
#
# Indices 1 2 3 4 5 6 
#
# 1 0.056999 -0.017807 -0.000103 0.000000 0.000000 0.000000
# 2 -0.017807 0.044050 -0.028307 0.000000 0.000000 0.000000
# 3 -0.000103 -0.028307 0.031497 0.000000 0.000000 0.000000
# 4 0.000000 0.000000 0.000000 0.055805 0.000000 0.000000
# 5 0.000000 0.000000 0.000000 0.000000 0.036398 0.000000
# 6 0.000000 0.000000 0.000000 0.000000 0.000000 0.163477
#
#
# Mechanical properties :
#
#
# Convention : Reuss Voigt Hill
#
# Bulk Modulus (GPa) = 24.93006 47.41331 36.17169
# Shear Modulus (GPa) = 10.12088 15.69839 12.90963
#
# Velocity S-wave (km/s) = 2.48082 3.08969 2.80184
# Velocity P-wave (km/s) = 4.83383 6.44671 5.69763
#
# Compressibility (1/GPa) = 0.04011221
#
# Stress axis : x y z
#
# Youngs Moduli (GPa) = 17.54425 22.70168 31.74921
#
# Poissons Ratio (x) = 0.40425 0.00326
# Poissons Ratio (y) = 0.31241 0.89872
# Poissons Ratio (z) = 0.00180 0.64261
#
# Static dielectric constant tensor:
#      x y z
#    x 1.562740 0.000000 0.000000 
#    y 0.000000 1.567230 0.000000 
#    z 0.000000 0.000000 1.533810 
# 
# From -- ./inp_files/37596.got.cif
#   From: 2010.05.17/outbox.cif.g08.bks.cpg/sg51_19_cif.got.tgz:37596.got - 2010.06.03 11:52:47.
