data_PCOD9402774
_publ_section_title
;
Structure prediction by ZEFSAII (Michael W. Deem and Ramdas Pophale) SiO2 
 PCOD9402774
Probable space group: P M M A
;
_chemical_formula_sum "Si O2"
_cell_formula_units_Z 40
_cell_length_a 7.891214
_cell_length_b 14.284296
_cell_length_c 19.403044
_cell_angle_alpha 90.000000
_cell_angle_beta 90.000000
_cell_angle_gamma 90.000000
_cell_volume 2187.119591
_symmetry_space_group_name_H-M "P M M A"
_symmetry_group_IT_number 51
_symmetry_cell_setting 'orthorhombic'
loop_
_space_group_symop_operation_xyz
x,y,z
1/2-x,-y,z
1/2+x,-y,-z
-x,y,-z
-x,-y,-z
1/2+x,y,-z
1/2-x,y,z
x,-y,z
loop_
_atom_site_type_symbol
_atom_site_label
_atom_site_fract_x
_atom_site_fract_y
_atom_site_fract_z
Si Si1 0.048831 0.106025 0.576240
Si Si2 0.457471 0.395139 0.214580
Si Si3 0.542777 0.104940 0.852040
Si Si4 0.453163 0.292562 0.076978
Si Si5 0.547061 0.208419 0.714256
O O1 0.250000 0.099566 0.578247
O O2 0.000000 0.139834 0.500000
O O3 0.995801 0.170728 0.639329
O O4 0.977390 0.000000 0.584541
O O5 0.250000 0.396397 0.215472
O O6 0.515634 0.500000 0.229942
O O7 0.510291 0.361475 0.138052
O O8 0.513483 0.312715 0.266196
O O9 0.750000 0.103460 0.853070
O O10 0.486863 0.187461 0.903506
O O11 0.489693 0.138461 0.775414
O O12 0.483986 0.000000 0.867457
O O13 0.250000 0.290664 0.081126
O O14 0.500000 0.319666 0.000000
O O15 0.750000 0.210725 0.719614
#
# Coordination Sequence:
#
# PCOD9402774 Si02
#       5
#     8   8   8   8   8
#     4  10  20  32  47  70 100 129 152 177 213 258
#     4   8  15  29  48  68  89 116 151 188 230 280
#     4   8  14  25  41  60  83 114 150 183 219 269
#     4   9  17  28  42  61  85 114 148 186 227 270
#     4   9  16  28  49  71  89 115 152 192 228 264
#
# _framework density 18.288893999999999
#
# number of rings (size 3 to 8) (size 9 to 14) (size 15 to 20)
#    0.000    3.200    0.000    3.600    0.000    2.800 
#    0.000    4.000    0.000    3.600    0.000    0.000 
#    0.000    0.000    0.000    0.000    0.000    0.000 
#
# Total GULP energy -222889.012481 kJ/mol
# GULP energy per Si atom -5572.225312 kJ/mol
# Density = 1.824727 g / cm^3
# Si number density = 18.288894 Si / 1000 Ang^3
#
#
#
# Elastic Constant Matrix: (Units=GPa)
#
#
# Indices 1 2 3 4 5 6 
#
# 1 13.1344 6.2829 -0.9577 0.0000 0.0000 0.0000
# 2 6.2829 86.4356 33.5649 0.0000 0.0000 0.0000
# 3 -0.9577 33.5649 111.5681 0.0000 0.0000 0.0000
# 4 0.0000 0.0000 0.0000 14.3822 0.0000 0.0000
# 5 0.0000 0.0000 0.0000 0.0000 22.6973 0.0000
# 6 0.0000 0.0000 0.0000 0.0000 0.0000 6.6614
#
#
#
# Elastic Compliance Matrix: (Units=1/GPa)
#
#
# Indices 1 2 3 4 5 6 
#
# 1 0.079614 -0.006853 0.002745 0.000000 0.000000 0.000000
# 2 -0.006853 0.013690 -0.004177 0.000000 0.000000 0.000000
# 3 0.002745 -0.004177 0.010243 0.000000 0.000000 0.000000
# 4 0.000000 0.000000 0.000000 0.069530 0.000000 0.000000
# 5 0.000000 0.000000 0.000000 0.000000 0.044058 0.000000
# 6 0.000000 0.000000 0.000000 0.000000 0.000000 0.150118
#
#
# Mechanical properties :
#
#
# Convention : Reuss Voigt Hill
#
# Bulk Modulus (GPa) = 11.49733 32.10204 21.79969
# Shear Modulus (GPa) = 12.11194 20.23139 16.17166
#
# Velocity S-wave (km/s) = 2.57623 3.32958 2.97683
# Velocity P-wave (km/s) = 3.89222 5.68967 4.87451
#
# Compressibility (1/GPa) = 0.08697671
#
# Stress axis : x y z
#
# Youngs Moduli (GPa) = 12.56058 73.04819 97.62355
#
# Poissons Ratio (x) = 0.50060 -0.26799
# Poissons Ratio (y) = 0.08608 0.40780
# Poissons Ratio (z) = -0.03448 0.30514
#
# Static dielectric constant tensor:
#      x y z
#    x 1.662710 0.000000 0.000000 
#    y 0.000000 1.646210 0.000000 
#    z 0.000000 0.000000 1.631180 
# 
# From -- ./inp_files/27209.got.cif
#   From: 2010.05.17/outbox.cif.g08.bks.cpg/sg51_14_cif.got.tgz:27209.got - 2010.06.03 11:52:47.
