data_PCOD9402897
_publ_section_title
;
Structure prediction by ZEFSAII (Michael W. Deem and Ramdas Pophale) SiO2 
 PCOD9402897
Probable space group: P M M A
;
_chemical_formula_sum "Si O2"
_cell_formula_units_Z 56
_cell_length_a 20.380210
_cell_length_b 7.556695
_cell_length_c 16.296935
_cell_angle_alpha 90.000000
_cell_angle_beta 90.000000
_cell_angle_gamma 90.000000
_cell_volume 2509.842574
_symmetry_space_group_name_H-M "P M M A"
_symmetry_group_IT_number 51
_symmetry_cell_setting 'orthorhombic'
loop_
_space_group_symop_operation_xyz
x,y,z
1/2-x,-y,z
1/2+x,-y,-z
-x,y,-z
-x,-y,-z
1/2+x,y,-z
1/2-x,y,z
x,-y,z
loop_
_atom_site_type_symbol
_atom_site_label
_atom_site_fract_x
_atom_site_fract_y
_atom_site_fract_z
Si Si1 0.823859 0.713106 0.974552
Si Si2 0.177467 0.209540 0.676688
Si Si3 0.539615 0.293812 0.251179
Si Si4 0.677193 0.286269 0.516022
Si Si5 0.448968 0.283172 0.930136
Si Si6 0.575812 0.701812 0.645552
Si Si7 0.325502 0.209720 0.213549
O O1 0.750000 0.780534 0.987671
O O2 0.821976 0.500000 0.979015
O O3 0.843870 0.758227 0.881295
O O4 0.877166 0.774718 0.039901
O O5 0.250000 0.278535 0.700097
O O6 0.115211 0.286189 0.723037
O O7 0.169585 0.242263 0.579448
O O8 0.177048 0.000000 0.690743
O O9 0.520108 0.500000 0.245447
O O10 0.532523 0.218044 0.160088
O O11 0.491294 0.215539 0.320074
O O12 0.750000 0.223584 0.542631
O O13 0.677683 0.500000 0.523776
O O14 0.618099 0.216553 0.571824
O O15 0.448670 0.500000 0.927465
O O16 0.500000 0.230658 0.000000
O O17 0.560655 0.500000 0.619292
O O18 0.625254 0.701953 0.723030
O O19 0.250000 0.271742 0.223707
O O20 0.327159 0.000000 0.228840
#
# Coordination Sequence:
#
# PCOD9402897 Si02
#       7
#     8   8   8   8   8   8   8
#     4   9  17  30  49  71  95 128 173 222 268 315
#     4  10  22  40  59  79 107 143 181 221 267 319
#     4  10  21  36  57  84 110 139 176 221 271 319
#     4   9  18  34  57  82 107 139 179 220 261 309
#     4   9  17  31  52  77 104 134 172 218 266 315
#     4  10  20  34  54  81 111 142 178 219 265 319
#     4  10  20  32  48  74 108 144 180 219 266 319
#
# _framework density 22.312156000000002
#
# number of rings (size 3 to 8) (size 9 to 14) (size 15 to 20)
#    0.000    2.429    0.000    2.143    0.000    6.857 
#    0.000    6.429    0.000    3.429    0.000    0.000 
#    0.000    0.000    0.000    0.000    0.000    0.000 
#
# Total GULP energy -312782.312250 kJ/mol
# GULP energy per Si atom -5585.398433 kJ/mol
# Density = 2.226137 g / cm^3
# Si number density = 22.312156 Si / 1000 Ang^3
#
#
#
# Elastic Constant Matrix: (Units=GPa)
#
#
# Indices 1 2 3 4 5 6 
#
# 1 92.8556 -3.8297 40.6442 0.0000 0.0000 0.0000
# 2 -3.8297 57.8502 -7.1550 0.0000 0.0000 0.0000
# 3 40.6442 -7.1550 57.5731 0.0000 0.0000 0.0000
# 4 0.0000 0.0000 0.0000 187.8127 0.0000 0.0000
# 5 0.0000 0.0000 0.0000 0.0000 38.0107 0.0000
# 6 0.0000 0.0000 0.0000 0.0000 0.0000 0.3525
#
#
#
# Elastic Compliance Matrix: (Units=1/GPa)
#
#
# Indices 1 2 3 4 5 6 
#
# 1 0.015592 -0.000334 -0.011049 0.000000 0.000000 0.000000
# 2 -0.000334 0.017563 0.002419 0.000000 0.000000 0.000000
# 3 -0.011049 0.002419 0.025470 0.000000 0.000000 0.000000
# 4 0.000000 0.000000 0.000000 0.005324 0.000000 0.000000
# 5 0.000000 0.000000 0.000000 0.000000 0.026308 0.000000
# 6 0.000000 0.000000 0.000000 0.000000 0.000000 2.837276
#
#
# Mechanical properties :
#
#
# Convention : Reuss Voigt Hill
#
# Bulk Modulus (GPa) = 24.57251 29.73312 27.15281
# Shear Modulus (GPa) = 1.68974 57.14314 29.41644
#
# Velocity S-wave (km/s) = 0.87119 5.06620 3.63492
# Velocity P-wave (km/s) = 3.47116 6.89759 5.46011
#
# Compressibility (1/GPa) = 0.04069589
#
# Stress axis : x y z
#
# Youngs Moduli (GPa) = 64.13630 56.93777 39.26229
#
# Poissons Ratio (x) = 0.01904 0.43380
# Poissons Ratio (y) = 0.02144 -0.09496
# Poissons Ratio (z) = 0.70862 -0.13772
#
# Static dielectric constant tensor:
#      x y z
#    x 1.842720 0.000000 0.000000 
#    y 0.000000 1.867380 0.000000 
#    z 0.000000 0.000000 1.784400 
# 
# From -- ./inp_files/25725.got.cif
#   From: 2010.05.17/outbox.cif.g08.bks.cpg/sg51_13_cif.got.tgz:25725.got - 2010.06.03 11:52:47.
