data_PCOD9402840
_publ_section_title
;
Structure prediction by ZEFSAII (Michael W. Deem and Ramdas Pophale) SiO2 
 PCOD9402840
Probable space group: P M M A
;
_chemical_formula_sum "Si O2"
_cell_formula_units_Z 48
_cell_length_a 8.949417
_cell_length_b 18.205117
_cell_length_c 18.222071
_cell_angle_alpha 90.000000
_cell_angle_beta 90.000000
_cell_angle_gamma 90.000000
_cell_volume 2968.834263
_symmetry_space_group_name_H-M "P M M A"
_symmetry_group_IT_number 51
_symmetry_cell_setting 'orthorhombic'
loop_
_space_group_symop_operation_xyz
x,y,z
1/2-x,-y,z
1/2+x,-y,-z
-x,y,-z
-x,-y,-z
1/2+x,y,-z
1/2-x,y,z
x,-y,z
loop_
_atom_site_type_symbol
_atom_site_label
_atom_site_fract_x
_atom_site_fract_y
_atom_site_fract_z
Si Si1 0.583463 0.083735 0.171658
Si Si2 0.575712 0.813488 0.922052
Si Si3 0.928984 0.083321 0.580724
Si Si4 0.570117 0.303506 0.187286
Si Si5 0.422240 0.194193 0.691475
Si Si6 0.074080 0.411804 0.078121
O O1 0.750000 0.093843 0.138309
O O2 0.458834 0.108270 0.114640
O O3 0.577006 0.135403 0.242216
O O4 0.567575 0.000000 0.193811
O O5 0.750000 0.797581 0.924889
O O6 0.491120 0.756587 0.869670
O O7 0.500000 0.809706 0.000000
O O8 0.750000 0.085935 0.576364
O O9 0.000000 0.088802 0.500000
O O10 0.985671 0.151937 0.629165
O O11 0.969340 0.000000 0.608860
O O12 0.750000 0.306710 0.186079
O O13 0.527447 0.270249 0.267914
O O14 0.501802 0.376541 0.150401
O O15 0.250000 0.204082 0.667283
O O16 0.250000 0.392922 0.076524
O O17 0.059656 0.500000 0.081151
O O18 0.000000 0.387692 0.000000
#
# Coordination Sequence:
#
# PCOD9402840 Si02
#       6
#     8   8   8   8   8   8
#     4   9  18  32  47  62  82 110 145 186 232 278
#     4  11  21  32  45  60  81 110 147 190 233 276
#     4  10  20  32  48  71  98 128 161 197 237 282
#     4  10  20  34  50  68  92 122 155 190 232 281
#     4   9  18  32  49  68  91 120 152 188 231 278
#     4  10  20  33  50  73 100 129 161 198 240 285
#
# _framework density 16.167963
#
# number of rings (size 3 to 8) (size 9 to 14) (size 15 to 20)
#    0.000    2.167    0.000    5.000    0.000    6.667 
#    0.000    0.000    0.000    0.000    0.000    0.000 
#    0.000    0.667    0.000    2.167    0.000    3.167 
#
# Total GULP energy -267313.734844 kJ/mol
# GULP energy per Si atom -5569.036143 kJ/mol
# Density = 1.613116 g / cm^3
# Si number density = 16.167963 Si / 1000 Ang^3
#
#
#
# Elastic Constant Matrix: (Units=GPa)
#
#
# Indices 1 2 3 4 5 6 
#
# 1 74.7592 30.8998 40.8060 0.0000 0.0000 0.0000
# 2 30.8998 55.3526 24.1220 0.0000 0.0000 0.0000
# 3 40.8060 24.1220 66.4005 0.0000 0.0000 0.0000
# 4 0.0000 0.0000 0.0000 28.9568 0.0000 0.0000
# 5 0.0000 0.0000 0.0000 0.0000 26.5347 0.0000
# 6 0.0000 0.0000 0.0000 0.0000 0.0000 25.3384
#
#
#
# Elastic Compliance Matrix: (Units=1/GPa)
#
#
# Indices 1 2 3 4 5 6 
#
# 1 0.022658 -0.007818 -0.011084 0.000000 0.000000 0.000000
# 2 -0.007818 0.024162 -0.003973 0.000000 0.000000 0.000000
# 3 -0.011084 -0.003973 0.023315 0.000000 0.000000 0.000000
# 4 0.000000 0.000000 0.000000 0.034534 0.000000 0.000000
# 5 0.000000 0.000000 0.000000 0.000000 0.037687 0.000000
# 6 0.000000 0.000000 0.000000 0.000000 0.000000 0.039466
#
#
# Mechanical properties :
#
#
# Convention : Reuss Voigt Hill
#
# Bulk Modulus (GPa) = 41.00978 43.12976 42.06977
# Shear Modulus (GPa) = 21.21351 22.87827 22.04589
#
# Velocity S-wave (km/s) = 3.62618 3.76578 3.69664
# Velocity P-wave (km/s) = 6.55379 6.75589 6.65561
#
# Compressibility (1/GPa) = 0.02438443
#
# Stress axis : x y z
#
# Youngs Moduli (GPa) = 44.13521 41.38782 42.89090
#
# Poissons Ratio (x) = 0.32357 0.47540
# Poissons Ratio (y) = 0.34505 0.17040
# Poissons Ratio (z) = 0.48919 0.16443
#
# Static dielectric constant tensor:
#      x y z
#    x 1.558300 0.000000 0.000000 
#    y 0.000000 1.600490 0.000000 
#    z 0.000000 0.000000 1.531640 
# 
# From -- ./inp_files/27827.got.cif
#   From: 2010.05.17/outbox.cif.g08.bks.cpg/sg51_14_cif.got.tgz:27827.got - 2010.06.03 11:52:47.
