data_PCOD9402488
_publ_section_title
;
Structure prediction by ZEFSAII (Michael W. Deem and Ramdas Pophale) SiO2 
 PCOD9402488
Probable space group: P M M A
;
_chemical_formula_sum "Si O2"
_cell_formula_units_Z 26
_cell_length_a 11.904483
_cell_length_b 7.400172
_cell_length_c 15.250132
_cell_angle_alpha 90.000000
_cell_angle_beta 90.000000
_cell_angle_gamma 90.000000
_cell_volume 1343.463761
_symmetry_space_group_name_H-M "P M M A"
_symmetry_group_IT_number 51
_symmetry_cell_setting 'orthorhombic'
loop_
_space_group_symop_operation_xyz
x,y,z
1/2-x,-y,z
1/2+x,-y,-z
-x,y,-z
-x,-y,-z
1/2+x,y,-z
1/2-x,y,z
x,-y,z
loop_
_atom_site_type_symbol
_atom_site_label
_atom_site_fract_x
_atom_site_fract_y
_atom_site_fract_z
Si Si1 0.250000 0.000000 0.180169
Si Si2 0.250000 0.205468 0.350279
Si Si3 0.504610 0.295021 0.596357
Si Si4 0.495915 0.000000 0.104399
Si Si5 0.116111 0.716574 0.772684
O O1 0.250000 0.828783 0.246130
O O2 0.364910 0.000000 0.128654
O O3 0.364856 0.296110 0.377908
O O4 0.250000 0.000000 0.387427
O O5 0.500000 0.208919 0.500000
O O6 0.460448 0.500000 0.586281
O O7 0.436475 0.219801 0.679365
O O8 0.556199 0.828315 0.150350
O O9 0.500000 0.000000 0.000000
O O10 0.250000 0.746292 0.773599
O O11 0.095758 0.500000 0.780731
#
# Coordination Sequence:
#
# PCOD9402488 Si02
#       5
#     2   4   8   4   8
#     4  10  22  42  58  92 118 152 208 256 300 376
#     4  10  19  37  56  79 124 151 198 253 296 355
#     4  10  21  36  58  86 120 163 204 242 292 355
#     4  12  25  44  69  90 121 158 205 257 316 368
#     4  10  22  42  63  91 128 163 204 251 304 366
#
# _framework density 19.352958999999998
#
# number of rings (size 3 to 8) (size 9 to 14) (size 15 to 20)
#    0.462    1.231    3.077    0.923    4.308    1.231 
#    0.000    0.769    0.000    0.000    0.000    0.000 
#    0.000    0.000    0.000    0.000    0.000    0.000 
#
# Total GULP energy -144975.703881 kJ/mol
# GULP energy per Si atom -5575.988611 kJ/mol
# Density = 1.930891 g / cm^3
# Si number density = 19.352959 Si / 1000 Ang^3
#
#
#
# Elastic Constant Matrix: (Units=GPa)
#
#
# Indices 1 2 3 4 5 6 
#
# 1 163.9032 32.2665 93.7686 0.0000 0.0000 0.0000
# 2 32.2665 91.6053 47.7894 0.0000 0.0000 0.0000
# 3 93.7686 47.7894 215.6150 0.0000 0.0000 0.0000
# 4 0.0000 0.0000 0.0000 53.3508 0.0000 0.0000
# 5 0.0000 0.0000 0.0000 0.0000 25.7857 0.0000
# 6 0.0000 0.0000 0.0000 0.0000 0.0000 269.5693
#
#
#
# Elastic Compliance Matrix: (Units=1/GPa)
#
#
# Indices 1 2 3 4 5 6 
#
# 1 0.008231 -0.001167 -0.003321 0.000000 0.000000 0.000000
# 2 -0.001167 0.012509 -0.002265 0.000000 0.000000 0.000000
# 3 -0.003321 -0.002265 0.006584 0.000000 0.000000 0.000000
# 4 0.000000 0.000000 0.000000 0.018744 0.000000 0.000000
# 5 0.000000 0.000000 0.000000 0.000000 0.038781 0.000000
# 6 0.000000 0.000000 0.000000 0.000000 0.000000 0.003710
#
#
# Mechanical properties :
#
#
# Convention : Reuss Voigt Hill
#
# Bulk Modulus (GPa) = 72.36668 90.97471 81.67069
# Shear Modulus (GPa) = 46.87352 89.56110 68.21731
#
# Velocity S-wave (km/s) = 4.92676 6.81015 5.94353
# Velocity P-wave (km/s) = 8.35692 10.43781 9.45479
#
# Compressibility (1/GPa) = 0.01381852
#
# Stress axis : x y z
#
# Youngs Moduli (GPa) = 121.49650 79.94212 151.87982
#
# Poissons Ratio (x) = 0.09327 0.50437
# Poissons Ratio (y) = 0.14175 0.34403
# Poissons Ratio (z) = 0.40347 0.18108
#
# Static dielectric constant tensor:
#      x y z
#    x 1.570970 0.000000 0.000000 
#    y 0.000000 1.741820 0.000000 
#    z 0.000000 0.000000 1.672760 
# 
# From -- ./inp_files/22695.got.cif
#   From: 2010.05.17/outbox.cif.g08.bks.cpg/sg51_12_cif.got.tgz:22695.got - 2010.06.03 11:52:47.
