data_PCOD9402332
_publ_section_title
;
Structure prediction by ZEFSAII (Michael W. Deem and Ramdas Pophale) SiO2 
 PCOD9402332
Probable space group: P M M A
;
_chemical_formula_sum "Si O2"
_cell_formula_units_Z 64
_cell_length_a 31.956604
_cell_length_b 7.562127
_cell_length_c 12.151684
_cell_angle_alpha 90.000000
_cell_angle_beta 90.000000
_cell_angle_gamma 90.000000
_cell_volume 2936.574715
_symmetry_space_group_name_H-M "P M M A"
_symmetry_group_IT_number 51
_symmetry_cell_setting 'orthorhombic'
loop_
_space_group_symop_operation_xyz
x,y,z
1/2-x,-y,z
1/2+x,-y,-z
-x,y,-z
-x,-y,-z
1/2+x,y,-z
1/2-x,y,z
x,-y,z
loop_
_atom_site_type_symbol
_atom_site_label
_atom_site_fract_x
_atom_site_fract_y
_atom_site_fract_z
Si Si1 0.545960 0.204793 0.010236
Si Si2 0.820190 0.286729 0.773046
Si Si3 0.541755 0.294558 0.554141
Si Si4 0.795329 0.714007 0.532656
Si Si5 0.582848 0.284861 0.775622
Si Si6 0.704299 0.791836 0.020295
Si Si7 0.122981 0.782520 0.847174
Si Si8 0.380297 0.206852 0.595381
O O1 0.565835 0.213664 0.889762
O O2 0.540014 0.000000 0.044217
O O3 0.500000 0.287362 0.000000
O O4 0.580438 0.279406 0.093653
O O5 0.817667 0.500000 0.775743
O O6 0.798807 0.228013 0.660010
O O7 0.868730 0.234808 0.763980
O O8 0.802363 0.224413 0.889197
O O9 0.500000 0.215688 0.500000
O O10 0.531959 0.500000 0.577019
O O11 0.556583 0.219485 0.671033
O O12 0.581617 0.288947 0.473273
O O13 0.750000 0.770693 0.487664
O O14 0.796319 0.500000 0.532494
O O15 0.836139 0.772023 0.466493
O O16 0.581498 0.500000 0.778783
O O17 0.750000 0.715822 0.048940
O O18 0.705623 0.000000 0.046247
O O19 0.663830 0.720951 0.084968
O O20 0.123707 0.727073 0.720280
O O21 0.123121 0.000000 0.851293
O O22 0.390322 0.000000 0.601381
#
# Coordination Sequence:
#
# PCOD9402332 Si02
#       8
#     8   8   8   8   8   8   8   8
#     4  10  21  37  59  83 111 149 187 226 277 335
#     4  10  19  35  58  83 114 146 179 226 282 332
#     4  10  22  41  62  84 115 154 192 233 284 341
#     4  10  21  39  61  83 114 155 192 231 284 343
#     4  10  20  36  59  86 114 145 184 230 280 332
#     4  10  20  35  57  82 109 145 186 226 273 332
#     4   9  20  38  54  77 113 148 182 224 279 332
#     4  11  23  38  59  85 116 150 189 240 285 334
#
# _framework density 21.794098999999999
#
# number of rings (size 3 to 8) (size 9 to 14) (size 15 to 20)
#    0.000    2.000    2.500    0.750    1.750    3.000 
#    0.000    3.750    0.000    0.000    0.000    0.000 
#    0.000    0.000    0.000    0.000    0.000    0.000 
#
# Total GULP energy -357506.612118 kJ/mol
# GULP energy per Si atom -5586.040814 kJ/mol
# Density = 2.174449 g / cm^3
# Si number density = 21.794099 Si / 1000 Ang^3
#
#
#
# Elastic Constant Matrix: (Units=GPa)
#
#
# Indices 1 2 3 4 5 6 
#
# 1 108.9534 -12.8191 16.0703 0.0000 0.0000 0.0000
# 2 -12.8191 46.2111 -18.6681 0.0000 0.0000 0.0000
# 3 16.0703 -18.6681 101.3067 0.0000 0.0000 0.0000
# 4 0.0000 0.0000 0.0000 13.9237 0.0000 0.0000
# 5 0.0000 0.0000 0.0000 0.0000 62.7861 0.0000
# 6 0.0000 0.0000 0.0000 0.0000 0.0000 16.0863
#
#
#
# Elastic Compliance Matrix: (Units=1/GPa)
#
#
# Indices 1 2 3 4 5 6 
#
# 1 0.009603 0.002213 -0.001115 0.000000 0.000000 0.000000
# 2 0.002213 0.023890 0.004051 0.000000 0.000000 0.000000
# 3 -0.001115 0.004051 0.010795 0.000000 0.000000 0.000000
# 4 0.000000 0.000000 0.000000 0.071820 0.000000 0.000000
# 5 0.000000 0.000000 0.000000 0.000000 0.015927 0.000000
# 6 0.000000 0.000000 0.000000 0.000000 0.000000 0.062165
#
#
# Mechanical properties :
#
#
# Convention : Reuss Voigt Hill
#
# Bulk Modulus (GPa) = 18.31963 25.07082 21.69522
# Shear Modulus (GPa) = 24.74056 36.68508 30.71282
#
# Velocity S-wave (km/s) = 3.37292 4.10720 3.75804
# Velocity P-wave (km/s) = 4.85724 5.83272 5.36719
#
# Compressibility (1/GPa) = 0.05458626
#
# Stress axis : x y z
#
# Youngs Moduli (GPa) = 104.13218 41.85782 92.63969
#
# Poissons Ratio (x) = -0.09264 0.10334
# Poissons Ratio (y) = -0.23048 -0.37531
# Poissons Ratio (z) = 0.11616 -0.16958
#
# Static dielectric constant tensor:
#      x y z
#    x 1.789570 0.000000 0.000000 
#    y 0.000000 1.828510 0.000000 
#    z 0.000000 0.000000 1.748750 
# 
# From -- ./inp_files/19444.got.cif
#   From: 2010.05.17/outbox.cif.g08.bks.cpg/sg51_10_cif.got.tgz:19444.got - 2010.06.03 11:52:47.
