data_PCOD9402319
_publ_section_title
;
Structure prediction by ZEFSAII (Michael W. Deem and Ramdas Pophale) SiO2 
 PCOD9402319
Probable space group: P M M A
;
_chemical_formula_sum "Si O2"
_cell_formula_units_Z 48
_cell_length_a 29.066417
_cell_length_b 7.739828
_cell_length_c 10.244453
_cell_angle_alpha 90.000000
_cell_angle_beta 90.000000
_cell_angle_gamma 90.000000
_cell_volume 2304.685045
_symmetry_space_group_name_H-M "P M M A"
_symmetry_group_IT_number 51
_symmetry_cell_setting 'orthorhombic'
loop_
_space_group_symop_operation_xyz
x,y,z
1/2-x,-y,z
1/2+x,-y,-z
-x,y,-z
-x,-y,-z
1/2+x,y,-z
1/2-x,y,z
x,-y,z
loop_
_atom_site_type_symbol
_atom_site_label
_atom_site_fract_x
_atom_site_fract_y
_atom_site_fract_z
Si Si1 0.450657 0.209222 0.195993
Si Si2 0.199006 0.789129 0.381516
Si Si3 0.698619 0.208632 0.922440
Si Si4 0.101761 0.210825 0.462012
Si Si5 0.894814 0.305588 0.059108
Si Si6 0.951434 0.196574 0.289823
O O1 0.420020 0.252572 0.322044
O O2 0.427947 0.279922 0.065265
O O3 0.502217 0.271846 0.227092
O O4 0.450729 0.000000 0.180387
O O5 0.250000 0.732252 0.423372
O O6 0.192493 0.739121 0.229327
O O7 0.154774 0.730687 0.462464
O O8 0.199156 0.000000 0.383300
O O9 0.750000 0.263579 0.963440
O O10 0.656640 0.270793 0.009650
O O11 0.697461 0.000000 0.923644
O O12 0.070164 0.276089 0.579900
O O13 0.102462 0.000000 0.470981
O O14 0.898535 0.500000 0.106873
O O15 0.912853 0.192694 0.178374
O O16 0.964877 0.000000 0.326033
#
# Coordination Sequence:
#
# PCOD9402319 Si02
#       6
#     8   8   8   8   8   8
#     4  10  19  35  58  80 103 137 186 236 274 314
#     4   8  13  24  49  83 109 127 157 212 271 316
#     4   9  17  33  59  85 106 133 175 225 270 313
#     4   9  16  30  54  82 108 133 172 227 280 324
#     4  12  24  36  52  77 112 150 182 217 267 323
#     4  10  21  35  54  79 108 144 183 226 275 322
#
# _framework density 20.827141000000001
#
# number of rings (size 3 to 8) (size 9 to 14) (size 15 to 20)
#    0.000    2.333    1.667    3.500    0.000    5.000 
#    0.000    1.667    0.000    5.000    0.000    0.000 
#    0.000    0.000    0.000    0.000    0.000    0.000 
#
# Total GULP energy -267917.866347 kJ/mol
# GULP energy per Si atom -5581.622216 kJ/mol
# Density = 2.077974 g / cm^3
# Si number density = 20.827141 Si / 1000 Ang^3
#
#
#
# Elastic Constant Matrix: (Units=GPa)
#
#
# Indices 1 2 3 4 5 6 
#
# 1 92.2593 0.0286 -15.6178 0.0000 0.0000 0.0000
# 2 0.0286 38.5076 -6.5131 0.0000 0.0000 0.0000
# 3 -15.6178 -6.5131 28.1672 0.0000 0.0000 0.0000
# 4 0.0000 0.0000 0.0000 33.8858 0.0000 0.0000
# 5 0.0000 0.0000 0.0000 0.0000 4.1853 0.0000
# 6 0.0000 0.0000 0.0000 0.0000 0.0000 -2.0464
#
#
#
# Elastic Compliance Matrix: (Units=1/GPa)
#
#
# Indices 1 2 3 4 5 6 
#
# 1 0.012012 0.001163 0.006929 0.000000 0.000000 0.000000
# 2 0.001163 0.027138 0.006920 0.000000 0.000000 0.000000
# 3 0.006929 0.006920 0.040944 0.000000 0.000000 0.000000
# 4 0.000000 0.000000 0.000000 0.029511 0.000000 0.000000
# 5 0.000000 0.000000 0.000000 0.000000 0.238929 0.000000
# 6 0.000000 0.000000 0.000000 0.000000 0.000000 -0.488671
#
#
# Mechanical properties :
#
#
# Convention : Reuss Voigt Hill
#
# Bulk Modulus (GPa) = 9.08113 12.74773 10.91443
# Shear Modulus (GPa) = -37.46570 19.27406 -9.09582
#
# Velocity S-wave (km/s) = -4.24593 3.04539 -2.09207
# Velocity P-wave (km/s) = 4.43481 4.30115 0.76409
#
# Compressibility (1/GPa) = 0.11011847
#
# Stress axis : x y z
#
# Youngs Moduli (GPa) = 83.25285 36.84808 24.42345
#
# Poissons Ratio (x) = -0.04286 -0.16923
# Poissons Ratio (y) = -0.09683 -0.16901
# Poissons Ratio (z) = -0.57686 -0.25499
#
# Static dielectric constant tensor:
#      x y z
#    x 1.765060 0.000000 0.000000 
#    y 0.000000 1.893220 0.000000 
#    z 0.000000 0.000000 1.694840 
# 
# From -- ./inp_files/12799.got.cif
#   From: 2010.05.17/outbox.cif.g08.bks.cpg/sg51_7_cif.got.tgz:12799.got - 2010.06.03 11:52:47.
