data_PCOD9402025
_publ_section_title
;
Structure prediction by ZEFSAII (Michael W. Deem and Ramdas Pophale) SiO2 
 PCOD9402025
Probable space group: P M M A
;
_chemical_formula_sum "Si O2"
_cell_formula_units_Z 56
_cell_length_a 24.165005
_cell_length_b 7.669771
_cell_length_c 12.833964
_cell_angle_alpha 90.000000
_cell_angle_beta 90.000000
_cell_angle_gamma 90.000000
_cell_volume 2378.647588
_symmetry_space_group_name_H-M "P M M A"
_symmetry_group_IT_number 51
_symmetry_cell_setting 'orthorhombic'
loop_
_space_group_symop_operation_xyz
x,y,z
1/2-x,-y,z
1/2+x,-y,-z
-x,y,-z
-x,-y,-z
1/2+x,y,-z
1/2-x,y,z
x,-y,z
loop_
_atom_site_type_symbol
_atom_site_label
_atom_site_fract_x
_atom_site_fract_y
_atom_site_fract_z
Si Si1 0.308698 0.701603 0.404509
Si Si2 0.370057 0.290621 0.092603
Si Si3 0.250000 0.286500 0.042584
Si Si4 0.079029 0.710291 0.305293
Si Si5 0.547064 0.791997 0.076125
Si Si6 0.542488 0.792241 0.309850
Si Si7 0.750000 0.291675 0.199384
Si Si8 0.661102 0.792943 0.371716
O O1 0.250000 0.780597 0.370215
O O2 0.308327 0.500000 0.368650
O O3 0.366793 0.776445 0.365596
O O4 0.310823 0.706142 0.529151
O O5 0.369616 0.500000 0.099019
O O6 0.409729 0.228295 0.186235
O O7 0.306724 0.230114 0.097802
O O8 0.395480 0.240229 0.981840
O O9 0.250000 0.500000 0.042943
O O10 0.250000 0.230601 0.920722
O O11 0.078658 0.500000 0.306765
O O12 0.019544 0.763080 0.349721
O O13 0.543633 0.720063 0.191930
O O14 0.538795 0.000000 0.083610
O O15 0.500000 0.718537 0.000000
O O16 0.597855 0.726526 0.364992
O O17 0.550257 0.000000 0.304985
O O18 0.750000 0.500000 0.195902
O O19 0.803849 0.236392 0.266436
O O20 0.661573 0.000000 0.391404
#
# Coordination Sequence:
#
# PCOD9402025 Si02
#       8
#     8   8   4   8   8   8   4   8
#     4  10  22  41  63  86 113 150 193 237 293 349
#     4  10  20  35  56  84 116 151 191 234 278 329
#     4   9  20  35  54  83 118 150 183 229 282 333
#     4  10  22  37  58  87 116 150 194 240 283 340
#     4  10  19  34  56  79 112 154 190 226 274 333
#     4  10  22  39  58  84 118 156 191 233 290 344
#     4  11  21  37  60  87 118 152 187 231 290 345
#     4  11  23  39  62  88 114 147 192 241 288 342
#
# _framework density 23.542791000000001
#
# number of rings (size 3 to 8) (size 9 to 14) (size 15 to 20)
#    0.000    1.857    2.143    1.500    1.000    3.143 
#    0.000    3.929    0.000    0.000    0.000    0.000 
#    0.000    0.000    0.000    0.000    0.000    0.000 
#
# Total GULP energy -312901.856003 kJ/mol
# GULP energy per Si atom -5587.533143 kJ/mol
# Density = 2.348921 g / cm^3
# Si number density = 23.542791 Si / 1000 Ang^3
#
#
#
# Elastic Constant Matrix: (Units=GPa)
#
#
# Indices 1 2 3 4 5 6 
#
# 1 192.8537 -6.4768 17.3511 0.0000 0.0000 0.0000
# 2 -6.4768 46.0936 -4.8468 0.0000 0.0000 0.0000
# 3 17.3511 -4.8468 30.4687 0.0000 0.0000 0.0000
# 4 0.0000 0.0000 0.0000 -6.7016 0.0000 0.0000
# 5 0.0000 0.0000 0.0000 0.0000 39.4571 0.0000
# 6 0.0000 0.0000 0.0000 0.0000 0.0000 22.3730
#
#
#
# Elastic Compliance Matrix: (Units=1/GPa)
#
#
# Indices 1 2 3 4 5 6 
#
# 1 0.005474 0.000449 -0.003046 0.000000 0.000000 0.000000
# 2 0.000449 0.022101 0.003260 0.000000 0.000000 0.000000
# 3 -0.003046 0.003260 0.035074 0.000000 0.000000 0.000000
# 4 0.000000 0.000000 0.000000 -0.149218 0.000000 0.000000
# 5 0.000000 0.000000 0.000000 0.000000 0.025344 0.000000
# 6 0.000000 0.000000 0.000000 0.000000 0.000000 0.044697
#
#
# Mechanical properties :
#
#
# Convention : Reuss Voigt Hill
#
# Bulk Modulus (GPa) = 15.63113 31.27455 23.45284
# Shear Modulus (GPa) = 1440.33076 28.58493 734.45785
#
# Velocity S-wave (km/s) = 24.76128 3.48827 17.68175
# Velocity P-wave (km/s) = 28.70798 5.43480 20.66017
#
# Compressibility (1/GPa) = 0.06397490
#
# Stress axis : x y z
#
# Youngs Moduli (GPa) = 182.66785 45.24706 28.51125
#
# Poissons Ratio (x) = -0.02031 0.08685
# Poissons Ratio (y) = -0.08200 -0.09295
# Poissons Ratio (z) = 0.55643 -0.14751
#
# Static dielectric constant tensor:
#      x y z
#    x 1.935920 0.000000 0.000000 
#    y 0.000000 1.870170 0.000000 
#    z 0.000000 0.000000 1.881220 
# 
# From -- ./inp_files/25795.got.cif
#   From: 2010.05.17/outbox.cif.g08.bks.cpg/sg51_13_cif.got.tgz:25795.got - 2010.06.03 11:52:47.
