data_PCOD9402172
_publ_section_title
;
Structure prediction by ZEFSAII (Michael W. Deem and Ramdas Pophale) SiO2 
 PCOD9402172
Probable space group: P M M A
;
_chemical_formula_sum "Si O2"
_cell_formula_units_Z 64
_cell_length_a 15.405895
_cell_length_b 9.379745
_cell_length_c 24.798079
_cell_angle_alpha 90.000000
_cell_angle_beta 90.000000
_cell_angle_gamma 90.000000
_cell_volume 3583.405901
_symmetry_space_group_name_H-M "P M M A"
_symmetry_group_IT_number 51
_symmetry_cell_setting 'orthorhombic'
loop_
_space_group_symop_operation_xyz
x,y,z
1/2-x,-y,z
1/2+x,-y,-z
-x,y,-z
-x,-y,-z
1/2+x,y,-z
1/2-x,y,z
x,-y,z
loop_
_atom_site_type_symbol
_atom_site_label
_atom_site_fract_x
_atom_site_fract_y
_atom_site_fract_z
Si Si1 0.996764 0.328344 0.814060
Si Si2 0.649929 0.830713 0.879020
Si Si3 0.653156 0.329455 0.107469
Si Si4 0.104371 0.834428 0.999909
Si Si5 0.649617 0.670819 0.613540
Si Si6 0.147566 0.828025 0.614327
Si Si7 0.510228 0.671615 0.311365
Si Si8 0.144510 0.162579 0.493325
O O1 0.987904 0.500000 0.816988
O O2 0.079763 0.285731 0.850062
O O3 0.008284 0.289959 0.751584
O O4 0.913878 0.254584 0.840597
O O5 0.750000 0.810554 0.864149
O O6 0.636573 0.785918 0.941413
O O7 0.629726 0.000000 0.876977
O O8 0.750000 0.296069 0.127236
O O9 0.646684 0.500000 0.100532
O O10 0.638441 0.255724 0.050030
O O11 0.130317 0.000000 0.993120
O O12 0.000000 0.827332 0.000000
O O13 0.750000 0.714331 0.624642
O O14 0.649316 0.500000 0.607869
O O15 0.581215 0.708751 0.659941
O O16 0.620536 0.740998 0.557218
O O17 0.250000 0.793108 0.620826
O O18 0.087171 0.749940 0.657054
O O19 0.118885 0.788384 0.553183
O O20 0.140039 0.000000 0.618228
O O21 0.521420 0.500000 0.315443
O O22 0.250000 0.159431 0.494745
O O23 0.114429 0.000000 0.485040
#
# Coordination Sequence:
#
# PCOD9402172 Si02
#       8
#     8   8   8   8   8   8   8   8
#     4  10  22  39  56  76 106 143 184 226 266 312
#     4  10  21  37  57  82 111 141 176 220 267 316
#     4  10  21  36  55  80 109 141 178 221 267 316
#     4  10  19  34  58  84 111 142 173 212 265 322
#     4   9  18  33  52  75 105 138 174 219 267 316
#     4   9  19  36  56  79 108 140 174 216 265 318
#     4  10  22  37  54  78 105 140 183 224 266 312
#     4   8  15  30  52  77 105 136 171 212 263 322
#
# _framework density 17.860102999999999
#
# number of rings (size 3 to 8) (size 9 to 14) (size 15 to 20)
#    0.000    2.500    1.250    1.125    0.000    5.000 
#    0.000    6.250    0.000    1.500    0.000    0.000 
#    0.000    0.000    0.000    0.000    0.000    0.000 
#
# Total GULP energy -357064.376376 kJ/mol
# GULP energy per Si atom -5579.130881 kJ/mol
# Density = 1.781945 g / cm^3
# Si number density = 17.860103 Si / 1000 Ang^3
#
#
#
# Elastic Constant Matrix: (Units=GPa)
#
#
# Indices 1 2 3 4 5 6 
#
# 1 84.3156 32.0147 55.0607 0.0000 0.0000 0.0000
# 2 32.0147 16.9107 38.8275 0.0000 0.0000 0.0000
# 3 55.0607 38.8275 130.5341 0.0000 0.0000 0.0000
# 4 0.0000 0.0000 0.0000 -112.2543 0.0000 0.0000
# 5 0.0000 0.0000 0.0000 0.0000 -47.7865 0.0000
# 6 0.0000 0.0000 0.0000 0.0000 0.0000 25.7033
#
#
#
# Elastic Compliance Matrix: (Units=1/GPa)
#
#
# Indices 1 2 3 4 5 6 
#
# 1 0.064579 -0.188348 0.028784 0.000000 0.000000 0.000000
# 2 -0.188348 0.735842 -0.139430 0.000000 0.000000 0.000000
# 3 0.028784 -0.139430 0.036993 0.000000 0.000000 0.000000
# 4 0.000000 0.000000 0.000000 -0.008908 0.000000 0.000000
# 5 0.000000 0.000000 0.000000 0.000000 -0.020926 0.000000
# 6 0.000000 0.000000 0.000000 0.000000 0.000000 0.038905
#
#
# Mechanical properties :
#
#
# Convention : Reuss Voigt Hill
#
# Bulk Modulus (GPa) = 4.17664 53.72958 28.95311
# Shear Modulus (GPa) = 3.28024 -19.81033 -8.26504
#
# Velocity S-wave (km/s) = 1.35669 -3.33407 -2.15353
# Velocity P-wave (km/s) = 2.19038 3.91504 3.17217
#
# Compressibility (1/GPa) = 0.23942683
#
# Stress axis : x y z
#
# Youngs Moduli (GPa) = 15.48487 1.35899 27.03224
#
# Poissons Ratio (x) = 0.25596 -0.77810
# Poissons Ratio (y) = 2.91654 3.76909
# Poissons Ratio (z) = -0.44572 0.18948
#
# Static dielectric constant tensor:
#      x y z
#    x 1.621780 0.000000 0.000000 
#    y 0.000000 1.596100 0.000000 
#    z 0.000000 0.000000 1.584010 
# 
# From -- ./inp_files/35679.got.cif
#   From: 2010.05.17/outbox.cif.g08.bks.cpg/sg51_18_cif.got.tgz:35679.got - 2010.06.03 11:52:47.
