data_PCOD9402463
_publ_section_title
;
Structure prediction by ZEFSAII (Michael W. Deem and Ramdas Pophale) SiO2 
 PCOD9402463
Probable space group: P M M A
;
_chemical_formula_sum "Si O2"
_cell_formula_units_Z 58
_cell_length_a 18.863441
_cell_length_b 14.719485
_cell_length_c 11.050437
_cell_angle_alpha 90.000000
_cell_angle_beta 90.000000
_cell_angle_gamma 90.000000
_cell_volume 3068.265850
_symmetry_space_group_name_H-M "P M M A"
_symmetry_group_IT_number 51
_symmetry_cell_setting 'orthorhombic'
loop_
_space_group_symop_operation_xyz
x,y,z
1/2-x,-y,z
1/2+x,-y,-z
-x,y,-z
-x,-y,-z
1/2+x,y,-z
1/2-x,y,z
x,-y,z
loop_
_atom_site_type_symbol
_atom_site_label
_atom_site_fract_x
_atom_site_fract_y
_atom_site_fract_z
Si Si1 0.830571 0.356932 0.868566
Si Si2 0.357273 0.835326 0.230738
Si Si3 0.171017 0.395251 0.850087
Si Si4 0.834232 0.725588 0.522021
Si Si5 0.070345 0.733770 0.704550
Si Si6 0.936638 0.602938 0.658330
Si Si7 0.250000 0.000000 0.200015
Si Si8 0.009741 0.893386 0.855855
O O1 0.750000 0.379966 0.826397
O O2 0.839253 0.248390 0.857908
O O3 0.892629 0.394875 0.784048
O O4 0.837573 0.388326 0.005580
O O5 0.343121 0.793927 0.364111
O O6 0.436429 0.868704 0.209745
O O7 0.309942 0.920702 0.204179
O O8 0.250000 0.360036 0.821030
O O9 0.167622 0.500000 0.814585
O O10 0.111941 0.339898 0.782674
O O11 0.750000 0.712686 0.500537
O O12 0.879426 0.759329 0.407946
O O13 0.876636 0.634733 0.562734
O O14 0.997939 0.680666 0.663374
O O15 0.060308 0.821109 0.790499
O O16 0.962575 0.500000 0.636792
O O17 0.028187 0.000000 0.840203
O O18 0.000000 0.877272 0.000000
#
# Coordination Sequence:
#
# PCOD9402463 Si02
#       8
#     8   8   8   8   8   8   2   8
#     4  10  19  36  60  88 130 163 208 264 322 370
#     4  11  20  39  64  94 123 163 207 265 312 374
#     4  10  22  39  62  90 124 174 221 259 316 385
#     4  11  24  43  63  87 128 169 212 259 329 377
#     4  12  24  41  63  90 131 166 210 273 321 384
#     4  11  23  37  61  93 124 163 213 268 321 376
#     4  12  20  36  70 102 120 160 228 262 308 378
#     4  11  24  42  66  94 130 168 207 256 323 388
#
# _framework density 18.903186000000002
#
# number of rings (size 3 to 8) (size 9 to 14) (size 15 to 20)
#    0.000    1.103    4.828    3.724    0.000    3.310 
#    1.241    2.069    0.000    1.241    0.000    0.000 
#    0.000    0.000    0.000    0.000    0.000    0.000 
#
# Total GULP energy -323143.482689 kJ/mol
# GULP energy per Si atom -5571.439357 kJ/mol
# Density = 1.886016 g / cm^3
# Si number density = 18.903186 Si / 1000 Ang^3
#
#
#
# Elastic Constant Matrix: (Units=GPa)
#
#
# Indices 1 2 3 4 5 6 
#
# 1 100.5750 26.3223 30.9551 0.0000 0.0000 0.0000
# 2 26.3223 123.9789 21.2187 0.0000 0.0000 0.0000
# 3 30.9551 21.2187 44.9330 0.0000 0.0000 0.0000
# 4 0.0000 0.0000 0.0000 -123.8046 0.0000 0.0000
# 5 0.0000 0.0000 0.0000 0.0000 39.1349 0.0000
# 6 0.0000 0.0000 0.0000 0.0000 0.0000 35.3367
#
#
#
# Elastic Compliance Matrix: (Units=1/GPa)
#
#
# Indices 1 2 3 4 5 6 
#
# 1 0.012813 -0.001316 -0.008205 0.000000 0.000000 0.000000
# 2 -0.001316 0.008910 -0.003301 0.000000 0.000000 0.000000
# 3 -0.008205 -0.003301 0.029467 0.000000 0.000000 0.000000
# 4 0.000000 0.000000 0.000000 -0.008077 0.000000 0.000000
# 5 0.000000 0.000000 0.000000 0.000000 0.025553 0.000000
# 6 0.000000 0.000000 0.000000 0.000000 0.000000 0.028299
#
#
# Mechanical properties :
#
#
# Convention : Reuss Voigt Hill
#
# Bulk Modulus (GPa) = 39.14655 47.38658 43.26657
# Shear Modulus (GPa) = 38.13162 2.86611 20.49887
#
# Velocity S-wave (km/s) = 4.49620 1.23268 3.29662
# Velocity P-wave (km/s) = 6.90713 5.21042 6.11788
#
# Compressibility (1/GPa) = 0.02554504
#
# Stress axis : x y z
#
# Youngs Moduli (GPa) = 78.04746 112.23010 33.93615
#
# Poissons Ratio (x) = 0.14769 0.27846
# Poissons Ratio (y) = 0.10271 0.11203
# Poissons Ratio (z) = 0.64041 0.37048
#
# Static dielectric constant tensor:
#      x y z
#    x 1.673290 0.000000 0.000000 
#    y 0.000000 1.646210 0.000000 
#    z 0.000000 0.000000 1.671080 
# 
# From -- ./inp_files/17495.got.cif
#   From: 2010.05.17/outbox.cif.g08.bks.cpg/sg51_9_cif.got.tgz:17495.got - 2010.06.03 11:52:47.
