data_PCOD9402489
_publ_section_title
;
Structure prediction by ZEFSAII (Michael W. Deem and Ramdas Pophale) SiO2 
 PCOD9402489
Probable space group: P M M A
;
_chemical_formula_sum "Si O2"
_cell_formula_units_Z 20
_cell_length_a 10.783900
_cell_length_b 15.396320
_cell_length_c 4.749653
_cell_angle_alpha 90.000000
_cell_angle_beta 90.000000
_cell_angle_gamma 90.000000
_cell_volume 788.596169
_symmetry_space_group_name_H-M "P M M A"
_symmetry_group_IT_number 51
_symmetry_cell_setting 'orthorhombic'
loop_
_space_group_symop_operation_xyz
x,y,z
1/2-x,-y,z
1/2+x,-y,-z
-x,y,-z
-x,-y,-z
1/2+x,y,-z
1/2-x,y,z
x,-y,z
loop_
_atom_site_type_symbol
_atom_site_label
_atom_site_fract_x
_atom_site_fract_y
_atom_site_fract_z
Si Si1 0.614954 0.901898 0.299981
Si Si2 0.116136 0.500000 0.206993
Si Si3 0.250000 0.766395 0.020714
Si Si4 0.750000 0.642658 0.485911
O O1 0.500000 0.885768 0.500000
O O2 0.750000 0.902204 0.453550
O O3 0.635821 0.827843 0.068087
O O4 0.604112 0.000000 0.184225
O O5 0.250000 0.500000 0.041255
O O6 0.134624 0.416733 0.411279
O O7 0.000000 0.500000 0.000000
O O8 0.250000 0.679925 0.825954
O O9 0.250000 0.729382 0.329146
#
# Coordination Sequence:
#
# PCOD9402489 Si02
#       4
#     8   4   4   4
#     4   8  16  32  53  79 113 150 185 227 277 327
#     4   8  20  40  58  82 114 148 182 230 286 340
#     4  10  19  37  56  88 110 148 188 235 275 330
#     4   9  22  36  61  82 114 144 189 230 284 335
#
# _framework density 25.361519999999999
#
# number of rings (size 3 to 8) (size 9 to 14) (size 15 to 20)
#    2.400    0.800    0.000    0.000    0.000    6.400 
#    0.000    6.000    0.000    4.800    0.000    0.000 
#    0.000    0.000    0.000    0.000    0.000    0.000 
#
# Total GULP energy -111621.931643 kJ/mol
# GULP energy per Si atom -5581.096582 kJ/mol
# Density = 2.530380 g / cm^3
# Si number density = 25.361520 Si / 1000 Ang^3
#
#
#
# Elastic Constant Matrix: (Units=GPa)
#
#
# Indices 1 2 3 4 5 6 
#
# 1 190.1745 7.1921 34.3029 0.0000 0.0000 0.0000
# 2 7.1921 178.7379 30.4135 0.0000 0.0000 0.0000
# 3 34.3029 30.4135 59.1209 0.0000 0.0000 0.0000
# 4 0.0000 0.0000 0.0000 -94.3769 0.0000 0.0000
# 5 0.0000 0.0000 0.0000 0.0000 34.6185 0.0000
# 6 0.0000 0.0000 0.0000 0.0000 0.0000 -84.4205
#
#
#
# Elastic Compliance Matrix: (Units=1/GPa)
#
#
# Indices 1 2 3 4 5 6 
#
# 1 0.005896 0.000378 -0.003615 0.000000 0.000000 0.000000
# 2 0.000378 0.006156 -0.003386 0.000000 0.000000 0.000000
# 3 -0.003615 -0.003386 0.020754 0.000000 0.000000 0.000000
# 4 0.000000 0.000000 0.000000 -0.010596 0.000000 0.000000
# 5 0.000000 0.000000 0.000000 0.000000 0.028886 0.000000
# 6 0.000000 0.000000 0.000000 0.000000 0.000000 -0.011845
#
#
# Mechanical properties :
#
#
# Convention : Reuss Voigt Hill
#
# Bulk Modulus (GPa) = 51.12740 63.53891 57.33316
# Shear Modulus (GPa) = 84.72029 -5.09413 39.81308
#
# Velocity S-wave (km/s) = 5.78598 -1.41879 3.96640
# Velocity P-wave (km/s) = 8.05233 4.73537 6.60544
#
# Compressibility (1/GPa) = 0.01955899
#
# Stress axis : x y z
#
# Youngs Moduli (GPa) = 169.60126 162.45043 48.18324
#
# Poissons Ratio (x) = -0.06140 0.17421
# Poissons Ratio (y) = -0.06410 0.16315
# Poissons Ratio (z) = 0.61319 0.55005
#
# Static dielectric constant tensor:
#      x y z
#    x 2.105620 0.000000 0.000000 
#    y 0.000000 1.988390 0.000000 
#    z 0.000000 0.000000 1.991700 
# 
# From -- ./inp_files/389.got.cif
#   From: 2010.05.17/outbox.cif.g08.bks.cpg/sg51_1_cif.got.tgz:389.got - 2010.06.03 11:52:47.
