data_PCOD9402624
_publ_section_title
;
Structure prediction by ZEFSAII (Michael W. Deem and Ramdas Pophale) SiO2 
 PCOD9402624
Probable space group: P M M A
;
_chemical_formula_sum "Si O2"
_cell_formula_units_Z 64
_cell_length_a 18.491038
_cell_length_b 9.349902
_cell_length_c 20.776790
_cell_angle_alpha 90.000000
_cell_angle_beta 90.000000
_cell_angle_gamma 90.000000
_cell_volume 3592.086615
_symmetry_space_group_name_H-M "P M M A"
_symmetry_group_IT_number 51
_symmetry_cell_setting 'orthorhombic'
loop_
_space_group_symop_operation_xyz
x,y,z
1/2-x,-y,z
1/2+x,-y,-z
-x,y,-z
-x,-y,-z
1/2+x,y,-z
1/2-x,y,z
x,-y,z
loop_
_atom_site_type_symbol
_atom_site_label
_atom_site_fract_x
_atom_site_fract_y
_atom_site_fract_z
Si Si1 0.337850 0.165646 0.047088
Si Si2 0.837324 0.665788 0.223097
Si Si3 0.090720 0.831512 0.292184
Si Si4 0.575604 0.169041 0.330527
Si Si5 0.662032 0.834237 0.096783
Si Si6 0.836114 0.833442 0.572740
Si Si7 0.921848 0.668048 0.465993
Si Si8 0.836408 0.330355 0.825395
O O1 0.250000 0.169359 0.046093
O O2 0.360688 0.262365 0.106681
O O3 0.358787 0.000000 0.057266
O O4 0.361800 0.209150 0.975168
O O5 0.750000 0.672105 0.225112
O O6 0.859012 0.500000 0.227838
O O7 0.869852 0.757173 0.281030
O O8 0.861626 0.734543 0.155215
O O9 0.128841 0.789937 0.359325
O O10 0.121817 0.741973 0.233326
O O11 0.005249 0.814147 0.302325
O O12 0.106167 0.000000 0.281336
O O13 0.578938 0.246443 0.399305
O O14 0.590159 0.000000 0.337453
O O15 0.750000 0.831694 0.096454
O O16 0.640908 0.000000 0.107588
O O17 0.750000 0.826236 0.577581
O O18 0.865152 0.736281 0.515433
O O19 0.857088 0.000000 0.561096
O O20 0.908229 0.500000 0.454984
O O21 0.000000 0.682890 0.500000
O O22 0.750000 0.302234 0.818180
O O23 0.846814 0.500000 0.825800
#
# Coordination Sequence:
#
# PCOD9402624 Si02
#       8
#     8   8   8   8   8   8   8   8
#     4   8  14  26  46  72 103 141 183 226 271 319
#     4  10  21  36  55  82 115 146 177 221 277 332
#     4  10  21  37  57  79 106 143 185 227 270 319
#     4  11  23  39  62  84 106 142 186 228 268 319
#     4   8  14  27  49  76 105 139 181 226 271 322
#     4  10  21  38  61  87 113 143 182 228 273 319
#     4  11  23  39  60  84 112 145 178 219 273 328
#     4  10  20  31  47  76 112 147 183 225 272 323
#
# _framework density 17.816942000000001
#
# number of rings (size 3 to 8) (size 9 to 14) (size 15 to 20)
#    0.000    2.250    1.250    2.625    0.000    5.250 
#    0.000    2.500    0.000    0.750    0.000    5.250 
#    0.000    0.000    0.000    0.000    0.000    0.000 
#
# Total GULP energy -357138.271892 kJ/mol
# GULP energy per Si atom -5580.285498 kJ/mol
# Density = 1.777639 g / cm^3
# Si number density = 17.816942 Si / 1000 Ang^3
#
#
#
# Elastic Constant Matrix: (Units=GPa)
#
#
# Indices 1 2 3 4 5 6 
#
# 1 24.3008 35.3260 32.1634 0.0000 0.0000 0.0000
# 2 35.3260 115.0465 102.7901 0.0000 0.0000 0.0000
# 3 32.1634 102.7901 166.0968 0.0000 0.0000 0.0000
# 4 0.0000 0.0000 0.0000 -13.5828 0.0000 0.0000
# 5 0.0000 0.0000 0.0000 0.0000 -32.2606 0.0000
# 6 0.0000 0.0000 0.0000 0.0000 0.0000 20.4530
#
#
#
# Elastic Compliance Matrix: (Units=1/GPa)
#
#
# Indices 1 2 3 4 5 6 
#
# 1 0.074356 -0.022294 -0.000602 0.000000 0.000000 0.000000
# 2 -0.022294 0.026127 -0.011852 0.000000 0.000000 0.000000
# 3 -0.000602 -0.011852 0.013472 0.000000 0.000000 0.000000
# 4 0.000000 0.000000 0.000000 -0.073622 0.000000 0.000000
# 5 0.000000 0.000000 0.000000 0.000000 -0.030998 0.000000
# 6 0.000000 0.000000 0.000000 0.000000 0.000000 0.048893
#
#
# Mechanical properties :
#
#
# Convention : Reuss Voigt Hill
#
# Bulk Modulus (GPa) = 22.49233 71.77812 47.13522
# Shear Modulus (GPa) = 35.07753 3.93289 19.50521
#
# Velocity S-wave (km/s) = 4.44190 1.48734 3.31230
# Velocity P-wave (km/s) = 6.24170 6.58206 6.41414
#
# Compressibility (1/GPa) = 0.04445960
#
# Stress axis : x y z
#
# Youngs Moduli (GPa) = 13.44882 38.27496 74.23043
#
# Poissons Ratio (x) = 0.85330 0.04466
# Poissons Ratio (y) = 0.29983 0.87975
# Poissons Ratio (z) = 0.00809 0.45362
#
# Static dielectric constant tensor:
#      x y z
#    x 1.603340 0.000000 0.000000 
#    y 0.000000 1.595810 0.000000 
#    z 0.000000 0.000000 1.589660 
# 
# From -- ./inp_files/33956.got.cif
#   From: 2010.05.17/outbox.cif.g08.bks.cpg/sg51_17_cif.got.tgz:33956.got - 2010.06.03 11:52:47.
