data_PCOD9402681
_publ_section_title
;
Structure prediction by ZEFSAII (Michael W. Deem and Ramdas Pophale) SiO2 
 PCOD9402681
Probable space group: P M M A
;
_chemical_formula_sum "Si O2"
_cell_formula_units_Z 64
_cell_length_a 7.884160
_cell_length_b 15.276063
_cell_length_c 29.368204
_cell_angle_alpha 90.000000
_cell_angle_beta 90.000000
_cell_angle_gamma 90.000000
_cell_volume 3537.074915
_symmetry_space_group_name_H-M "P M M A"
_symmetry_group_IT_number 51
_symmetry_cell_setting 'orthorhombic'
loop_
_space_group_symop_operation_xyz
x,y,z
1/2-x,-y,z
1/2+x,-y,-z
-x,y,-z
-x,-y,-z
1/2+x,y,-z
1/2-x,y,z
x,-y,z
loop_
_atom_site_type_symbol
_atom_site_label
_atom_site_fract_x
_atom_site_fract_y
_atom_site_fract_z
Si Si1 0.046572 0.398995 0.451606
Si Si2 0.545460 0.220845 0.950790
Si Si3 0.954387 0.399019 0.648240
Si Si4 0.549283 0.280839 0.266446
Si Si5 0.044901 0.599935 0.815454
Si Si6 0.453628 0.901559 0.234203
Si Si7 0.451285 0.403712 0.079919
Si Si8 0.043344 0.100455 0.131278
O O1 0.250000 0.400914 0.450503
O O2 0.984411 0.500000 0.453063
O O3 0.988489 0.366358 0.402014
O O4 0.000000 0.356736 0.500000
O O5 0.750000 0.223432 0.947518
O O6 0.477984 0.320044 0.946239
O O7 0.482110 0.164670 0.908035
O O8 0.500000 0.183770 0.000000
O O9 0.750000 0.402589 0.647470
O O10 0.013788 0.500000 0.655080
O O11 0.004066 0.335369 0.688802
O O12 0.750000 0.283286 0.261879
O O13 0.479204 0.331653 0.221851
O O14 0.497360 0.179581 0.266088
O O15 0.250000 0.605141 0.818317
O O16 0.002149 0.500000 0.801467
O O17 0.975070 0.613452 0.866144
O O18 0.250000 0.906247 0.232195
O O19 0.514756 0.879754 0.182729
O O20 0.514450 0.000000 0.246053
O O21 0.250000 0.407699 0.071145
O O22 0.524445 0.500000 0.069637
O O23 0.250000 0.104774 0.131743
O O24 0.997522 0.000000 0.121326
#
# Coordination Sequence:
#
# PCOD9402681 Si02
#       8
#     8   8   8   8   8   8   8   8
#     4   8  14  25  41  61  86 120 163 207 245 277
#     4  10  20  32  46  65  88 110 134 168 209 256
#     4   9  18  31  45  64  94 132 172 207 235 271
#     4  11  21  30  44  68  99 129 153 186 235 284
#     4   9  18  31  45  64  91 120 149 181 219 265
#     4   9  18  34  55  73  88 114 154 193 228 272
#     4   9  18  32  48  64  81 106 144 183 213 247
#     4   8  15  30  51  70  86 107 137 173 213 259
#
# _framework density 18.094047
#
# number of rings (size 3 to 8) (size 9 to 14) (size 15 to 20)
#    0.000    2.875    0.000    3.000    0.000    4.500 
#    0.000    3.125    0.000    0.750    0.000    0.000 
#    0.000    0.500    0.000    1.625    0.000    2.000 
#
# Total GULP energy -356697.754265 kJ/mol
# GULP energy per Si atom -5573.402410 kJ/mol
# Density = 1.805286 g / cm^3
# Si number density = 18.094047 Si / 1000 Ang^3
#
#
#
# Elastic Constant Matrix: (Units=GPa)
#
#
# Indices 1 2 3 4 5 6 
#
# 1 17.6332 7.1365 -1.4191 0.0000 0.0000 0.0000
# 2 7.1365 91.8620 59.5911 0.0000 0.0000 0.0000
# 3 -1.4191 59.5911 70.2173 0.0000 0.0000 0.0000
# 4 0.0000 0.0000 0.0000 13.0503 0.0000 0.0000
# 5 0.0000 0.0000 0.0000 0.0000 17.0413 0.0000
# 6 0.0000 0.0000 0.0000 0.0000 0.0000 4.3305
#
#
#
# Elastic Compliance Matrix: (Units=1/GPa)
#
#
# Indices 1 2 3 4 5 6 
#
# 1 0.062816 -0.012689 0.012039 0.000000 0.000000 0.000000
# 2 -0.012689 0.026783 -0.022986 0.000000 0.000000 0.000000
# 3 0.012039 -0.022986 0.033992 0.000000 0.000000 0.000000
# 4 0.000000 0.000000 0.000000 0.076626 0.000000 0.000000
# 5 0.000000 0.000000 0.000000 0.000000 0.058681 0.000000
# 6 0.000000 0.000000 0.000000 0.000000 0.000000 0.230920
#
#
# Mechanical properties :
#
#
# Convention : Reuss Voigt Hill
#
# Bulk Modulus (GPa) = 13.10324 34.48106 23.79215
# Shear Modulus (GPa) = 8.88839 14.51137 11.69988
#
# Velocity S-wave (km/s) = 2.21878 2.83503 2.54562
# Velocity P-wave (km/s) = 3.71772 5.46026 4.67097
#
# Compressibility (1/GPa) = 0.07631700
#
# Stress axis : x y z
#
# Youngs Moduli (GPa) = 15.91958 37.33719 29.41828
#
# Poissons Ratio (x) = 0.47379 -0.35416
# Poissons Ratio (y) = 0.20201 0.67622
# Poissons Ratio (z) = -0.19165 0.85824
#
# Static dielectric constant tensor:
#      x y z
#    x 1.652520 0.000000 0.000000 
#    y 0.000000 1.644420 0.000000 
#    z 0.000000 0.000000 1.639920 
# 
# From -- ./inp_files/37676.got.cif
#   From: 2010.05.17/outbox.cif.g08.bks.cpg/sg51_19_cif.got.tgz:37676.got - 2010.06.03 11:52:47.
