data_PCOD9402590
_publ_section_title
;
Structure prediction by ZEFSAII (Michael W. Deem and Ramdas Pophale) SiO2 
 PCOD9402590
Probable space group: P M M A
;
_chemical_formula_sum "Si O2"
_cell_formula_units_Z 48
_cell_length_a 18.000237
_cell_length_b 9.444594
_cell_length_c 14.653312
_cell_angle_alpha 90.000000
_cell_angle_beta 90.000000
_cell_angle_gamma 90.000000
_cell_volume 2491.135286
_symmetry_space_group_name_H-M "P M M A"
_symmetry_group_IT_number 51
_symmetry_cell_setting 'orthorhombic'
loop_
_space_group_symop_operation_xyz
x,y,z
1/2-x,-y,z
1/2+x,-y,-z
-x,y,-z
-x,-y,-z
1/2+x,y,-z
1/2-x,y,z
x,-y,z
loop_
_atom_site_type_symbol
_atom_site_label
_atom_site_fract_x
_atom_site_fract_y
_atom_site_fract_z
Si Si1 0.165945 0.168285 0.051893
Si Si2 0.834095 0.332388 0.533705
Si Si3 0.973877 0.340394 0.894449
Si Si4 0.117001 0.168690 0.846649
Si Si5 0.370259 0.831904 0.650881
Si Si6 0.466018 0.158561 0.397589
O O1 0.250000 0.201315 0.079769
O O2 0.157614 0.196931 0.942746
O O3 0.152785 0.000000 0.063868
O O4 0.103564 0.256810 0.104208
O O5 0.750000 0.308590 0.566930
O O6 0.846515 0.500000 0.524146
O O7 0.841277 0.258031 0.434146
O O8 0.897247 0.264354 0.597825
O O9 0.966695 0.500000 0.858713
O O10 0.040185 0.253334 0.849712
O O11 0.000000 0.348729 0.000000
O O12 0.158927 0.202084 0.752052
O O13 0.102112 0.000000 0.843991
O O14 0.459464 0.808050 0.657398
O O15 0.358646 0.000000 0.631835
O O16 0.500000 0.155007 0.500000
O O17 0.440333 0.000000 0.374173
#
# Coordination Sequence:
#
# PCOD9402590 Si02
#       6
#     8   8   8   8   8   8
#     4   9  17  29  46  68  92 119 151 185 222 265
#     4  10  20  31  44  66  94 122 152 185 223 268
#     4   9  17  29  45  65  89 119 154 187 221 264
#     4   9  17  30  48  69  93 119 148 185 226 269
#     4   9  18  31  48  70  93 118 150 187 227 270
#     4   8  15  29  47  66  87 114 151 188 221 263
#
# _framework density 19.268322000000001
#
# number of rings (size 3 to 8) (size 9 to 14) (size 15 to 20)
#    0.000    3.000    0.000    2.000    0.000    8.000 
#    0.000    1.667    0.000    1.000    0.000    2.333 
#    0.000    0.000    0.000    0.000    0.000    0.000 
#
# Total GULP energy -267423.320009 kJ/mol
# GULP energy per Si atom -5571.319167 kJ/mol
# Density = 1.922447 g / cm^3
# Si number density = 19.268322 Si / 1000 Ang^3
#
#
#
# Elastic Constant Matrix: (Units=GPa)
#
#
# Indices 1 2 3 4 5 6 
#
# 1 109.5467 54.7693 -10.3457 0.0000 0.0000 0.0000
# 2 54.7693 51.7257 -3.5405 0.0000 0.0000 0.0000
# 3 -10.3457 -3.5405 16.3171 0.0000 0.0000 0.0000
# 4 0.0000 0.0000 0.0000 9.7120 0.0000 0.0000
# 5 0.0000 0.0000 0.0000 0.0000 5.2094 0.0000
# 6 0.0000 0.0000 0.0000 0.0000 0.0000 23.8005
#
#
#
# Elastic Compliance Matrix: (Units=1/GPa)
#
#
# Indices 1 2 3 4 5 6 
#
# 1 0.020472 -0.021101 0.008401 0.000000 0.000000 0.000000
# 2 -0.021101 0.041374 -0.004402 0.000000 0.000000 0.000000
# 3 0.008401 -0.004402 0.065657 0.000000 0.000000 0.000000
# 4 0.000000 0.000000 0.000000 0.102965 0.000000 0.000000
# 5 0.000000 0.000000 0.000000 0.000000 0.191960 0.000000
# 6 0.000000 0.000000 0.000000 0.000000 0.000000 0.042016
#
#
# Mechanical properties :
#
#
# Convention : Reuss Voigt Hill
#
# Bulk Modulus (GPa) = 10.71811 28.81732 19.76771
# Shear Modulus (GPa) = 9.43845 16.85816 13.14831
#
# Velocity S-wave (km/s) = 2.21564 2.96111 2.61507
# Velocity P-wave (km/s) = 3.48139 5.16519 4.40450
#
# Compressibility (1/GPa) = 0.09330002
#
# Stress axis : x y z
#
# Youngs Moduli (GPa) = 48.84757 24.16953 15.23065
#
# Poissons Ratio (x) = 0.51001 -0.12796
# Poissons Ratio (y) = 1.03075 0.06704
# Poissons Ratio (z) = -0.41039 0.10639
#
# Static dielectric constant tensor:
#      x y z
#    x 1.680020 0.000000 0.000000 
#    y 0.000000 1.655350 0.000000 
#    z 0.000000 0.000000 1.704880 
# 
# From -- ./inp_files/30018.got.cif
#   From: 2010.05.17/outbox.cif.g08.bks.cpg/sg51_16_cif.got.tgz:30018.got - 2010.06.03 11:52:47.
