data_PCOD9402436
_publ_section_title
;
Structure prediction by ZEFSAII (Michael W. Deem and Ramdas Pophale) SiO2 
 PCOD9402436
Probable space group: P M M A
;
_chemical_formula_sum "Si O2"
_cell_formula_units_Z 64
_cell_length_a 15.712335
_cell_length_b 7.711214
_cell_length_c 24.581021
_cell_angle_alpha 90.000000
_cell_angle_beta 90.000000
_cell_angle_gamma 90.000000
_cell_volume 2978.265452
_symmetry_space_group_name_H-M "P M M A"
_symmetry_group_IT_number 51
_symmetry_cell_setting 'orthorhombic'
loop_
_space_group_symop_operation_xyz
x,y,z
1/2-x,-y,z
1/2+x,-y,-z
-x,y,-z
-x,-y,-z
1/2+x,y,-z
1/2-x,y,z
x,-y,z
loop_
_atom_site_type_symbol
_atom_site_label
_atom_site_fract_x
_atom_site_fract_y
_atom_site_fract_z
Si Si1 0.341831 0.787666 0.238290
Si Si2 0.649674 0.288298 0.510094
Si Si3 0.012108 0.208924 0.704599
Si Si4 0.378509 0.195795 0.119034
Si Si5 0.939979 0.305373 0.107688
Si Si6 0.987822 0.293342 0.421010
Si Si7 0.844159 0.209703 0.212070
Si Si8 0.846779 0.791724 0.000895
O O1 0.250000 0.739101 0.261043
O O2 0.421554 0.727106 0.272995
O O3 0.348451 0.726234 0.175744
O O4 0.345930 0.000000 0.236264
O O5 0.750000 0.230745 0.512603
O O6 0.653881 0.500000 0.510675
O O7 0.581369 0.233070 0.557206
O O8 0.593866 0.233562 0.456825
O O9 0.085522 0.272333 0.745251
O O10 0.024406 0.254335 0.642018
O O11 0.011882 0.000000 0.708341
O O12 0.480235 0.187424 0.121613
O O13 0.343825 0.000000 0.116890
O O14 0.357944 0.276459 0.060479
O O15 0.970732 0.500000 0.115262
O O16 0.867002 0.267765 0.151215
O O17 0.908934 0.280583 0.046366
O O18 0.989522 0.500000 0.428680
O O19 0.750000 0.267688 0.227301
O O20 0.845670 0.000000 0.212067
O O21 0.750000 0.758581 0.018085
O O22 0.860568 0.000000 0.999545
#
# Coordination Sequence:
#
# PCOD9402436 Si02
#       8
#     8   8   8   8   8   8   8   8
#     4   9  17  32  56  81 104 135 178 224 270 322
#     4   8  15  31  54  78 107 145 185 222 260 303
#     4  10  20  35  54  80 113 144 175 220 277 323
#     4  10  19  36  59  79 101 135 181 224 268 324
#     4  12  24  36  53  78 109 141 175 219 279 337
#     4   9  18  32  53  80 107 141 185 224 258 308
#     4  10  21  39  60  78 101 141 189 229 268 322
#     4  10  21  36  56  81 104 132 177 228 273 327
#
# _framework density 21.489015999999999
#
# number of rings (size 3 to 8) (size 9 to 14) (size 15 to 20)
#    0.000    2.250    1.250    3.000    0.000    7.000 
#    0.000    1.250    0.000    2.625    0.000    0.000 
#    0.000    0.000    0.000    0.000    0.000    0.000 
#
# Total GULP energy -357151.451033 kJ/mol
# GULP energy per Si atom -5580.491422 kJ/mol
# Density = 2.144011 g / cm^3
# Si number density = 21.489016 Si / 1000 Ang^3
#
#
#
# Elastic Constant Matrix: (Units=GPa)
#
#
# Indices 1 2 3 4 5 6 
#
# 1 127.3638 14.4467 16.1319 0.0000 0.0000 0.0000
# 2 14.4467 39.7777 -4.9272 0.0000 0.0000 0.0000
# 3 16.1319 -4.9272 78.5255 0.0000 0.0000 0.0000
# 4 0.0000 0.0000 0.0000 26.2200 0.0000 0.0000
# 5 0.0000 0.0000 0.0000 0.0000 67.9445 0.0000
# 6 0.0000 0.0000 0.0000 0.0000 0.0000 -24.6215
#
#
#
# Elastic Compliance Matrix: (Units=1/GPa)
#
#
# Indices 1 2 3 4 5 6 
#
# 1 0.008475 -0.003319 -0.001949 0.000000 0.000000 0.000000
# 2 -0.003319 0.026637 0.002353 0.000000 0.000000 0.000000
# 3 -0.001949 0.002353 0.013283 0.000000 0.000000 0.000000
# 4 0.000000 0.000000 0.000000 0.038139 0.000000 0.000000
# 5 0.000000 0.000000 0.000000 0.000000 0.014718 0.000000
# 6 0.000000 0.000000 0.000000 0.000000 0.000000 -0.040615
#
#
# Mechanical properties :
#
#
# Convention : Reuss Voigt Hill
#
# Bulk Modulus (GPa) = 23.49424 32.99664 28.24544
# Shear Modulus (GPa) = 61.99232 28.57632 45.28432
#
# Velocity S-wave (km/s) = 5.37690 3.65061 4.59554
# Velocity P-wave (km/s) = 7.03597 5.75828 6.42894
#
# Compressibility (1/GPa) = 0.04256362
#
# Stress axis : x y z
#
# Youngs Moduli (GPa) = 117.99480 37.54204 75.28513
#
# Poissons Ratio (x) = 0.12462 0.14676
# Poissons Ratio (y) = 0.39168 -0.17717
# Poissons Ratio (z) = 0.23001 -0.08835
#
# Static dielectric constant tensor:
#      x y z
#    x 1.785580 0.000000 0.000000 
#    y 0.000000 1.808090 0.000000 
#    z 0.000000 0.000000 1.748190 
# 
# From -- ./inp_files/35708.got.cif
#   From: 2010.05.17/outbox.cif.g08.bks.cpg/sg51_18_cif.got.tgz:35708.got - 2010.06.03 11:52:47.
