data_PCOD9402177
_publ_section_title
;
Structure prediction by ZEFSAII (Michael W. Deem and Ramdas Pophale) SiO2 
 PCOD9402177
Probable space group: P M M A
;
_chemical_formula_sum "Si O2"
_cell_formula_units_Z 52
_cell_length_a 7.694855
_cell_length_b 15.402606
_cell_length_c 21.213532
_cell_angle_alpha 90.000000
_cell_angle_beta 90.000000
_cell_angle_gamma 90.000000
_cell_volume 2514.245203
_symmetry_space_group_name_H-M "P M M A"
_symmetry_group_IT_number 51
_symmetry_cell_setting 'orthorhombic'
loop_
_space_group_symop_operation_xyz
x,y,z
1/2-x,-y,z
1/2+x,-y,-z
-x,y,-z
-x,-y,-z
1/2+x,y,-z
1/2-x,y,z
x,-y,z
loop_
_atom_site_type_symbol
_atom_site_label
_atom_site_fract_x
_atom_site_fract_y
_atom_site_fract_z
Si Si1 0.042741 0.724533 0.320065
Si Si2 0.540815 0.401620 0.571909
Si Si3 0.554744 0.651614 0.073049
Si Si4 0.960560 0.595461 0.207280
Si Si5 0.949467 0.825145 0.864105
Si Si6 0.043226 0.000000 0.927887
Si Si7 0.537020 0.100445 0.730790
O O1 0.250000 0.730137 0.327974
O O2 0.971583 0.665668 0.376605
O O3 0.981411 0.824596 0.317983
O O4 0.014505 0.671605 0.254795
O O5 0.500000 0.377266 0.500000
O O6 0.750000 0.404430 0.578060
O O7 0.475229 0.500000 0.582512
O O8 0.750000 0.618506 0.072198
O O9 0.471997 0.606813 0.135233
O O10 0.545798 0.751844 0.095779
O O11 0.500000 0.643703 0.000000
O O12 0.750000 0.598689 0.205241
O O13 0.013427 0.500000 0.231038
O O14 0.750000 0.795470 0.856665
O O15 0.020338 0.855122 0.796449
O O16 0.957364 0.914556 0.900700
O O17 0.250000 0.000000 0.915455
O O18 0.000000 0.000000 0.000000
O O19 0.750000 0.097258 0.732515
O O20 0.479536 0.000000 0.724132
#
# Coordination Sequence:
#
# PCOD9402177 Si02
#       7
#     8   8   8   8   8   4   8
#     4  10  19  34  58  85 111 142 181 225 268 316
#     4   9  18  32  52  82 117 149 182 218 258 311
#     4  11  23  38  54  73 100 136 179 225 277 332
#     4  10  22  38  55  78 108 140 177 224 279 335
#     4  11  20  35  55  75 100 132 173 221 275 334
#     4  12  24  36  50  72 100 132 171 220 279 338
#     4   9  17  31  54  81 106 134 172 218 268 319
#
# _framework density 20.682151000000001
#
# number of rings (size 3 to 8) (size 9 to 14) (size 15 to 20)
#    0.000    1.846    2.308    2.538    0.000    2.462 
#    0.000    1.538    0.000    0.462    0.000    0.000 
#    0.000    0.000    0.000    0.000    0.000    0.000 
#
# Total GULP energy -289941.297118 kJ/mol
# GULP energy per Si atom -5575.794175 kJ/mol
# Density = 2.063508 g / cm^3
# Si number density = 20.682151 Si / 1000 Ang^3
#
#
#
# Elastic Constant Matrix: (Units=GPa)
#
#
# Indices 1 2 3 4 5 6 
#
# 1 43.2581 -3.3087 1.2311 0.0000 0.0000 0.0000
# 2 -3.3087 129.5425 65.0368 0.0000 0.0000 0.0000
# 3 1.2311 65.0368 124.1295 0.0000 0.0000 0.0000
# 4 0.0000 0.0000 0.0000 33.1928 0.0000 0.0000
# 5 0.0000 0.0000 0.0000 0.0000 -8.3671 0.0000
# 6 0.0000 0.0000 0.0000 0.0000 0.0000 22.5822
#
#
#
# Elastic Compliance Matrix: (Units=1/GPa)
#
#
# Indices 1 2 3 4 5 6 
#
# 1 0.023211 0.000961 -0.000734 0.000000 0.000000 0.000000
# 2 0.000961 0.010515 -0.005519 0.000000 0.000000 0.000000
# 3 -0.000734 -0.005519 0.010955 0.000000 0.000000 0.000000
# 4 0.000000 0.000000 0.000000 0.030127 0.000000 0.000000
# 5 0.000000 0.000000 0.000000 0.000000 -0.119515 0.000000
# 6 0.000000 0.000000 0.000000 0.000000 0.000000 0.044283
#
#
# Mechanical properties :
#
#
# Convention : Reuss Voigt Hill
#
# Bulk Modulus (GPa) = 29.32675 46.98315 38.15495
# Shear Modulus (GPa) = 232.29841 25.07963 128.68902
#
# Velocity S-wave (km/s) = 10.60953 3.48605 7.89667
# Velocity P-wave (km/s) = 12.81770 6.24255 10.08124
#
# Compressibility (1/GPa) = 0.03409856
#
# Stress axis : x y z
#
# Youngs Moduli (GPa) = 43.08216 95.10545 91.28403
#
# Poissons Ratio (x) = -0.09142 0.06699
# Poissons Ratio (y) = -0.04141 0.50376
# Poissons Ratio (z) = 0.03162 0.52485
#
# Static dielectric constant tensor:
#      x y z
#    x 1.799090 0.000000 0.000000 
#    y 0.000000 1.755650 0.000000 
#    z 0.000000 0.000000 1.739940 
# 
# From -- ./inp_files/31745.got.cif
#   From: 2010.05.17/outbox.cif.g08.bks.cpg/sg51_16_cif.got.tgz:31745.got - 2010.06.03 11:52:47.
