data_PCOD9402495
_publ_section_title
;
Structure prediction by ZEFSAII (Michael W. Deem and Ramdas Pophale) SiO2 
 PCOD9402495
Probable space group: P M M A
;
_chemical_formula_sum "Si O2"
_cell_formula_units_Z 32
_cell_length_a 13.468380
_cell_length_b 12.586255
_cell_length_c 10.296153
_cell_angle_alpha 90.000000
_cell_angle_beta 90.000000
_cell_angle_gamma 90.000000
_cell_volume 1745.367461
_symmetry_space_group_name_H-M "P M M A"
_symmetry_group_IT_number 51
_symmetry_cell_setting 'orthorhombic'
loop_
_space_group_symop_operation_xyz
x,y,z
1/2-x,-y,z
1/2+x,-y,-z
-x,y,-z
-x,-y,-z
1/2+x,y,-z
1/2-x,y,z
x,-y,z
loop_
_atom_site_type_symbol
_atom_site_label
_atom_site_fract_x
_atom_site_fract_y
_atom_site_fract_z
Si Si1 0.935199 0.500000 0.370205
Si Si2 0.434694 0.735829 0.630644
Si Si3 0.076001 0.500000 0.120182
Si Si4 0.750000 0.872561 0.284852
Si Si5 0.750000 0.873761 0.975424
Si Si6 0.576415 0.268706 0.880588
O O1 0.886140 0.383488 0.367223
O O2 0.000000 0.500000 0.500000
O O3 0.009136 0.500000 0.248644
O O4 0.500000 0.748014 0.500000
O O5 0.347826 0.820690 0.651473
O O6 0.512127 0.743127 0.750215
O O7 0.127773 0.614360 0.118443
O O8 0.000000 0.500000 0.000000
O O9 0.750000 0.000000 0.297939
O O10 0.750000 0.846596 0.129774
O O11 0.844875 0.822469 0.906386
O O12 0.750000 0.000000 0.964860
O O13 0.500000 0.266884 0.000000
#
# Coordination Sequence:
#
# PCOD9402495 Si02
#       6
#     4   8   4   4   4   8
#     4   8  16  33  57  85 115 148 184 220 284 357
#     4  10  21  39  62  87 119 152 184 238 292 340
#     4   8  16  29  53  83 113 139 180 232 279 339
#     4  11  24  40  58  85 114 151 202 240 279 340
#     4  11  24  38  58  85 112 153 206 238 275 346
#     4  10  19  37  58  84 115 149 185 233 289 333
#
# _framework density 18.334247000000001
#
# number of rings (size 3 to 8) (size 9 to 14) (size 15 to 20)
#    0.000    2.250    2.500    0.000    0.000    4.000 
#    0.000    2.500    0.000    9.000    0.000    0.000 
#    0.000    0.000    0.000    0.000    0.000    0.000 
#
# Total GULP energy -178265.630368 kJ/mol
# GULP energy per Si atom -5570.800949 kJ/mol
# Density = 1.829252 g / cm^3
# Si number density = 18.334247 Si / 1000 Ang^3
#
#
#
# Elastic Constant Matrix: (Units=GPa)
#
#
# Indices 1 2 3 4 5 6 
#
# 1 93.4585 64.0169 45.8134 0.0000 0.0000 0.0000
# 2 64.0169 136.9126 39.8118 0.0000 0.0000 0.0000
# 3 45.8134 39.8118 145.8903 0.0000 0.0000 0.0000
# 4 0.0000 0.0000 0.0000 25.6930 0.0000 0.0000
# 5 0.0000 0.0000 0.0000 0.0000 8.9564 0.0000
# 6 0.0000 0.0000 0.0000 0.0000 0.0000 -29.4441
#
#
#
# Elastic Compliance Matrix: (Units=1/GPa)
#
#
# Indices 1 2 3 4 5 6 
#
# 1 0.017236 -0.007044 -0.003490 0.000000 0.000000 0.000000
# 2 -0.007044 0.010812 -0.000739 0.000000 0.000000 0.000000
# 3 -0.003490 -0.000739 0.008152 0.000000 0.000000 0.000000
# 4 0.000000 0.000000 0.000000 0.038921 0.000000 0.000000
# 5 0.000000 0.000000 0.000000 0.000000 0.111652 0.000000
# 6 0.000000 0.000000 0.000000 0.000000 0.000000 -0.033963
#
#
# Mechanical properties :
#
#
# Convention : Reuss Voigt Hill
#
# Bulk Modulus (GPa) = 73.23634 75.06062 74.14848
# Shear Modulus (GPa) = 27.79188 16.14901 21.97045
#
# Velocity S-wave (km/s) = 3.89761 2.97107 3.46544
# Velocity P-wave (km/s) = 7.76447 7.26627 7.51949
#
# Compressibility (1/GPa) = 0.01365442
#
# Stress axis : x y z
#
# Youngs Moduli (GPa) = 58.01822 92.48671 122.66885
#
# Poissons Ratio (x) = 0.65149 0.42815
# Poissons Ratio (y) = 0.40869 0.09059
# Poissons Ratio (z) = 0.20250 0.06830
#
# Static dielectric constant tensor:
#      x y z
#    x 1.593050 0.000000 0.000000 
#    y 0.000000 1.680060 0.000000 
#    z 0.000000 0.000000 1.609460 
# 
# From -- ./inp_files/7628.got.cif
#   From: 2010.05.17/outbox.cif.g08.bks.cpg/sg51_4_cif.got.tgz:7628.got - 2010.06.03 11:52:47.
