data_PCOD9402917
_publ_section_title
;
Structure prediction by ZEFSAII (Michael W. Deem and Ramdas Pophale) SiO2 
 PCOD9402917
Probable space group: P M M A
;
_chemical_formula_sum "Si O2"
_cell_formula_units_Z 36
_cell_length_a 8.695569
_cell_length_b 24.218652
_cell_length_c 9.569957
_cell_angle_alpha 90.000000
_cell_angle_beta 90.000000
_cell_angle_gamma 90.000000
_cell_volume 2015.384707
_symmetry_space_group_name_H-M "P M M A"
_symmetry_group_IT_number 51
_symmetry_cell_setting 'orthorhombic'
loop_
_space_group_symop_operation_xyz
x,y,z
1/2-x,-y,z
1/2+x,-y,-z
-x,y,-z
-x,-y,-z
1/2+x,y,-z
1/2-x,y,z
x,-y,z
loop_
_atom_site_type_symbol
_atom_site_label
_atom_site_fract_x
_atom_site_fract_y
_atom_site_fract_z
Si Si1 0.564609 0.000000 0.655518
Si Si2 0.065679 0.439787 0.341846
Si Si3 0.434938 0.103895 0.155923
Si Si4 0.565330 0.221800 0.155205
Si Si5 0.565933 0.673660 0.343492
O O1 0.500000 0.000000 0.500000
O O2 0.517713 0.054396 0.742089
O O3 0.750000 0.000000 0.649025
O O4 0.250000 0.435534 0.347590
O O5 0.025868 0.500000 0.278881
O O6 0.000000 0.440772 0.500000
O O7 0.997311 0.383722 0.279421
O O8 0.250000 0.105802 0.148374
O O9 0.497803 0.163228 0.204722
O O10 0.500000 0.094443 0.000000
O O11 0.750000 0.217839 0.149005
O O12 0.522709 0.272996 0.253314
O O13 0.500000 0.230806 0.000000
O O14 0.500000 0.679061 0.500000
O O15 0.750000 0.670163 0.351338
#
# Coordination Sequence:
#
# PCOD9402917 Si02
#       5
#     4   8   8   8   8
#     4  10  23  38  54  80 110 138 169 206 252 300
#     4   9  16  26  43  68  97 129 165 205 249 297
#     4  10  20  36  57  79 102 133 172 210 249 297
#     4  10  21  36  54  77 102 133 172 210 251 299
#     4  10  20  32  49  74 102 132 167 207 253 302
#
# _framework density 17.862594000000001
#
# number of rings (size 3 to 8) (size 9 to 14) (size 15 to 20)
#    0.000    2.222    0.000    5.667    0.000    7.556 
#    0.000    4.444    0.000    0.667    0.000    0.000 
#    0.000    0.000    0.000    0.000    0.000    0.000 
#
# Total GULP energy -200798.420201 kJ/mol
# GULP energy per Si atom -5577.733894 kJ/mol
# Density = 1.782194 g / cm^3
# Si number density = 17.862594 Si / 1000 Ang^3
#
#
#
# Elastic Constant Matrix: (Units=GPa)
#
#
# Indices 1 2 3 4 5 6 
#
# 1 57.2661 62.1786 27.5521 0.0000 0.0000 0.0000
# 2 62.1786 227.9073 90.6310 0.0000 0.0000 0.0000
# 3 27.5521 90.6310 56.2155 0.0000 0.0000 0.0000
# 4 0.0000 0.0000 0.0000 646.0436 0.0000 0.0000
# 5 0.0000 0.0000 0.0000 0.0000 24.1949 0.0000
# 6 0.0000 0.0000 0.0000 0.0000 0.0000 55.3404
#
#
#
# Elastic Compliance Matrix: (Units=1/GPa)
#
#
# Indices 1 2 3 4 5 6 
#
# 1 0.025059 -0.005441 -0.003510 0.000000 0.000000 0.000000
# 2 -0.005441 0.013408 -0.018949 0.000000 0.000000 0.000000
# 3 -0.003510 -0.018949 0.050059 0.000000 0.000000 0.000000
# 4 0.000000 0.000000 0.000000 0.001548 0.000000 0.000000
# 5 0.000000 0.000000 0.000000 0.000000 0.041331 0.000000
# 6 0.000000 0.000000 0.000000 0.000000 0.000000 0.018070
#
#
# Mechanical properties :
#
#
# Convention : Reuss Voigt Hill
#
# Bulk Modulus (GPa) = 30.55736 78.01250 54.28493
# Shear Modulus (GPa) = 23.12864 155.85092 89.48978
#
# Velocity S-wave (km/s) = 3.60225 9.35090 7.08574
# Velocity P-wave (km/s) = 5.86904 12.66310 9.86914
#
# Compressibility (1/GPa) = 0.03272535
#
# Stress axis : x y z
#
# Youngs Moduli (GPa) = 39.90647 74.58466 19.97646
#
# Poissons Ratio (x) = 0.40580 0.07012
# Poissons Ratio (y) = 0.21712 0.37854
# Poissons Ratio (z) = 0.14007 1.41332
#
# Static dielectric constant tensor:
#      x y z
#    x 1.601240 0.000000 0.000000 
#    y 0.000000 1.652530 0.000000 
#    z 0.000000 0.000000 1.576980 
# 
# From -- ./inp_files/5448.got.cif
#   From: 2010.05.17/outbox.cif.g08.bks.cpg/sg51_3_cif.got.tgz:5448.got - 2010.06.03 11:52:47.
