data_PCOD9402348
_publ_section_title
;
Structure prediction by ZEFSAII (Michael W. Deem and Ramdas Pophale) SiO2 
 PCOD9402348
Probable space group: P M M A
;
_chemical_formula_sum "Si O2"
_cell_formula_units_Z 36
_cell_length_a 10.573406
_cell_length_b 7.731312
_cell_length_c 24.115076
_cell_angle_alpha 90.000000
_cell_angle_beta 90.000000
_cell_angle_gamma 90.000000
_cell_volume 1971.318254
_symmetry_space_group_name_H-M "P M M A"
_symmetry_group_IT_number 51
_symmetry_cell_setting 'orthorhombic'
loop_
_space_group_symop_operation_xyz
x,y,z
1/2-x,-y,z
1/2+x,-y,-z
-x,y,-z
-x,-y,-z
1/2+x,y,-z
1/2-x,y,z
x,-y,z
loop_
_atom_site_type_symbol
_atom_site_label
_atom_site_fract_x
_atom_site_fract_y
_atom_site_fract_z
Si Si1 0.596720 0.000000 0.551168
Si Si2 0.750000 0.301872 0.935684
Si Si3 0.500764 0.289886 0.123893
Si Si4 0.402947 0.697413 0.362525
Si Si5 0.250000 0.194995 0.941820
Si Si6 0.603924 0.289349 0.759942
O O1 0.500000 0.000000 0.500000
O O2 0.569069 0.168165 0.589119
O O3 0.750000 0.000000 0.538162
O O4 0.750000 0.500000 0.915004
O O5 0.620875 0.227438 0.911090
O O6 0.750000 0.303554 0.001835
O O7 0.505655 0.500000 0.122520
O O8 0.627382 0.226869 0.095237
O O9 0.478360 0.235658 0.187464
O O10 0.250000 0.689990 0.358535
O O11 0.447354 0.500000 0.372439
O O12 0.443540 0.760242 0.301221
O O13 0.250000 0.000000 0.962542
O O14 0.750000 0.232403 0.767713
O O15 0.606860 0.500000 0.759452
#
# Coordination Sequence:
#
# PCOD9402348 Si02
#       6
#     4   4   8   8   4   8
#     4  10  20  34  54  80 112 146 185 217 256 308
#     4  10  20  36  60  82  94 122 178 231 268 316
#     4  10  19  35  59  81  98 127 175 224 271 322
#     4   8  15  29  52  81 110 140 176 224 271 311
#     4  12  26  38  46  66 112 150 174 205 262 330
#     4   8  13  27  54  83 104 121 160 224 274 307
#
# _framework density 18.261890999999999
#
# number of rings (size 3 to 8) (size 9 to 14) (size 15 to 20)
#    0.000    2.667    1.111    3.000    0.000    4.000 
#    2.000    0.000    2.444    0.000    0.000    0.000 
#    0.000    0.000    0.000    0.000    0.000    0.000 
#
# Total GULP energy -200666.389575 kJ/mol
# GULP energy per Si atom -5574.066377 kJ/mol
# Density = 1.822033 g / cm^3
# Si number density = 18.261891 Si / 1000 Ang^3
#
#
#
# Elastic Constant Matrix: (Units=GPa)
#
#
# Indices 1 2 3 4 5 6 
#
# 1 101.9914 17.3575 66.6019 0.0000 0.0000 0.0000
# 2 17.3575 52.5423 27.5116 0.0000 0.0000 0.0000
# 3 66.6019 27.5116 151.2185 0.0000 0.0000 0.0000
# 4 0.0000 0.0000 0.0000 117.1426 0.0000 0.0000
# 5 0.0000 0.0000 0.0000 0.0000 25.7560 0.0000
# 6 0.0000 0.0000 0.0000 0.0000 0.0000 322.5803
#
#
#
# Elastic Compliance Matrix: (Units=1/GPa)
#
#
# Indices 1 2 3 4 5 6 
#
# 1 0.013874 -0.001529 -0.005832 0.000000 0.000000 0.000000
# 2 -0.001529 0.021205 -0.003184 0.000000 0.000000 0.000000
# 3 -0.005832 -0.003184 0.009761 0.000000 0.000000 0.000000
# 4 0.000000 0.000000 0.000000 0.008537 0.000000 0.000000
# 5 0.000000 0.000000 0.000000 0.000000 0.038826 0.000000
# 6 0.000000 0.000000 0.000000 0.000000 0.000000 0.003100
#
#
# Mechanical properties :
#
#
# Convention : Reuss Voigt Hill
#
# Bulk Modulus (GPa) = 42.10933 58.74381 50.42657
# Shear Modulus (GPa) = 40.22227 106.04786 73.13507
#
# Velocity S-wave (km/s) = 4.69820 7.62867 6.33521
# Velocity P-wave (km/s) = 7.24841 10.48011 9.01033
#
# Compressibility (1/GPa) = 0.02374770
#
# Stress axis : x y z
#
# Youngs Moduli (GPa) = 72.07986 47.15912 102.44907
#
# Poissons Ratio (x) = 0.07212 0.59750
# Poissons Ratio (y) = 0.11024 0.32622
# Poissons Ratio (z) = 0.42038 0.15017
#
# Static dielectric constant tensor:
#      x y z
#    x 1.599110 0.000000 0.000000 
#    y 0.000000 1.671490 0.000000 
#    z 0.000000 0.000000 1.632000 
# 
# From -- ./inp_files/32775.got.cif
#   From: 2010.05.17/outbox.cif.g08.bks.cpg/sg51_17_cif.got.tgz:32775.got - 2010.06.03 11:52:47.
