data_PCOD9402836
_publ_section_title
;
Structure prediction by ZEFSAII (Michael W. Deem and Ramdas Pophale) SiO2 
 PCOD9402836
Probable space group: P M M A
;
_chemical_formula_sum "Si O2"
_cell_formula_units_Z 40
_cell_length_a 9.925401
_cell_length_b 7.609394
_cell_length_c 26.330022
_cell_angle_alpha 90.000000
_cell_angle_beta 90.000000
_cell_angle_gamma 90.000000
_cell_volume 1988.608793
_symmetry_space_group_name_H-M "P M M A"
_symmetry_group_IT_number 51
_symmetry_cell_setting 'orthorhombic'
loop_
_space_group_symop_operation_xyz
x,y,z
1/2-x,-y,z
1/2+x,-y,-z
-x,y,-z
-x,-y,-z
1/2+x,y,-z
1/2-x,y,z
x,-y,z
loop_
_atom_site_type_symbol
_atom_site_label
_atom_site_fract_x
_atom_site_fract_y
_atom_site_fract_z
Si Si1 0.596738 0.208381 0.159437
Si Si2 0.095420 0.714385 0.545080
Si Si3 0.097797 0.708033 0.251196
Si Si4 0.904987 0.285157 0.340135
Si Si5 0.902573 0.711473 0.044102
O O1 0.750000 0.279782 0.166956
O O2 0.489421 0.272638 0.200209
O O3 0.554761 0.247653 0.101596
O O4 0.604339 0.000000 0.165192
O O5 0.250000 0.766456 0.536347
O O6 0.092000 0.500000 0.544751
O O7 0.058014 0.767972 0.602412
O O8 0.000000 0.776602 0.500000
O O9 0.250000 0.779517 0.247396
O O10 0.109969 0.500000 0.260474
O O11 0.008591 0.779594 0.297807
O O12 0.750000 0.231388 0.329819
O O13 0.904573 0.500000 0.339172
O O14 0.750000 0.778295 0.037951
O O15 0.898416 0.500000 0.039900
O O16 0.000000 0.778273 0.000000
#
# Coordination Sequence:
#
# PCOD9402836 Si02
#       5
#     8   8   8   8   8
#     4  10  21  36  53  73  98 130 166 200 238 287
#     4   8  13  20  31  50  78 113 150 187 231 282
#     4  10  20  32  48  71  96 124 161 204 248 291
#     4   8  14  25  40  58  83 118 158 196 236 285
#     4   9  18  33  53  76 101 129 161 196 233 276
#
# _framework density 20.114563
#
# number of rings (size 3 to 8) (size 9 to 14) (size 15 to 20)
#    0.000    3.000    0.000    2.400    0.000    4.400 
#    0.000    6.000    0.000    0.000    0.000    0.000 
#    0.000    0.800    0.000    2.600    0.000    5.200 
#
# Total GULP energy -223121.402593 kJ/mol
# GULP energy per Si atom -5578.035065 kJ/mol
# Density = 2.006878 g / cm^3
# Si number density = 20.114563 Si / 1000 Ang^3
#
#
#
# Elastic Constant Matrix: (Units=GPa)
#
#
# Indices 1 2 3 4 5 6 
#
# 1 150.2695 5.1202 149.5349 0.0000 0.0000 0.0000
# 2 5.1202 41.5953 -2.4599 0.0000 0.0000 0.0000
# 3 149.5349 -2.4599 199.0651 0.0000 0.0000 0.0000
# 4 0.0000 0.0000 0.0000 -54.5435 0.0000 0.0000
# 5 0.0000 0.0000 0.0000 0.0000 40.4271 0.0000
# 6 0.0000 0.0000 0.0000 0.0000 0.0000 0.5813
#
#
#
# Elastic Compliance Matrix: (Units=1/GPa)
#
#
# Indices 1 2 3 4 5 6 
#
# 1 0.027194 -0.004559 -0.020484 0.000000 0.000000 0.000000
# 2 -0.004559 0.024823 0.003731 0.000000 0.000000 0.000000
# 3 -0.020484 0.003731 0.020457 0.000000 0.000000 0.000000
# 4 0.000000 0.000000 0.000000 -0.018334 0.000000 0.000000
# 5 0.000000 0.000000 0.000000 0.000000 0.024736 0.000000
# 6 0.000000 0.000000 0.000000 0.000000 0.000000 1.720357
#
#
# Mechanical properties :
#
#
# Convention : Reuss Voigt Hill
#
# Bulk Modulus (GPa) = 33.50010 77.25781 55.37895
# Shear Modulus (GPa) = 2.70007 13.20863 7.95435
#
# Velocity S-wave (km/s) = 1.15985 2.56534 1.99076
# Velocity P-wave (km/s) = 4.29936 6.87509 5.73373
#
# Compressibility (1/GPa) = 0.02985066
#
# Stress axis : x y z
#
# Youngs Moduli (GPa) = 36.77287 40.28519 48.88320
#
# Poissons Ratio (x) = 0.18366 1.00133
# Poissons Ratio (y) = 0.16764 -0.18240
# Poissons Ratio (z) = 0.75326 -0.15032
#
# Static dielectric constant tensor:
#      x y z
#    x 1.708760 0.000000 0.000000 
#    y 0.000000 1.748070 0.000000 
#    z 0.000000 0.000000 1.686100 
# 
# From -- ./inp_files/34316.got.cif
#   From: 2010.05.17/outbox.cif.g08.bks.cpg/sg51_18_cif.got.tgz:34316.got - 2010.06.03 11:52:47.
