data_PCOD9402529
_publ_section_title
;
Structure prediction by ZEFSAII (Michael W. Deem and Ramdas Pophale) SiO2 
 PCOD9402529
Probable space group: P M M A
;
_chemical_formula_sum "Si O2"
_cell_formula_units_Z 40
_cell_length_a 8.996087
_cell_length_b 14.663170
_cell_length_c 14.666180
_cell_angle_alpha 90.000000
_cell_angle_beta 90.000000
_cell_angle_gamma 90.000000
_cell_volume 1934.632714
_symmetry_space_group_name_H-M "P M M A"
_symmetry_group_IT_number 51
_symmetry_cell_setting 'orthorhombic'
loop_
_space_group_symop_operation_xyz
x,y,z
1/2-x,-y,z
1/2+x,-y,-z
-x,y,-z
-x,-y,-z
1/2+x,y,-z
1/2-x,y,z
x,-y,z
loop_
_atom_site_type_symbol
_atom_site_label
_atom_site_fract_x
_atom_site_fract_y
_atom_site_fract_z
Si Si1 0.500000 0.200472 0.000000
Si Si2 0.250000 0.597304 0.630346
Si Si3 0.077516 0.500000 0.900554
Si Si4 0.750000 0.893467 0.114780
Si Si5 0.413348 0.329051 0.163882
Si Si6 0.500000 0.659251 0.500000
Si Si7 0.250000 0.194203 0.688395
Si Si8 0.082910 0.206711 0.345514
O O1 0.389189 0.137022 0.944749
O O2 0.574916 0.265683 0.925182
O O3 0.250000 0.500000 0.680680
O O4 0.391736 0.602399 0.563843
O O5 0.250000 0.695326 0.680229
O O6 0.250000 0.500000 0.918003
O O7 0.030189 0.590407 0.846299
O O8 0.000000 0.500000 0.000000
O O9 0.750000 0.837512 0.207929
O O10 0.750000 0.000000 0.134755
O O11 0.250000 0.372075 0.166900
O O12 0.428144 0.265787 0.252565
O O13 0.413029 0.725652 0.431220
O O14 0.413873 0.162775 0.648760
O O15 0.250000 0.160431 0.342067
#
# Coordination Sequence:
#
# PCOD9402529 Si02
#       8
#     4   4   4   4   8   4   4   8
#     4  12  23  41  66  94 126 166 207 274 337 400
#     4  10  20  36  59  91 131 176 221 271 326 385
#     4  12  26  38  58  87 122 173 234 267 315 381
#     4  12  26  46  69  99 131 166 215 275 350 415
#     4  11  23  40  61  84 128 173 221 273 320 380
#     4  10  19  38  56  86 135 172 225 266 324 376
#     4  10  22  40  66  90 128 170 222 264 330 402
#     4  10  21  39  61  91 126 174 221 271 327 382
#
# _framework density 20.675757999999998
#
# number of rings (size 3 to 8) (size 9 to 14) (size 15 to 20)
#    0.000    1.200    5.000    1.500    2.800    0.000 
#    9.000    0.000    2.200    0.000    0.000   11.200 
#    0.000    0.000    0.000    0.000    0.000    0.000 
#
# Total GULP energy -223110.217909 kJ/mol
# GULP energy per Si atom -5577.755448 kJ/mol
# Density = 2.062870 g / cm^3
# Si number density = 20.675758 Si / 1000 Ang^3
#
#
#
# Elastic Constant Matrix: (Units=GPa)
#
#
# Indices 1 2 3 4 5 6 
#
# 1 179.3106 17.2989 4.8111 0.0000 0.0000 0.0000
# 2 17.2989 63.5067 29.1309 0.0000 0.0000 0.0000
# 3 4.8111 29.1309 70.1103 0.0000 0.0000 0.0000
# 4 0.0000 0.0000 0.0000 1.3391 0.0000 0.0000
# 5 0.0000 0.0000 0.0000 0.0000 42.9663 0.0000
# 6 0.0000 0.0000 0.0000 0.0000 0.0000 28.5858
#
#
#
# Elastic Compliance Matrix: (Units=1/GPa)
#
#
# Indices 1 2 3 4 5 6 
#
# 1 0.005733 -0.001706 0.000316 0.000000 0.000000 0.000000
# 2 -0.001706 0.019962 -0.008177 0.000000 0.000000 0.000000
# 3 0.000316 -0.008177 0.017639 0.000000 0.000000 0.000000
# 4 0.000000 0.000000 0.000000 0.746744 0.000000 0.000000
# 5 0.000000 0.000000 0.000000 0.000000 0.023274 0.000000
# 6 0.000000 0.000000 0.000000 0.000000 0.000000 0.034982
#
#
# Mechanical properties :
#
#
# Convention : Reuss Voigt Hill
#
# Bulk Modulus (GPa) = 41.32504 46.15659 43.74082
# Shear Modulus (GPa) = 5.71078 32.02402 18.86740
#
# Velocity S-wave (km/s) = 1.66375 3.93984 3.02410
# Velocity P-wave (km/s) = 4.87046 6.56269 5.77885
#
# Compressibility (1/GPa) = 0.02419840
#
# Stress axis : x y z
#
# Youngs Moduli (GPa) = 174.42647 50.09495 56.69192
#
# Poissons Ratio (x) = 0.08548 -0.01789
# Poissons Ratio (y) = 0.29765 0.46358
# Poissons Ratio (z) = -0.05505 0.40963
#
# Static dielectric constant tensor:
#      x y z
#    x 1.847520 0.000000 0.000000 
#    y 0.000000 1.684380 0.000000 
#    z 0.000000 0.000000 1.721850 
# 
# From -- ./inp_files/20657.got.cif
#   From: 2010.05.17/outbox.cif.g08.bks.cpg/sg51_11_cif.got.tgz:20657.got - 2010.06.03 11:52:47.
