data_PCOD9402077
_publ_section_title
;
Structure prediction by ZEFSAII (Michael W. Deem and Ramdas Pophale) SiO2 
 PCOD9402077
Probable space group: P M M A
;
_chemical_formula_sum "Si O2"
_cell_formula_units_Z 48
_cell_length_a 18.929888
_cell_length_b 8.536009
_cell_length_c 15.116086
_cell_angle_alpha 90.000000
_cell_angle_beta 90.000000
_cell_angle_gamma 90.000000
_cell_volume 2442.543252
_symmetry_space_group_name_H-M "P M M A"
_symmetry_group_IT_number 51
_symmetry_cell_setting 'orthorhombic'
loop_
_space_group_symop_operation_xyz
x,y,z
1/2-x,-y,z
1/2+x,-y,-z
-x,y,-z
-x,-y,-z
1/2+x,y,-z
1/2-x,y,z
x,-y,z
loop_
_atom_site_type_symbol
_atom_site_label
_atom_site_fract_x
_atom_site_fract_y
_atom_site_fract_z
Si Si1 0.169824 0.187876 0.271316
Si Si2 0.951825 0.316587 0.378231
Si Si3 0.098524 0.184457 0.448499
Si Si4 0.830244 0.689302 0.032932
Si Si5 0.419667 0.814908 0.812453
Si Si6 0.066986 0.314283 0.125365
O O1 0.250000 0.225233 0.245866
O O2 0.156150 0.223111 0.374383
O O3 0.114417 0.279056 0.211252
O O4 0.158527 0.000000 0.260318
O O5 0.968850 0.500000 0.377348
O O6 0.900278 0.278223 0.460090
O O7 0.923039 0.264952 0.283573
O O8 0.023421 0.222572 0.401660
O O9 0.101720 0.000000 0.468278
O O10 0.750000 0.738686 0.012437
O O11 0.831621 0.500000 0.034685
O O12 0.856594 0.753337 0.126468
O O13 0.886055 0.739446 0.957842
O O14 0.492614 0.770391 0.862217
O O15 0.415513 0.000000 0.801087
O O16 0.053575 0.500000 0.117160
#
# Coordination Sequence:
#
# PCOD9402077 Si02
#       6
#     8   8   8   8   8   8
#     4  10  21  36  56  85 123 162 197 240 297 356
#     4  11  21  35  58  85 114 150 196 247 293 345
#     4  10  19  34  56  83 118 155 193 240 293 352
#     4  10  23  43  63  86 119 157 196 243 300 359
#     4  12  24  39  61  90 120 155 200 250 298 353
#     4  11  22  38  62  90 119 155 199 246 297 355
#
# _framework density 19.651647000000001
#
# number of rings (size 3 to 8) (size 9 to 14) (size 15 to 20)
#    0.000    1.333    1.667    6.000    0.000    5.333 
#    0.000    0.833    0.000    3.000    0.000    0.000 
#    0.000    0.000    0.000    0.000    0.000    0.000 
#
# Total GULP energy -268326.241382 kJ/mol
# GULP energy per Si atom -5590.130029 kJ/mol
# Density = 1.960692 g / cm^3
# Si number density = 19.651647 Si / 1000 Ang^3
#
#
#
# Elastic Constant Matrix: (Units=GPa)
#
#
# Indices 1 2 3 4 5 6 
#
# 1 27.4015 0.7259 9.4651 0.0000 0.0000 0.0000
# 2 0.7259 17.5184 3.6261 0.0000 0.0000 0.0000
# 3 9.4651 3.6261 103.3811 0.0000 0.0000 0.0000
# 4 0.0000 0.0000 0.0000 36.7548 0.0000 0.0000
# 5 0.0000 0.0000 0.0000 0.0000 13.5088 0.0000
# 6 0.0000 0.0000 0.0000 0.0000 0.0000 -49.6729
#
#
#
# Elastic Compliance Matrix: (Units=1/GPa)
#
#
# Indices 1 2 3 4 5 6 
#
# 1 0.037699 -0.000854 -0.003422 0.000000 0.000000 0.000000
# 2 -0.000854 0.057520 -0.001939 0.000000 0.000000 0.000000
# 3 -0.003422 -0.001939 0.010054 0.000000 0.000000 0.000000
# 4 0.000000 0.000000 0.000000 0.027207 0.000000 0.000000
# 5 0.000000 0.000000 0.000000 0.000000 0.074026 0.000000
# 6 0.000000 0.000000 0.000000 0.000000 0.000000 -0.020132
#
#
# Mechanical properties :
#
#
# Convention : Reuss Voigt Hill
#
# Bulk Modulus (GPa) = 10.77084 19.54836 15.15960
# Shear Modulus (GPa) = 21.76263 9.08374 15.42319
#
# Velocity S-wave (km/s) = 3.33140 2.15230 2.80452
# Velocity P-wave (km/s) = 4.50449 4.01816 4.26826
#
# Compressibility (1/GPa) = 0.09284329
#
# Stress axis : x y z
#
# Youngs Moduli (GPa) = 26.52600 17.38532 99.46059
#
# Poissons Ratio (x) = 0.01484 0.34031
# Poissons Ratio (y) = 0.02265 0.19289
# Poissons Ratio (z) = 0.09076 0.03372
#
# Static dielectric constant tensor:
#      x y z
#    x 1.674670 0.000000 0.000000 
#    y 0.000000 1.665170 0.000000 
#    z 0.000000 0.000000 1.699770 
# 
# From -- ./inp_files/24825.got.cif
#   From: 2010.05.17/outbox.cif.g08.bks.cpg/sg51_13_cif.got.tgz:24825.got - 2010.06.03 11:52:47.
