data_PCOD9402041
_publ_section_title
;
Structure prediction by ZEFSAII (Michael W. Deem and Ramdas Pophale) SiO2 
 PCOD9402041
Probable space group: P M M A
;
_chemical_formula_sum "Si O2"
_cell_formula_units_Z 40
_cell_length_a 8.392583
_cell_length_b 26.594137
_cell_length_c 9.665347
_cell_angle_alpha 90.000000
_cell_angle_beta 90.000000
_cell_angle_gamma 90.000000
_cell_volume 2157.242646
_symmetry_space_group_name_H-M "P M M A"
_symmetry_group_IT_number 51
_symmetry_cell_setting 'orthorhombic'
loop_
_space_group_symop_operation_xyz
x,y,z
1/2-x,-y,z
1/2+x,-y,-z
-x,y,-z
-x,-y,-z
1/2+x,y,-z
1/2-x,y,z
x,-y,z
loop_
_atom_site_type_symbol
_atom_site_label
_atom_site_fract_x
_atom_site_fract_y
_atom_site_fract_z
Si Si1 0.441889 0.500000 0.158195
Si Si2 0.057572 0.091840 0.845565
Si Si3 0.440699 0.297753 0.656614
Si Si4 0.942554 0.793939 0.154776
Si Si5 0.942711 0.000000 0.343756
Si Si6 0.558470 0.389841 0.841295
O O1 0.250000 0.500000 0.161191
O O2 0.493962 0.445402 0.212984
O O3 0.500000 0.500000 0.000000
O O4 0.250000 0.091701 0.845878
O O5 0.004449 0.148932 0.813246
O O6 0.002461 0.049733 0.738255
O O7 0.000000 0.079547 0.000000
O O8 0.500000 0.299940 0.500000
O O9 0.250000 0.296671 0.655520
O O10 0.498486 0.247478 0.735943
O O11 0.495328 0.345686 0.745165
O O12 0.750000 0.793631 0.153893
O O13 0.000000 0.781345 0.000000
O O14 0.000000 0.000000 0.500000
O O15 0.750000 0.000000 0.342219
O O16 0.750000 0.388300 0.842879
O O17 0.500000 0.384034 0.000000
#
# Coordination Sequence:
#
# PCOD9402041 Si02
#       6
#     4   8   8   8   4   8
#     4   8  16  30  51  78 105 132 166 208 254 300
#     4   9  18  34  54  77 102 131 168 212 255 301
#     4  11  23  37  52  74 104 139 175 214 259 309
#     4   9  19  35  55  77 102 131 168 211 257 305
#     4  10  21  34  50  74 106 138 171 208 250 300
#     4  10  19  34  56  81 107 136 171 212 255 304
#
# _framework density 18.542190000000002
#
# number of rings (size 3 to 8) (size 9 to 14) (size 15 to 20)
#    0.000    2.400    0.000    2.100    0.000    5.600 
#    0.000    0.500    0.000    0.000    0.000    0.000 
#    0.000    0.000    0.000    0.000    0.000    0.000 
#
# Total GULP energy -223126.770687 kJ/mol
# GULP energy per Si atom -5578.169267 kJ/mol
# Density = 1.849999 g / cm^3
# Si number density = 18.542190 Si / 1000 Ang^3
#
#
#
# Elastic Constant Matrix: (Units=GPa)
#
#
# Indices 1 2 3 4 5 6 
#
# 1 19.5588 28.4946 21.3715 0.0000 0.0000 0.0000
# 2 28.4946 179.5162 129.5596 0.0000 0.0000 0.0000
# 3 21.3715 129.5596 142.5506 0.0000 0.0000 0.0000
# 4 0.0000 0.0000 0.0000 12.8622 0.0000 0.0000
# 5 0.0000 0.0000 0.0000 0.0000 31.2555 0.0000
# 6 0.0000 0.0000 0.0000 0.0000 0.0000 18.2160
#
#
#
# Elastic Compliance Matrix: (Units=1/GPa)
#
#
# Indices 1 2 3 4 5 6 
#
# 1 0.066566 -0.009776 -0.001095 0.000000 0.000000 0.000000
# 2 -0.009776 0.017626 -0.014554 0.000000 0.000000 0.000000
# 3 -0.001095 -0.014554 0.020407 0.000000 0.000000 0.000000
# 4 0.000000 0.000000 0.000000 0.077747 0.000000 0.000000
# 5 0.000000 0.000000 0.000000 0.000000 0.031994 0.000000
# 6 0.000000 0.000000 0.000000 0.000000 0.000000 0.054897
#
#
# Mechanical properties :
#
#
# Convention : Reuss Voigt Hill
#
# Bulk Modulus (GPa) = 18.60479 77.83078 48.21778
# Shear Modulus (GPa) = 14.79268 23.28008 19.03638
#
# Velocity S-wave (km/s) = 2.82757 3.54717 3.20762
# Velocity P-wave (km/s) = 4.55146 7.67090 6.30708
#
# Compressibility (1/GPa) = 0.05374961
#
# Stress axis : x y z
#
# Youngs Moduli (GPa) = 15.02264 56.73302 49.00226
#
# Poissons Ratio (x) = 0.55462 0.05364
# Poissons Ratio (y) = 0.14686 0.71320
# Poissons Ratio (z) = 0.01645 0.82572
#
# Static dielectric constant tensor:
#      x y z
#    x 1.643880 0.000000 0.000000 
#    y 0.000000 1.682010 0.000000 
#    z 0.000000 0.000000 1.581860 
# 
# From -- ./inp_files/5521.got.cif
#   From: 2010.05.17/outbox.cif.g08.bks.cpg/sg51_3_cif.got.tgz:5521.got - 2010.06.03 11:52:47.
