data_PCOD9402292
_publ_section_title
;
Structure prediction by ZEFSAII (Michael W. Deem and Ramdas Pophale) SiO2 
 PCOD9402292
Probable space group: P M M A
;
_chemical_formula_sum "Si O2"
_cell_formula_units_Z 48
_cell_length_a 29.641653
_cell_length_b 7.631280
_cell_length_c 10.234330
_cell_angle_alpha 90.000000
_cell_angle_beta 90.000000
_cell_angle_gamma 90.000000
_cell_volume 2315.043863
_symmetry_space_group_name_H-M "P M M A"
_symmetry_group_IT_number 51
_symmetry_cell_setting 'orthorhombic'
loop_
_space_group_symop_operation_xyz
x,y,z
1/2-x,-y,z
1/2+x,-y,-z
-x,y,-z
-x,-y,-z
1/2+x,y,-z
1/2-x,y,z
x,-y,z
loop_
_atom_site_type_symbol
_atom_site_label
_atom_site_fract_x
_atom_site_fract_y
_atom_site_fract_z
Si Si1 0.367365 0.298012 0.998442
Si Si2 0.698285 0.288082 0.778276
Si Si3 0.463299 0.788376 0.109794
Si Si4 0.481335 0.785448 0.640340
Si Si5 0.619549 0.795175 0.298867
Si Si6 0.801423 0.791445 0.482715
O O1 0.355220 0.500000 0.974803
O O2 0.331835 0.222094 0.102134
O O3 0.415614 0.287820 0.068909
O O4 0.371048 0.215052 0.855539
O O5 0.750000 0.230536 0.792990
O O6 0.697055 0.500000 0.781114
O O7 0.683457 0.234836 0.632757
O O8 0.484090 0.730299 0.246866
O O9 0.458288 0.000000 0.111299
O O10 0.500000 0.744926 0.000000
O O11 0.500000 0.732419 0.500000
O O12 0.430400 0.723071 0.670003
O O13 0.480517 0.000000 0.644591
O O14 0.661015 0.719732 0.383230
O O15 0.616977 0.000000 0.335217
O O16 0.750000 0.720327 0.469348
O O17 0.798119 0.000000 0.460073
#
# Coordination Sequence:
#
# PCOD9402292 Si02
#       6
#     8   8   8   8   8   8
#     4  11  23  36  54  81 111 143 183 228 270 313
#     4   9  20  39  58  77 107 146 184 220 264 325
#     4  10  19  35  57  78 105 142 181 216 262 326
#     4   9  18  32  52  78 103 135 179 218 255 315
#     4  10  20  36  55  78 110 143 178 220 269 325
#     4   9  19  35  57  85 111 136 174 228 281 322
#
# _framework density 20.733948000000002
#
# number of rings (size 3 to 8) (size 9 to 14) (size 15 to 20)
#    0.000    2.333    1.667    0.500    2.333    3.000 
#    0.000    0.000    0.000    1.000    0.000    0.000 
#    0.000    0.000    0.000    0.000    0.000    0.000 
#
# Total GULP energy -267949.344527 kJ/mol
# GULP energy per Si atom -5582.278011 kJ/mol
# Density = 2.068676 g / cm^3
# Si number density = 20.733948 Si / 1000 Ang^3
#
#
#
# Elastic Constant Matrix: (Units=GPa)
#
#
# Indices 1 2 3 4 5 6 
#
# 1 109.9794 -2.2070 86.4046 0.0000 0.0000 0.0000
# 2 -2.2070 34.7390 -8.3756 0.0000 0.0000 0.0000
# 3 86.4046 -8.3756 165.5389 0.0000 0.0000 0.0000
# 4 0.0000 0.0000 0.0000 19.3598 0.0000 0.0000
# 5 0.0000 0.0000 0.0000 0.0000 44.4865 0.0000
# 6 0.0000 0.0000 0.0000 0.0000 0.0000 11.8867
#
#
#
# Elastic Compliance Matrix: (Units=1/GPa)
#
#
# Indices 1 2 3 4 5 6 
#
# 1 0.015446 -0.000974 -0.008111 0.000000 0.000000 0.000000
# 2 -0.000974 0.029203 0.001986 0.000000 0.000000 0.000000
# 3 -0.008111 0.001986 0.010375 0.000000 0.000000 0.000000
# 4 0.000000 0.000000 0.000000 0.051653 0.000000 0.000000
# 5 0.000000 0.000000 0.000000 0.000000 0.022479 0.000000
# 6 0.000000 0.000000 0.000000 0.000000 0.000000 0.084128
#
#
# Mechanical properties :
#
#
# Convention : Reuss Voigt Hill
#
# Bulk Modulus (GPa) = 24.49491 51.32236 37.90864
# Shear Modulus (GPa) = 20.73905 30.77561 25.75733
#
# Velocity S-wave (km/s) = 3.16610 3.85685 3.52842
# Velocity P-wave (km/s) = 5.02047 6.68134 5.90955
#
# Compressibility (1/GPa) = 0.04082480
#
# Stress axis : x y z
#
# Youngs Moduli (GPa) = 64.74310 34.24298 96.38423
#
# Poissons Ratio (x) = 0.03336 0.78180
# Poissons Ratio (y) = 0.06308 -0.19143
# Poissons Ratio (z) = 0.52515 -0.06801
#
# Static dielectric constant tensor:
#      x y z
#    x 1.789820 0.000000 0.000000 
#    y 0.000000 1.860940 0.000000 
#    z 0.000000 0.000000 1.701900 
# 
# From -- ./inp_files/12834.got.cif
#   From: 2010.05.17/outbox.cif.g08.bks.cpg/sg51_7_cif.got.tgz:12834.got - 2010.06.03 11:52:47.
