data_PCOD9402339
_publ_section_title
;
Structure prediction by ZEFSAII (Michael W. Deem and Ramdas Pophale) SiO2 
 PCOD9402339
Probable space group: P M M A
;
_chemical_formula_sum "Si O2"
_cell_formula_units_Z 48
_cell_length_a 8.619184
_cell_length_b 31.594180
_cell_length_c 9.457201
_cell_angle_alpha 90.000000
_cell_angle_beta 90.000000
_cell_angle_gamma 90.000000
_cell_volume 2575.347627
_symmetry_space_group_name_H-M "P M M A"
_symmetry_group_IT_number 51
_symmetry_cell_setting 'orthorhombic'
loop_
_space_group_symop_operation_xyz
x,y,z
1/2-x,-y,z
1/2+x,-y,-z
-x,y,-z
-x,-y,-z
1/2+x,y,-z
1/2-x,y,z
x,-y,z
loop_
_atom_site_type_symbol
_atom_site_label
_atom_site_fract_x
_atom_site_fract_y
_atom_site_fract_z
Si Si1 0.064187 0.000000 0.340693
Si Si2 0.937011 0.407272 0.339583
Si Si3 0.063406 0.745837 0.656485
Si Si4 0.563046 0.921941 0.158472
Si Si5 0.434965 0.670280 0.157714
Si Si6 0.936570 0.842806 0.344683
Si Si7 0.436455 0.500000 0.659451
O O1 0.000000 0.000000 0.500000
O O2 0.003029 0.959137 0.256381
O O3 0.250000 0.000000 0.343631
O O4 0.750000 0.404334 0.342608
O O5 0.982696 0.454105 0.280946
O O6 0.000000 0.403947 0.500000
O O7 0.004981 0.369772 0.246740
O O8 0.250000 0.743275 0.655672
O O9 0.016430 0.794471 0.688179
O O10 0.000000 0.735765 0.500000
O O11 0.995855 0.712596 0.766263
O O12 0.750000 0.924510 0.156710
O O13 0.515599 0.877264 0.229243
O O14 0.500000 0.925841 0.000000
O O15 0.250000 0.670392 0.155834
O O16 0.500000 0.668009 0.000000
O O17 0.750000 0.843421 0.352381
O O18 0.000000 0.853888 0.500000
O O19 0.250000 0.500000 0.654614
O O20 0.500000 0.500000 0.500000
#
# Coordination Sequence:
#
# PCOD9402339 Si02
#       7
#     4   8   8   8   8   8   4
#     4  12  25  42  63  88 116 152 194 240 287 338
#     4  10  19  35  58  85 113 145 183 227 274 328
#     4  10  20  38  61  87 115 148 188 233 279 331
#     4  11  23  40  60  87 120 156 193 235 284 338
#     4  12  25  40  56  79 110 148 188 232 282 336
#     4   9  20  37  60  87 116 148 188 232 280 333
#     4   8  16  30  53  82 111 140 178 224 272 322
#
# _framework density 18.638259999999999
#
# number of rings (size 3 to 8) (size 9 to 14) (size 15 to 20)
#    0.000    1.667    0.000    5.000    0.000    4.667 
#    0.000    2.083    0.000    0.000    0.000    0.000 
#    0.000    0.000    0.000    0.000    0.000    0.000 
#
# Total GULP energy -268149.507948 kJ/mol
# GULP energy per Si atom -5586.448082 kJ/mol
# Density = 1.859584 g / cm^3
# Si number density = 18.638260 Si / 1000 Ang^3
#
#
#
# Elastic Constant Matrix: (Units=GPa)
#
#
# Indices 1 2 3 4 5 6 
#
# 1 95.8249 56.2700 55.0818 0.0000 0.0000 0.0000
# 2 56.2700 143.9585 110.6368 0.0000 0.0000 0.0000
# 3 55.0818 110.6368 152.5632 0.0000 0.0000 0.0000
# 4 0.0000 0.0000 0.0000 -21.6342 0.0000 0.0000
# 5 0.0000 0.0000 0.0000 0.0000 34.9676 0.0000
# 6 0.0000 0.0000 0.0000 0.0000 0.0000 8.0246
#
#
#
# Elastic Compliance Matrix: (Units=1/GPa)
#
#
# Indices 1 2 3 4 5 6 
#
# 1 0.013936 -0.003570 -0.002442 0.000000 0.000000 0.000000
# 2 -0.003570 0.016607 -0.010754 0.000000 0.000000 0.000000
# 3 -0.002442 -0.010754 0.015235 0.000000 0.000000 0.000000
# 4 0.000000 0.000000 0.000000 -0.046223 0.000000 0.000000
# 5 0.000000 0.000000 0.000000 0.000000 0.028598 0.000000
# 6 0.000000 0.000000 0.000000 0.000000 0.000000 0.124617
#
#
# Mechanical properties :
#
#
# Convention : Reuss Voigt Hill
#
# Bulk Modulus (GPa) = 81.66793 92.92486 87.29640
# Shear Modulus (GPa) = 26.26258 15.62880 20.94569
#
# Velocity S-wave (km/s) = 3.75783 2.89889 3.35595
# Velocity P-wave (km/s) = 7.92091 7.82113 7.87118
#
# Compressibility (1/GPa) = 0.01224471
#
# Stress axis : x y z
#
# Youngs Moduli (GPa) = 71.75581 60.21653 65.63765
#
# Poissons Ratio (x) = 0.21498 0.16032
# Poissons Ratio (y) = 0.25618 0.70587
# Poissons Ratio (z) = 0.17526 0.64757
#
# Static dielectric constant tensor:
#      x y z
#    x 1.622330 0.000000 0.000000 
#    y 0.000000 1.665800 0.000000 
#    z 0.000000 0.000000 1.579650 
# 
# From -- ./inp_files/6191.got.cif
#   From: 2010.05.17/outbox.cif.g08.bks.cpg/sg51_4_cif.got.tgz:6191.got - 2010.06.03 11:52:47.
