data_PCOD9402010
_publ_section_title
;
Structure prediction by ZEFSAII (Michael W. Deem and Ramdas Pophale) SiO2 
 PCOD9402010
Probable space group: P M M A
;
_chemical_formula_sum "Si O2"
_cell_formula_units_Z 48
_cell_length_a 15.882811
_cell_length_b 7.592820
_cell_length_c 18.483875
_cell_angle_alpha 90.000000
_cell_angle_beta 90.000000
_cell_angle_gamma 90.000000
_cell_volume 2229.068913
_symmetry_space_group_name_H-M "P M M A"
_symmetry_group_IT_number 51
_symmetry_cell_setting 'orthorhombic'
loop_
_space_group_symop_operation_xyz
x,y,z
1/2-x,-y,z
1/2+x,-y,-z
-x,y,-z
-x,-y,-z
1/2+x,y,-z
1/2-x,y,z
x,-y,z
loop_
_atom_site_type_symbol
_atom_site_label
_atom_site_fract_x
_atom_site_fract_y
_atom_site_fract_z
Si Si1 0.750000 0.784938 0.546755
Si Si2 0.250000 0.290498 0.967828
Si Si3 0.907462 0.794422 0.295258
Si Si4 0.750000 0.789029 0.712555
Si Si5 0.925682 0.292907 0.789371
Si Si6 0.581226 0.284111 0.954419
Si Si7 0.250000 0.213303 0.798181
Si Si8 0.915404 0.784128 0.459301
O O1 0.750000 0.725006 0.629718
O O2 0.833373 0.730069 0.504083
O O3 0.750000 0.000000 0.547785
O O4 0.250000 0.500000 0.980123
O O5 0.250000 0.263440 0.882087
O O6 0.334217 0.222109 0.006022
O O7 0.833529 0.722243 0.243877
O O8 0.911162 0.721035 0.376486
O O9 0.998176 0.783709 0.257492
O O10 0.886273 0.000000 0.304392
O O11 0.665101 0.732650 0.752989
O O12 0.750000 0.000000 0.710934
O O13 0.943126 0.500000 0.793283
O O14 0.923842 0.224320 0.871483
O O15 0.582447 0.500000 0.953648
O O16 0.500000 0.230254 0.000000
O O17 0.250000 0.000000 0.797771
O O18 0.000000 0.727511 0.500000
O O19 0.916882 0.000000 0.458394
#
# Coordination Sequence:
#
# PCOD9402010 Si02
#       8
#     4   4   8   4   8   8   4   8
#     4   9  17  30  52  80 104 135 182 226 260 303
#     4  10  19  34  56  76  97 132 180 226 264 310
#     4  10  20  35  55  81 113 145 178 222 273 320
#     4  11  22  37  58  83 112 143 178 224 274 323
#     4  11  22  37  58  82 109 142 181 224 270 323
#     4   9  18  33  53  76 101 134 179 225 262 304
#     4  10  21  35  52  79 115 146 172 214 276 332
#     4   9  16  28  49  76 103 133 175 222 260 300
#
# _framework density 21.533657000000002
#
# number of rings (size 3 to 8) (size 9 to 14) (size 15 to 20)
#    0.000    2.167    0.000    3.750    0.000    8.000 
#    0.000    2.500    0.000   10.000    0.000    0.000 
#    0.000    0.000    0.000    0.000    0.000    0.000 
#
# Total GULP energy -268300.198700 kJ/mol
# GULP energy per Si atom -5589.587473 kJ/mol
# Density = 2.148465 g / cm^3
# Si number density = 21.533657 Si / 1000 Ang^3
#
#
#
# Elastic Constant Matrix: (Units=GPa)
#
#
# Indices 1 2 3 4 5 6 
#
# 1 180.4209 -15.8068 102.6073 0.0000 0.0000 0.0000
# 2 -15.8068 43.6682 -9.7815 0.0000 0.0000 0.0000
# 3 102.6073 -9.7815 218.8234 0.0000 0.0000 0.0000
# 4 0.0000 0.0000 0.0000 23.7827 0.0000 0.0000
# 5 0.0000 0.0000 0.0000 0.0000 45.3381 0.0000
# 6 0.0000 0.0000 0.0000 0.0000 0.0000 43.5457
#
#
#
# Elastic Compliance Matrix: (Units=1/GPa)
#
#
# Indices 1 2 3 4 5 6 
#
# 1 0.007728 0.002006 -0.003534 0.000000 0.000000 0.000000
# 2 0.002006 0.023652 0.000117 0.000000 0.000000 0.000000
# 3 -0.003534 0.000117 0.006232 0.000000 0.000000 0.000000
# 4 0.000000 0.000000 0.000000 0.042047 0.000000 0.000000
# 5 0.000000 0.000000 0.000000 0.000000 0.022057 0.000000
# 6 0.000000 0.000000 0.000000 0.000000 0.000000 0.022964
#
#
# Mechanical properties :
#
#
# Convention : Reuss Voigt Hill
#
# Bulk Modulus (GPa) = 28.74432 66.32782 47.53607
# Shear Modulus (GPa) = 35.94517 46.92619 41.43568
#
# Velocity S-wave (km/s) = 4.09008 4.67326 4.39136
# Velocity P-wave (km/s) = 5.97349 7.74519 6.91630
#
# Compressibility (1/GPa) = 0.03478948
#
# Stress axis : x y z
#
# Youngs Moduli (GPa) = 129.39579 42.27940 160.45467
#
# Poissons Ratio (x) = -0.08480 0.56707
# Poissons Ratio (y) = -0.25954 -0.01873
# Poissons Ratio (z) = 0.45730 -0.00494
#
# Static dielectric constant tensor:
#      x y z
#    x 1.796450 0.000000 0.000000 
#    y 0.000000 1.831480 0.000000 
#    z 0.000000 0.000000 1.742940 
# 
# From -- ./inp_files/29704.got.cif
#   From: 2010.05.17/outbox.cif.g08.bks.cpg/sg51_15_cif.got.tgz:29704.got - 2010.06.03 11:52:47.
