data_PCOD9402547
_publ_section_title
;
Structure prediction by ZEFSAII (Michael W. Deem and Ramdas Pophale) SiO2 
 PCOD9402547
Probable space group: P M M A
;
_chemical_formula_sum "Si O2"
_cell_formula_units_Z 64
_cell_length_a 9.447009
_cell_length_b 15.654136
_cell_length_c 29.775096
_cell_angle_alpha 90.000000
_cell_angle_beta 90.000000
_cell_angle_gamma 90.000000
_cell_volume 4403.283035
_symmetry_space_group_name_H-M "P M M A"
_symmetry_group_IT_number 51
_symmetry_cell_setting 'orthorhombic'
loop_
_space_group_symop_operation_xyz
x,y,z
1/2-x,-y,z
1/2+x,-y,-z
-x,y,-z
-x,-y,-z
1/2+x,y,-z
1/2-x,y,z
x,-y,z
loop_
_atom_site_type_symbol
_atom_site_label
_atom_site_fract_x
_atom_site_fract_y
_atom_site_fract_z
Si Si1 0.587404 0.395811 0.956089
Si Si2 0.915140 0.737752 0.602559
Si Si3 0.912252 0.603793 0.130191
Si Si4 0.914760 0.261894 0.710917
Si Si5 0.917282 0.599551 0.453056
Si Si6 0.913523 0.096293 0.399086
Si Si7 0.420050 0.399530 0.767644
Si Si8 0.413607 0.095757 0.710067
O O1 0.750000 0.368652 0.958596
O O2 0.586327 0.500000 0.955831
O O3 0.512603 0.367509 0.910053
O O4 0.500000 0.369128 0.000000
O O5 0.750000 0.730965 0.589908
O O6 0.924112 0.733635 0.656709
O O7 0.008106 0.662360 0.581767
O O8 0.982248 0.828046 0.587040
O O9 0.750000 0.631263 0.122455
O O10 0.910977 0.500000 0.129516
O O11 0.955237 0.626462 0.180922
O O12 0.750000 0.264234 0.723206
O O13 0.998578 0.339568 0.733298
O O14 0.986984 0.172578 0.725086
O O15 0.750000 0.618133 0.458017
O O16 0.930726 0.500000 0.439473
O O17 0.000000 0.609499 0.500000
O O18 0.750000 0.113351 0.412205
O O19 0.915965 0.095370 0.344516
O O20 0.951731 0.000000 0.413901
O O21 0.250000 0.391273 0.762644
O O22 0.454528 0.500000 0.761828
O O23 0.250000 0.110664 0.723195
O O24 0.455436 0.000000 0.724517
#
# Coordination Sequence:
#
# PCOD9402547 Si02
#       8
#     8   8   8   8   8   8   8   8
#     4   9  15  21  31  48  68  90 119 160 208 252
#     4  10  20  32  47  69  95 119 142 171 207 247
#     4   8  14  25  38  50  66  92 129 171 212 251
#     4  10  20  30  42  64  91 116 142 175 212 247
#     4  10  21  37  56  74  90 111 140 174 212 253
#     4   8  14  26  45  68  92 117 144 172 202 239
#     4   9  18  31  44  56  75 109 149 184 216 252
#     4   8  14  26  44  63  83 109 140 173 208 247
#
# _framework density 14.534609
#
# number of rings (size 3 to 8) (size 9 to 14) (size 15 to 20)
#    0.000    3.000    0.000    3.000    0.000    5.500 
#    0.000    6.250    0.000    0.375    0.000    0.000 
#    0.000    0.000    0.000    0.000    0.000    0.625 
#
# Total GULP energy -356358.517118 kJ/mol
# GULP energy per Si atom -5568.101830 kJ/mol
# Density = 1.450153 g / cm^3
# Si number density = 14.534609 Si / 1000 Ang^3
#
#
#
# Elastic Constant Matrix: (Units=GPa)
#
#
# Indices 1 2 3 4 5 6 
#
# 1 103.0907 64.1754 39.4631 0.0000 0.0000 0.0000
# 2 64.1754 79.1615 34.0306 0.0000 0.0000 0.0000
# 3 39.4631 34.0306 26.3110 0.0000 0.0000 0.0000
# 4 0.0000 0.0000 0.0000 -2.8880 0.0000 0.0000
# 5 0.0000 0.0000 0.0000 0.0000 23.0578 0.0000
# 6 0.0000 0.0000 0.0000 0.0000 0.0000 18.0972
#
#
#
# Elastic Compliance Matrix: (Units=1/GPa)
#
#
# Indices 1 2 3 4 5 6 
#
# 1 0.025646 -0.009583 -0.026070 0.000000 0.000000 0.000000
# 2 -0.009583 0.032034 -0.027058 0.000000 0.000000 0.000000
# 3 -0.026070 -0.027058 0.112106 0.000000 0.000000 0.000000
# 4 0.000000 0.000000 0.000000 -0.346257 0.000000 0.000000
# 5 0.000000 0.000000 0.000000 0.000000 0.043369 0.000000
# 6 0.000000 0.000000 0.000000 0.000000 0.000000 0.055257
#
#
# Mechanical properties :
#
#
# Convention : Reuss Voigt Hill
#
# Bulk Modulus (GPa) = 22.54203 53.76683 38.15443
# Shear Modulus (GPa) = 80.17264 12.37967 46.27616
#
# Velocity S-wave (km/s) = 7.43502 2.92162 5.64869
# Velocity P-wave (km/s) = 9.44717 6.96087 8.29767
#
# Compressibility (1/GPa) = 0.04436157
#
# Stress axis : x y z
#
# Youngs Moduli (GPa) = 38.99305 31.21709 8.92015
#
# Poissons Ratio (x) = 0.29917 0.23255
# Poissons Ratio (y) = 0.37369 0.24137
# Poissons Ratio (z) = 1.01654 0.84469
#
# Static dielectric constant tensor:
#      x y z
#    x 1.484890 0.000000 0.000000 
#    y 0.000000 1.468850 0.000000 
#    z 0.000000 0.000000 1.473940 
# 
# From -- ./inp_files/37558.got.cif
#   From: 2010.05.17/outbox.cif.g08.bks.cpg/sg51_19_cif.got.tgz:37558.got - 2010.06.03 11:52:47.
