data_PCOD9402543
_publ_section_title
;
Structure prediction by ZEFSAII (Michael W. Deem and Ramdas Pophale) SiO2 
 PCOD9402543
Probable space group: P M M A
;
_chemical_formula_sum "Si O2"
_cell_formula_units_Z 44
_cell_length_a 7.691757
_cell_length_b 17.344183
_cell_length_c 16.498354
_cell_angle_alpha 90.000000
_cell_angle_beta 90.000000
_cell_angle_gamma 90.000000
_cell_volume 2200.999888
_symmetry_space_group_name_H-M "P M M A"
_symmetry_group_IT_number 51
_symmetry_cell_setting 'orthorhombic'
loop_
_space_group_symop_operation_xyz
x,y,z
1/2-x,-y,z
1/2+x,-y,-z
-x,y,-z
-x,-y,-z
1/2+x,y,-z
1/2-x,y,z
x,-y,z
loop_
_atom_site_type_symbol
_atom_site_label
_atom_site_fract_x
_atom_site_fract_y
_atom_site_fract_z
Si Si1 0.959440 0.088293 0.590972
Si Si2 0.542074 0.800699 0.734275
Si Si3 0.542507 0.500000 0.592404
Si Si4 0.046943 0.583798 0.889251
Si Si5 0.956013 0.756136 0.087632
Si Si6 0.538123 0.372373 0.711500
O O1 0.750000 0.085966 0.596283
O O2 0.024005 0.137294 0.668583
O O3 0.000000 0.118709 0.500000
O O4 0.024720 0.000000 0.594826
O O5 0.750000 0.801982 0.726536
O O6 0.508474 0.802736 0.831421
O O7 0.479193 0.715706 0.708935
O O8 0.750000 0.500000 0.602403
O O9 0.500000 0.500000 0.500000
O O10 0.479111 0.423423 0.636797
O O11 0.250000 0.583267 0.913609
O O12 0.970439 0.500000 0.913332
O O13 0.968686 0.667742 0.912599
O O14 0.032899 0.588782 0.792493
O O15 0.750000 0.747935 0.093581
O O16 0.000000 0.791044 0.000000
O O17 0.750000 0.372470 0.716869
#
# Coordination Sequence:
#
# PCOD9402543 Si02
#       6
#     8   8   4   8   8   8
#     4   9  18  33  54  81 110 136 163 200 248 302
#     4   9  18  33  53  74  99 133 168 205 251 299
#     4  10  20  30  40  58  85 118 157 200 243 286
#     4   9  17  29  46  66  89 119 158 204 250 293
#     4  10  20  33  49  72 101 133 170 211 253 300
#     4   9  17  30  45  62  86 120 162 202 240 287
#
# _framework density 19.990914
#
# number of rings (size 3 to 8) (size 9 to 14) (size 15 to 20)
#    0.000    2.727    0.909    0.545    0.000    3.273 
#    0.000    0.000    0.000    0.545    0.000    0.000 
#    0.000    0.000    0.000    0.000    0.000    0.000 
#
# Total GULP energy -245096.668455 kJ/mol
# GULP energy per Si atom -5570.378829 kJ/mol
# Density = 1.994541 g / cm^3
# Si number density = 19.990914 Si / 1000 Ang^3
#
#
#
# Elastic Constant Matrix: (Units=GPa)
#
#
# Indices 1 2 3 4 5 6 
#
# 1 36.4024 8.1557 -4.4939 0.0000 0.0000 0.0000
# 2 8.1557 80.7982 75.0252 0.0000 0.0000 0.0000
# 3 -4.4939 75.0252 194.5591 0.0000 0.0000 0.0000
# 4 0.0000 0.0000 0.0000 63.1839 0.0000 0.0000
# 5 0.0000 0.0000 0.0000 0.0000 24.4293 0.0000
# 6 0.0000 0.0000 0.0000 0.0000 0.0000 6.0088
#
#
#
# Elastic Compliance Matrix: (Units=1/GPa)
#
#
# Indices 1 2 3 4 5 6 
#
# 1 0.029059 -0.005540 0.002808 0.000000 0.000000 0.000000
# 2 -0.005540 0.020336 -0.007970 0.000000 0.000000 0.000000
# 3 0.002808 -0.007970 0.008278 0.000000 0.000000 0.000000
# 4 0.000000 0.000000 0.000000 0.015827 0.000000 0.000000
# 5 0.000000 0.000000 0.000000 0.000000 0.040934 0.000000
# 6 0.000000 0.000000 0.000000 0.000000 0.000000 0.166423
#
#
# Mechanical properties :
#
#
# Convention : Reuss Voigt Hill
#
# Bulk Modulus (GPa) = 27.57267 52.12596 39.84932
# Shear Modulus (GPa) = 15.90579 34.26259 25.08419
#
# Velocity S-wave (km/s) = 2.82379 4.14443 3.54613
# Velocity P-wave (km/s) = 4.94512 7.00237 6.06166
#
# Compressibility (1/GPa) = 0.03626780
#
# Stress axis : x y z
#
# Youngs Moduli (GPa) = 34.41332 49.17333 120.80188
#
# Poissons Ratio (x) = 0.27242 -0.33915
# Poissons Ratio (y) = 0.19065 0.96278
# Poissons Ratio (z) = -0.09662 0.39191
#
# Static dielectric constant tensor:
#      x y z
#    x 1.738220 0.000000 0.000000 
#    y 0.000000 1.725230 0.000000 
#    z 0.000000 0.000000 1.689240 
# 
# From -- ./inp_files/20910.got.cif
#   From: 2010.05.17/outbox.cif.g08.bks.cpg/sg51_11_cif.got.tgz:20910.got - 2010.06.03 11:52:47.
