data_PCOD9402630
_publ_section_title
;
Structure prediction by ZEFSAII (Michael W. Deem and Ramdas Pophale) SiO2 
 PCOD9402630
Probable space group: P M M A
;
_chemical_formula_sum "Si O2"
_cell_formula_units_Z 40
_cell_length_a 7.632295
_cell_length_b 7.819183
_cell_length_c 31.169775
_cell_angle_alpha 90.000000
_cell_angle_beta 90.000000
_cell_angle_gamma 90.000000
_cell_volume 1860.159536
_symmetry_space_group_name_H-M "P M M A"
_symmetry_group_IT_number 51
_symmetry_cell_setting 'orthorhombic'
loop_
_space_group_symop_operation_xyz
x,y,z
1/2-x,-y,z
1/2+x,-y,-z
-x,y,-z
-x,-y,-z
1/2+x,y,-z
1/2-x,y,z
x,-y,z
loop_
_atom_site_type_symbol
_atom_site_label
_atom_site_fract_x
_atom_site_fract_y
_atom_site_fract_z
Si Si1 0.960415 0.000000 0.707434
Si Si2 0.460312 0.000000 0.607265
Si Si3 0.447434 0.794178 0.047166
Si Si4 0.039481 0.693352 0.548884
Si Si5 0.450410 0.705150 0.137890
Si Si6 0.034936 0.302817 0.231627
O O1 0.022525 0.169641 0.732357
O O2 0.750000 0.000000 0.711147
O O3 0.003371 0.000000 0.657513
O O4 0.527519 0.168608 0.582785
O O5 0.250000 0.000000 0.602068
O O6 0.250000 0.729820 0.052048
O O7 0.537377 0.749140 0.092297
O O8 0.449773 0.000000 0.044941
O O9 0.500000 0.731543 0.000000
O O10 0.250000 0.685926 0.552904
O O11 0.971415 0.500000 0.555058
O O12 0.000000 0.746154 0.500000
O O13 0.250000 0.775480 0.137104
O O14 0.441028 0.500000 0.139785
O O15 0.525625 0.755798 0.184070
O O16 0.250000 0.303544 0.230211
O O17 0.981755 0.500000 0.239183
#
# Coordination Sequence:
#
# PCOD9402630 Si02
#       6
#     4   4   8   8   8   8
#     4  10  20  31  49  74  94 121 161 198 239 282
#     4  10  21  35  49  70 104 137 163 194 236 286
#     4   9  17  27  40  60  85 111 139 171 211 263
#     4   9  18  33  53  76 101 132 168 202 237 276
#     4   8  14  25  42  63  84 108 140 179 223 267
#     4   8  15  28  45  68  95 116 145 197 246 278
#
# _framework density 21.503532
#
# number of rings (size 3 to 8) (size 9 to 14) (size 15 to 20)
#    0.000    3.200    0.000    1.500    1.400    2.000 
#    0.000    0.000    0.000    1.200    0.000    2.800 
#    0.000    0.000    0.000    0.000    0.000    0.000 
#
# Total GULP energy -222899.243021 kJ/mol
# GULP energy per Si atom -5572.481076 kJ/mol
# Density = 2.145459 g / cm^3
# Si number density = 21.503532 Si / 1000 Ang^3
#
#
#
# Elastic Constant Matrix: (Units=GPa)
#
#
# Indices 1 2 3 4 5 6 
#
# 1 36.6579 7.0921 5.2540 0.0000 0.0000 0.0000
# 2 7.0921 96.3084 110.3006 0.0000 0.0000 0.0000
# 3 5.2540 110.3006 245.8847 0.0000 0.0000 0.0000
# 4 0.0000 0.0000 0.0000 -102.8211 0.0000 0.0000
# 5 0.0000 0.0000 0.0000 0.0000 17.3829 0.0000
# 6 0.0000 0.0000 0.0000 0.0000 0.0000 -6.3614
#
#
#
# Elastic Compliance Matrix: (Units=1/GPa)
#
#
# Indices 1 2 3 4 5 6 
#
# 1 0.027726 -0.002804 0.000665 0.000000 0.000000 0.000000
# 2 -0.002804 0.021638 -0.009647 0.000000 0.000000 0.000000
# 3 0.000665 -0.009647 0.008380 0.000000 0.000000 0.000000
# 4 0.000000 0.000000 0.000000 -0.009726 0.000000 0.000000
# 5 0.000000 0.000000 0.000000 0.000000 0.057528 0.000000
# 6 0.000000 0.000000 0.000000 0.000000 0.000000 -0.157199
#
#
# Mechanical properties :
#
#
# Convention : Reuss Voigt Hill
#
# Bulk Modulus (GPa) = 29.26173 69.34936 49.30555
# Shear Modulus (GPa) = -299.55195 -1.27962 -150.41579
#
# Velocity S-wave (km/s) = -11.81550 -0.77225 -8.37265
# Velocity P-wave (km/s) = 13.13408 5.61472 8.39580
#
# Compressibility (1/GPa) = 0.03417433
#
# Stress axis : x y z
#
# Youngs Moduli (GPa) = 36.06678 46.21549 119.33138
#
# Poissons Ratio (x) = 0.12957 -0.07938
# Poissons Ratio (y) = 0.10112 1.15113
# Poissons Ratio (z) = -0.02399 0.44582
#
# Static dielectric constant tensor:
#      x y z
#    x 1.841980 0.000000 0.000000 
#    y 0.000000 1.772220 0.000000 
#    z 0.000000 0.000000 1.798920 
# 
# From -- ./inp_files/36009.got.cif
#   From: 2010.05.17/outbox.cif.g08.bks.cpg/sg51_19_cif.got.tgz:36009.got - 2010.06.03 11:52:47.
