data_PCOD9402383
_publ_section_title
;
Structure prediction by ZEFSAII (Michael W. Deem and Ramdas Pophale) SiO2 
 PCOD9402383
Probable space group: P M M A
;
_chemical_formula_sum "Si O2"
_cell_formula_units_Z 56
_cell_length_a 14.017053
_cell_length_b 14.682035
_cell_length_c 12.405960
_cell_angle_alpha 90.000000
_cell_angle_beta 90.000000
_cell_angle_gamma 90.000000
_cell_volume 2553.132459
_symmetry_space_group_name_H-M "P M M A"
_symmetry_group_IT_number 51
_symmetry_cell_setting 'orthorhombic'
loop_
_space_group_symop_operation_xyz
x,y,z
1/2-x,-y,z
1/2+x,-y,-z
-x,y,-z
-x,-y,-z
1/2+x,y,-z
1/2-x,y,z
x,-y,z
loop_
_atom_site_type_symbol
_atom_site_label
_atom_site_fract_x
_atom_site_fract_y
_atom_site_fract_z
Si Si1 0.140059 0.717766 0.810226
Si Si2 0.859782 0.400440 0.982998
Si Si3 0.353121 0.805808 0.524234
Si Si4 0.937486 0.652912 0.763285
Si Si5 0.564961 0.102316 0.275252
Si Si6 0.142896 0.150599 0.272686
Si Si7 0.890136 0.401538 0.531414
O O1 0.250000 0.696686 0.777506
O O2 0.120251 0.825308 0.799350
O O3 0.050712 0.672359 0.746032
O O4 0.127666 0.678954 0.930470
O O5 0.750000 0.396047 0.945454
O O6 0.872795 0.500000 0.035722
O O7 0.924272 0.393508 0.878034
O O8 0.250000 0.831702 0.570497
O O9 0.427425 0.849796 0.606455
O O10 0.357745 0.843264 0.403178
O O11 0.355370 0.696015 0.512550
O O12 0.880641 0.748200 0.769435
O O13 0.890734 0.603838 0.661409
O O14 0.453577 0.098629 0.242555
O O15 0.603229 0.000000 0.278178
O O16 0.250000 0.121519 0.240299
O O17 0.850604 0.500000 0.496347
O O18 0.000000 0.402117 0.500000
#
# Coordination Sequence:
#
# PCOD9402383 Si02
#       7
#     8   8   8   8   8   8   8
#     4  10  22  38  56  83 119 153 192 248 303 349
#     4  10  21  37  60  91 122 155 199 245 289 342
#     4  10  20  35  55  82 117 153 192 239 289 348
#     4  10  19  35  60  86 118 160 199 235 282 345
#     4  11  23  39  61  85 110 149 200 249 300 361
#     4   9  19  35  56  85 119 150 183 234 298 354
#     4  10  20  34  53  81 119 160 198 235 279 336
#
# _framework density 21.93384
#
# number of rings (size 3 to 8) (size 9 to 14) (size 15 to 20)
#    0.000    2.000    0.000    4.714    0.000    5.143 
#    0.000    2.143    0.000    9.429    0.000    6.000 
#    0.000    0.000    0.000    0.000    0.000    0.000 
#
# Total GULP energy -312312.761442 kJ/mol
# GULP energy per Si atom -5577.013597 kJ/mol
# Density = 2.188392 g / cm^3
# Si number density = 21.933840 Si / 1000 Ang^3
#
#
#
# Elastic Constant Matrix: (Units=GPa)
#
#
# Indices 1 2 3 4 5 6 
#
# 1 138.2850 8.5724 4.3488 0.0000 0.0000 0.0000
# 2 8.5724 124.9374 30.1858 0.0000 0.0000 0.0000
# 3 4.3488 30.1858 61.9819 0.0000 0.0000 0.0000
# 4 0.0000 0.0000 0.0000 -9.4955 0.0000 0.0000
# 5 0.0000 0.0000 0.0000 0.0000 22.3634 0.0000
# 6 0.0000 0.0000 0.0000 0.0000 0.0000 7.2223
#
#
#
# Elastic Compliance Matrix: (Units=1/GPa)
#
#
# Indices 1 2 3 4 5 6 
#
# 1 0.007267 -0.000426 -0.000303 0.000000 0.000000 0.000000
# 2 -0.000426 0.009096 -0.004400 0.000000 0.000000 0.000000
# 3 -0.000303 -0.004400 0.018298 0.000000 0.000000 0.000000
# 4 0.000000 0.000000 0.000000 -0.105313 0.000000 0.000000
# 5 0.000000 0.000000 0.000000 0.000000 0.044716 0.000000
# 6 0.000000 0.000000 0.000000 0.000000 0.000000 0.138460
#
#
# Mechanical properties :
#
#
# Convention : Reuss Voigt Hill
#
# Bulk Modulus (GPa) = 40.97534 45.71312 43.34423
# Shear Modulus (GPa) = 38.19221 22.82451 30.50836
#
# Velocity S-wave (km/s) = 4.17735 3.22934 3.73356
# Velocity P-wave (km/s) = 6.47988 5.89843 6.19598
#
# Compressibility (1/GPa) = 0.02440492
#
# Stress axis : x y z
#
# Youngs Moduli (GPa) = 137.60194 109.93472 54.65112
#
# Poissons Ratio (x) = 0.04678 0.01654
# Poissons Ratio (y) = 0.05855 0.24047
# Poissons Ratio (z) = 0.04165 0.48373
#
# Static dielectric constant tensor:
#      x y z
#    x 1.872240 0.000000 0.000000 
#    y 0.000000 1.823910 0.000000 
#    z 0.000000 0.000000 1.784590 
# 
# From -- ./inp_files/16624.got.cif
#   From: 2010.05.17/outbox.cif.g08.bks.cpg/sg51_9_cif.got.tgz:16624.got - 2010.06.03 11:52:47.
