data_PCOD9402865
_publ_section_title
;
Structure prediction by ZEFSAII (Michael W. Deem and Ramdas Pophale) SiO2 
 PCOD9402865
Probable space group: P M M A
;
_chemical_formula_sum "Si O2"
_cell_formula_units_Z 48
_cell_length_a 18.890328
_cell_length_b 7.496045
_cell_length_c 16.148685
_cell_angle_alpha 90.000000
_cell_angle_beta 90.000000
_cell_angle_gamma 90.000000
_cell_volume 2286.698185
_symmetry_space_group_name_H-M "P M M A"
_symmetry_group_IT_number 51
_symmetry_cell_setting 'orthorhombic'
loop_
_space_group_symop_operation_xyz
x,y,z
1/2-x,-y,z
1/2+x,-y,-z
-x,y,-z
-x,-y,-z
1/2+x,y,-z
1/2-x,y,z
x,-y,z
loop_
_atom_site_type_symbol
_atom_site_label
_atom_site_fract_x
_atom_site_fract_y
_atom_site_fract_z
Si Si1 0.913843 0.293555 0.502416
Si Si2 0.418385 0.714721 0.676840
Si Si3 0.418886 0.718902 0.316225
Si Si4 0.330838 0.284928 0.157015
Si Si5 0.579456 0.787744 0.007246
Si Si6 0.329699 0.787003 0.839460
O O1 0.890206 0.500000 0.503328
O O2 0.893385 0.215783 0.413242
O O3 0.894383 0.218982 0.592416
O O4 0.000000 0.293319 0.500000
O O5 0.422075 0.500000 0.669152
O O6 0.499068 0.774302 0.694762
O O7 0.367381 0.757330 0.752042
O O8 0.418481 0.500000 0.317691
O O9 0.376216 0.761675 0.076308
O O10 0.250000 0.220280 0.151036
O O11 0.328497 0.500000 0.161300
O O12 0.377576 0.285303 0.914222
O O13 0.370538 0.222695 0.240163
O O14 0.572490 0.000000 0.020668
O O15 0.500000 0.714416 0.000000
O O16 0.250000 0.715281 0.841173
O O17 0.324934 0.000000 0.851231
#
# Coordination Sequence:
#
# PCOD9402865 Si02
#       6
#     8   8   8   8   8   8
#     4   7  11  22  43  70  96 122 154 193 235 273
#     4   9  16  28  50  75  94 120 163 206 234 264
#     4   8  14  27  47  71 100 129 156 193 240 281
#     4  10  20  32  48  73 102 130 159 192 236 289
#     4  10  21  37  56  74  91 119 162 205 243 287
#     4  10  21  35  48  65  95 130 154 182 238 299
#
# _framework density 20.990966
#
# number of rings (size 3 to 8) (size 9 to 14) (size 15 to 20)
#    0.000    3.000    0.000    3.500    0.000    2.333 
#    0.000    0.833    0.000    8.500    0.000    0.000 
#    0.000    0.000    0.000    0.000    0.000    0.000 
#
# Total GULP energy -267753.637491 kJ/mol
# GULP energy per Si atom -5578.200781 kJ/mol
# Density = 2.094319 g / cm^3
# Si number density = 20.990966 Si / 1000 Ang^3
#
#
#
# Elastic Constant Matrix: (Units=GPa)
#
#
# Indices 1 2 3 4 5 6 
#
# 1 161.1739 5.1696 121.0898 0.0000 0.0000 0.0000
# 2 5.1696 55.3631 -4.5233 0.0000 0.0000 0.0000
# 3 121.0898 -4.5233 224.5526 0.0000 0.0000 0.0000
# 4 0.0000 0.0000 0.0000 76.2754 0.0000 0.0000
# 5 0.0000 0.0000 0.0000 0.0000 -39.3000 0.0000
# 6 0.0000 0.0000 0.0000 0.0000 0.0000 5.8524
#
#
#
# Elastic Compliance Matrix: (Units=1/GPa)
#
#
# Indices 1 2 3 4 5 6 
#
# 1 0.010545 -0.001452 -0.005716 0.000000 0.000000 0.000000
# 2 -0.001452 0.018292 0.001151 0.000000 0.000000 0.000000
# 3 -0.005716 0.001151 0.007559 0.000000 0.000000 0.000000
# 4 0.000000 0.000000 0.000000 0.013110 0.000000 0.000000
# 5 0.000000 0.000000 0.000000 0.000000 -0.025445 0.000000
# 6 0.000000 0.000000 0.000000 0.000000 0.000000 0.170871
#
#
# Mechanical properties :
#
#
# Convention : Reuss Voigt Hill
#
# Bulk Modulus (GPa) = 41.04441 76.06241 58.55341
# Shear Modulus (GPa) = 23.24655 29.85580 26.55117
#
# Velocity S-wave (km/s) = 3.33145 3.77545 3.56038
# Velocity P-wave (km/s) = 5.86463 7.43773 6.69753
#
# Compressibility (1/GPa) = 0.02436386
#
# Stress axis : x y z
#
# Youngs Moduli (GPa) = 94.82891 54.66817 132.29739
#
# Poissons Ratio (x) = 0.07936 0.75618
# Poissons Ratio (y) = 0.13766 -0.15231
# Poissons Ratio (z) = 0.54202 -0.06294
#
# Static dielectric constant tensor:
#      x y z
#    x 1.707870 0.000000 0.000000 
#    y 0.000000 1.809320 0.000000 
#    z 0.000000 0.000000 1.754640 
# 
# From -- ./inp_files/18554.got.cif
#   From: 2010.05.17/outbox.cif.g08.bks.cpg/sg51_10_cif.got.tgz:18554.got - 2010.06.03 11:52:47.
