data_PCOD9402406
_publ_section_title
;
Structure prediction by ZEFSAII (Michael W. Deem and Ramdas Pophale) SiO2 
 PCOD9402406
Probable space group: P M M A
;
_chemical_formula_sum "Si O2"
_cell_formula_units_Z 56
_cell_length_a 28.963656
_cell_length_b 13.473919
_cell_length_c 7.349180
_cell_angle_alpha 90.000000
_cell_angle_beta 90.000000
_cell_angle_gamma 90.000000
_cell_volume 2868.046560
_symmetry_space_group_name_H-M "P M M A"
_symmetry_group_IT_number 51
_symmetry_cell_setting 'orthorhombic'
loop_
_space_group_symop_operation_xyz
x,y,z
1/2-x,-y,z
1/2+x,-y,-z
-x,y,-z
-x,-y,-z
1/2+x,y,-z
1/2-x,y,z
x,-y,z
loop_
_atom_site_type_symbol
_atom_site_label
_atom_site_fract_x
_atom_site_fract_y
_atom_site_fract_z
Si Si1 0.301961 0.609202 0.601206
Si Si2 0.544695 0.617542 0.893713
Si Si3 0.552006 0.742717 0.543372
Si Si4 0.197807 0.172593 0.547783
Si Si5 0.898946 0.615174 0.230557
Si Si6 0.624857 0.111637 0.727054
Si Si7 0.697222 0.879491 0.032832
O O1 0.250000 0.614109 0.680060
O O2 0.305716 0.500000 0.509111
O O3 0.306790 0.711309 0.490332
O O4 0.344263 0.613827 0.739604
O O5 0.540548 0.500000 0.883352
O O6 0.547114 0.657233 0.692841
O O7 0.500000 0.657768 0.000000
O O8 0.587280 0.640944 0.025508
O O9 0.500000 0.778128 0.500000
O O10 0.577347 0.692649 0.369677
O O11 0.583281 0.823371 0.647463
O O12 0.250000 0.139601 0.511497
O O13 0.161509 0.110538 0.437111
O O14 0.190451 0.162931 0.764326
O O15 0.915137 0.500000 0.265594
O O16 0.656024 0.150198 0.896398
O O17 0.609329 0.000000 0.771153
O O18 0.750000 0.852457 0.973868
O O19 0.696166 0.000000 0.043110
#
# Coordination Sequence:
#
# PCOD9402406 Si02
#       7
#     8   8   8   8   8   8   8
#     4   9  18  33  55  86 123 157 185 217 267 338
#     4  10  21  37  61  90 115 142 183 237 290 338
#     4  12  24  38  59  83 113 151 190 237 292 346
#     4  10  19  35  62  88 113 151 190 227 279 336
#     4  10  20  37  61  88 118 150 186 231 280 333
#     4  11  24  39  57  82 114 149 192 242 288 340
#     4   9  19  36  59  87 114 140 181 239 290 332
#
# _framework density 19.525483999999999
#
# number of rings (size 3 to 8) (size 9 to 14) (size 15 to 20)
#    0.000    1.857    2.857    1.286    2.000    2.286 
#    0.000    0.000    0.000    2.143    0.000    8.000 
#    0.000    0.000    0.000    0.000    0.000    0.000 
#
# Total GULP energy -312075.660646 kJ/mol
# GULP energy per Si atom -5572.779654 kJ/mol
# Density = 1.948104 g / cm^3
# Si number density = 19.525484 Si / 1000 Ang^3
#
#
#
# Elastic Constant Matrix: (Units=GPa)
#
#
# Indices 1 2 3 4 5 6 
#
# 1 76.9070 17.5216 11.7456 0.0000 0.0000 0.0000
# 2 17.5216 50.8907 0.6804 0.0000 0.0000 0.0000
# 3 11.7456 0.6804 53.8109 0.0000 0.0000 0.0000
# 4 0.0000 0.0000 0.0000 8.9987 0.0000 0.0000
# 5 0.0000 0.0000 0.0000 0.0000 14.7881 0.0000
# 6 0.0000 0.0000 0.0000 0.0000 0.0000 -56.5926
#
#
#
# Elastic Compliance Matrix: (Units=1/GPa)
#
#
# Indices 1 2 3 4 5 6 
#
# 1 0.014617 -0.004991 -0.003128 0.000000 0.000000 0.000000
# 2 -0.004991 0.021357 0.000819 0.000000 0.000000 0.000000
# 3 -0.003128 0.000819 0.019256 0.000000 0.000000 0.000000
# 4 0.000000 0.000000 0.000000 0.111127 0.000000 0.000000
# 5 0.000000 0.000000 0.000000 0.000000 0.067622 0.000000
# 6 0.000000 0.000000 0.000000 0.000000 0.000000 -0.017670
#
#
# Mechanical properties :
#
#
# Convention : Reuss Voigt Hill
#
# Bulk Modulus (GPa) = 24.61083 26.83375 25.72229
# Shear Modulus (GPa) = 20.45389 3.54957 12.00173
#
# Velocity S-wave (km/s) = 3.24010 1.34976 2.48194
# Velocity P-wave (km/s) = 5.16037 4.02516 4.62771
#
# Compressibility (1/GPa) = 0.04063251
#
# Stress axis : x y z
#
# Youngs Moduli (GPa) = 68.41141 46.82217 51.93212
#
# Poissons Ratio (x) = 0.23369 0.16242
# Poissons Ratio (y) = 0.34144 -0.04255
# Poissons Ratio (z) = 0.21396 -0.03836
#
# Static dielectric constant tensor:
#      x y z
#    x 1.722630 0.000000 0.000000 
#    y 0.000000 1.743400 0.000000 
#    z 0.000000 0.000000 1.652290 
# 
# From -- ./inp_files/3997.got.cif
#   From: 2010.05.17/outbox.cif.g08.bks.cpg/sg51_2_cif.got.tgz:3997.got - 2010.06.03 11:52:47.
