data_PCOD9402412
_publ_section_title
;
Structure prediction by ZEFSAII (Michael W. Deem and Ramdas Pophale) SiO2 
 PCOD9402412
Probable space group: P M M A
;
_chemical_formula_sum "Si O2"
_cell_formula_units_Z 32
_cell_length_a 17.984788
_cell_length_b 5.236806
_cell_length_c 19.467081
_cell_angle_alpha 90.000000
_cell_angle_beta 90.000000
_cell_angle_gamma 90.000000
_cell_volume 1833.465086
_symmetry_space_group_name_H-M "P M M A"
_symmetry_group_IT_number 51
_symmetry_cell_setting 'orthorhombic'
loop_
_space_group_symop_operation_xyz
x,y,z
1/2-x,-y,z
1/2+x,-y,-z
-x,y,-z
-x,-y,-z
1/2+x,y,-z
1/2-x,y,z
x,-y,z
loop_
_atom_site_type_symbol
_atom_site_label
_atom_site_fract_x
_atom_site_fract_y
_atom_site_fract_z
Si Si1 0.468200 0.000000 0.668715
Si Si2 0.943840 0.500000 0.833375
Si Si3 0.454209 0.000000 0.825190
Si Si4 0.161460 0.500000 0.036015
Si Si5 0.413126 0.000000 0.521929
Si Si6 0.161580 0.000000 0.946050
Si Si7 0.929347 0.500000 0.676866
Si Si8 0.338306 0.500000 0.456963
O O1 0.432807 0.000000 0.744594
O O2 0.520172 0.250200 0.664070
O O3 0.413056 0.000000 0.604579
O O4 0.884408 0.500000 0.893953
O O5 0.908080 0.500000 0.757135
O O6 0.995524 0.750116 0.837833
O O7 0.385446 0.000000 0.876670
O O8 0.250000 0.500000 0.049828
O O9 0.143896 0.249906 0.991090
O O10 0.500000 0.000000 0.500000
O O11 0.374048 0.749599 0.491824
O O12 0.250000 0.000000 0.932147
O O13 0.862898 0.500000 0.622777
O O14 0.250000 0.500000 0.464106
#
# Coordination Sequence:
#
# PCOD9402412 Si02
#       8
#     4   4   4   4   4   4   4   4
#     4  10  20  35  59  82 105 139 195 226 265 336
#     4  10  21  34  56  83 112 138 181 228 272 320
#     4  10  21  36  55  84 108 138 183 237 268 320
#     4  10  21  36  54  78 108 146 183 217 269 341
#     4  12  21  38  64  83 108 158 196 228 280 343
#     4  10  21  37  55  75 106 145 184 221 275 331
#     4  10  19  36  54  81 111 145 180 221 279 335
#     4  12  24  37  56  89 121 146 188 241 284 333
#
# _framework density 17.453292999999999
#
# number of rings (size 3 to 8) (size 9 to 14) (size 15 to 20)
#    0.000    1.500    2.500    3.000    0.000    3.500 
#    0.000    1.250    0.000    9.000    0.000    0.000 
#    0.000    0.000    0.000    0.000    0.000    0.000 
#
# Total GULP energy -178758.666198 kJ/mol
# GULP energy per Si atom -5586.208319 kJ/mol
# Density = 1.741357 g / cm^3
# Si number density = 17.453293 Si / 1000 Ang^3
#
#
#
# Elastic Constant Matrix: (Units=GPa)
#
#
# Indices 1 2 3 4 5 6 
#
# 1 97.9795 60.3383 91.7989 0.0000 0.0000 0.0000
# 2 60.3383 172.7334 66.7979 0.0000 0.0000 0.0000
# 3 91.7989 66.7979 175.9924 0.0000 0.0000 0.0000
# 4 0.0000 0.0000 0.0000 30.0714 0.0000 0.0000
# 5 0.0000 0.0000 0.0000 0.0000 24.8502 0.0000
# 6 0.0000 0.0000 0.0000 0.0000 0.0000 18.6017
#
#
#
# Elastic Compliance Matrix: (Units=1/GPa)
#
#
# Indices 1 2 3 4 5 6 
#
# 1 0.021889 -0.003787 -0.009980 0.000000 0.000000 0.000000
# 2 -0.003787 0.007440 -0.000849 0.000000 0.000000 0.000000
# 3 -0.009980 -0.000849 0.011210 0.000000 0.000000 0.000000
# 4 0.000000 0.000000 0.000000 0.033254 0.000000 0.000000
# 5 0.000000 0.000000 0.000000 0.000000 0.040241 0.000000
# 6 0.000000 0.000000 0.000000 0.000000 0.000000 0.053758
#
#
# Mechanical properties :
#
#
# Convention : Reuss Voigt Hill
#
# Bulk Modulus (GPa) = 88.43465 98.28616 93.36040
# Shear Modulus (GPa) = 24.90130 29.88934 27.39532
#
# Velocity S-wave (km/s) = 3.78132 4.14277 3.96616
# Velocity P-wave (km/s) = 8.35726 8.90614 8.63606
#
# Compressibility (1/GPa) = 0.01130779
#
# Stress axis : x y z
#
# Youngs Moduli (GPa) = 45.68586 134.40432 89.20694
#
# Poissons Ratio (x) = 0.50894 0.89029
# Poissons Ratio (y) = 0.17300 0.07572
# Poissons Ratio (z) = 0.45595 0.11408
#
# Static dielectric constant tensor:
#      x y z
#    x 1.548640 0.000000 0.000000 
#    y 0.000000 1.585090 0.000000 
#    z 0.000000 0.000000 1.595270 
# 
# From -- ./inp_files/29231.got.cif
#   From: 2010.05.17/outbox.cif.g08.bks.cpg/sg51_15_cif.got.tgz:29231.got - 2010.06.03 11:52:47.
