data_PCOD9402163
_publ_section_title
;
Structure prediction by ZEFSAII (Michael W. Deem and Ramdas Pophale) SiO2 
 PCOD9402163
Probable space group: P M M A
;
_chemical_formula_sum "Si O2"
_cell_formula_units_Z 64
_cell_length_a 18.396580
_cell_length_b 20.106482
_cell_length_c 9.593208
_cell_angle_alpha 90.000000
_cell_angle_beta 90.000000
_cell_angle_gamma 90.000000
_cell_volume 3548.436548
_symmetry_space_group_name_H-M "P M M A"
_symmetry_group_IT_number 51
_symmetry_cell_setting 'orthorhombic'
loop_
_space_group_symop_operation_xyz
x,y,z
1/2-x,-y,z
1/2+x,-y,-z
-x,y,-z
-x,-y,-z
1/2+x,y,-z
1/2-x,y,z
x,-y,z
loop_
_atom_site_type_symbol
_atom_site_label
_atom_site_fract_x
_atom_site_fract_y
_atom_site_fract_z
Si Si1 0.544528 0.425487 0.876142
Si Si2 0.409623 0.808723 0.139317
Si Si3 0.940317 0.423924 0.386539
Si Si4 0.664141 0.320920 0.241474
Si Si5 0.836457 0.925024 0.686503
Si Si6 0.334854 0.921621 0.644831
Si Si7 0.577245 0.813021 0.191175
Si Si8 0.166190 0.669748 0.093491
O O1 0.564526 0.500000 0.923012
O O2 0.488794 0.429065 0.751508
O O3 0.616085 0.386068 0.839575
O O4 0.500000 0.390219 0.000000
O O5 0.373486 0.868479 0.223212
O O6 0.491025 0.800074 0.198982
O O7 0.364827 0.740300 0.143696
O O8 0.410631 0.823798 0.974047
O O9 0.916644 0.500000 0.424482
O O10 0.875506 0.374279 0.342268
O O11 0.000000 0.400412 0.500000
O O12 0.750000 0.314478 0.273822
O O13 0.621744 0.250822 0.246531
O O14 0.659361 0.338676 0.075441
O O15 0.750000 0.923494 0.711421
O O16 0.846641 0.913896 0.521119
O O17 0.862637 0.000000 0.719497
O O18 0.250000 0.903548 0.675013
O O19 0.391182 0.876211 0.727469
O O20 0.343067 0.000000 0.677133
O O21 0.250000 0.663961 0.129251
#
# Coordination Sequence:
#
# PCOD9402163 Si02
#       8
#     8   8   8   8   8   8   8   8
#     4  10  19  34  58  83 111 146 184 228 277 329
#     4  10  21  35  55  81 111 148 186 228 282 335
#     4  10  21  38  58  82 113 149 186 226 277 334
#     4  10  20  36  58  83 112 146 187 233 278 329
#     4   9  19  37  58  80 110 145 183 230 283 339
#     4   9  19  37  58  79 108 145 184 230 283 335
#     4  10  21  36  55  80 112 147 185 234 277 332
#     4  10  20  34  57  85 113 145 186 235 279 326
#
# _framework density 18.036111999999999
#
# number of rings (size 3 to 8) (size 9 to 14) (size 15 to 20)
#    0.000    2.250    1.250    2.250    1.750    3.500 
#    4.500    5.625    0.000    2.250    0.000    0.000 
#    0.000    0.000    0.000    0.000    0.000    0.000 
#
# Total GULP energy -356752.886189 kJ/mol
# GULP energy per Si atom -5574.263847 kJ/mol
# Density = 1.799506 g / cm^3
# Si number density = 18.036112 Si / 1000 Ang^3
#
#
#
# Elastic Constant Matrix: (Units=GPa)
#
#
# Indices 1 2 3 4 5 6 
#
# 1 134.4952 74.0621 37.3825 0.0000 0.0000 0.0000
# 2 74.0621 93.2688 27.4522 0.0000 0.0000 0.0000
# 3 37.3825 27.4522 29.6430 0.0000 0.0000 0.0000
# 4 0.0000 0.0000 0.0000 21.6850 0.0000 0.0000
# 5 0.0000 0.0000 0.0000 0.0000 31.5261 0.0000
# 6 0.0000 0.0000 0.0000 0.0000 0.0000 100.6388
#
#
#
# Elastic Compliance Matrix: (Units=1/GPa)
#
#
# Indices 1 2 3 4 5 6 
#
# 1 0.015523 -0.009024 -0.011218 0.000000 0.000000 0.000000
# 2 -0.009024 0.019986 -0.007128 0.000000 0.000000 0.000000
# 3 -0.011218 -0.007128 0.054483 0.000000 0.000000 0.000000
# 4 0.000000 0.000000 0.000000 0.046115 0.000000 0.000000
# 5 0.000000 0.000000 0.000000 0.000000 0.031720 0.000000
# 6 0.000000 0.000000 0.000000 0.000000 0.000000 0.009937
#
#
# Mechanical properties :
#
#
# Convention : Reuss Voigt Hill
#
# Bulk Modulus (GPa) = 28.36852 59.46672 43.91762
# Shear Modulus (GPa) = 20.47052 38.67067 29.57059
#
# Velocity S-wave (km/s) = 3.37259 4.63543 4.05349
# Velocity P-wave (km/s) = 5.56136 7.85443 6.80518
#
# Compressibility (1/GPa) = 0.03525034
#
# Stress axis : x y z
#
# Youngs Moduli (GPa) = 64.42243 50.03603 18.35426
#
# Poissons Ratio (x) = 0.45153 0.20590
# Poissons Ratio (y) = 0.58136 0.13083
# Poissons Ratio (z) = 0.72270 0.35667
#
# Static dielectric constant tensor:
#      x y z
#    x 1.615060 0.000000 0.000000 
#    y 0.000000 1.646090 0.000000 
#    z 0.000000 0.000000 1.651240 
# 
# From -- ./inp_files/10055.got.cif
#   From: 2010.05.17/outbox.cif.g08.bks.cpg/sg51_6_cif.got.tgz:10055.got - 2010.06.03 11:52:47.
