data_PCOD9402847
_publ_section_title
;
Structure prediction by ZEFSAII (Michael W. Deem and Ramdas Pophale) SiO2 
 PCOD9402847
Probable space group: P M M A
;
_chemical_formula_sum "Si O2"
_cell_formula_units_Z 64
_cell_length_a 30.902279
_cell_length_b 8.817477
_cell_length_c 15.027720
_cell_angle_alpha 90.000000
_cell_angle_beta 90.000000
_cell_angle_gamma 90.000000
_cell_volume 4094.755164
_symmetry_space_group_name_H-M "P M M A"
_symmetry_group_IT_number 51
_symmetry_cell_setting 'orthorhombic'
loop_
_space_group_symop_operation_xyz
x,y,z
1/2-x,-y,z
1/2+x,-y,-z
-x,y,-z
-x,-y,-z
1/2+x,y,-z
1/2-x,y,z
x,-y,z
loop_
_atom_site_type_symbol
_atom_site_label
_atom_site_fract_x
_atom_site_fract_y
_atom_site_fract_z
Si Si1 0.800032 0.681149 0.853781
Si Si2 0.457753 0.182369 0.943468
Si Si3 0.614100 0.819684 0.570133
Si Si4 0.299495 0.182432 0.342003
Si Si5 0.423507 0.324175 0.253325
Si Si6 0.882861 0.818058 0.923356
Si Si7 0.043200 0.683499 0.554913
Si Si8 0.527237 0.675621 0.246206
O O1 0.750000 0.719404 0.873519
O O2 0.804767 0.500000 0.854527
O O3 0.808934 0.741453 0.753527
O O4 0.834178 0.755706 0.920634
O O5 0.458624 0.240013 0.842844
O O6 0.460005 0.000000 0.942565
O O7 0.500000 0.236334 0.000000
O O8 0.413848 0.226085 0.994867
O O9 0.664304 0.775222 0.585658
O O10 0.591979 0.771993 0.662859
O O11 0.586140 0.738958 0.494550
O O12 0.611885 0.000000 0.557402
O O13 0.250000 0.220401 0.366475
O O14 0.302226 0.000000 0.329555
O O15 0.409725 0.500000 0.263134
O O16 0.404795 0.252895 0.164036
O O17 0.475199 0.321264 0.249021
O O18 0.882460 0.000000 0.916630
O O19 0.042053 0.500000 0.555369
O O20 0.041924 0.735950 0.657400
O O21 0.000000 0.732622 0.500000
O O22 0.540963 0.500000 0.239341
#
# Coordination Sequence:
#
# PCOD9402847 Si02
#       8
#     8   8   8   8   8   8   8   8
#     4  10  20  32  48  72 100 130 165 204 247 295
#     4  10  21  35  50  71 101 132 164 205 247 290
#     4  11  21  31  48  75  99 130 171 204 243 295
#     4   9  18  32  48  68  99 133 162 198 244 295
#     4  11  20  31  48  70 100 135 168 206 243 285
#     4  11  21  33  49  72 100 135 170 202 247 296
#     4  10  20  36  51  68  98 133 168 204 246 293
#     4  10  21  35  51  70  95 133 173 207 246 289
#
# _framework density 15.62975
#
# number of rings (size 3 to 8) (size 9 to 14) (size 15 to 20)
#    0.000    1.750    3.750    1.500    0.000    3.750 
#    0.000    0.000    0.000    0.000    0.000    0.875 
#    0.000    3.000    0.000    0.000    0.000    0.000 
#
# Total GULP energy -357004.119926 kJ/mol
# GULP energy per Si atom -5578.189374 kJ/mol
# Density = 1.559418 g / cm^3
# Si number density = 15.629750 Si / 1000 Ang^3
#
#
#
# Elastic Constant Matrix: (Units=GPa)
#
#
# Indices 1 2 3 4 5 6 
#
# 1 106.6256 23.5209 55.1347 0.0000 0.0000 0.0000
# 2 23.5209 15.7446 18.1692 0.0000 0.0000 0.0000
# 3 55.1347 18.1692 110.5311 0.0000 0.0000 0.0000
# 4 0.0000 0.0000 0.0000 65.0796 0.0000 0.0000
# 5 0.0000 0.0000 0.0000 0.0000 19.4727 0.0000
# 6 0.0000 0.0000 0.0000 0.0000 0.0000 24.2194
#
#
#
# Elastic Compliance Matrix: (Units=1/GPa)
#
#
# Indices 1 2 3 4 5 6 
#
# 1 0.015939 -0.018063 -0.004981 0.000000 0.000000 0.000000
# 2 -0.018063 0.098852 -0.007239 0.000000 0.000000 0.000000
# 3 -0.004981 -0.007239 0.012722 0.000000 0.000000 0.000000
# 4 0.000000 0.000000 0.000000 0.015366 0.000000 0.000000
# 5 0.000000 0.000000 0.000000 0.000000 0.051354 0.000000
# 6 0.000000 0.000000 0.000000 0.000000 0.000000 0.041289
#
#
# Mechanical properties :
#
#
# Convention : Reuss Voigt Hill
#
# Bulk Modulus (GPa) = 14.93745 47.39452 31.16598
# Shear Modulus (GPa) = 15.70331 30.82609 23.26470
#
# Velocity S-wave (km/s) = 3.17315 4.44584 3.86228
# Velocity P-wave (km/s) = 4.79614 7.53280 6.31451
#
# Compressibility (1/GPa) = 0.06694585
#
# Stress axis : x y z
#
# Youngs Moduli (GPa) = 62.73942 10.11615 78.60349
#
# Poissons Ratio (x) = 0.18272 0.39156
# Poissons Ratio (y) = 1.13324 0.56904
# Poissons Ratio (z) = 0.31253 0.07324
#
# Static dielectric constant tensor:
#      x y z
#    x 1.546580 0.000000 0.000000 
#    y 0.000000 1.528910 0.000000 
#    z 0.000000 0.000000 1.496870 
# 
# From -- ./inp_files/26698.got.cif
#   From: 2010.05.17/outbox.cif.g08.bks.cpg/sg51_14_cif.got.tgz:26698.got - 2010.06.03 11:52:47.
