data_PCOD9402376
_publ_section_title
;
Structure prediction by ZEFSAII (Michael W. Deem and Ramdas Pophale) SiO2 
 PCOD9402376
Probable space group: P M M A
;
_chemical_formula_sum "Si O2"
_cell_formula_units_Z 64
_cell_length_a 8.847589
_cell_length_b 25.235631
_cell_length_c 15.213265
_cell_angle_alpha 90.000000
_cell_angle_beta 90.000000
_cell_angle_gamma 90.000000
_cell_volume 3396.734003
_symmetry_space_group_name_H-M "P M M A"
_symmetry_group_IT_number 51
_symmetry_cell_setting 'orthorhombic'
loop_
_space_group_symop_operation_xyz
x,y,z
1/2-x,-y,z
1/2+x,-y,-z
-x,y,-z
-x,-y,-z
1/2+x,y,-z
1/2-x,y,z
x,-y,z
loop_
_atom_site_type_symbol
_atom_site_label
_atom_site_fract_x
_atom_site_fract_y
_atom_site_fract_z
Si Si1 0.069669 0.059913 0.718713
Si Si2 0.432992 0.751695 0.274931
Si Si3 0.068786 0.439448 0.589788
Si Si4 0.574577 0.921666 0.908271
Si Si5 0.075963 0.793977 0.089017
Si Si6 0.067675 0.363267 0.748613
Si Si7 0.567642 0.152800 0.597987
Si Si8 0.932442 0.560188 0.096791
O O1 0.250000 0.068636 0.718471
O O2 0.010170 0.062409 0.819164
O O3 0.990589 0.104353 0.658827
O O4 0.039660 0.000000 0.685849
O O5 0.250000 0.751166 0.274694
O O6 0.488835 0.774701 0.181302
O O7 0.494719 0.692472 0.276226
O O8 0.477144 0.792393 0.352330
O O9 0.250000 0.440053 0.582893
O O10 0.016228 0.500000 0.600809
O O11 0.028117 0.404443 0.672319
O O12 0.000000 0.417990 0.500000
O O13 0.750000 0.937604 0.904292
O O14 0.569996 0.857639 0.910072
O O15 0.500000 0.939579 0.000000
O O16 0.250000 0.777675 0.085933
O O17 0.000000 0.774367 0.000000
O O18 0.250000 0.357124 0.751752
O O19 0.018940 0.392488 0.838578
O O20 0.500000 0.150045 0.500000
O O21 0.750000 0.150588 0.593919
O O22 0.750000 0.561669 0.092667
O O23 0.972467 0.500000 0.128131
O O24 0.000000 0.566577 0.000000
#
# Coordination Sequence:
#
# PCOD9402376 Si02
#       8
#     8   8   8   8   8   8   8   8
#     4  11  24  41  63  93 125 157 196 242 293 351
#     4  10  22  40  58  81 116 151 187 234 287 340
#     4   9  18  34  55  78 106 139 177 224 276 332
#     4  10  19  35  59  88 122 160 199 238 284 338
#     4   9  18  34  55  81 110 145 186 227 273 326
#     4  10  21  35  54  81 111 146 189 231 280 340
#     4  11  24  45  68  89 115 151 195 243 297 356
#     4   9  18  34  55  79 111 152 196 241 287 337
#
# _framework density 18.841628
#
# number of rings (size 3 to 8) (size 9 to 14) (size 15 to 20)
#    0.000    2.125    1.250    1.500    0.000    7.000 
#    0.000    5.000    0.000    3.750    0.000    0.000 
#    0.000    0.000    0.000    0.000    0.000    0.000 
#
# Total GULP energy -357087.887508 kJ/mol
# GULP energy per Si atom -5579.498242 kJ/mol
# Density = 1.879874 g / cm^3
# Si number density = 18.841628 Si / 1000 Ang^3
#
#
#
# Elastic Constant Matrix: (Units=GPa)
#
#
# Indices 1 2 3 4 5 6 
#
# 1 40.4357 39.4521 42.3596 0.0000 0.0000 0.0000
# 2 39.4521 106.5017 73.3841 0.0000 0.0000 0.0000
# 3 42.3596 73.3841 147.2259 0.0000 0.0000 0.0000
# 4 0.0000 0.0000 0.0000 144.3957 0.0000 0.0000
# 5 0.0000 0.0000 0.0000 0.0000 33.1990 0.0000
# 6 0.0000 0.0000 0.0000 0.0000 0.0000 8.3708
#
#
#
# Elastic Compliance Matrix: (Units=1/GPa)
#
#
# Indices 1 2 3 4 5 6 
#
# 1 0.042664 -0.011189 -0.006698 0.000000 0.000000 0.000000
# 2 -0.011189 0.017236 -0.005372 0.000000 0.000000 0.000000
# 3 -0.006698 -0.005372 0.011397 0.000000 0.000000 0.000000
# 4 0.000000 0.000000 0.000000 0.006925 0.000000 0.000000
# 5 0.000000 0.000000 0.000000 0.000000 0.030121 0.000000
# 6 0.000000 0.000000 0.000000 0.000000 0.000000 0.119463
#
#
# Mechanical properties :
#
#
# Convention : Reuss Voigt Hill
#
# Bulk Modulus (GPa) = 40.35667 67.17276 53.76472
# Shear Modulus (GPa) = 17.69381 46.45760 32.07570
#
# Velocity S-wave (km/s) = 3.06777 4.97096 4.13047
# Velocity P-wave (km/s) = 5.83212 8.28709 7.16553
#
# Compressibility (1/GPa) = 0.02477905
#
# Stress axis : x y z
#
# Youngs Moduli (GPa) = 23.43873 58.01894 87.74252
#
# Poissons Ratio (x) = 0.64918 0.58771
# Poissons Ratio (y) = 0.26226 0.47133
# Poissons Ratio (z) = 0.15700 0.31166
#
# Static dielectric constant tensor:
#      x y z
#    x 1.642670 0.000000 0.000000 
#    y 0.000000 1.665010 0.000000 
#    z 0.000000 0.000000 1.640570 
# 
# From -- ./inp_files/22284.got.cif
#   From: 2010.05.17/outbox.cif.g08.bks.cpg/sg51_12_cif.got.tgz:22284.got - 2010.06.03 11:52:47.
