data_PCOD9402658
_publ_section_title
;
Structure prediction by ZEFSAII (Michael W. Deem and Ramdas Pophale) SiO2 
 PCOD9402658
Probable space group: P M M A
;
_chemical_formula_sum "Si O2"
_cell_formula_units_Z 64
_cell_length_a 9.123851
_cell_length_b 14.599861
_cell_length_c 31.868127
_cell_angle_alpha 90.000000
_cell_angle_beta 90.000000
_cell_angle_gamma 90.000000
_cell_volume 4245.056203
_symmetry_space_group_name_H-M "P M M A"
_symmetry_group_IT_number 51
_symmetry_cell_setting 'orthorhombic'
loop_
_space_group_symop_operation_xyz
x,y,z
1/2-x,-y,z
1/2+x,-y,-z
-x,y,-z
-x,-y,-z
1/2+x,y,-z
1/2-x,y,z
x,-y,z
loop_
_atom_site_type_symbol
_atom_site_label
_atom_site_fract_x
_atom_site_fract_y
_atom_site_fract_z
Si Si1 0.081308 0.611352 0.627420
Si Si2 0.074230 0.293235 0.042375
Si Si3 0.423585 0.390889 0.129615
Si Si4 0.075464 0.609121 0.286018
Si Si5 0.424950 0.102739 0.829953
Si Si6 0.919328 0.611654 0.542607
Si Si7 0.074745 0.293088 0.792200
Si Si8 0.573413 0.897820 0.920526
O O1 0.250000 0.641414 0.629024
O O2 0.081529 0.500000 0.626374
O O3 0.994435 0.636872 0.669439
O O4 0.002421 0.641822 0.584700
O O5 0.250000 0.296297 0.037722
O O6 0.036548 0.350048 0.084176
O O7 0.028155 0.187884 0.051211
O O8 0.000000 0.327317 0.000000
O O9 0.250000 0.371043 0.136484
O O10 0.442483 0.500000 0.130133
O O11 0.516139 0.344636 0.166398
O O12 0.250000 0.622165 0.286612
O O13 0.047853 0.500000 0.280101
O O14 0.002454 0.663731 0.248098
O O15 0.250000 0.107399 0.837897
O O16 0.461421 0.185890 0.799176
O O17 0.507013 0.115114 0.874179
O O18 0.458758 0.000000 0.814421
O O19 0.750000 0.639919 0.542903
O O20 0.921150 0.500000 0.542727
O O21 0.000000 0.640839 0.500000
O O22 0.250000 0.303149 0.788835
O O23 0.750000 0.895122 0.917361
O O24 0.530487 0.000000 0.935323
#
# Coordination Sequence:
#
# PCOD9402658 Si02
#       8
#     8   8   8   8   8   8   8   8
#     4   9  16  26  39  55  78 108 145 191 236 274
#     4  10  21  35  50  69  92 116 143 173 208 253
#     4  10  21  37  53  68  89 117 146 178 216 254
#     4  10  20  32  45  62  87 120 153 185 224 267
#     4   9  18  32  50  72  95 116 138 168 209 255
#     4   9  15  22  33  50  73 104 145 191 237 281
#     4  11  21  32  50  73  93 113 142 179 216 256
#     4   9  17  31  51  72  92 114 140 170 205 249
#
# _framework density 15.076362
#
# number of rings (size 3 to 8) (size 9 to 14) (size 15 to 20)
#    0.000    2.375    1.250    1.875    0.000    7.500 
#    0.000    0.000    0.000    0.000    0.000    0.000 
#    0.000    0.000    0.000    0.000    0.000    0.625 
#
# Total GULP energy -356845.149248 kJ/mol
# GULP energy per Si atom -5575.705457 kJ/mol
# Density = 1.504205 g / cm^3
# Si number density = 15.076362 Si / 1000 Ang^3
#
#
#
# Elastic Constant Matrix: (Units=GPa)
#
#
# Indices 1 2 3 4 5 6 
#
# 1 63.5117 33.3356 60.7674 0.0000 0.0000 0.0000
# 2 33.3356 51.4136 43.4905 0.0000 0.0000 0.0000
# 3 60.7674 43.4905 135.7894 0.0000 0.0000 0.0000
# 4 0.0000 0.0000 0.0000 3.7010 0.0000 0.0000
# 5 0.0000 0.0000 0.0000 0.0000 30.5169 0.0000
# 6 0.0000 0.0000 0.0000 0.0000 0.0000 13.6954
#
#
#
# Elastic Compliance Matrix: (Units=1/GPa)
#
#
# Indices 1 2 3 4 5 6 
#
# 1 0.032069 -0.011869 -0.010550 0.000000 0.000000 0.000000
# 2 -0.011869 0.031070 -0.004640 0.000000 0.000000 0.000000
# 3 -0.010550 -0.004640 0.013572 0.000000 0.000000 0.000000
# 4 0.000000 0.000000 0.000000 0.270199 0.000000 0.000000
# 5 0.000000 0.000000 0.000000 0.000000 0.032769 0.000000
# 6 0.000000 0.000000 0.000000 0.000000 0.000000 0.073017
#
#
# Mechanical properties :
#
#
# Convention : Reuss Voigt Hill
#
# Bulk Modulus (GPa) = 44.25964 58.43350 51.34657
# Shear Modulus (GPa) = 9.72114 17.12406 13.42260
#
# Velocity S-wave (km/s) = 2.54203 3.37385 2.98704
# Velocity P-wave (km/s) = 6.16738 7.34981 6.78440
#
# Compressibility (1/GPa) = 0.02259395
#
# Stress axis : x y z
#
# Youngs Moduli (GPa) = 31.18310 32.18506 73.68360
#
# Poissons Ratio (x) = 0.38199 0.77735
# Poissons Ratio (y) = 0.37010 0.34188
# Poissons Ratio (z) = 0.32898 0.14933
#
# Static dielectric constant tensor:
#      x y z
#    x 1.504520 0.000000 0.000000 
#    y 0.000000 1.500870 0.000000 
#    z 0.000000 0.000000 1.478410 
# 
# From -- ./inp_files/37582.got.cif
#   From: 2010.05.17/outbox.cif.g08.bks.cpg/sg51_19_cif.got.tgz:37582.got - 2010.06.03 11:52:47.
