data_PCOD9402555
_publ_section_title
;
Structure prediction by ZEFSAII (Michael W. Deem and Ramdas Pophale) SiO2 
 PCOD9402555
Probable space group: P M M A
;
_chemical_formula_sum "Si O2"
_cell_formula_units_Z 48
_cell_length_a 17.703158
_cell_length_b 7.421103
_cell_length_c 17.262917
_cell_angle_alpha 90.000000
_cell_angle_beta 90.000000
_cell_angle_gamma 90.000000
_cell_volume 2267.949538
_symmetry_space_group_name_H-M "P M M A"
_symmetry_group_IT_number 51
_symmetry_cell_setting 'orthorhombic'
loop_
_space_group_symop_operation_xyz
x,y,z
1/2-x,-y,z
1/2+x,-y,-z
-x,y,-z
-x,-y,-z
1/2+x,y,-z
1/2-x,y,z
x,-y,z
loop_
_atom_site_type_symbol
_atom_site_label
_atom_site_fract_x
_atom_site_fract_y
_atom_site_fract_z
Si Si1 0.568015 0.716283 0.600651
Si Si2 0.066896 0.780145 0.103995
Si Si3 0.898826 0.219652 0.069979
Si Si4 0.835108 0.213575 0.752256
Si Si5 0.250000 0.715164 0.659570
Si Si6 0.750000 0.215893 0.158023
Si Si7 0.100053 0.279834 0.573251
O O1 0.565507 0.500000 0.597232
O O2 0.620271 0.764541 0.672253
O O3 0.480911 0.777734 0.607988
O O4 0.599262 0.775998 0.516961
O O5 0.115805 0.714581 0.176068
O O6 0.979190 0.723850 0.105853
O O7 0.066513 0.000000 0.105114
O O8 0.100256 0.727352 0.020389
O O9 0.825996 0.283431 0.116586
O O10 0.898404 0.000000 0.071138
O O11 0.750000 0.286725 0.748339
O O12 0.828904 0.000000 0.765701
O O13 0.250000 0.500000 0.647871
O O14 0.250000 0.747861 0.750912
O O15 0.326606 0.783725 0.619324
O O16 0.750000 0.000000 0.148230
O O17 0.100695 0.500000 0.574637
#
# Coordination Sequence:
#
# PCOD9402555 Si02
#       7
#     8   8   8   8   4   4   8
#     4   9  18  35  56  75  95 126 168 209 243 284
#     4   8  15  29  47  67  96 133 163 194 240 292
#     4   8  15  28  47  70  95 126 165 202 238 281
#     4  10  21  32  47  75 106 131 160 200 248 297
#     4  10  20  34  52  73 100 134 162 193 246 304
#     4  10  20  30  48  79 102 120 160 213 244 276
#     4   8  17  34  55  75  95 126 170 206 237 290
#
# _framework density 21.164491000000002
#
# number of rings (size 3 to 8) (size 9 to 14) (size 15 to 20)
#    0.000    3.167    0.000    2.000    4.667    0.333 
#    0.000    2.500    0.000    1.000    0.000    2.333 
#    0.000    0.000    0.000    0.000    0.000    0.000 
#
# Total GULP energy -267927.594404 kJ/mol
# GULP energy per Si atom -5581.824883 kJ/mol
# Density = 2.111632 g / cm^3
# Si number density = 21.164491 Si / 1000 Ang^3
#
#
#
# Elastic Constant Matrix: (Units=GPa)
#
#
# Indices 1 2 3 4 5 6 
#
# 1 240.5187 7.1640 168.6174 0.0000 0.0000 0.0000
# 2 7.1640 66.4981 -0.7809 0.0000 0.0000 0.0000
# 3 168.6174 -0.7809 172.0251 0.0000 0.0000 0.0000
# 4 0.0000 0.0000 0.0000 22.5706 0.0000 0.0000
# 5 0.0000 0.0000 0.0000 0.0000 33.8302 0.0000
# 6 0.0000 0.0000 0.0000 0.0000 0.0000 2.5887
#
#
#
# Elastic Compliance Matrix: (Units=1/GPa)
#
#
# Indices 1 2 3 4 5 6 
#
# 1 0.013460 -0.001605 -0.013200 0.000000 0.000000 0.000000
# 2 -0.001605 0.015230 0.001642 0.000000 0.000000 0.000000
# 3 -0.013200 0.001642 0.018759 0.000000 0.000000 0.000000
# 4 0.000000 0.000000 0.000000 0.044306 0.000000 0.000000
# 5 0.000000 0.000000 0.000000 0.000000 0.029559 0.000000
# 6 0.000000 0.000000 0.000000 0.000000 0.000000 0.386293
#
#
# Mechanical properties :
#
#
# Convention : Reuss Voigt Hill
#
# Bulk Modulus (GPa) = 47.34103 92.11590 69.72847
# Shear Modulus (GPa) = 9.24257 32.06730 20.65494
#
# Velocity S-wave (km/s) = 2.09201 3.89671 3.12737
# Velocity P-wave (km/s) = 5.31526 7.99150 6.78661
#
# Compressibility (1/GPa) = 0.02112333
#
# Stress axis : x y z
#
# Youngs Moduli (GPa) = 74.29589 65.65887 53.30652
#
# Poissons Ratio (x) = 0.10539 0.70367
# Poissons Ratio (y) = 0.11925 -0.08755
# Poissons Ratio (z) = 0.98073 -0.10784
#
# Static dielectric constant tensor:
#      x y z
#    x 1.749220 0.000000 0.000000 
#    y 0.000000 1.836950 0.000000 
#    z 0.000000 0.000000 1.713400 
# 
# From -- ./inp_files/24106.got.cif
#   From: 2010.05.17/outbox.cif.g08.bks.cpg/sg51_13_cif.got.tgz:24106.got - 2010.06.03 11:52:47.
