data_PCOD9402490
_publ_section_title
;
Structure prediction by ZEFSAII (Michael W. Deem and Ramdas Pophale) SiO2 
 PCOD9402490
Probable space group: P M M A
;
_chemical_formula_sum "Si O2"
_cell_formula_units_Z 48
_cell_length_a 14.673553
_cell_length_b 16.748818
_cell_length_c 9.873002
_cell_angle_alpha 90.000000
_cell_angle_beta 90.000000
_cell_angle_gamma 90.000000
_cell_volume 2426.435065
_symmetry_space_group_name_H-M "P M M A"
_symmetry_group_IT_number 51
_symmetry_cell_setting 'orthorhombic'
loop_
_space_group_symop_operation_xyz
x,y,z
1/2-x,-y,z
1/2+x,-y,-z
-x,y,-z
-x,-y,-z
1/2+x,y,-z
1/2-x,y,z
x,-y,z
loop_
_atom_site_type_symbol
_atom_site_label
_atom_site_fract_x
_atom_site_fract_y
_atom_site_fract_z
Si Si1 0.140980 0.906699 0.336165
Si Si2 0.349256 0.500000 0.373133
Si Si3 0.010804 0.500000 0.836651
Si Si4 0.144347 0.326405 0.466130
Si Si5 0.031609 0.675232 0.726419
Si Si6 0.353906 0.903748 0.638573
Si Si7 0.503741 0.165128 0.151974
O O1 0.250000 0.903709 0.326207
O O2 0.116486 0.877580 0.487593
O O3 0.091138 0.854923 0.224846
O O4 0.113317 0.000000 0.322794
O O5 0.250000 0.500000 0.310054
O O6 0.417294 0.500000 0.248611
O O7 0.357406 0.577105 0.466057
O O8 0.049644 0.586081 0.784634
O O9 0.000000 0.500000 0.000000
O O10 0.250000 0.301043 0.439895
O O11 0.106157 0.301699 0.612305
O O12 0.066226 0.313549 0.351939
O O13 0.028301 0.741496 0.842072
O O14 0.250000 0.876907 0.661639
O O15 0.421056 0.877057 0.754848
O O16 0.352610 0.000000 0.631955
O O17 0.500000 0.135121 0.000000
#
# Coordination Sequence:
#
# PCOD9402490 Si02
#       7
#     8   4   4   8   8   8   8
#     4   9  20  40  65  89 113 149 197 240 281 339
#     4   8  15  31  55  81 102 126 178 242 292 336
#     4  10  19  37  57  71 109 161 192 226 277 340
#     4   9  18  34  57  81 104 133 179 245 298 332
#     4  10  22  36  55  84 110 148 197 235 283 344
#     4   9  20  40  65  89 113 148 195 241 284 339
#     4  12  25  37  53  86 126 156 188 237 292 350
#
# _framework density 19.782108000000001
#
# number of rings (size 3 to 8) (size 9 to 14) (size 15 to 20)
#    0.000    2.333    0.000    3.000    4.667    6.667 
#    0.000    2.500    0.000    4.000    0.000    0.000 
#    0.000    0.000    0.000    0.000    0.000    0.000 
#
# Total GULP energy -267648.933749 kJ/mol
# GULP energy per Si atom -5576.019453 kJ/mol
# Density = 1.973708 g / cm^3
# Si number density = 19.782108 Si / 1000 Ang^3
#
#
#
# Elastic Constant Matrix: (Units=GPa)
#
#
# Indices 1 2 3 4 5 6 
#
# 1 65.8147 2.7705 29.5585 0.0000 0.0000 0.0000
# 2 2.7705 61.1103 21.7639 0.0000 0.0000 0.0000
# 3 29.5585 21.7639 125.5288 0.0000 0.0000 0.0000
# 4 0.0000 0.0000 0.0000 16.3596 0.0000 0.0000
# 5 0.0000 0.0000 0.0000 0.0000 35.7336 0.0000
# 6 0.0000 0.0000 0.0000 0.0000 0.0000 -15.2246
#
#
#
# Elastic Compliance Matrix: (Units=1/GPa)
#
#
# Indices 1 2 3 4 5 6 
#
# 1 0.017019 0.000699 -0.004129 0.000000 0.000000 0.000000
# 2 0.000699 0.017469 -0.003193 0.000000 0.000000 0.000000
# 3 -0.004129 -0.003193 0.009492 0.000000 0.000000 0.000000
# 4 0.000000 0.000000 0.000000 0.061126 0.000000 0.000000
# 5 0.000000 0.000000 0.000000 0.000000 0.027985 0.000000
# 6 0.000000 0.000000 0.000000 0.000000 0.000000 -0.065683
#
#
# Mechanical properties :
#
#
# Convention : Reuss Voigt Hill
#
# Bulk Modulus (GPa) = 32.53706 40.07108 36.30407
# Shear Modulus (GPa) = 55.00576 20.59779 37.80177
#
# Velocity S-wave (km/s) = 5.27884 3.23032 4.37613
# Velocity P-wave (km/s) = 7.32382 5.84923 6.62766
#
# Compressibility (1/GPa) = 0.03073419
#
# Stress axis : x y z
#
# Youngs Moduli (GPa) = 58.75779 57.24276 105.35032
#
# Poissons Ratio (x) = -0.04000 0.43496
# Poissons Ratio (y) = -0.04106 0.33642
# Poissons Ratio (z) = 0.24259 0.18280
#
# Static dielectric constant tensor:
#      x y z
#    x 1.711780 0.000000 0.000000 
#    y 0.000000 1.781360 0.000000 
#    z 0.000000 0.000000 1.658110 
# 
# From -- ./inp_files/8373.got.cif
#   From: 2010.05.17/outbox.cif.g08.bks.cpg/sg51_5_cif.got.tgz:8373.got - 2010.06.03 11:52:47.
