data_PCOD9402425
_publ_section_title
;
Structure prediction by ZEFSAII (Michael W. Deem and Ramdas Pophale) SiO2 
 PCOD9402425
Probable space group: P M M A
;
_chemical_formula_sum "Si O2"
_cell_formula_units_Z 40
_cell_length_a 14.870438
_cell_length_b 7.711594
_cell_length_c 17.785675
_cell_angle_alpha 90.000000
_cell_angle_beta 90.000000
_cell_angle_gamma 90.000000
_cell_volume 2039.568376
_symmetry_space_group_name_H-M "P M M A"
_symmetry_group_IT_number 51
_symmetry_cell_setting 'orthorhombic'
loop_
_space_group_symop_operation_xyz
x,y,z
1/2-x,-y,z
1/2+x,-y,-z
-x,y,-z
-x,-y,-z
1/2+x,y,-z
1/2-x,y,z
x,-y,z
loop_
_atom_site_type_symbol
_atom_site_label
_atom_site_fract_x
_atom_site_fract_y
_atom_site_fract_z
Si Si1 0.250000 0.212693 0.475225
Si Si2 0.250000 0.793051 0.649507
Si Si3 0.016226 0.287960 0.881322
Si Si4 0.557611 0.793781 0.569925
Si Si5 0.943210 0.295321 0.285304
Si Si6 0.353038 0.711563 0.015275
O O1 0.250000 0.268099 0.562721
O O2 0.159048 0.273305 0.435363
O O3 0.250000 0.000000 0.474992
O O4 0.340327 0.737857 0.691581
O O5 0.250000 0.000000 0.646143
O O6 0.016751 0.500000 0.880879
O O7 0.033039 0.224224 0.797088
O O8 0.920862 0.235443 0.917844
O O9 0.096034 0.236237 0.938445
O O10 0.500000 0.721793 0.500000
O O11 0.506693 0.768624 0.647780
O O12 0.563776 0.000000 0.557847
O O13 0.956377 0.500000 0.281382
O O14 0.250000 0.771484 0.020687
O O15 0.350931 0.500000 0.015668
#
# Coordination Sequence:
#
# PCOD9402425 Si02
#       6
#     4   4   8   8   8   8
#     4   9  18  35  57  75  92 131 188 230 249 287
#     4  11  21  37  57  77 100 137 184 218 255 317
#     4   8  16  28  42  69 105 133 163 206 259 311
#     4  10  19  36  58  75  99 140 187 221 250 307
#     4  11  22  34  50  81 116 136 161 221 284 314
#     4   8  13  25  46  66  93 138 177 201 239 310
#
# _framework density 19.611992000000001
#
# number of rings (size 3 to 8) (size 9 to 14) (size 15 to 20)
#    0.000    2.600    2.000    2.100    1.400    0.400 
#    1.800    0.500    0.000    0.000    0.000   11.200 
#    0.000    0.000    0.000    0.000    0.000    0.000 
#
# Total GULP energy -223158.075694 kJ/mol
# GULP energy per Si atom -5578.951892 kJ/mol
# Density = 1.956735 g / cm^3
# Si number density = 19.611992 Si / 1000 Ang^3
#
#
#
# Elastic Constant Matrix: (Units=GPa)
#
#
# Indices 1 2 3 4 5 6 
#
# 1 226.0380 -2.6923 113.0970 0.0000 0.0000 0.0000
# 2 -2.6923 22.5657 -13.7129 0.0000 0.0000 0.0000
# 3 113.0970 -13.7129 165.2324 0.0000 0.0000 0.0000
# 4 0.0000 0.0000 0.0000 28.8323 0.0000 0.0000
# 5 0.0000 0.0000 0.0000 0.0000 15.2976 0.0000
# 6 0.0000 0.0000 0.0000 0.0000 0.0000 9.7458
#
#
#
# Elastic Compliance Matrix: (Units=1/GPa)
#
#
# Indices 1 2 3 4 5 6 
#
# 1 0.006824 -0.002132 -0.004848 0.000000 0.000000 0.000000
# 2 -0.002132 0.047335 0.005388 0.000000 0.000000 0.000000
# 3 -0.004848 0.005388 0.009818 0.000000 0.000000 0.000000
# 4 0.000000 0.000000 0.000000 0.034683 0.000000 0.000000
# 5 0.000000 0.000000 0.000000 0.000000 0.065370 0.000000
# 6 0.000000 0.000000 0.000000 0.000000 0.000000 0.102608
#
#
# Mechanical properties :
#
#
# Convention : Reuss Voigt Hill
#
# Bulk Modulus (GPa) = 16.44951 67.46886 41.95919
# Shear Modulus (GPa) = 17.23624 31.91808 24.57716
#
# Velocity S-wave (km/s) = 2.96778 4.03858 3.54385
# Velocity P-wave (km/s) = 4.48880 7.49822 6.17951
#
# Compressibility (1/GPa) = 0.06079207
#
# Stress axis : x y z
#
# Youngs Moduli (GPa) = 146.53507 21.12613 101.85884
#
# Poissons Ratio (x) = 0.04504 0.49381
# Poissons Ratio (y) = 0.31239 -0.54877
# Poissons Ratio (z) = 0.71040 -0.11382
#
# Static dielectric constant tensor:
#      x y z
#    x 1.668720 0.000000 0.000000 
#    y 0.000000 1.724820 0.000000 
#    z 0.000000 0.000000 1.678530 
# 
# From -- ./inp_files/23737.got.cif
#   From: 2010.05.17/outbox.cif.g08.bks.cpg/sg51_12_cif.got.tgz:23737.got - 2010.06.03 11:52:47.
