data_PCOD9402029
_publ_section_title
;
Structure prediction by ZEFSAII (Michael W. Deem and Ramdas Pophale) SiO2 
 PCOD9402029
Probable space group: P M M A
;
_chemical_formula_sum "Si O2"
_cell_formula_units_Z 48
_cell_length_a 8.591417
_cell_length_b 21.171795
_cell_length_c 14.886826
_cell_angle_alpha 90.000000
_cell_angle_beta 90.000000
_cell_angle_gamma 90.000000
_cell_volume 2707.849926
_symmetry_space_group_name_H-M "P M M A"
_symmetry_group_IT_number 51
_symmetry_cell_setting 'orthorhombic'
loop_
_space_group_symop_operation_xyz
x,y,z
1/2-x,-y,z
1/2+x,-y,-z
-x,y,-z
-x,-y,-z
1/2+x,y,-z
1/2-x,y,z
x,-y,z
loop_
_atom_site_type_symbol
_atom_site_label
_atom_site_fract_x
_atom_site_fract_y
_atom_site_fract_z
Si Si1 0.059943 0.690405 0.714546
Si Si2 0.936504 0.813198 0.399263
Si Si3 0.563141 0.260721 0.095354
Si Si4 0.438152 0.571804 0.599614
Si Si5 0.563848 0.929800 0.714979
Si Si6 0.936511 0.888117 0.096357
O O1 0.250000 0.690338 0.715737
O O2 0.011943 0.750102 0.653766
O O3 0.007664 0.702332 0.816551
O O4 0.008937 0.625162 0.669215
O O5 0.750000 0.812836 0.401556
O O6 0.000000 0.813512 0.500000
O O7 0.991375 0.874414 0.344484
O O8 0.750000 0.263480 0.093014
O O9 0.521403 0.186489 0.104846
O O10 0.500000 0.283639 0.000000
O O11 0.500000 0.586290 0.500000
O O12 0.250000 0.573101 0.596870
O O13 0.486372 0.500000 0.622377
O O14 0.750000 0.924495 0.711938
O O15 0.508096 0.921850 0.817563
O O16 0.518961 0.000000 0.683018
O O17 0.750000 0.893688 0.098173
O O18 0.000000 0.910273 0.000000
#
# Coordination Sequence:
#
# PCOD9402029 Si02
#       6
#     8   8   8   8   8   8
#     4   9  17  32  53  77 107 137 171 212 256 305
#     4  11  22  38  57  78 103 134 172 219 267 313
#     4   9  17  31  50  75 103 133 167 209 255 302
#     4   9  17  30  50  76 107 142 175 209 252 303
#     4  11  24  40  56  76 103 136 175 218 264 318
#     4  10  19  34  56  80 106 137 171 214 265 315
#
# _framework density 17.726241999999999
#
# number of rings (size 3 to 8) (size 9 to 14) (size 15 to 20)
#    0.000    2.167    1.667    2.000    0.000    2.667 
#    0.000    1.667    0.000    0.500    0.000    0.000 
#    0.000    0.000    0.000    0.000    0.000    0.000 
#
# Total GULP energy -267917.239165 kJ/mol
# GULP energy per Si atom -5581.609149 kJ/mol
# Density = 1.768590 g / cm^3
# Si number density = 17.726242 Si / 1000 Ang^3
#
#
#
# Elastic Constant Matrix: (Units=GPa)
#
#
# Indices 1 2 3 4 5 6 
#
# 1 18.6406 23.8324 22.4452 0.0000 0.0000 0.0000
# 2 23.8324 114.8126 79.9935 0.0000 0.0000 0.0000
# 3 22.4452 79.9935 145.9876 0.0000 0.0000 0.0000
# 4 0.0000 0.0000 0.0000 17.0114 0.0000 0.0000
# 5 0.0000 0.0000 0.0000 0.0000 33.0130 0.0000
# 6 0.0000 0.0000 0.0000 0.0000 0.0000 11.8104
#
#
#
# Elastic Compliance Matrix: (Units=1/GPa)
#
#
# Indices 1 2 3 4 5 6 
#
# 1 0.075100 -0.012203 -0.004860 0.000000 0.000000 0.000000
# 2 -0.012203 0.016071 -0.006930 0.000000 0.000000 0.000000
# 3 -0.004860 -0.006930 0.011394 0.000000 0.000000 0.000000
# 4 0.000000 0.000000 0.000000 0.058784 0.000000 0.000000
# 5 0.000000 0.000000 0.000000 0.000000 0.030291 0.000000
# 6 0.000000 0.000000 0.000000 0.000000 0.000000 0.084671
#
#
# Mechanical properties :
#
#
# Convention : Reuss Voigt Hill
#
# Bulk Modulus (GPa) = 18.32182 59.10922 38.71552
# Shear Modulus (GPa) = 14.59894 22.57827 18.58861
#
# Velocity S-wave (km/s) = 2.87292 3.57279 3.24180
# Velocity P-wave (km/s) = 4.62205 7.10196 5.99171
#
# Compressibility (1/GPa) = 0.05457972
#
# Stress axis : x y z
#
# Youngs Moduli (GPa) = 13.31564 62.22297 87.76265
#
# Poissons Ratio (x) = 0.75930 0.42651
# Poissons Ratio (y) = 0.16249 0.60820
# Poissons Ratio (z) = 0.06471 0.43121
#
# Static dielectric constant tensor:
#      x y z
#    x 1.604580 0.000000 0.000000 
#    y 0.000000 1.610290 0.000000 
#    z 0.000000 0.000000 1.585970 
# 
# From -- ./inp_files/21058.got.cif
#   From: 2010.05.17/outbox.cif.g08.bks.cpg/sg51_11_cif.got.tgz:21058.got - 2010.06.03 11:52:47.
