data_PCOD9402606
_publ_section_title
;
Structure prediction by ZEFSAII (Michael W. Deem and Ramdas Pophale) SiO2 
 PCOD9402606
Probable space group: P M M A
;
_chemical_formula_sum "Si O2"
_cell_formula_units_Z 64
_cell_length_a 23.222633
_cell_length_b 9.472416
_cell_length_c 18.385996
_cell_angle_alpha 90.000000
_cell_angle_beta 90.000000
_cell_angle_gamma 90.000000
_cell_volume 4044.449181
_symmetry_space_group_name_H-M "P M M A"
_symmetry_group_IT_number 51
_symmetry_cell_setting 'orthorhombic'
loop_
_space_group_symop_operation_xyz
x,y,z
1/2-x,-y,z
1/2+x,-y,-z
-x,y,-z
-x,-y,-z
1/2+x,y,-z
1/2-x,y,z
x,-y,z
loop_
_atom_site_type_symbol
_atom_site_label
_atom_site_fract_x
_atom_site_fract_y
_atom_site_fract_z
Si Si1 0.817954 0.664387 0.987888
Si Si2 0.389377 0.169232 0.131389
Si Si3 0.819842 0.664081 0.582237
Si Si4 0.319922 0.663905 0.579714
Si Si5 0.500138 0.667003 0.913534
Si Si6 0.319121 0.167007 0.722391
Si Si7 0.182639 0.168838 0.275297
Si Si8 0.629005 0.333665 0.143321
O O1 0.750000 0.677415 0.975565
O O2 0.835039 0.500000 0.975147
O O3 0.833058 0.695524 0.071563
O O4 0.852773 0.765261 0.934680
O O5 0.451836 0.239848 0.125597
O O6 0.356161 0.205513 0.206006
O O7 0.392635 0.000000 0.125626
O O8 0.750000 0.670367 0.581443
O O9 0.835705 0.500000 0.592000
O O10 0.839118 0.709145 0.501311
O O11 0.837963 0.756234 0.650926
O O12 0.250000 0.666589 0.578741
O O13 0.336606 0.500000 0.590776
O O14 0.337959 0.760894 0.646613
O O15 0.486278 0.500000 0.093314
O O16 0.436954 0.690530 0.880477
O O17 0.500000 0.699285 0.000000
O O18 0.250000 0.189545 0.730085
O O19 0.350713 0.240551 0.789542
O O20 0.329384 0.000000 0.720897
O O21 0.250000 0.207687 0.262007
O O22 0.180906 0.000000 0.284840
O O23 0.635819 0.500000 0.161152
#
# Coordination Sequence:
#
# PCOD9402606 Si02
#       8
#     8   8   8   8   8   8   8   8
#     4  10  20  34  52  72  95 127 165 200 240 292
#     4  11  22  34  50  72 100 130 162 201 248 296
#     4   8  14  25  43  68  95 125 163 202 235 273
#     4   8  14  26  44  66  95 130 164 196 233 280
#     4  10  20  38  58  72  90 119 164 215 252 290
#     4  10  20  31  45  71 105 134 161 196 237 287
#     4   9  18  31  45  66 100 136 163 191 234 289
#     4  10  20  35  54  71  91 124 163 205 249 289
#
# _framework density 15.824157
#
# number of rings (size 3 to 8) (size 9 to 14) (size 15 to 20)
#    0.000    2.500    1.250    2.250    0.000    4.750 
#    0.000    3.750    0.000    0.000    0.000    0.875 
#    0.000    7.000    0.000    0.000    0.000    0.000 
#
# Total GULP energy -356771.943084 kJ/mol
# GULP energy per Si atom -5574.561611 kJ/mol
# Density = 1.578814 g / cm^3
# Si number density = 15.824157 Si / 1000 Ang^3
#
#
#
# Elastic Constant Matrix: (Units=GPa)
#
#
# Indices 1 2 3 4 5 6 
#
# 1 35.1449 29.7395 26.9687 0.0000 0.0000 0.0000
# 2 29.7395 60.1572 68.1617 0.0000 0.0000 0.0000
# 3 26.9687 68.1617 123.6033 0.0000 0.0000 0.0000
# 4 0.0000 0.0000 0.0000 810.1787 0.0000 0.0000
# 5 0.0000 0.0000 0.0000 0.0000 1.5221 0.0000
# 6 0.0000 0.0000 0.0000 0.0000 0.0000 22.3706
#
#
#
# Elastic Compliance Matrix: (Units=1/GPa)
#
#
# Indices 1 2 3 4 5 6 
#
# 1 0.051370 -0.033840 0.007453 0.000000 0.000000 0.000000
# 2 -0.033840 0.066601 -0.029344 0.000000 0.000000 0.000000
# 3 0.007453 -0.029344 0.022646 0.000000 0.000000 0.000000
# 4 0.000000 0.000000 0.000000 0.001234 0.000000 0.000000
# 5 0.000000 0.000000 0.000000 0.000000 0.657006 0.000000
# 6 0.000000 0.000000 0.000000 0.000000 0.000000 0.044702
#
#
# Mechanical properties :
#
#
# Convention : Reuss Voigt Hill
#
# Bulk Modulus (GPa) = 34.29962 52.07167 43.18565
# Shear Modulus (GPa) = 5.18275 173.08329 89.13302
#
# Velocity S-wave (km/s) = 1.81172 10.46979 7.51329
# Velocity P-wave (km/s) = 5.10871 13.38407 10.12996
#
# Compressibility (1/GPa) = 0.02915484
#
# Stress axis : x y z
#
# Youngs Moduli (GPa) = 19.46663 15.01480 44.15777
#
# Poissons Ratio (x) = 0.50811 -0.32911
# Poissons Ratio (y) = 0.65876 1.29576
# Poissons Ratio (z) = -0.14509 0.44059
#
# Static dielectric constant tensor:
#      x y z
#    x 1.514070 0.000000 0.000000 
#    y 0.000000 1.524360 0.000000 
#    z 0.000000 0.000000 1.522560 
# 
# From -- ./inp_files/30924.got.cif
#   From: 2010.05.17/outbox.cif.g08.bks.cpg/sg51_16_cif.got.tgz:30924.got - 2010.06.03 11:52:47.
