data_PCOD9402355
_publ_section_title
;
Structure prediction by ZEFSAII (Michael W. Deem and Ramdas Pophale) SiO2 
 PCOD9402355
Probable space group: P M M A
;
_chemical_formula_sum "Si O2"
_cell_formula_units_Z 64
_cell_length_a 15.874795
_cell_length_b 23.450734
_cell_length_c 9.300064
_cell_angle_alpha 90.000000
_cell_angle_beta 90.000000
_cell_angle_gamma 90.000000
_cell_volume 3462.186858
_symmetry_space_group_name_H-M "P M M A"
_symmetry_group_IT_number 51
_symmetry_cell_setting 'orthorhombic'
loop_
_space_group_symop_operation_xyz
x,y,z
1/2-x,-y,z
1/2+x,-y,-z
-x,y,-z
-x,-y,-z
1/2+x,y,-z
1/2-x,y,z
x,-y,z
loop_
_atom_site_type_symbol
_atom_site_label
_atom_site_fract_x
_atom_site_fract_y
_atom_site_fract_z
Si Si1 0.920374 0.340817 0.595499
Si Si2 0.036226 0.376079 0.853909
Si Si3 0.582855 0.156722 0.091590
Si Si4 0.466985 0.125258 0.340989
Si Si5 0.848527 0.064496 0.868534
Si Si6 0.349550 0.566092 0.619234
Si Si7 0.654432 0.767965 0.712956
Si Si8 0.346372 0.272366 0.956059
O O1 0.878773 0.393121 0.510670
O O2 0.858919 0.287887 0.616592
O O3 0.000000 0.321669 0.500000
O O4 0.959742 0.359479 0.747821
O O5 0.098184 0.414771 0.759211
O O6 0.088369 0.319878 0.903125
O O7 0.000000 0.402646 0.000000
O O8 0.546900 0.129844 0.235734
O O9 0.636683 0.212671 0.123575
O O10 0.500000 0.175102 0.000000
O O11 0.628945 0.110894 0.990540
O O12 0.500000 0.114965 0.500000
O O13 0.405042 0.079044 0.269690
O O14 0.413765 0.184320 0.327331
O O15 0.750000 0.069143 0.834708
O O16 0.866161 0.000000 0.918245
O O17 0.250000 0.572992 0.643331
O O18 0.366847 0.500000 0.585935
O O19 0.750000 0.790152 0.701192
O O20 0.642825 0.745968 0.876908
O O21 0.250000 0.291837 0.936216
#
# Coordination Sequence:
#
# PCOD9402355 Si02
#       8
#     8   8   8   8   8   8   8   8
#     4  10  21  36  59  84 114 153 195 236 282 346
#     4  11  21  36  59  89 117 147 188 240 294 346
#     4  10  19  35  59  83 114 153 199 242 286 340
#     4  11  23  37  56  87 123 158 190 241 298 354
#     4  10  21  40  64  86 112 154 206 248 287 342
#     4  10  23  44  63  82 115 156 197 240 288 346
#     4  11  20  34  57  84 120 157 195 238 290 352
#     4  11  20  33  57  86 120 153 190 239 297 349
#
# _framework density 18.485427999999999
#
# number of rings (size 3 to 8) (size 9 to 14) (size 15 to 20)
#    0.000    1.500    3.750    3.000    0.000    6.000 
#    0.000    5.000    0.000    3.000    0.000    0.000 
#    0.000    0.000    0.000    0.000    0.000    0.000 
#
# Total GULP energy -357316.067064 kJ/mol
# GULP energy per Si atom -5583.063548 kJ/mol
# Density = 1.844335 g / cm^3
# Si number density = 18.485428 Si / 1000 Ang^3
#
#
#
# Elastic Constant Matrix: (Units=GPa)
#
#
# Indices 1 2 3 4 5 6 
#
# 1 72.7590 35.7643 29.7065 0.0000 0.0000 0.0000
# 2 35.7643 85.7551 7.4294 0.0000 0.0000 0.0000
# 3 29.7065 7.4294 84.4288 0.0000 0.0000 0.0000
# 4 0.0000 0.0000 0.0000 23.9555 0.0000 0.0000
# 5 0.0000 0.0000 0.0000 0.0000 12.7294 0.0000
# 6 0.0000 0.0000 0.0000 0.0000 0.0000 253.8151
#
#
#
# Elastic Compliance Matrix: (Units=1/GPa)
#
#
# Indices 1 2 3 4 5 6 
#
# 1 0.020246 -0.007886 -0.006429 0.000000 0.000000 0.000000
# 2 -0.007886 0.014823 0.001471 0.000000 0.000000 0.000000
# 3 -0.006429 0.001471 0.013977 0.000000 0.000000 0.000000
# 4 0.000000 0.000000 0.000000 0.041744 0.000000 0.000000
# 5 0.000000 0.000000 0.000000 0.000000 0.078559 0.000000
# 6 0.000000 0.000000 0.000000 0.000000 0.000000 0.003940
#
#
# Mechanical properties :
#
#
# Convention : Reuss Voigt Hill
#
# Bulk Modulus (GPa) = 42.81798 43.19370 43.00584
# Shear Modulus (GPa) = 24.18219 69.43618 46.80919
#
# Velocity S-wave (km/s) = 3.62080 6.13549 5.03758
# Velocity P-wave (km/s) = 6.37915 8.57959 7.55986
#
# Compressibility (1/GPa) = 0.02335467
#
# Stress axis : x y z
#
# Youngs Moduli (GPa) = 49.39341 67.46378 71.54545
#
# Poissons Ratio (x) = 0.53205 0.46000
# Poissons Ratio (y) = 0.38954 -0.10521
# Poissons Ratio (z) = 0.31757 -0.09921
#
# Static dielectric constant tensor:
#      x y z
#    x 1.641120 0.000000 0.000000 
#    y 0.000000 1.627630 0.000000 
#    z 0.000000 0.000000 1.644940 
# 
# From -- ./inp_files/8716.got.cif
#   From: 2010.05.17/outbox.cif.g08.bks.cpg/sg51_5_cif.got.tgz:8716.got - 2010.06.03 11:52:47.
