data_PCOD9402092
_publ_section_title
;
Structure prediction by ZEFSAII (Michael W. Deem and Ramdas Pophale) SiO2 
 PCOD9402092
Probable space group: P M M A
;
_chemical_formula_sum "Si O2"
_cell_formula_units_Z 64
_cell_length_a 7.695244
_cell_length_b 20.777005
_cell_length_c 20.686790
_cell_angle_alpha 90.000000
_cell_angle_beta 90.000000
_cell_angle_gamma 90.000000
_cell_volume 3307.489278
_symmetry_space_group_name_H-M "P M M A"
_symmetry_group_IT_number 51
_symmetry_cell_setting 'orthorhombic'
loop_
_space_group_symop_operation_xyz
x,y,z
1/2-x,-y,z
1/2+x,-y,-z
-x,y,-z
-x,-y,-z
1/2+x,y,-z
1/2-x,y,z
x,-y,z
loop_
_atom_site_type_symbol
_atom_site_label
_atom_site_fract_x
_atom_site_fract_y
_atom_site_fract_z
Si Si1 0.043638 0.072851 0.427691
Si Si2 0.958850 0.293593 0.428444
Si Si3 0.542124 0.185219 0.331450
Si Si4 0.546023 0.756770 0.205146
Si Si5 0.955715 0.430944 0.101392
Si Si6 0.541690 0.387478 0.757221
Si Si7 0.455948 0.569718 0.614348
Si Si8 0.040803 0.709952 0.929821
O O1 0.250000 0.069199 0.424219
O O2 0.000000 0.097115 0.500000
O O3 0.986676 0.120065 0.370821
O O4 0.971548 0.000000 0.422103
O O5 0.750000 0.296201 0.421207
O O6 0.027252 0.243709 0.375570
O O7 0.028853 0.365898 0.418466
O O8 0.000000 0.270454 0.500000
O O9 0.750000 0.193670 0.327034
O O10 0.473201 0.194075 0.258501
O O11 0.750000 0.771522 0.196963
O O12 0.528285 0.685445 0.236314
O O13 0.472795 0.748434 0.132758
O O14 0.750000 0.431807 0.087360
O O15 0.030209 0.500000 0.080305
O O16 0.028331 0.363843 0.073914
O O17 0.979000 0.423948 0.178657
O O18 0.750000 0.385860 0.757411
O O19 0.479387 0.419322 0.691061
O O20 0.250000 0.568054 0.600807
O O21 0.529994 0.500000 0.595767
O O22 0.250000 0.706052 0.923120
O O23 0.000000 0.737279 0.000000
#
# Coordination Sequence:
#
# PCOD9402092 Si02
#       8
#     8   8   8   8   8   8   8   8
#     4  10  21  36  54  80 116 152 182 209 243 293
#     4  10  21  35  50  70  93 121 160 205 252 299
#     4  10  19  34  57  79 101 132 174 217 249 289
#     4   9  18  35  54  71  96 131 167 201 244 301
#     4   9  18  32  47  61  83 121 161 194 243 314
#     4  11  20  29  45  70  94 114 147 204 261 301
#     4  10  20  35  51  62  82 122 163 199 251 317
#     4   9  18  31  48  68  94 126 160 200 249 305
#
# _framework density 19.350026
#
# number of rings (size 3 to 8) (size 9 to 14) (size 15 to 20)
#    0.000    2.250    1.250    3.000    0.000    7.750 
#    0.000    0.000    0.000    0.000    0.000    0.000 
#    0.000    0.500    0.000    1.125    0.000    2.000 
#
# Total GULP energy -357127.123587 kJ/mol
# GULP energy per Si atom -5580.111306 kJ/mol
# Density = 1.930598 g / cm^3
# Si number density = 19.350026 Si / 1000 Ang^3
#
#
#
# Elastic Constant Matrix: (Units=GPa)
#
#
# Indices 1 2 3 4 5 6 
#
# 1 35.6874 -1.5802 0.9282 0.0000 0.0000 0.0000
# 2 -1.5802 71.3895 58.5723 0.0000 0.0000 0.0000
# 3 0.9282 58.5723 137.7298 0.0000 0.0000 0.0000
# 4 0.0000 0.0000 0.0000 20.1436 0.0000 0.0000
# 5 0.0000 0.0000 0.0000 0.0000 14.7139 0.0000
# 6 0.0000 0.0000 0.0000 0.0000 0.0000 162.6088
#
#
#
# Elastic Compliance Matrix: (Units=1/GPa)
#
#
# Indices 1 2 3 4 5 6 
#
# 1 0.028092 0.001194 -0.000697 0.000000 0.000000 0.000000
# 2 0.001194 0.021565 -0.009179 0.000000 0.000000 0.000000
# 3 -0.000697 -0.009179 0.011169 0.000000 0.000000 0.000000
# 4 0.000000 0.000000 0.000000 0.049644 0.000000 0.000000
# 5 0.000000 0.000000 0.000000 0.000000 0.067963 0.000000
# 6 0.000000 0.000000 0.000000 0.000000 0.000000 0.006150
#
#
# Mechanical properties :
#
#
# Convention : Reuss Voigt Hill
#
# Bulk Modulus (GPa) = 23.00895 40.07192 31.54043
# Shear Modulus (GPa) = 23.10175 51.95237 37.52706
#
# Velocity S-wave (km/s) = 3.45902 5.18720 4.40862
# Velocity P-wave (km/s) = 5.27918 7.52529 6.49999
#
# Compressibility (1/GPa) = 0.04346136
#
# Stress axis : x y z
#
# Youngs Moduli (GPa) = 35.59725 46.37119 89.53471
#
# Poissons Ratio (x) = -0.05535 0.06240
# Poissons Ratio (y) = -0.04249 0.82184
# Poissons Ratio (z) = 0.02481 0.42564
#
# Static dielectric constant tensor:
#      x y z
#    x 1.723780 0.000000 0.000000 
#    y 0.000000 1.691970 0.000000 
#    z 0.000000 0.000000 1.707630 
# 
# From -- ./inp_files/32319.got.cif
#   From: 2010.05.17/outbox.cif.g08.bks.cpg/sg51_17_cif.got.tgz:32319.got - 2010.06.03 11:52:47.
