data_PCOD9402608
_publ_section_title
;
Structure prediction by ZEFSAII (Michael W. Deem and Ramdas Pophale) SiO2 
 PCOD9402608
Probable space group: P M M A
;
_chemical_formula_sum "Si O2"
_cell_formula_units_Z 44
_cell_length_a 7.631975
_cell_length_b 22.154433
_cell_length_c 14.586987
_cell_angle_alpha 90.000000
_cell_angle_beta 90.000000
_cell_angle_gamma 90.000000
_cell_volume 2466.398085
_symmetry_space_group_name_H-M "P M M A"
_symmetry_group_IT_number 51
_symmetry_cell_setting 'orthorhombic'
loop_
_space_group_symop_operation_xyz
x,y,z
1/2-x,-y,z
1/2+x,-y,-z
-x,y,-z
-x,-y,-z
1/2+x,y,-z
1/2-x,y,z
x,-y,z
loop_
_atom_site_type_symbol
_atom_site_label
_atom_site_fract_x
_atom_site_fract_y
_atom_site_fract_z
Si Si1 0.039536 0.435095 0.891192
Si Si2 0.041309 0.066800 0.108340
Si Si3 0.957147 0.811429 0.216079
Si Si4 0.961238 0.303742 0.107800
Si Si5 0.038801 0.868910 0.606922
Si Si6 0.959354 0.000000 0.391582
O O1 0.250000 0.435384 0.879933
O O2 0.972966 0.500000 0.854982
O O3 0.973917 0.369646 0.858495
O O4 0.000000 0.435048 0.000000
O O5 0.250000 0.066302 0.118682
O O6 0.974724 0.125534 0.161351
O O7 0.974021 0.000000 0.138463
O O8 0.000000 0.072450 0.000000
O O9 0.750000 0.800103 0.224635
O O10 0.031359 0.754336 0.161614
O O11 0.027607 0.821582 0.318664
O O12 0.750000 0.304680 0.115595
O O13 0.000000 0.297489 0.000000
O O14 0.250000 0.871081 0.612921
O O15 0.971431 0.935173 0.638916
O O16 0.000000 0.858785 0.500000
O O17 0.000000 0.000000 0.500000
O O18 0.750000 0.000000 0.377614
#
# Coordination Sequence:
#
# PCOD9402608 Si02
#       6
#     8   8   8   8   8   4
#     4   8  13  22  37  56  80 110 140 168 198 234
#     4  10  21  35  48  63  83 110 145 182 214 247
#     4  10  20  31  46  65  86 112 140 174 216 260
#     4   9  17  28  41  61  87 114 143 172 203 242
#     4   9  18  31  46  63  82 105 133 169 215 261
#     4   8  14  26  42  58  73  92 119 154 199 250
#
# _framework density 17.839782
#
# number of rings (size 3 to 8) (size 9 to 14) (size 15 to 20)
#    0.000    2.909    0.000    1.091    1.273    4.000 
#    0.000    0.000    0.000    0.000    0.000    0.000 
#    0.000    0.727    0.000    0.545    0.000    1.455 
#
# Total GULP energy -245022.472425 kJ/mol
# GULP energy per Si atom -5568.692555 kJ/mol
# Density = 1.779918 g / cm^3
# Si number density = 17.839782 Si / 1000 Ang^3
#
#
#
# Elastic Constant Matrix: (Units=GPa)
#
#
# Indices 1 2 3 4 5 6 
#
# 1 40.7085 4.6957 -1.5322 0.0000 0.0000 0.0000
# 2 4.6957 181.1628 75.3860 0.0000 0.0000 0.0000
# 3 -1.5322 75.3860 71.6865 0.0000 0.0000 0.0000
# 4 0.0000 0.0000 0.0000 9.6708 0.0000 0.0000
# 5 0.0000 0.0000 0.0000 0.0000 12.3325 0.0000
# 6 0.0000 0.0000 0.0000 0.0000 0.0000 93.3335
#
#
#
# Elastic Compliance Matrix: (Units=1/GPa)
#
#
# Indices 1 2 3 4 5 6 
#
# 1 0.024823 -0.001537 0.002146 0.000000 0.000000 0.000000
# 2 -0.001537 0.009910 -0.010454 0.000000 0.000000 0.000000
# 3 0.002146 -0.010454 0.024989 0.000000 0.000000 0.000000
# 4 0.000000 0.000000 0.000000 0.103404 0.000000 0.000000
# 5 0.000000 0.000000 0.000000 0.000000 0.081086 0.000000
# 6 0.000000 0.000000 0.000000 0.000000 0.000000 0.010714
#
#
# Mechanical properties :
#
#
# Convention : Reuss Voigt Hill
#
# Bulk Modulus (GPa) = 24.97913 50.07297 37.52605
# Shear Modulus (GPa) = 17.36353 37.40125 27.38239
#
# Velocity S-wave (km/s) = 3.12317 4.58373 3.92204
# Velocity P-wave (km/s) = 5.19980 7.49288 6.44907
#
# Compressibility (1/GPa) = 0.04003342
#
# Stress axis : x y z
#
# Youngs Moduli (GPa) = 40.28529 100.90845 40.01721
#
# Poissons Ratio (x) = 0.15506 -0.08589
# Poissons Ratio (y) = 0.06190 0.41835
# Poissons Ratio (z) = -0.08647 1.05492
#
# Static dielectric constant tensor:
#      x y z
#    x 1.665010 0.000000 0.000000 
#    y 0.000000 1.687340 0.000000 
#    z 0.000000 0.000000 1.602570 
# 
# From -- ./inp_files/21388.got.cif
#   From: 2010.05.17/outbox.cif.g08.bks.cpg/sg51_11_cif.got.tgz:21388.got - 2010.06.03 11:52:47.
