data_PCOD9402889
_publ_section_title
;
Structure prediction by ZEFSAII (Michael W. Deem and Ramdas Pophale) SiO2 
 PCOD9402889
Probable space group: P M M A
;
_chemical_formula_sum "Si O2"
_cell_formula_units_Z 40
_cell_length_a 9.567250
_cell_length_b 7.613941
_cell_length_c 26.238092
_cell_angle_alpha 90.000000
_cell_angle_beta 90.000000
_cell_angle_gamma 90.000000
_cell_volume 1911.300090
_symmetry_space_group_name_H-M "P M M A"
_symmetry_group_IT_number 51
_symmetry_cell_setting 'orthorhombic'
loop_
_space_group_symop_operation_xyz
x,y,z
1/2-x,-y,z
1/2+x,-y,-z
-x,y,-z
-x,-y,-z
1/2+x,y,-z
1/2-x,y,z
x,-y,z
loop_
_atom_site_type_symbol
_atom_site_label
_atom_site_fract_x
_atom_site_fract_y
_atom_site_fract_z
Si Si1 0.588868 0.214889 0.549479
Si Si2 0.091411 0.288203 0.142979
Si Si3 0.407933 0.791244 0.644969
Si Si4 0.406810 0.209009 0.953773
Si Si5 0.908854 0.711799 0.741830
O O1 0.500000 0.267192 0.500000
O O2 0.750000 0.272806 0.547698
O O3 0.508320 0.276498 0.600103
O O4 0.591735 0.000000 0.549962
O O5 0.250000 0.228816 0.130962
O O6 0.093471 0.500000 0.143852
O O7 0.057119 0.228975 0.200559
O O8 0.984490 0.233997 0.099688
O O9 0.250000 0.719704 0.643477
O O10 0.481850 0.765670 0.699173
O O11 0.397578 0.000000 0.636446
O O12 0.250000 0.281763 0.953400
O O13 0.395912 0.000000 0.961975
O O14 0.500000 0.281912 0.000000
O O15 0.750000 0.771261 0.729625
O O16 0.906296 0.500000 0.742556
#
# Coordination Sequence:
#
# PCOD9402889 Si02
#       5
#     8   8   8   8   8
#     4   9  16  27  45  69  98 131 166 206 252 299
#     4   9  19  36  56  77 101 131 169 210 251 298
#     4  10  20  32  48  74 105 134 168 209 250 297
#     4  10  21  36  54  77 105 136 169 205 248 298
#     4   9  19  36  55  74  99 133 171 209 251 300
#
# _framework density 20.928163999999999
#
# number of rings (size 3 to 8) (size 9 to 14) (size 15 to 20)
#    0.000    2.600    0.000    3.000    0.000    7.600 
#    0.000    6.000    0.000    0.600    0.000    0.000 
#    0.000    0.000    0.000    0.000    0.000    0.000 
#
# Total GULP energy -223356.416251 kJ/mol
# GULP energy per Si atom -5583.910406 kJ/mol
# Density = 2.088053 g / cm^3
# Si number density = 20.928164 Si / 1000 Ang^3
#
#
#
# Elastic Constant Matrix: (Units=GPa)
#
#
# Indices 1 2 3 4 5 6 
#
# 1 229.5040 7.6948 145.8583 0.0000 0.0000 0.0000
# 2 7.6948 40.5140 -2.1307 0.0000 0.0000 0.0000
# 3 145.8583 -2.1307 163.4845 0.0000 0.0000 0.0000
# 4 0.0000 0.0000 0.0000 31.7908 0.0000 0.0000
# 5 0.0000 0.0000 0.0000 0.0000 34.8328 0.0000
# 6 0.0000 0.0000 0.0000 0.0000 0.0000 12.4266
#
#
#
# Elastic Compliance Matrix: (Units=1/GPa)
#
#
# Indices 1 2 3 4 5 6 
#
# 1 0.010299 -0.002441 -0.009220 0.000000 0.000000 0.000000
# 2 -0.002441 0.025278 0.002507 0.000000 0.000000 0.000000
# 3 -0.009220 0.002507 0.014376 0.000000 0.000000 0.000000
# 4 0.000000 0.000000 0.000000 0.031456 0.000000 0.000000
# 5 0.000000 0.000000 0.000000 0.000000 0.028709 0.000000
# 6 0.000000 0.000000 0.000000 0.000000 0.000000 0.080473
#
#
# Mechanical properties :
#
#
# Convention : Reuss Voigt Hill
#
# Bulk Modulus (GPa) = 31.60075 81.81636 56.70856
# Shear Modulus (GPa) = 22.78459 34.61536 28.69998
#
# Velocity S-wave (km/s) = 3.30313 4.07136 3.70720
# Velocity P-wave (km/s) = 5.44793 7.82816 6.74389
#
# Compressibility (1/GPa) = 0.03164482
#
# Stress axis : x y z
#
# Youngs Moduli (GPa) = 97.09719 39.55959 69.56157
#
# Poissons Ratio (x) = 0.09656 0.64138
# Poissons Ratio (y) = 0.23701 -0.17441
# Poissons Ratio (z) = 0.89527 -0.09919
#
# Static dielectric constant tensor:
#      x y z
#    x 1.730930 0.000000 0.000000 
#    y 0.000000 1.794210 0.000000 
#    z 0.000000 0.000000 1.715100 
# 
# From -- ./inp_files/31371.got.cif
#   From: 2010.05.17/outbox.cif.g08.bks.cpg/sg51_16_cif.got.tgz:31371.got - 2010.06.03 11:52:47.
