data_PCOD9402143
_publ_section_title
;
Structure prediction by ZEFSAII (Michael W. Deem and Ramdas Pophale) SiO2 
 PCOD9402143
Probable space group: P M M A
;
_chemical_formula_sum "Si O2"
_cell_formula_units_Z 44
_cell_length_a 8.304859
_cell_length_b 15.338919
_cell_length_c 17.221246
_cell_angle_alpha 90.000000
_cell_angle_beta 90.000000
_cell_angle_gamma 90.000000
_cell_volume 2193.772500
_symmetry_space_group_name_H-M "P M M A"
_symmetry_group_IT_number 51
_symmetry_cell_setting 'orthorhombic'
loop_
_space_group_symop_operation_xyz
x,y,z
1/2-x,-y,z
1/2+x,-y,-z
-x,y,-z
-x,-y,-z
1/2+x,y,-z
1/2-x,y,z
x,-y,z
loop_
_atom_site_type_symbol
_atom_site_label
_atom_site_fract_x
_atom_site_fract_y
_atom_site_fract_z
Si Si1 0.750000 0.100437 0.166231
Si Si2 0.990675 0.598205 0.173199
Si Si3 0.943416 0.402593 0.343602
Si Si4 0.750000 0.405519 0.961349
Si Si5 0.250000 0.276376 0.896613
Si Si6 0.566453 0.102922 0.725903
Si Si7 0.057438 0.781195 0.585816
O O1 0.750000 0.173374 0.099679
O O2 0.585917 0.115153 0.216073
O O3 0.750000 0.000000 0.140506
O O4 0.918097 0.500000 0.173064
O O5 0.105480 0.596387 0.099151
O O6 0.041089 0.606738 0.262802
O O7 0.893443 0.684689 0.154437
O O8 0.750000 0.397972 0.323897
O O9 0.972688 0.500000 0.375226
O O10 0.978213 0.321001 0.397898
O O11 0.750000 0.500000 0.002566
O O12 0.750000 0.328123 0.022440
O O13 0.750000 0.121604 0.755301
O O14 0.530080 0.161780 0.651170
O O15 0.563078 0.000000 0.705536
O O16 0.250000 0.793624 0.593015
O O17 0.000000 0.804774 0.500000
#
# Coordination Sequence:
#
# PCOD9402143 Si02
#       7
#     4   8   8   4   4   8   8
#     4  10  22  42  66  93 123 159 208 255 303 371
#     4  10  19  34  57  85 117 156 200 247 298 359
#     4   9  18  35  58  80 111 162 213 250 296 358
#     4  10  22  36  54  89 131 161 196 251 311 369
#     4  12  20  34  58  86 118 160 196 238 312 374
#     4  10  21  40  66  93 123 159 200 254 315 369
#     4  11  22  37  57  88 127 165 204 253 309 362
#
# _framework density 20.056774000000001
#
# number of rings (size 3 to 8) (size 9 to 14) (size 15 to 20)
#    0.000    1.818    1.818    3.000    0.000    2.182 
#    8.182    0.000    0.000    2.182    0.000    0.000 
#    0.000    0.000    0.000    0.000    0.000    0.000 
#
# Total GULP energy -245094.205720 kJ/mol
# GULP energy per Si atom -5570.322857 kJ/mol
# Density = 2.001112 g / cm^3
# Si number density = 20.056774 Si / 1000 Ang^3
#
#
#
# Elastic Constant Matrix: (Units=GPa)
#
#
# Indices 1 2 3 4 5 6 
#
# 1 78.5354 36.8450 11.3754 0.0000 0.0000 0.0000
# 2 36.8450 114.7216 33.6875 0.0000 0.0000 0.0000
# 3 11.3754 33.6875 38.3961 0.0000 0.0000 0.0000
# 4 0.0000 0.0000 0.0000 25.2220 0.0000 0.0000
# 5 0.0000 0.0000 0.0000 0.0000 18.8243 0.0000
# 6 0.0000 0.0000 0.0000 0.0000 0.0000 13.5405
#
#
#
# Elastic Compliance Matrix: (Units=1/GPa)
#
#
# Indices 1 2 3 4 5 6 
#
# 1 0.014995 -0.004730 -0.000293 0.000000 0.000000 0.000000
# 2 -0.004730 0.013234 -0.010210 0.000000 0.000000 0.000000
# 3 -0.000293 -0.010210 0.035089 0.000000 0.000000 0.000000
# 4 0.000000 0.000000 0.000000 0.039648 0.000000 0.000000
# 5 0.000000 0.000000 0.000000 0.000000 0.053123 0.000000
# 6 0.000000 0.000000 0.000000 0.000000 0.000000 0.073852
#
#
# Mechanical properties :
#
#
# Convention : Reuss Voigt Hill
#
# Bulk Modulus (GPa) = 30.43872 43.94100 37.18986
# Shear Modulus (GPa) = 18.42601 21.50036 19.96319
#
# Velocity S-wave (km/s) = 3.03428 3.27766 3.15831
# Velocity P-wave (km/s) = 5.24262 6.02328 5.64646
#
# Compressibility (1/GPa) = 0.03285290
#
# Stress axis : x y z
#
# Youngs Moduli (GPa) = 66.69109 75.56357 28.49922
#
# Poissons Ratio (x) = 0.35741 0.00834
# Poissons Ratio (y) = 0.31544 0.29097
# Poissons Ratio (z) = 0.01951 0.77148
#
# Static dielectric constant tensor:
#      x y z
#    x 1.786710 0.000000 0.000000 
#    y 0.000000 1.699600 0.000000 
#    z 0.000000 0.000000 1.668770 
# 
# From -- ./inp_files/27464.got.cif
#   From: 2010.05.17/outbox.cif.g08.bks.cpg/sg51_14_cif.got.tgz:27464.got - 2010.06.03 11:52:47.
