data_PCOD9402311
_publ_section_title
;
Structure prediction by ZEFSAII (Michael W. Deem and Ramdas Pophale) SiO2 
 PCOD9402311
Probable space group: P M M A
;
_chemical_formula_sum "Si O2"
_cell_formula_units_Z 48
_cell_length_a 29.024684
_cell_length_b 8.545500
_cell_length_c 10.558511
_cell_angle_alpha 90.000000
_cell_angle_beta 90.000000
_cell_angle_gamma 90.000000
_cell_volume 2618.832099
_symmetry_space_group_name_H-M "P M M A"
_symmetry_group_IT_number 51
_symmetry_cell_setting 'orthorhombic'
loop_
_space_group_symop_operation_xyz
x,y,z
1/2-x,-y,z
1/2+x,-y,-z
-x,y,-z
-x,-y,-z
1/2+x,y,-z
1/2-x,y,z
x,-y,z
loop_
_atom_site_type_symbol
_atom_site_label
_atom_site_fract_x
_atom_site_fract_y
_atom_site_fract_z
Si Si1 0.197585 0.687269 0.643793
Si Si2 0.552746 0.190608 0.507628
Si Si3 0.895171 0.189412 0.764018
Si Si4 0.553204 0.312741 0.010483
Si Si5 0.801984 0.811023 0.640404
Si Si6 0.393914 0.187494 0.744675
O O1 0.250000 0.735703 0.676345
O O2 0.195540 0.500000 0.643911
O O3 0.188621 0.747348 0.500647
O O4 0.158444 0.753782 0.735051
O O5 0.500000 0.242814 0.500000
O O6 0.576475 0.237504 0.638647
O O7 0.580845 0.242235 0.384325
O O8 0.553012 0.000000 0.506271
O O9 0.842324 0.236405 0.736146
O O10 0.896856 0.000000 0.773477
O O11 0.918300 0.259595 0.887758
O O12 0.552779 0.500000 0.017306
O O13 0.578083 0.247430 0.134984
O O14 0.500000 0.257764 0.000000
O O15 0.750000 0.763395 0.676342
O O16 0.803274 0.000000 0.631915
O O17 0.393963 0.000000 0.745823
#
# Coordination Sequence:
#
# PCOD9402311 Si02
#       6
#     8   8   8   8   8   8
#     4  10  20  34  55  85 121 156 187 227 284 344
#     4   9  17  30  52  83 112 136 178 238 288 332
#     4  10  19  35  57  83 112 147 191 236 286 339
#     4  11  25  42  57  79 115 156 194 235 289 351
#     4   9  17  32  56  85 115 146 186 235 281 332
#     4  11  21  37  61  86 112 149 194 241 288 337
#
# _framework density 18.328780999999999
#
# number of rings (size 3 to 8) (size 9 to 14) (size 15 to 20)
#    0.000    2.000    1.667    2.500    0.000    4.333 
#    0.000    0.833    0.000    6.500    0.000    0.000 
#    0.000    0.000    0.000    0.000    0.000    0.000 
#
# Total GULP energy -267978.807666 kJ/mol
# GULP energy per Si atom -5582.891826 kJ/mol
# Density = 1.828706 g / cm^3
# Si number density = 18.328781 Si / 1000 Ang^3
#
#
#
# Elastic Constant Matrix: (Units=GPa)
#
#
# Indices 1 2 3 4 5 6 
#
# 1 165.1797 33.6902 69.9355 0.0000 0.0000 0.0000
# 2 33.6902 23.5209 23.9316 0.0000 0.0000 0.0000
# 3 69.9355 23.9316 112.7876 0.0000 0.0000 0.0000
# 4 0.0000 0.0000 0.0000 -43.7669 0.0000 0.0000
# 5 0.0000 0.0000 0.0000 0.0000 33.5046 0.0000
# 6 0.0000 0.0000 0.0000 0.0000 0.0000 21.6092
#
#
#
# Elastic Compliance Matrix: (Units=1/GPa)
#
#
# Indices 1 2 3 4 5 6 
#
# 1 0.009752 -0.009967 -0.003932 0.000000 0.000000 0.000000
# 2 -0.009967 0.064409 -0.007486 0.000000 0.000000 0.000000
# 3 -0.003932 -0.007486 0.012893 0.000000 0.000000 0.000000
# 4 0.000000 0.000000 0.000000 -0.022848 0.000000 0.000000
# 5 0.000000 0.000000 0.000000 0.000000 0.029847 0.000000
# 6 0.000000 0.000000 0.000000 0.000000 0.000000 0.046276
#
#
# Mechanical properties :
#
#
# Convention : Reuss Voigt Hill
#
# Bulk Modulus (GPa) = 22.58217 61.84478 42.21348
# Shear Modulus (GPa) = 25.27052 13.86478 19.56765
#
# Velocity S-wave (km/s) = 3.71716 2.75335 3.27095
# Velocity P-wave (km/s) = 5.54711 6.62744 6.11120
#
# Compressibility (1/GPa) = 0.04428273
#
# Stress axis : x y z
#
# Youngs Moduli (GPa) = 102.54698 15.52582 77.56418
#
# Poissons Ratio (x) = 0.15475 0.30496
# Poissons Ratio (y) = 1.02213 0.58065
# Poissons Ratio (z) = 0.40319 0.11623
#
# Static dielectric constant tensor:
#      x y z
#    x 1.655090 0.000000 0.000000 
#    y 0.000000 1.622170 0.000000 
#    z 0.000000 0.000000 1.587630 
# 
# From -- ./inp_files/12827.got.cif
#   From: 2010.05.17/outbox.cif.g08.bks.cpg/sg51_7_cif.got.tgz:12827.got - 2010.06.03 11:52:47.
