data_PCOD9402813
_publ_section_title
;
Structure prediction by ZEFSAII (Michael W. Deem and Ramdas Pophale) SiO2 
 PCOD9402813
Probable space group: P M M A
;
_chemical_formula_sum "Si O2"
_cell_formula_units_Z 64
_cell_length_a 14.683357
_cell_length_b 7.563442
_cell_length_c 27.512851
_cell_angle_alpha 90.000000
_cell_angle_beta 90.000000
_cell_angle_gamma 90.000000
_cell_volume 3055.486963
_symmetry_space_group_name_H-M "P M M A"
_symmetry_group_IT_number 51
_symmetry_cell_setting 'orthorhombic'
loop_
_space_group_symop_operation_xyz
x,y,z
1/2-x,-y,z
1/2+x,-y,-z
-x,y,-z
-x,-y,-z
1/2+x,y,-z
1/2-x,y,z
x,-y,z
loop_
_atom_site_type_symbol
_atom_site_label
_atom_site_fract_x
_atom_site_fract_y
_atom_site_fract_z
Si Si1 0.534706 0.788682 0.072396
Si Si2 0.146021 0.783884 0.022271
Si Si3 0.451804 0.282980 0.737601
Si Si4 0.851294 0.288449 0.166671
Si Si5 0.975382 0.800419 0.448345
Si Si6 0.848684 0.285442 0.725793
Si Si7 0.850553 0.286892 0.611322
Si Si8 0.352267 0.291313 0.640536
O O1 0.431875 0.726653 0.060694
O O2 0.576800 0.747707 0.124334
O O3 0.531495 0.000000 0.067689
O O4 0.603853 0.727885 0.029834
O O5 0.250000 0.723412 0.029424
O O6 0.148898 0.000000 0.022719
O O7 0.453495 0.500000 0.736975
O O8 0.386788 0.224656 0.781167
O O9 0.555623 0.224618 0.747318
O O10 0.414384 0.223067 0.685056
O O11 0.750000 0.220047 0.154962
O O12 0.845115 0.500000 0.170522
O O13 0.900470 0.726117 0.411541
O O14 0.000000 0.713217 0.500000
O O15 0.068484 0.797833 0.418001
O O16 0.945140 0.000000 0.459023
O O17 0.750000 0.222099 0.744270
O O18 0.847133 0.500000 0.729213
O O19 0.854058 0.243066 0.668374
O O20 0.750000 0.239728 0.592994
O O21 0.860900 0.500000 0.608120
O O22 0.250000 0.217011 0.641015
O O23 0.344975 0.500000 0.649852
#
# Coordination Sequence:
#
# PCOD9402813 Si02
#       8
#     8   8   8   8   8   8   8   8
#     4   9  17  30  50  74  98 129 172 217 255 296
#     4   8  14  27  49  74  98 129 171 215 258 302
#     4   9  16  30  52  75 101 132 166 204 248 301
#     4  10  20  32  47  71 104 139 170 204 254 308
#     4  11  24  38  51  72 106 142 167 195 248 315
#     4   8  13  24  48  78  98 115 149 200 248 283
#     4   9  17  32  56  81  99 120 160 210 249 285
#     4  10  20  36  59  81  99 127 172 220 257 292
#
# _framework density 20.945924999999999
#
# number of rings (size 3 to 8) (size 9 to 14) (size 15 to 20)
#    0.000    2.750    1.250    2.625    0.000    4.250 
#    0.000    5.000    0.000    3.375    0.000    0.000 
#    0.000    0.000    0.000    0.000    0.000    0.000 
#
# Total GULP energy -356864.194676 kJ/mol
# GULP energy per Si atom -5576.003042 kJ/mol
# Density = 2.089825 g / cm^3
# Si number density = 20.945925 Si / 1000 Ang^3
#
#
#
# Elastic Constant Matrix: (Units=GPa)
#
#
# Indices 1 2 3 4 5 6 
#
# 1 177.3670 8.0443 53.9567 0.0000 0.0000 0.0000
# 2 8.0443 41.8864 1.3704 0.0000 0.0000 0.0000
# 3 53.9567 1.3704 89.1580 0.0000 0.0000 0.0000
# 4 0.0000 0.0000 0.0000 31.2997 0.0000 0.0000
# 5 0.0000 0.0000 0.0000 0.0000 16.7736 0.0000
# 6 0.0000 0.0000 0.0000 0.0000 0.0000 -70.2341
#
#
#
# Elastic Compliance Matrix: (Units=1/GPa)
#
#
# Indices 1 2 3 4 5 6 
#
# 1 0.006970 -0.001201 -0.004200 0.000000 0.000000 0.000000
# 2 -0.001201 0.024093 0.000357 0.000000 0.000000 0.000000
# 3 -0.004200 0.000357 0.013752 0.000000 0.000000 0.000000
# 4 0.000000 0.000000 0.000000 0.031949 0.000000 0.000000
# 5 0.000000 0.000000 0.000000 0.000000 0.059617 0.000000
# 6 0.000000 0.000000 0.000000 0.000000 0.000000 -0.014238
#
#
# Mechanical properties :
#
#
# Convention : Reuss Voigt Hill
#
# Bulk Modulus (GPa) = 28.79621 48.35046 38.57334
# Shear Modulus (GPa) = 34.76857 11.90384 23.33620
#
# Velocity S-wave (km/s) = 4.07863 2.38652 3.34146
# Velocity P-wave (km/s) = 5.99650 5.54324 5.77432
#
# Compressibility (1/GPa) = 0.03472679
#
# Stress axis : x y z
#
# Youngs Moduli (GPa) = 143.47010 41.50562 72.71594
#
# Poissons Ratio (x) = 0.04986 0.30539
# Poissons Ratio (y) = 0.17234 -0.02593
# Poissons Ratio (z) = 0.60253 -0.01480
#
# Static dielectric constant tensor:
#      x y z
#    x 1.772180 0.000000 0.000000 
#    y 0.000000 1.798950 0.000000 
#    z 0.000000 0.000000 1.723700 
# 
# From -- ./inp_files/35740.got.cif
#   From: 2010.05.17/outbox.cif.g08.bks.cpg/sg51_18_cif.got.tgz:35740.got - 2010.06.03 11:52:47.
