data_PCOD9402663
_publ_section_title
;
Structure prediction by ZEFSAII (Michael W. Deem and Ramdas Pophale) SiO2 
 PCOD9402663
Probable space group: P M M A
;
_chemical_formula_sum "Si O2"
_cell_formula_units_Z 64
_cell_length_a 9.028927
_cell_length_b 14.642884
_cell_length_c 31.878301
_cell_angle_alpha 90.000000
_cell_angle_beta 90.000000
_cell_angle_gamma 90.000000
_cell_volume 4214.615215
_symmetry_space_group_name_H-M "P M M A"
_symmetry_group_IT_number 51
_symmetry_cell_setting 'orthorhombic'
loop_
_space_group_symop_operation_xyz
x,y,z
1/2-x,-y,z
1/2+x,-y,-z
-x,y,-z
-x,-y,-z
1/2+x,y,-z
1/2-x,y,z
x,-y,z
loop_
_atom_site_type_symbol
_atom_site_label
_atom_site_fract_x
_atom_site_fract_y
_atom_site_fract_z
Si Si1 0.421102 0.388678 0.957063
Si Si2 0.420072 0.389065 0.128276
Si Si3 0.069948 0.604483 0.374717
Si Si4 0.573337 0.104451 0.323663
Si Si5 0.072725 0.716672 0.456954
Si Si6 0.926419 0.104563 0.423683
Si Si7 0.927883 0.716344 0.708230
Si Si8 0.073061 0.608035 0.784470
O O1 0.250000 0.360947 0.956422
O O2 0.423976 0.500000 0.956950
O O3 0.504659 0.358190 0.914994
O O4 0.500000 0.359324 0.000000
O O5 0.250000 0.358813 0.131126
O O6 0.419466 0.500000 0.126879
O O7 0.510656 0.364675 0.169909
O O8 0.250000 0.603404 0.374754
O O9 0.018352 0.500000 0.373471
O O10 0.024548 0.656098 0.417065
O O11 0.025007 0.659849 0.333370
O O12 0.750000 0.115771 0.317601
O O13 0.545454 0.114861 0.373688
O O14 0.485795 0.181206 0.298628
O O15 0.534527 0.000000 0.312476
O O16 0.250000 0.714317 0.460012
O O17 0.000000 0.683910 0.500000
O O18 0.017671 0.819350 0.447898
O O19 0.750000 0.117642 0.430346
O O20 0.963002 0.000000 0.435196
O O21 0.750000 0.714645 0.710910
O O22 0.997662 0.667385 0.748391
O O23 0.250000 0.617844 0.783488
O O24 0.038158 0.500000 0.778116
#
# Coordination Sequence:
#
# PCOD9402663 Si02
#       8
#     8   8   8   8   8   8   8   8
#     4   9  15  22  33  50  73 104 145 193 241 286
#     4   9  16  26  39  55  78 110 149 194 241 284
#     4   9  19  35  52  70  93 119 148 183 222 261
#     4   9  18  33  53  75  99 123 145 176 219 265
#     4  11  22  36  53  73  95 121 150 182 219 262
#     4   9  18  34  55  76  98 122 145 174 214 259
#     4  11  20  32  52  75  96 120 150 186 226 270
#     4  10  20  32  45  64  91 123 158 195 235 279
#
# _framework density 15.185254
#
# number of rings (size 3 to 8) (size 9 to 14) (size 15 to 20)
#    0.000    2.375    1.250    3.000    0.000    5.250 
#    0.000    1.250    0.000    3.375    0.000    0.000 
#    0.000    0.000    0.000    0.000    0.000    0.625 
#
# Total GULP energy -356950.841092 kJ/mol
# GULP energy per Si atom -5577.356892 kJ/mol
# Density = 1.515069 g / cm^3
# Si number density = 15.185254 Si / 1000 Ang^3
#
#
#
# Elastic Constant Matrix: (Units=GPa)
#
#
# Indices 1 2 3 4 5 6 
#
# 1 65.3349 33.1631 54.7587 0.0000 0.0000 0.0000
# 2 33.1631 67.0381 49.6195 0.0000 0.0000 0.0000
# 3 54.7587 49.6195 132.8437 0.0000 0.0000 0.0000
# 4 0.0000 0.0000 0.0000 3.7515 0.0000 0.0000
# 5 0.0000 0.0000 0.0000 0.0000 27.6977 0.0000
# 6 0.0000 0.0000 0.0000 0.0000 0.0000 17.5411
#
#
#
# Elastic Compliance Matrix: (Units=1/GPa)
#
#
# Indices 1 2 3 4 5 6 
#
# 1 0.025360 -0.006645 -0.007971 0.000000 0.000000 0.000000
# 2 -0.006645 0.022358 -0.005612 0.000000 0.000000 0.000000
# 3 -0.007971 -0.005612 0.012910 0.000000 0.000000 0.000000
# 4 0.000000 0.000000 0.000000 0.266560 0.000000 0.000000
# 5 0.000000 0.000000 0.000000 0.000000 0.036104 0.000000
# 6 0.000000 0.000000 0.000000 0.000000 0.000000 0.057009
#
#
# Mechanical properties :
#
#
# Convention : Reuss Voigt Hill
#
# Bulk Modulus (GPa) = 49.57725 60.03326 54.80525
# Shear Modulus (GPa) = 10.69564 18.30976 14.50270
#
# Velocity S-wave (km/s) = 2.65683 3.47617 3.09374
# Velocity P-wave (km/s) = 6.49082 7.46535 6.99508
#
# Compressibility (1/GPa) = 0.02017054
#
# Stress axis : x y z
#
# Youngs Moduli (GPa) = 39.43274 44.72680 77.46163
#
# Poissons Ratio (x) = 0.29721 0.61747
# Poissons Ratio (y) = 0.26203 0.43471
# Poissons Ratio (z) = 0.31433 0.25101
#
# Static dielectric constant tensor:
#      x y z
#    x 1.506390 0.000000 0.000000 
#    y 0.000000 1.484420 0.000000 
#    z 0.000000 0.000000 1.497440 
# 
# From -- ./inp_files/37518.got.cif
#   From: 2010.05.17/outbox.cif.g08.bks.cpg/sg51_19_cif.got.tgz:37518.got - 2010.06.03 11:52:47.
