data_PCOD9402668
_publ_section_title
;
Structure prediction by ZEFSAII (Michael W. Deem and Ramdas Pophale) SiO2 
 PCOD9402668
Probable space group: P M M A
;
_chemical_formula_sum "Si O2"
_cell_formula_units_Z 64
_cell_length_a 8.733491
_cell_length_b 14.749271
_cell_length_c 31.998696
_cell_angle_alpha 90.000000
_cell_angle_beta 90.000000
_cell_angle_gamma 90.000000
_cell_volume 4121.836045
_symmetry_space_group_name_H-M "P M M A"
_symmetry_group_IT_number 51
_symmetry_cell_setting 'orthorhombic'
loop_
_space_group_symop_operation_xyz
x,y,z
1/2-x,-y,z
1/2+x,-y,-z
-x,y,-z
-x,-y,-z
1/2+x,y,-z
1/2-x,y,z
x,-y,z
loop_
_atom_site_type_symbol
_atom_site_label
_atom_site_fract_x
_atom_site_fract_y
_atom_site_fract_z
Si Si1 0.934757 0.105447 0.045016
Si Si2 0.936622 0.895665 0.209650
Si Si3 0.067171 0.105905 0.368166
Si Si4 0.066764 0.396816 0.257870
Si Si5 0.573848 0.889820 0.456578
Si Si6 0.933577 0.782501 0.291521
Si Si7 0.434908 0.601893 0.835169
Si Si8 0.936688 0.787833 0.126627
O O1 0.750000 0.109223 0.043361
O O2 0.988425 0.167341 0.083442
O O3 0.977400 0.000000 0.052622
O O4 0.000000 0.132388 0.000000
O O5 0.750000 0.895911 0.209505
O O6 0.984417 0.839264 0.250394
O O7 0.985213 0.846775 0.166879
O O8 0.987226 0.000000 0.211513
O O9 0.250000 0.110270 0.365264
O O10 0.014938 0.135333 0.414460
O O11 0.992586 0.166567 0.332437
O O12 0.020588 0.000000 0.362572
O O13 0.250000 0.389867 0.257209
O O14 0.025204 0.500000 0.270189
O O15 0.997507 0.318652 0.286533
O O16 0.003122 0.383028 0.210905
O O17 0.500000 0.857913 0.500000
O O18 0.750000 0.861453 0.453819
O O19 0.570788 0.000000 0.457927
O O20 0.750000 0.780199 0.291569
O O21 0.250000 0.605373 0.831422
O O22 0.477446 0.500000 0.848846
O O23 0.482836 0.684016 0.865082
O O24 0.750000 0.790126 0.126079
#
# Coordination Sequence:
#
# PCOD9402668 Si02
#       8
#     8   8   8   8   8   8   8   8
#     4   9  17  29  46  65  86 112 143 179 219 265
#     4   9  16  25  40  64  90 115 147 185 220 258
#     4  10  20  32  45  64  95 133 167 199 238 285
#     4  10  20  33  48  66  90 120 153 190 235 284
#     4   9  16  27  44  65  89 120 162 208 249 287
#     4  11  20  31  47  67  92 123 159 197 233 275
#     4   9  16  28  47  69  89 109 142 187 228 268
#     4   9  15  26  44  67  88 111 145 183 223 266
#
# _framework density 15.527061
#
# number of rings (size 3 to 8) (size 9 to 14) (size 15 to 20)
#    0.000    2.500    1.250    2.250    0.000    5.000 
#    0.000    0.625    0.000    0.375    0.000    0.000 
#    0.000    0.500    0.000    1.875    0.000    2.875 
#
# Total GULP energy -356772.195531 kJ/mol
# GULP energy per Si atom -5574.565555 kJ/mol
# Density = 1.549172 g / cm^3
# Si number density = 15.527061 Si / 1000 Ang^3
#
#
#
# Elastic Constant Matrix: (Units=GPa)
#
#
# Indices 1 2 3 4 5 6 
#
# 1 24.8472 29.4876 29.1785 0.0000 0.0000 0.0000
# 2 29.4876 113.7080 77.6291 0.0000 0.0000 0.0000
# 3 29.1785 77.6291 132.1489 0.0000 0.0000 0.0000
# 4 0.0000 0.0000 0.0000 8.2811 0.0000 0.0000
# 5 0.0000 0.0000 0.0000 0.0000 23.9786 0.0000
# 6 0.0000 0.0000 0.0000 0.0000 0.0000 15.5000
#
#
#
# Elastic Compliance Matrix: (Units=1/GPa)
#
#
# Indices 1 2 3 4 5 6 
#
# 1 0.061858 -0.011214 -0.007070 0.000000 0.000000 0.000000
# 2 -0.011214 0.016716 -0.007344 0.000000 0.000000 0.000000
# 3 -0.007070 -0.007344 0.013442 0.000000 0.000000 0.000000
# 4 0.000000 0.000000 0.000000 0.120757 0.000000 0.000000
# 5 0.000000 0.000000 0.000000 0.000000 0.041704 0.000000
# 6 0.000000 0.000000 0.000000 0.000000 0.000000 0.064516
#
#
# Mechanical properties :
#
#
# Convention : Reuss Voigt Hill
#
# Bulk Modulus (GPa) = 24.53420 60.36604 42.45012
# Shear Modulus (GPa) = 13.02637 18.51254 15.76946
#
# Velocity S-wave (km/s) = 2.89960 3.45668 3.19032
# Velocity P-wave (km/s) = 5.20053 7.40904 6.40076
#
# Compressibility (1/GPa) = 0.04075943
#
# Stress axis : x y z
#
# Youngs Moduli (GPa) = 16.16610 59.82251 74.39249
#
# Poissons Ratio (x) = 0.67087 0.52599
# Poissons Ratio (y) = 0.18129 0.54630
# Poissons Ratio (z) = 0.11430 0.43931
#
# Static dielectric constant tensor:
#      x y z
#    x 1.525040 0.000000 0.000000 
#    y 0.000000 1.520130 0.000000 
#    z 0.000000 0.000000 1.496420 
# 
# From -- ./inp_files/37543.got.cif
#   From: 2010.05.17/outbox.cif.g08.bks.cpg/sg51_19_cif.got.tgz:37543.got - 2010.06.03 11:52:47.
