data_PCOD9402795
_publ_section_title
;
Structure prediction by ZEFSAII (Michael W. Deem and Ramdas Pophale) SiO2 
 PCOD9402795
Probable space group: P M M A
;
_chemical_formula_sum "Si O2"
_cell_formula_units_Z 44
_cell_length_a 8.973982
_cell_length_b 21.594693
_cell_length_c 13.972072
_cell_angle_alpha 90.000000
_cell_angle_beta 90.000000
_cell_angle_gamma 90.000000
_cell_volume 2707.653230
_symmetry_space_group_name_H-M "P M M A"
_symmetry_group_IT_number 51
_symmetry_cell_setting 'orthorhombic'
loop_
_space_group_symop_operation_xyz
x,y,z
1/2-x,-y,z
1/2+x,-y,-z
-x,y,-z
-x,-y,-z
1/2+x,y,-z
1/2-x,y,z
x,-y,z
loop_
_atom_site_type_symbol
_atom_site_label
_atom_site_fract_x
_atom_site_fract_y
_atom_site_fract_z
Si Si1 0.570936 0.313603 0.897936
Si Si2 0.570176 0.814055 0.794759
Si Si3 0.071701 0.748442 0.398741
Si Si4 0.927776 0.070472 0.104644
Si Si5 0.570440 0.380644 0.702725
Si Si6 0.571683 0.500000 0.394039
O O1 0.750000 0.314584 0.905814
O O2 0.528803 0.244264 0.862699
O O3 0.531358 0.360195 0.811227
O O4 0.500000 0.327922 0.000000
O O5 0.750000 0.819707 0.798757
O O6 0.527365 0.793962 0.687454
O O7 0.494695 0.876724 0.828582
O O8 0.250000 0.751334 0.406650
O O9 0.035135 0.678956 0.363170
O O10 0.000000 0.762244 0.500000
O O11 0.750000 0.077186 0.097073
O O12 0.960494 0.000000 0.137002
O O13 0.000000 0.077959 0.000000
O O14 0.750000 0.390435 0.699040
O O15 0.485880 0.439845 0.662947
O O16 0.750000 0.500000 0.401936
O O17 0.500000 0.500000 0.500000
#
# Coordination Sequence:
#
# PCOD9402795 Si02
#       6
#     8   8   8   8   8   4
#     4   9  18  32  51  74 101 130 161 199 240 284
#     4   9  18  32  49  72 100 129 161 198 241 287
#     4   9  18  32  51  74  99 126 159 199 243 289
#     4  10  20  32  47  70  99 130 163 198 237 283
#     4   9  19  36  53  72 100 131 161 197 241 286
#     4  12  24  36  53  76  99 126 161 200 242 290
#
# _framework density 16.250235
#
# number of rings (size 3 to 8) (size 9 to 14) (size 15 to 20)
#    0.000    2.545    0.000    4.636    0.000    6.909 
#    0.000    4.091    0.000    0.545    0.000    0.000 
#    0.000    0.000    0.000    0.000    0.000    0.000 
#
# Total GULP energy -245424.151392 kJ/mol
# GULP energy per Si atom -5577.821623 kJ/mol
# Density = 1.621325 g / cm^3
# Si number density = 16.250235 Si / 1000 Ang^3
#
#
#
# Elastic Constant Matrix: (Units=GPa)
#
#
# Indices 1 2 3 4 5 6 
#
# 1 48.8775 63.6203 51.9902 0.0000 0.0000 0.0000
# 2 63.6203 145.1841 87.8443 0.0000 0.0000 0.0000
# 3 51.9902 87.8443 140.8738 0.0000 0.0000 0.0000
# 4 0.0000 0.0000 0.0000 15.0052 0.0000 0.0000
# 5 0.0000 0.0000 0.0000 0.0000 33.9282 0.0000
# 6 0.0000 0.0000 0.0000 0.0000 0.0000 26.6885
#
#
#
# Elastic Compliance Matrix: (Units=1/GPa)
#
#
# Indices 1 2 3 4 5 6 
#
# 1 0.052848 -0.018238 -0.008131 0.000000 0.000000 0.000000
# 2 -0.018238 0.017355 -0.004091 0.000000 0.000000 0.000000
# 3 -0.008131 -0.004091 0.012650 0.000000 0.000000 0.000000
# 4 0.000000 0.000000 0.000000 0.066644 0.000000 0.000000
# 5 0.000000 0.000000 0.000000 0.000000 0.029474 0.000000
# 6 0.000000 0.000000 0.000000 0.000000 0.000000 0.037469
#
#
# Mechanical properties :
#
#
# Convention : Reuss Voigt Hill
#
# Bulk Modulus (GPa) = 45.59460 82.42723 64.01092
# Shear Modulus (GPa) = 17.56407 23.88977 20.72692
#
# Velocity S-wave (km/s) = 3.29120 3.83837 3.57527
# Velocity P-wave (km/s) = 6.52391 8.39512 7.51796
#
# Compressibility (1/GPa) = 0.02193242
#
# Stress axis : x y z
#
# Youngs Moduli (GPa) = 18.92233 57.61888 79.04871
#
# Poissons Ratio (x) = 1.05088 0.64273
# Poissons Ratio (y) = 0.34511 0.32341
# Poissons Ratio (z) = 0.15385 0.23573
#
# Static dielectric constant tensor:
#      x y z
#    x 1.540640 0.000000 0.000000 
#    y 0.000000 1.533030 0.000000 
#    z 0.000000 0.000000 1.530720 
# 
# From -- ./inp_files/20943.got.cif
#   From: 2010.05.17/outbox.cif.g08.bks.cpg/sg51_11_cif.got.tgz:20943.got - 2010.06.03 11:52:47.
