data_PCOD9402884
_publ_section_title
;
Structure prediction by ZEFSAII (Michael W. Deem and Ramdas Pophale) SiO2 
 PCOD9402884
Probable space group: P M M A
;
_chemical_formula_sum "Si O2"
_cell_formula_units_Z 52
_cell_length_a 9.685185
_cell_length_b 14.434684
_cell_length_c 16.296870
_cell_angle_alpha 90.000000
_cell_angle_beta 90.000000
_cell_angle_gamma 90.000000
_cell_volume 2278.344553
_symmetry_space_group_name_H-M "P M M A"
_symmetry_group_IT_number 51
_symmetry_cell_setting 'orthorhombic'
loop_
_space_group_symop_operation_xyz
x,y,z
1/2-x,-y,z
1/2+x,-y,-z
-x,y,-z
-x,-y,-z
1/2+x,y,-z
1/2-x,y,z
x,-y,z
loop_
_atom_site_type_symbol
_atom_site_label
_atom_site_fract_x
_atom_site_fract_y
_atom_site_fract_z
Si Si1 0.589575 0.135909 0.579869
Si Si2 0.091383 0.143544 0.735160
Si Si3 0.991992 0.605535 0.101345
Si Si4 0.250000 0.336221 0.027368
Si Si5 0.594471 0.888588 0.075514
Si Si6 0.405984 0.361516 0.424533
Si Si7 0.098884 0.635136 0.717675
O O1 0.500000 0.107627 0.500000
O O2 0.750000 0.106030 0.576815
O O3 0.510947 0.108149 0.664179
O O4 0.593195 0.248511 0.577635
O O5 0.250000 0.107938 0.727444
O O6 0.049654 0.128351 0.830640
O O7 0.098555 0.253252 0.721421
O O8 0.041667 0.500000 0.083823
O O9 0.871825 0.637740 0.040153
O O10 0.927014 0.604204 0.190667
O O11 0.125741 0.670576 0.096456
O O12 0.750000 0.848019 0.064233
O O13 0.603298 0.000000 0.067210
O O14 0.500000 0.855394 0.000000
O O15 0.500000 0.389721 0.500000
O O16 0.250000 0.391595 0.433406
O O17 0.477663 0.394054 0.341801
O O18 0.250000 0.606817 0.687337
#
# Coordination Sequence:
#
# PCOD9402884 Si02
#       7
#     8   8   8   4   8   8   8
#     4   9  16  27  47  73 100 132 164 197 242 293
#     4   9  18  33  48  71 104 130 162 205 250 293
#     4  11  20  35  53  72  96 129 168 204 242 292
#     4  10  21  36  54  70  92 128 171 206 239 292
#     4   9  18  34  54  72  94 130 172 208 245 292
#     4   9  17  30  49  71  98 130 164 200 241 293
#     4  10  20  32  48  74 104 131 160 201 249 292
#
# _framework density 22.823588999999998
#
# number of rings (size 3 to 8) (size 9 to 14) (size 15 to 20)
#    0.000    2.462    0.769    2.769    1.077    4.308 
#    2.769    0.000    0.000    0.923    0.000    0.000 
#    0.000    0.000    0.000    0.000    0.000    0.000 
#
# Total GULP energy -289585.093685 kJ/mol
# GULP energy per Si atom -5568.944109 kJ/mol
# Density = 2.277164 g / cm^3
# Si number density = 22.823589 Si / 1000 Ang^3
#
#
#
# Elastic Constant Matrix: (Units=GPa)
#
#
# Indices 1 2 3 4 5 6 
#
# 1 207.9218 11.7366 97.8235 0.0000 0.0000 0.0000
# 2 11.7366 85.6457 3.6379 0.0000 0.0000 0.0000
# 3 97.8235 3.6379 162.9221 0.0000 0.0000 0.0000
# 4 0.0000 0.0000 0.0000 20.3027 0.0000 0.0000
# 5 0.0000 0.0000 0.0000 0.0000 48.7542 0.0000
# 6 0.0000 0.0000 0.0000 0.0000 0.0000 -23.3274
#
#
#
# Elastic Compliance Matrix: (Units=1/GPa)
#
#
# Indices 1 2 3 4 5 6 
#
# 1 0.006751 -0.000754 -0.004037 0.000000 0.000000 0.000000
# 2 -0.000754 0.011771 0.000190 0.000000 0.000000 0.000000
# 3 -0.004037 0.000190 0.008558 0.000000 0.000000 0.000000
# 4 0.000000 0.000000 0.000000 0.049255 0.000000 0.000000
# 5 0.000000 0.000000 0.000000 0.000000 0.020511 0.000000
# 6 0.000000 0.000000 0.000000 0.000000 0.000000 -0.042868
#
#
# Mechanical properties :
#
#
# Convention : Reuss Voigt Hill
#
# Bulk Modulus (GPa) = 55.93356 75.87617 65.90486
# Shear Modulus (GPa) = 72.31826 32.03201 52.17513
#
# Velocity S-wave (km/s) = 5.63512 3.75034 4.78642
# Velocity P-wave (km/s) = 8.17921 7.21597 7.71264
#
# Compressibility (1/GPa) = 0.01787836
#
# Stress axis : x y z
#
# Youngs Moduli (GPa) = 148.11908 84.95280 116.85606
#
# Poissons Ratio (x) = 0.06403 0.47173
# Poissons Ratio (y) = 0.11164 -0.02217
# Poissons Ratio (z) = 0.59794 -0.01612
#
# Static dielectric constant tensor:
#      x y z
#    x 1.863800 0.000000 0.000000 
#    y 0.000000 1.965000 0.000000 
#    z 0.000000 0.000000 1.831890 
# 
# From -- ./inp_files/21512.got.cif
#   From: 2010.05.17/outbox.cif.g08.bks.cpg/sg51_11_cif.got.tgz:21512.got - 2010.06.03 11:52:47.
