data_PCOD9402391
_publ_section_title
;
Structure prediction by ZEFSAII (Michael W. Deem and Ramdas Pophale) SiO2 
 PCOD9402391
Probable space group: P M M A
;
_chemical_formula_sum "Si O2"
_cell_formula_units_Z 32
_cell_length_a 18.362165
_cell_length_b 12.420655
_cell_length_c 7.044770
_cell_angle_alpha 90.000000
_cell_angle_beta 90.000000
_cell_angle_gamma 90.000000
_cell_volume 1606.701515
_symmetry_space_group_name_H-M "P M M A"
_symmetry_group_IT_number 51
_symmetry_cell_setting 'orthorhombic'
loop_
_space_group_symop_operation_xyz
x,y,z
1/2-x,-y,z
1/2+x,-y,-z
-x,y,-z
-x,-y,-z
1/2+x,y,-z
1/2-x,y,z
x,-y,z
loop_
_atom_site_type_symbol
_atom_site_label
_atom_site_fract_x
_atom_site_fract_y
_atom_site_fract_z
Si Si1 0.928364 0.219535 0.608361
Si Si2 0.003578 0.000000 0.228479
Si Si3 0.832599 0.231976 0.242638
Si Si4 0.665461 0.000000 0.231760
Si Si5 0.414600 0.622873 0.048396
O O1 0.867277 0.207371 0.447527
O O2 0.000000 0.263385 0.500000
O O3 0.955457 0.107497 0.701898
O O4 0.903666 0.302465 0.768553
O O5 0.919668 0.000000 0.306367
O O6 0.000000 0.000000 0.000000
O O7 0.750000 0.265911 0.264255
O O8 0.875791 0.320651 0.128082
O O9 0.834671 0.116623 0.133179
O O10 0.750000 0.000000 0.324025
O O11 0.390707 0.500000 0.077970
O O12 0.500000 0.622979 0.000000
#
# Coordination Sequence:
#
# PCOD9402391 Si02
#       5
#     8   4   8   4   8
#     4  12  22  39  68  99 130 174 226 276 336 409
#     4  12  22  38  67 101 138 178 224 273 341 412
#     4  11  24  42  64  96 135 171 215 280 345 403
#     4  10  19  35  60  91 126 164 207 264 330 397
#     4  11  24  42  65  94 127 173 230 280 334 402
#
# _framework density 19.916578999999999
#
# number of rings (size 3 to 8) (size 9 to 14) (size 15 to 20)
#    0.000    0.750    5.000    3.375    0.000    3.000 
#    0.000    1.250    0.000    4.500    0.000    0.000 
#    0.000    0.000    0.000    0.000    0.000    0.000 
#
# Total GULP energy -178418.163070 kJ/mol
# GULP energy per Si atom -5575.567596 kJ/mol
# Density = 1.987125 g / cm^3
# Si number density = 19.916579 Si / 1000 Ang^3
#
#
#
# Elastic Constant Matrix: (Units=GPa)
#
#
# Indices 1 2 3 4 5 6 
#
# 1 128.1632 64.1721 46.2962 0.0000 0.0000 0.0000
# 2 64.1721 170.0459 70.7424 0.0000 0.0000 0.0000
# 3 46.2962 70.7424 120.8390 0.0000 0.0000 0.0000
# 4 0.0000 0.0000 0.0000 10.2599 0.0000 0.0000
# 5 0.0000 0.0000 0.0000 0.0000 19.3799 0.0000
# 6 0.0000 0.0000 0.0000 0.0000 0.0000 3.7628
#
#
#
# Elastic Compliance Matrix: (Units=1/GPa)
#
#
# Indices 1 2 3 4 5 6 
#
# 1 0.010026 -0.002889 -0.002150 0.000000 0.000000 0.000000
# 2 -0.002889 0.008607 -0.003932 0.000000 0.000000 0.000000
# 3 -0.002150 -0.003932 0.011401 0.000000 0.000000 0.000000
# 4 0.000000 0.000000 0.000000 0.097467 0.000000 0.000000
# 5 0.000000 0.000000 0.000000 0.000000 0.051600 0.000000
# 6 0.000000 0.000000 0.000000 0.000000 0.000000 0.265761
#
#
# Mechanical properties :
#
#
# Convention : Reuss Voigt Hill
#
# Bulk Modulus (GPa) = 82.69860 86.82996 84.76428
# Shear Modulus (GPa) = 10.71048 22.53635 16.62342
#
# Velocity S-wave (km/s) = 2.32150 3.36748 2.89217
# Velocity P-wave (km/s) = 6.98559 7.66886 7.33518
#
# Compressibility (1/GPa) = 0.01209210
#
# Stress axis : x y z
#
# Youngs Moduli (GPa) = 99.74351 116.18763 87.71321
#
# Poissons Ratio (x) = 0.33569 0.18855
# Poissons Ratio (y) = 0.28818 0.34486
# Poissons Ratio (z) = 0.21441 0.45682
#
# Static dielectric constant tensor:
#      x y z
#    x 1.678690 0.000000 0.000000 
#    y 0.000000 1.709860 0.000000 
#    z 0.000000 0.000000 1.722790 
# 
# From -- ./inp_files/9185.got.cif
#   From: 2010.05.17/outbox.cif.g08.bks.cpg/sg51_5_cif.got.tgz:9185.got - 2010.06.03 11:52:47.
