data_PCOD9402729
_publ_section_title
;
Structure prediction by ZEFSAII (Michael W. Deem and Ramdas Pophale) SiO2 
 PCOD9402729
Probable space group: P M M A
;
_chemical_formula_sum "Si O2"
_cell_formula_units_Z 56
_cell_length_a 25.323890
_cell_length_b 9.027928
_cell_length_c 15.534303
_cell_angle_alpha 90.000000
_cell_angle_beta 90.000000
_cell_angle_gamma 90.000000
_cell_volume 3551.487391
_symmetry_space_group_name_H-M "P M M A"
_symmetry_group_IT_number 51
_symmetry_cell_setting 'orthorhombic'
loop_
_space_group_symop_operation_xyz
x,y,z
1/2-x,-y,z
1/2+x,-y,-z
-x,y,-z
-x,-y,-z
1/2+x,y,-z
1/2-x,y,z
x,-y,z
loop_
_atom_site_type_symbol
_atom_site_label
_atom_site_fract_x
_atom_site_fract_y
_atom_site_fract_z
Si Si1 0.314244 0.329226 0.594510
Si Si2 0.685783 0.829336 0.580692
Si Si3 0.387859 0.821764 0.100558
Si Si4 0.387603 0.323819 0.912176
Si Si5 0.813221 0.824948 0.226715
Si Si6 0.313011 0.675905 0.240155
Si Si7 0.005713 0.831094 0.895967
O O1 0.250000 0.329398 0.592342
O O2 0.331392 0.500000 0.598199
O O3 0.332165 0.249955 0.506893
O O4 0.329153 0.241186 0.680542
O O5 0.750000 0.829924 0.578223
O O6 0.671186 0.741240 0.666838
O O7 0.668458 0.000000 0.584547
O O8 0.344992 0.758541 0.165855
O O9 0.447281 0.786598 0.134144
O O10 0.384628 0.000000 0.092635
O O11 0.381399 0.749313 0.006505
O O12 0.384393 0.500000 0.918930
O O13 0.343832 0.259561 0.848228
O O14 0.445210 0.273981 0.877227
O O15 0.750000 0.804960 0.217660
O O16 0.824319 0.000000 0.223070
O O17 0.250000 0.700197 0.229817
O O18 0.322460 0.500000 0.237033
O O19 0.017434 0.000000 0.868481
O O20 0.000000 0.833828 0.000000
#
# Coordination Sequence:
#
# PCOD9402729 Si02
#       7
#     8   8   8   8   8   8   8
#     4   9  16  27  44  66  92 120 152 193 236 274
#     4   9  16  27  44  65  90 122 158 192 228 274
#     4  10  20  34  51  69  92 124 159 195 234 277
#     4  11  21  32  49  71  95 123 155 194 237 278
#     4  10  20  33  48  67  94 128 162 193 229 278
#     4  10  20  32  46  68  98 128 158 194 235 278
#     4   8  16  32  51  69  89 115 152 196 236 274
#
# _framework density 15.768041999999999
#
# number of rings (size 3 to 8) (size 9 to 14) (size 15 to 20)
#    0.000    2.429    0.000    4.286    0.000    8.857 
#    0.000    0.000    0.000    0.000    0.000    1.000 
#    0.000    8.000    0.000    0.000    0.000    0.000 
#
# Total GULP energy -312173.159972 kJ/mol
# GULP energy per Si atom -5574.520714 kJ/mol
# Density = 1.573215 g / cm^3
# Si number density = 15.768042 Si / 1000 Ang^3
#
#
#
# Elastic Constant Matrix: (Units=GPa)
#
#
# Indices 1 2 3 4 5 6 
#
# 1 47.4291 55.5003 48.2590 0.0000 0.0000 0.0000
# 2 55.5003 134.5695 73.2620 0.0000 0.0000 0.0000
# 3 48.2590 73.2620 111.9114 0.0000 0.0000 0.0000
# 4 0.0000 0.0000 0.0000 30.4668 0.0000 0.0000
# 5 0.0000 0.0000 0.0000 0.0000 -2.9843 0.0000
# 6 0.0000 0.0000 0.0000 0.0000 0.0000 18.3355
#
#
#
# Elastic Compliance Matrix: (Units=1/GPa)
#
#
# Indices 1 2 3 4 5 6 
#
# 1 0.049953 -0.013789 -0.012514 0.000000 0.000000 0.000000
# 2 -0.013789 0.015353 -0.004104 0.000000 0.000000 0.000000
# 3 -0.012514 -0.004104 0.017019 0.000000 0.000000 0.000000
# 4 0.000000 0.000000 0.000000 0.032823 0.000000 0.000000
# 5 0.000000 0.000000 0.000000 0.000000 -0.335085 0.000000
# 6 0.000000 0.000000 0.000000 0.000000 0.000000 0.054539
#
#
# Mechanical properties :
#
#
# Convention : Reuss Voigt Hill
#
# Bulk Modulus (GPa) = 46.49116 71.99474 59.24295
# Shear Modulus (GPa) = -51.32640 16.95618 -17.18511
#
# Velocity S-wave (km/s) = -5.71153 3.28281 -3.30490
# Velocity P-wave (km/s) = 3.73457 7.75415 4.80520
#
# Compressibility (1/GPa) = 0.02150947
#
# Stress axis : x y z
#
# Youngs Moduli (GPa) = 20.01898 65.13585 58.75871
#
# Poissons Ratio (x) = 0.89816 0.73530
# Poissons Ratio (y) = 0.27604 0.24116
# Poissons Ratio (z) = 0.25052 0.26733
#
# Static dielectric constant tensor:
#      x y z
#    x 1.523910 0.000000 0.000000 
#    y 0.000000 1.526210 0.000000 
#    z 0.000000 0.000000 1.507230 
# 
# From -- ./inp_files/25669.got.cif
#   From: 2010.05.17/outbox.cif.g08.bks.cpg/sg51_13_cif.got.tgz:25669.got - 2010.06.03 11:52:47.
