data_PCOD9402030
_publ_section_title
;
Structure prediction by ZEFSAII (Michael W. Deem and Ramdas Pophale) SiO2 
 PCOD9402030
Probable space group: P M M A
;
_chemical_formula_sum "Si O2"
_cell_formula_units_Z 48
_cell_length_a 30.934119
_cell_length_b 8.849845
_cell_length_c 9.758049
_cell_angle_alpha 90.000000
_cell_angle_beta 90.000000
_cell_angle_gamma 90.000000
_cell_volume 2671.384556
_symmetry_space_group_name_H-M "P M M A"
_symmetry_group_IT_number 51
_symmetry_cell_setting 'orthorhombic'
loop_
_space_group_symop_operation_xyz
x,y,z
1/2-x,-y,z
1/2+x,-y,-z
-x,y,-z
-x,-y,-z
1/2+x,y,-z
1/2-x,y,z
x,-y,z
loop_
_atom_site_type_symbol
_atom_site_label
_atom_site_fract_x
_atom_site_fract_y
_atom_site_fract_z
Si Si1 0.172798 0.816422 0.342103
Si Si2 0.426071 0.182466 0.343589
Si Si3 0.176508 0.818467 0.655283
Si Si4 0.750000 0.816548 0.855613
Si Si5 0.000866 0.680744 0.841632
Si Si6 0.424913 0.819274 0.660556
Si Si7 0.250000 0.679537 0.842398
O O1 0.123420 0.769924 0.313808
O O2 0.184995 0.771942 0.497345
O O3 0.207784 0.768589 0.230866
O O4 0.172555 0.000000 0.343331
O O5 0.460367 0.253438 0.241755
O O6 0.435346 0.222019 0.502583
O O7 0.428158 0.000000 0.334259
O O8 0.125892 0.788416 0.683116
O O9 0.208331 0.737357 0.758810
O O10 0.183029 0.000000 0.664480
O O11 0.750000 0.000000 0.863213
O O12 0.750000 0.750108 0.006591
O O13 0.999160 0.500000 0.838056
O O14 0.043911 0.737122 0.765580
O O15 0.000000 0.730505 0.000000
O O16 0.431106 0.000000 0.672538
O O17 0.250000 0.500000 0.850513
#
# Coordination Sequence:
#
# PCOD9402030 Si02
#       7
#     8   8   8   4   8   8   4
#     4   8  16  33  60  86 103 127 172 228 272 309
#     4   9  18  35  58  83 106 130 171 224 271 314
#     4   9  18  37  62  83 103 132 174 222 269 314
#     4  10  19  34  56  80 106 140 179 214 258 314
#     4  11  24  37  49  73 111 150 181 211 255 312
#     4   9  19  36  60  85 104 129 172 225 272 313
#     4  12  25  36  48  76 116 150 177 210 256 308
#
# _framework density 17.968209000000002
#
# number of rings (size 3 to 8) (size 9 to 14) (size 15 to 20)
#    0.000    2.500    0.000    4.250    0.000    7.333 
#    0.000   10.000    0.000    0.000    0.000    0.000 
#    0.000    0.000    0.000    0.000    0.000    0.000 
#
# Total GULP energy -267911.968052 kJ/mol
# GULP energy per Si atom -5581.499334 kJ/mol
# Density = 1.792731 g / cm^3
# Si number density = 17.968209 Si / 1000 Ang^3
#
#
#
# Elastic Constant Matrix: (Units=GPa)
#
#
# Indices 1 2 3 4 5 6 
#
# 1 114.5249 51.4520 119.3361 0.0000 0.0000 0.0000
# 2 51.4520 35.6452 58.2038 0.0000 0.0000 0.0000
# 3 119.3361 58.2038 175.7221 0.0000 0.0000 0.0000
# 4 0.0000 0.0000 0.0000 -9.7222 0.0000 0.0000
# 5 0.0000 0.0000 0.0000 0.0000 -19.2041 0.0000
# 6 0.0000 0.0000 0.0000 0.0000 0.0000 -12.1623
#
#
#
# Elastic Compliance Matrix: (Units=1/GPa)
#
#
# Indices 1 2 3 4 5 6 
#
# 1 0.040333 -0.029387 -0.017657 0.000000 0.000000 0.000000
# 2 -0.029387 0.082511 -0.007373 0.000000 0.000000 0.000000
# 3 -0.017657 -0.007373 0.020124 0.000000 0.000000 0.000000
# 4 0.000000 0.000000 0.000000 -0.102857 0.000000 0.000000
# 5 0.000000 0.000000 0.000000 0.000000 -0.052072 0.000000
# 6 0.000000 0.000000 0.000000 0.000000 0.000000 -0.082222
#
#
# Mechanical properties :
#
#
# Convention : Reuss Voigt Hill
#
# Bulk Modulus (GPa) = 29.29551 87.09734 58.19643
# Shear Modulus (GPa) = 192.08062 -1.75769 95.16146
#
# Velocity S-wave (km/s) = 10.35047 -0.99012 7.28533
# Velocity P-wave (km/s) = 12.61676 6.87540 10.16006
#
# Compressibility (1/GPa) = 0.03413492
#
# Stress axis : x y z
#
# Youngs Moduli (GPa) = 24.79331 12.11954 49.69104
#
# Poissons Ratio (x) = 0.35616 0.87742
# Poissons Ratio (y) = 0.72860 0.36636
# Poissons Ratio (z) = 0.43779 0.08935
#
# Static dielectric constant tensor:
#      x y z
#    x 1.609220 0.000000 0.000000 
#    y 0.000000 1.596130 0.000000 
#    z 0.000000 0.000000 1.591490 
# 
# From -- ./inp_files/12884.got.cif
#   From: 2010.05.17/outbox.cif.g08.bks.cpg/sg51_7_cif.got.tgz:12884.got - 2010.06.03 11:52:47.
