data_PCOD9402133
_publ_section_title
;
Structure prediction by ZEFSAII (Michael W. Deem and Ramdas Pophale) SiO2 
 PCOD9402133
Probable space group: P M M A
;
_chemical_formula_sum "Si O2"
_cell_formula_units_Z 32
_cell_length_a 8.670358
_cell_length_b 21.344065
_cell_length_c 9.175266
_cell_angle_alpha 90.000000
_cell_angle_beta 90.000000
_cell_angle_gamma 90.000000
_cell_volume 1697.981008
_symmetry_space_group_name_H-M "P M M A"
_symmetry_group_IT_number 51
_symmetry_cell_setting 'orthorhombic'
loop_
_space_group_symop_operation_xyz
x,y,z
1/2-x,-y,z
1/2+x,-y,-z
-x,y,-z
-x,-y,-z
1/2+x,y,-z
1/2-x,y,z
x,-y,z
loop_
_atom_site_type_symbol
_atom_site_label
_atom_site_fract_x
_atom_site_fract_y
_atom_site_fract_z
Si Si1 0.935382 0.618892 0.163178
Si Si2 0.564363 0.137168 0.835085
Si Si3 0.065480 0.500000 0.336755
Si Si4 0.564521 0.000000 0.836058
Si Si5 0.065336 0.744930 0.662034
O O1 0.750000 0.613293 0.160130
O O2 0.976517 0.683931 0.242813
O O3 0.005096 0.561113 0.252438
O O4 0.000000 0.618591 0.000000
O O5 0.750000 0.140696 0.840482
O O6 0.499827 0.193051 0.738371
O O7 0.518436 0.067934 0.774532
O O8 0.500000 0.142581 0.000000
O O9 0.250000 0.500000 0.340313
O O10 0.000000 0.500000 0.500000
O O11 0.750000 0.000000 0.841587
O O12 0.500000 0.000000 0.000000
O O13 0.250000 0.748756 0.656214
O O14 0.000000 0.738445 0.500000
#
# Coordination Sequence:
#
# PCOD9402133 Si02
#       5
#     8   8   4   4   8
#     4  11  24  42  64  90 120 154 194 238 285 338
#     4  10  19  34  57  84 115 149 190 237 286 342
#     4  12  25  42  65  92 124 158 194 236 285 340
#     4   8  16  30  51  80 111 146 186 232 284 338
#     4  11  24  40  59  84 115 152 193 238 290 345
#
# _framework density 18.845911999999998
#
# number of rings (size 3 to 8) (size 9 to 14) (size 15 to 20)
#    0.000    1.500    0.000    5.250    0.000    9.000 
#    0.000    0.625    0.000    0.000    0.000    0.000 
#    0.000    0.000    0.000    0.000    0.000    0.000 
#
# Total GULP energy -178811.261466 kJ/mol
# GULP energy per Si atom -5587.851921 kJ/mol
# Density = 1.880302 g / cm^3
# Si number density = 18.845912 Si / 1000 Ang^3
#
#
#
# Elastic Constant Matrix: (Units=GPa)
#
#
# Indices 1 2 3 4 5 6 
#
# 1 73.3377 80.2987 57.1049 0.0000 0.0000 0.0000
# 2 80.2987 227.7375 113.8198 0.0000 0.0000 0.0000
# 3 57.1049 113.8198 160.4469 0.0000 0.0000 0.0000
# 4 0.0000 0.0000 0.0000 -132.2299 0.0000 0.0000
# 5 0.0000 0.0000 0.0000 0.0000 35.8399 0.0000
# 6 0.0000 0.0000 0.0000 0.0000 0.0000 31.1920
#
#
#
# Elastic Compliance Matrix: (Units=1/GPa)
#
#
# Indices 1 2 3 4 5 6 
#
# 1 0.023672 -0.006408 -0.003880 0.000000 0.000000 0.000000
# 2 -0.006408 0.008537 -0.003776 0.000000 0.000000 0.000000
# 3 -0.003880 -0.003776 0.010292 0.000000 0.000000 0.000000
# 4 0.000000 0.000000 0.000000 -0.007563 0.000000 0.000000
# 5 0.000000 0.000000 0.000000 0.000000 0.027902 0.000000
# 6 0.000000 0.000000 0.000000 0.000000 0.000000 0.032060
#
#
# Mechanical properties :
#
#
# Convention : Reuss Voigt Hill
#
# Bulk Modulus (GPa) = 69.56350 107.10765 88.33558
# Shear Modulus (GPa) = 39.11783 0.98028 20.04905
#
# Velocity S-wave (km/s) = 4.56089 0.72200 3.26520
# Velocity P-wave (km/s) = 8.04534 7.59288 7.82238
#
# Compressibility (1/GPa) = 0.01437536
#
# Stress axis : x y z
#
# Youngs Moduli (GPa) = 42.24319 117.13132 97.16329
#
# Poissons Ratio (x) = 0.75054 0.37697
# Poissons Ratio (y) = 0.27068 0.36687
# Poissons Ratio (z) = 0.16389 0.44226
#
# Static dielectric constant tensor:
#      x y z
#    x 1.633300 0.000000 0.000000 
#    y 0.000000 1.665700 0.000000 
#    z 0.000000 0.000000 1.601520 
# 
# From -- ./inp_files/5173.got.cif
#   From: 2010.05.17/outbox.cif.g08.bks.cpg/sg51_3_cif.got.tgz:5173.got - 2010.06.03 11:52:47.
