data_PCOD9402478
_publ_section_title
;
Structure prediction by ZEFSAII (Michael W. Deem and Ramdas Pophale) SiO2 
 PCOD9402478
Probable space group: P M M A
;
_chemical_formula_sum "Si O2"
_cell_formula_units_Z 64
_cell_length_a 21.821614
_cell_length_b 15.711180
_cell_length_c 9.126412
_cell_angle_alpha 90.000000
_cell_angle_beta 90.000000
_cell_angle_gamma 90.000000
_cell_volume 3128.929257
_symmetry_space_group_name_H-M "P M M A"
_symmetry_group_IT_number 51
_symmetry_cell_setting 'orthorhombic'
loop_
_space_group_symop_operation_xyz
x,y,z
1/2-x,-y,z
1/2+x,-y,-z
-x,y,-z
-x,-y,-z
1/2+x,y,-z
1/2-x,y,z
x,-y,z
loop_
_atom_site_type_symbol
_atom_site_label
_atom_site_fract_x
_atom_site_fract_y
_atom_site_fract_z
Si Si1 0.683115 0.902169 0.924252
Si Si2 0.987248 0.183945 0.669187
Si Si3 0.154744 0.770766 0.315898
Si Si4 0.638413 0.406403 0.179885
Si Si5 0.680543 0.235848 0.343593
Si Si6 0.595622 0.099811 0.188197
Si Si7 0.502787 0.351865 0.166425
Si Si8 0.136152 0.594491 0.163933
O O1 0.750000 0.897501 0.002081
O O2 0.685859 0.837834 0.790707
O O3 0.675950 0.000000 0.875226
O O4 0.625566 0.881952 0.029320
O O5 0.915026 0.194473 0.686926
O O6 0.000000 0.162415 0.500000
O O7 0.024874 0.122155 0.777703
O O8 0.009762 0.278085 0.714221
O O9 0.176731 0.764650 0.481405
O O10 0.159746 0.676259 0.249495
O O11 0.660306 0.500000 0.228146
O O12 0.661801 0.326849 0.273714
O O13 0.564236 0.405644 0.180437
O O14 0.653410 0.395399 0.007405
O O15 0.750000 0.217396 0.297864
O O16 0.634209 0.162988 0.290582
O O17 0.606144 0.000000 0.217073
O O18 0.438131 0.399466 0.180709
O O19 0.500000 0.314643 0.000000
O O20 0.155837 0.500000 0.211686
#
# Coordination Sequence:
#
# PCOD9402478 Si02
#       8
#     8   8   8   8   8   8   8   8
#     4  10  23  44  67  92 121 158 212 264 305 364
#     4  11  21  38  59  91 132 161 198 248 313 379
#     4  11  23  39  65  91 128 166 203 256 320 371
#     4  10  19  36  61  90 124 160 205 254 304 362
#     4  12  25  42  62  86 120 163 213 256 305 369
#     4  11  24  42  66  92 122 161 204 254 315 372
#     4   9  17  31  59  89 122 159 199 245 302 363
#     4   9  19  34  58  92 124 159 200 247 303 369
#
# _framework density 20.454281000000002
#
# number of rings (size 3 to 8) (size 9 to 14) (size 15 to 20)
#    0.000    1.625    2.500    1.875    3.500    4.250 
#    0.000    1.875    0.000    6.750    0.000    0.000 
#    0.000    0.000    0.000    0.000    0.000    0.000 
#
# Total GULP energy -357080.396839 kJ/mol
# GULP energy per Si atom -5579.381201 kJ/mol
# Density = 2.040773 g / cm^3
# Si number density = 20.454281 Si / 1000 Ang^3
#
#
#
# Elastic Constant Matrix: (Units=GPa)
#
#
# Indices 1 2 3 4 5 6 
#
# 1 65.2832 25.8061 16.3139 0.0000 0.0000 0.0000
# 2 25.8061 116.4246 69.3771 0.0000 0.0000 0.0000
# 3 16.3139 69.3771 84.7533 0.0000 0.0000 0.0000
# 4 0.0000 0.0000 0.0000 -15.1520 0.0000 0.0000
# 5 0.0000 0.0000 0.0000 0.0000 -16.7264 0.0000
# 6 0.0000 0.0000 0.0000 0.0000 0.0000 13.5787
#
#
#
# Elastic Compliance Matrix: (Units=1/GPa)
#
#
# Indices 1 2 3 4 5 6 
#
# 1 0.016795 -0.003507 -0.000362 0.000000 0.000000 0.000000
# 2 -0.003507 0.017501 -0.013651 0.000000 0.000000 0.000000
# 3 -0.000362 -0.013651 0.023043 0.000000 0.000000 0.000000
# 4 0.000000 0.000000 0.000000 -0.065998 0.000000 0.000000
# 5 0.000000 0.000000 0.000000 0.000000 -0.059786 0.000000
# 6 0.000000 0.000000 0.000000 0.000000 0.000000 0.073645
#
#
# Mechanical properties :
#
#
# Convention : Reuss Voigt Hill
#
# Bulk Modulus (GPa) = 44.84532 54.38391 49.61462
# Shear Modulus (GPa) = 104.88179 6.67100 55.77639
#
# Velocity S-wave (km/s) = 7.16851 1.80790 5.22762
# Velocity P-wave (km/s) = 9.51257 5.56810 7.79399
#
# Compressibility (1/GPa) = 0.02229887
#
# Stress axis : x y z
#
# Youngs Moduli (GPa) = 59.54293 57.13912 43.39703
#
# Poissons Ratio (x) = 0.20038 0.01572
# Poissons Ratio (y) = 0.20881 0.59241
# Poissons Ratio (z) = 0.02156 0.78001
#
# Static dielectric constant tensor:
#      x y z
#    x 1.752160 0.000000 0.000000 
#    y 0.000000 1.700680 0.000000 
#    z 0.000000 0.000000 1.707010 
# 
# From -- ./inp_files/11918.got.cif
#   From: 2010.05.17/outbox.cif.g08.bks.cpg/sg51_6_cif.got.tgz:11918.got - 2010.06.03 11:52:47.
