data_PCOD9402140
_publ_section_title
;
Structure prediction by ZEFSAII (Michael W. Deem and Ramdas Pophale) SiO2 
 PCOD9402140
Probable space group: P M M A
;
_chemical_formula_sum "Si O2"
_cell_formula_units_Z 48
_cell_length_a 8.558728
_cell_length_b 21.127548
_cell_length_c 14.547691
_cell_angle_alpha 90.000000
_cell_angle_beta 90.000000
_cell_angle_gamma 90.000000
_cell_volume 2630.585303
_symmetry_space_group_name_H-M "P M M A"
_symmetry_group_IT_number 51
_symmetry_cell_setting 'orthorhombic'
loop_
_space_group_symop_operation_xyz
x,y,z
1/2-x,-y,z
1/2+x,-y,-z
-x,y,-z
-x,-y,-z
1/2+x,y,-z
1/2-x,y,z
x,-y,z
loop_
_atom_site_type_symbol
_atom_site_label
_atom_site_fract_x
_atom_site_fract_y
_atom_site_fract_z
Si Si1 0.561736 0.319723 0.599634
Si Si2 0.060376 0.500000 0.104229
Si Si3 0.061083 0.000000 0.896085
Si Si4 0.562888 0.172066 0.599993
Si Si5 0.440355 0.626760 0.208851
Si Si6 0.562770 0.125417 0.213277
Si Si7 0.937643 0.246017 0.896963
O O1 0.500000 0.339496 0.500000
O O2 0.750000 0.320875 0.597343
O O3 0.515212 0.246023 0.615025
O O4 0.508522 0.361594 0.686053
O O5 0.250000 0.500000 0.101529
O O6 0.008305 0.437365 0.159311
O O7 0.000000 0.500000 0.000000
O O8 0.010697 0.062623 0.840840
O O9 0.250000 0.000000 0.899363
O O10 0.000000 0.000000 0.000000
O O11 0.500000 0.153437 0.500000
O O12 0.750000 0.169980 0.600748
O O13 0.497254 0.130427 0.682681
O O14 0.250000 0.625665 0.210078
O O15 0.487503 0.688293 0.150485
O O16 0.750000 0.126595 0.213403
O O17 0.499777 0.186827 0.160427
O O18 0.750000 0.244080 0.896828
O O19 0.000000 0.242891 0.000000
#
# Coordination Sequence:
#
# PCOD9402140 Si02
#       7
#     8   4   4   8   8   8   8
#     4   9  17  32  52  78 109 141 176 219 270 323
#     4  10  20  36  57  76 104 148 187 224 273 328
#     4  10  24  42  59  80 111 148 187 230 276 334
#     4  10  19  34  57  85 116 147 182 227 278 330
#     4   9  18  34  54  77 108 144 182 223 274 329
#     4  11  22  38  58  83 111 145 186 228 278 332
#     4  11  21  35  53  79 110 140 181 234 281 329
#
# _framework density 18.246891000000002
#
# number of rings (size 3 to 8) (size 9 to 14) (size 15 to 20)
#    0.000    2.000    1.667    2.500    0.000    3.333 
#    0.000    2.500    0.000    0.000    0.000    0.000 
#    0.000    0.000    0.000    0.000    0.000    0.000 
#
# Total GULP energy -268005.920741 kJ/mol
# GULP energy per Si atom -5583.456682 kJ/mol
# Density = 1.820536 g / cm^3
# Si number density = 18.246891 Si / 1000 Ang^3
#
#
#
# Elastic Constant Matrix: (Units=GPa)
#
#
# Indices 1 2 3 4 5 6 
#
# 1 29.2806 30.0778 34.0055 0.0000 0.0000 0.0000
# 2 30.0778 148.6771 100.8232 0.0000 0.0000 0.0000
# 3 34.0055 100.8232 204.1689 0.0000 0.0000 0.0000
# 4 0.0000 0.0000 0.0000 34.2388 0.0000 0.0000
# 5 0.0000 0.0000 0.0000 0.0000 35.3750 0.0000
# 6 0.0000 0.0000 0.0000 0.0000 0.0000 12.0209
#
#
#
# Elastic Compliance Matrix: (Units=1/GPa)
#
#
# Indices 1 2 3 4 5 6 
#
# 1 0.045804 -0.006154 -0.004590 0.000000 0.000000 0.000000
# 2 -0.006154 0.010939 -0.004377 0.000000 0.000000 0.000000
# 3 -0.004590 -0.004377 0.007824 0.000000 0.000000 0.000000
# 4 0.000000 0.000000 0.000000 0.029207 0.000000 0.000000
# 5 0.000000 0.000000 0.000000 0.000000 0.028269 0.000000
# 6 0.000000 0.000000 0.000000 0.000000 0.000000 0.083188
#
#
# Mechanical properties :
#
#
# Convention : Reuss Voigt Hill
#
# Bulk Modulus (GPa) = 29.13267 79.10439 54.11853
# Shear Modulus (GPa) = 20.24993 30.80828 25.52910
#
# Velocity S-wave (km/s) = 3.33494 4.11349 3.74450
# Velocity P-wave (km/s) = 5.55244 8.12449 6.95834
#
# Compressibility (1/GPa) = 0.03432572
#
# Stress axis : x y z
#
# Youngs Moduli (GPa) = 21.83198 91.41509 127.81297
#
# Poissons Ratio (x) = 0.56253 0.58669
# Poissons Ratio (y) = 0.13434 0.55945
# Poissons Ratio (z) = 0.10021 0.40013
#
# Static dielectric constant tensor:
#      x y z
#    x 1.622960 0.000000 0.000000 
#    y 0.000000 1.615440 0.000000 
#    z 0.000000 0.000000 1.609450 
# 
# From -- ./inp_files/21225.got.cif
#   From: 2010.05.17/outbox.cif.g08.bks.cpg/sg51_11_cif.got.tgz:21225.got - 2010.06.03 11:52:47.
