data_PCOD9402296
_publ_section_title
;
Structure prediction by ZEFSAII (Michael W. Deem and Ramdas Pophale) SiO2 
 PCOD9402296
Probable space group: P M M A
;
_chemical_formula_sum "Si O2"
_cell_formula_units_Z 56
_cell_length_a 8.674448
_cell_length_b 19.731056
_cell_length_c 18.676669
_cell_angle_alpha 90.000000
_cell_angle_beta 90.000000
_cell_angle_gamma 90.000000
_cell_volume 3196.624319
_symmetry_space_group_name_H-M "P M M A"
_symmetry_group_IT_number 51
_symmetry_cell_setting 'orthorhombic'
loop_
_space_group_symop_operation_xyz
x,y,z
1/2-x,-y,z
1/2+x,-y,-z
-x,y,-z
-x,-y,-z
1/2+x,y,-z
1/2-x,y,z
x,-y,z
loop_
_atom_site_type_symbol
_atom_site_label
_atom_site_fract_x
_atom_site_fract_y
_atom_site_fract_z
Si Si1 0.435286 0.642407 0.423748
Si Si2 0.565299 0.294232 0.794193
Si Si3 0.067323 0.792952 0.921012
Si Si4 0.065311 0.422442 0.719370
Si Si5 0.063040 0.779874 0.353419
Si Si6 0.437270 0.074535 0.325227
Si Si7 0.434745 0.076926 0.155717
O O1 0.500000 0.620626 0.500000
O O2 0.250000 0.639920 0.423310
O O3 0.498295 0.598196 0.358129
O O4 0.485983 0.720292 0.406973
O O5 0.750000 0.295478 0.797102
O O6 0.499299 0.262148 0.865880
O O7 0.502384 0.368285 0.774987
O O8 0.521594 0.246621 0.726180
O O9 0.250000 0.787978 0.923279
O O10 0.018143 0.865951 0.889443
O O11 0.000000 0.784582 0.000000
O O12 0.250000 0.416179 0.717326
O O13 0.024857 0.500000 0.736048
O O14 0.250000 0.781578 0.355928
O O15 0.007017 0.856815 0.363394
O O16 0.250000 0.073445 0.330405
O O17 0.471780 0.081865 0.240435
O O18 0.492824 0.000000 0.349088
O O19 0.250000 0.086906 0.149620
O O20 0.470722 0.000000 0.132894
#
# Coordination Sequence:
#
# PCOD9402296 Si02
#       7
#     8   8   8   8   8   8   8
#     4  10  20  33  51  76 108 145 180 218 259 310
#     4  10  19  35  57  79 106 136 175 219 257 310
#     4  12  24  36  52  74 104 142 182 225 273 321
#     4  10  21  37  58  85 114 141 170 206 252 310
#     4   8  14  26  47  72  97 128 170 215 260 307
#     4   8  12  21  43  72  97 123 163 216 267 312
#     4   9  17  31  51  73 100 135 175 222 276 329
#
# _framework density 17.51848
#
# number of rings (size 3 to 8) (size 9 to 14) (size 15 to 20)
#    0.000    2.429    1.429    4.286    0.000    2.000 
#    0.000    0.000    0.000    0.857    0.000    0.000 
#    0.000    0.000    0.000    0.000    0.000    0.571 
#
# Total GULP energy -312307.599823 kJ/mol
# GULP energy per Si atom -5576.921425 kJ/mol
# Density = 1.747861 g / cm^3
# Si number density = 17.518480 Si / 1000 Ang^3
#
#
#
# Elastic Constant Matrix: (Units=GPa)
#
#
# Indices 1 2 3 4 5 6 
#
# 1 55.0367 39.6004 20.6827 0.0000 0.0000 0.0000
# 2 39.6004 125.4905 19.1386 0.0000 0.0000 0.0000
# 3 20.6827 19.1386 32.7344 0.0000 0.0000 0.0000
# 4 0.0000 0.0000 0.0000 21.8605 0.0000 0.0000
# 5 0.0000 0.0000 0.0000 0.0000 19.4068 0.0000
# 6 0.0000 0.0000 0.0000 0.0000 0.0000 24.9768
#
#
#
# Elastic Compliance Matrix: (Units=1/GPa)
#
#
# Indices 1 2 3 4 5 6 
#
# 1 0.028290 -0.006808 -0.013894 0.000000 0.000000 0.000000
# 2 -0.006808 0.010387 -0.001771 0.000000 0.000000 0.000000
# 3 -0.013894 -0.001771 0.040363 0.000000 0.000000 0.000000
# 4 0.000000 0.000000 0.000000 0.045745 0.000000 0.000000
# 5 0.000000 0.000000 0.000000 0.000000 0.051528 0.000000
# 6 0.000000 0.000000 0.000000 0.000000 0.000000 0.040037
#
#
# Mechanical properties :
#
#
# Convention : Reuss Voigt Hill
#
# Bulk Modulus (GPa) = 29.33140 41.34501 35.33821
# Shear Modulus (GPa) = 18.33774 22.17149 20.25461
#
# Velocity S-wave (km/s) = 3.23889 3.56139 3.40396
# Velocity P-wave (km/s) = 5.54677 6.36894 5.97202
#
# Compressibility (1/GPa) = 0.03409315
#
# Stress axis : x y z
#
# Youngs Moduli (GPa) = 35.34847 96.27101 24.77509
#
# Poissons Ratio (x) = 0.65544 0.34422
# Poissons Ratio (y) = 0.24066 0.04389
# Poissons Ratio (z) = 0.49113 0.17053
#
# Static dielectric constant tensor:
#      x y z
#    x 1.583620 0.000000 0.000000 
#    y 0.000000 1.625300 0.000000 
#    z 0.000000 0.000000 1.566050 
# 
# From -- ./inp_files/28272.got.cif
#   From: 2010.05.17/outbox.cif.g08.bks.cpg/sg51_15_cif.got.tgz:28272.got - 2010.06.03 11:52:47.
