data_PCOD9402886
_publ_section_title
;
Structure prediction by ZEFSAII (Michael W. Deem and Ramdas Pophale) SiO2 
 PCOD9402886
Probable space group: P M M A
;
_chemical_formula_sum "Si O2"
_cell_formula_units_Z 56
_cell_length_a 18.930276
_cell_length_b 9.011306
_cell_length_c 19.402828
_cell_angle_alpha 90.000000
_cell_angle_beta 90.000000
_cell_angle_gamma 90.000000
_cell_volume 3309.860707
_symmetry_space_group_name_H-M "P M M A"
_symmetry_group_IT_number 51
_symmetry_cell_setting 'orthorhombic'
loop_
_space_group_symop_operation_xyz
x,y,z
1/2-x,-y,z
1/2+x,-y,-z
-x,y,-z
-x,-y,-z
1/2+x,y,-z
1/2-x,y,z
x,-y,z
loop_
_atom_site_type_symbol
_atom_site_label
_atom_site_fract_x
_atom_site_fract_y
_atom_site_fract_z
Si Si1 0.326835 0.678726 0.881481
Si Si2 0.436535 0.320939 0.353892
Si Si3 0.332365 0.678164 0.475084
Si Si4 0.915874 0.176233 0.399337
Si Si5 0.869204 0.331420 0.267633
Si Si6 0.471142 0.330859 0.207263
Si Si7 0.527533 0.177209 0.075511
O O1 0.250000 0.717146 0.911019
O O2 0.336175 0.500000 0.885423
O O3 0.327011 0.715335 0.799926
O O4 0.394204 0.756810 0.914092
O O5 0.448019 0.500000 0.353000
O O6 0.369770 0.289701 0.402040
O O7 0.506492 0.246751 0.386563
O O8 0.427937 0.274304 0.273785
O O9 0.250000 0.721130 0.476991
O O10 0.336399 0.500000 0.485854
O O11 0.378221 0.757420 0.533732
O O12 0.869659 0.225851 0.333056
O O13 0.921832 0.000000 0.403588
O O14 0.849528 0.500000 0.287780
O O15 0.949529 0.335459 0.238909
O O16 0.450106 0.500000 0.190915
O O17 0.478414 0.238765 0.137381
O O18 0.530255 0.000000 0.080589
O O19 0.500000 0.219371 0.000000
#
# Coordination Sequence:
#
# PCOD9402886 Si02
#       7
#     8   8   8   8   8   8   8
#     4   9  18  32  50  72  97 127 164 202 240 285
#     4   9  18  34  54  73  93 121 162 206 245 291
#     4  10  21  36  52  68  90 125 165 205 251 296
#     4  11  21  31  47  73 101 128 161 200 241 288
#     4   8  15  29  47  68  95 125 156 191 233 282
#     4   8  15  29  50  73  93 117 152 195 239 279
#     4  10  20  32  48  74 105 134 163 194 231 281
#
# _framework density 16.919141
#
# number of rings (size 3 to 8) (size 9 to 14) (size 15 to 20)
#    0.000    2.714    0.000    3.857    0.000    9.714 
#    0.000    1.429    0.000    0.857    0.000    2.000 
#    0.000    0.000    0.000    0.000    0.000    0.000 
#
# Total GULP energy -312003.777435 kJ/mol
# GULP energy per Si atom -5571.496026 kJ/mol
# Density = 1.688063 g / cm^3
# Si number density = 16.919141 Si / 1000 Ang^3
#
#
#
# Elastic Constant Matrix: (Units=GPa)
#
#
# Indices 1 2 3 4 5 6 
#
# 1 49.0112 23.2347 36.5235 0.0000 0.0000 0.0000
# 2 23.2347 41.0397 45.0054 0.0000 0.0000 0.0000
# 3 36.5235 45.0054 121.6055 0.0000 0.0000 0.0000
# 4 0.0000 0.0000 0.0000 119.9985 0.0000 0.0000
# 5 0.0000 0.0000 0.0000 0.0000 13.0354 0.0000
# 6 0.0000 0.0000 0.0000 0.0000 0.0000 6.9935
#
#
#
# Elastic Compliance Matrix: (Units=1/GPa)
#
#
# Indices 1 2 3 4 5 6 
#
# 1 0.029266 -0.011664 -0.004473 0.000000 0.000000 0.000000
# 2 -0.011664 0.045660 -0.013395 0.000000 0.000000 0.000000
# 3 -0.004473 -0.013395 0.014524 0.000000 0.000000 0.000000
# 4 0.000000 0.000000 0.000000 0.008333 0.000000 0.000000
# 5 0.000000 0.000000 0.000000 0.000000 0.076714 0.000000
# 6 0.000000 0.000000 0.000000 0.000000 0.000000 0.142991
#
#
# Mechanical properties :
#
#
# Convention : Reuss Voigt Hill
#
# Bulk Modulus (GPa) = 32.90986 46.79816 39.85401
# Shear Modulus (GPa) = 12.93051 35.13165 24.03108
#
# Velocity S-wave (km/s) = 2.76751 4.56175 3.77284
# Velocity P-wave (km/s) = 5.45029 7.44755 6.52578
#
# Compressibility (1/GPa) = 0.03038603
#
# Stress axis : x y z
#
# Youngs Moduli (GPa) = 34.16885 21.90114 68.84985
#
# Poissons Ratio (x) = 0.25545 0.30799
# Poissons Ratio (y) = 0.39853 0.92226
# Poissons Ratio (z) = 0.15285 0.29337
#
# Static dielectric constant tensor:
#      x y z
#    x 1.586220 0.000000 0.000000 
#    y 0.000000 1.565770 0.000000 
#    z 0.000000 0.000000 1.587800 
# 
# From -- ./inp_files/30452.got.cif
#   From: 2010.05.17/outbox.cif.g08.bks.cpg/sg51_16_cif.got.tgz:30452.got - 2010.06.03 11:52:47.
