data_PCOD9402753
_publ_section_title
;
Structure prediction by ZEFSAII (Michael W. Deem and Ramdas Pophale) SiO2 
 PCOD9402753
Probable space group: P M M A
;
_chemical_formula_sum "Si O2"
_cell_formula_units_Z 48
_cell_length_a 8.435462
_cell_length_b 24.617646
_cell_length_c 14.275935
_cell_angle_alpha 90.000000
_cell_angle_beta 90.000000
_cell_angle_gamma 90.000000
_cell_volume 2964.558041
_symmetry_space_group_name_H-M "P M M A"
_symmetry_group_IT_number 51
_symmetry_cell_setting 'orthorhombic'
loop_
_space_group_symop_operation_xyz
x,y,z
1/2-x,-y,z
1/2+x,-y,-z
-x,y,-z
-x,-y,-z
1/2+x,y,-z
1/2-x,y,z
x,-y,z
loop_
_atom_site_type_symbol
_atom_site_label
_atom_site_fract_x
_atom_site_fract_y
_atom_site_fract_z
Si Si1 0.439440 0.938247 0.603946
Si Si2 0.559043 0.774509 0.895944
Si Si3 0.058885 0.728558 0.395811
Si Si4 0.941793 0.438594 0.894688
Si Si5 0.558749 0.163490 0.713157
Si Si6 0.556682 0.666738 0.786756
O O1 0.500000 0.923745 0.500000
O O2 0.250000 0.938252 0.602064
O O3 0.497048 0.893733 0.677264
O O4 0.494591 0.000000 0.624135
O O5 0.750000 0.774542 0.896728
O O6 0.507703 0.817843 0.817002
O O7 0.508548 0.715196 0.857363
O O8 0.500000 0.784768 0.000000
O O9 0.250000 0.728401 0.396467
O O10 0.008436 0.787872 0.357137
O O11 0.006391 0.685090 0.317120
O O12 0.000000 0.718500 0.500000
O O13 0.750000 0.437959 0.895402
O O14 0.993047 0.500000 0.869949
O O15 0.997346 0.391334 0.824947
O O16 0.000000 0.427142 0.000000
O O17 0.750000 0.162387 0.712228
O O18 0.750000 0.666244 0.786203
#
# Coordination Sequence:
#
# PCOD9402753 Si02
#       6
#     8   8   8   8   8   8
#     4  10  20  32  47  68  92 117 144 175 212 254
#     4   9  17  29  45  65  89 116 144 176 216 258
#     4   9  17  29  44  62  85 112 142 176 213 253
#     4   9  16  26  42  63  85 111 142 174 210 252
#     4   9  18  31  46  65  89 116 144 176 215 256
#     4   8  15  28  43  60  86 116 142 172 212 257
#
# _framework density 16.191284
#
# number of rings (size 3 to 8) (size 9 to 14) (size 15 to 20)
#    0.000    3.000    0.000    3.500    0.000    3.667 
#    0.000    3.333    0.000    1.000    0.000    0.000 
#    0.000    0.000    0.000    0.000    0.000    0.000 
#
# Total GULP energy -267432.140640 kJ/mol
# GULP energy per Si atom -5571.502930 kJ/mol
# Density = 1.615443 g / cm^3
# Si number density = 16.191284 Si / 1000 Ang^3
#
#
#
# Elastic Constant Matrix: (Units=GPa)
#
#
# Indices 1 2 3 4 5 6 
#
# 1 6.6485 18.2732 18.2716 0.0000 0.0000 0.0000
# 2 18.2732 122.8845 93.3246 0.0000 0.0000 0.0000
# 3 18.2716 93.3246 151.0676 0.0000 0.0000 0.0000
# 4 0.0000 0.0000 0.0000 24.4817 0.0000 0.0000
# 5 0.0000 0.0000 0.0000 0.0000 28.1246 0.0000
# 6 0.0000 0.0000 0.0000 0.0000 0.0000 -1.6493
#
#
#
# Elastic Compliance Matrix: (Units=1/GPa)
#
#
# Indices 1 2 3 4 5 6 
#
# 1 0.270970 -0.029018 -0.014847 0.000000 0.000000 0.000000
# 2 -0.029018 0.018438 -0.007880 0.000000 0.000000 0.000000
# 3 -0.014847 -0.007880 0.013284 0.000000 0.000000 0.000000
# 4 0.000000 0.000000 0.000000 0.040847 0.000000 0.000000
# 5 0.000000 0.000000 0.000000 0.000000 0.035556 0.000000
# 6 0.000000 0.000000 0.000000 0.000000 0.000000 -0.606305
#
#
# Mechanical properties :
#
#
# Convention : Reuss Voigt Hill
#
# Bulk Modulus (GPa) = 5.02010 60.03770 32.52890
# Shear Modulus (GPa) = -87.23036 20.24013 -33.49512
#
# Velocity S-wave (km/s) = -7.34791 3.53946 -4.55324
# Velocity P-wave (km/s) = 8.29951 7.33924 2.74021
#
# Compressibility (1/GPa) = 0.19919941
#
# Stress axis : x y z
#
# Youngs Moduli (GPa) = 3.69045 54.23728 75.28098
#
# Poissons Ratio (x) = 1.57386 1.11772
# Poissons Ratio (y) = 0.10709 0.59324
# Poissons Ratio (z) = 0.05479 0.42741
#
# Static dielectric constant tensor:
#      x y z
#    x 1.560100 0.000000 0.000000 
#    y 0.000000 1.552170 0.000000 
#    z 0.000000 0.000000 1.524150 
# 
# From -- ./inp_files/21963.got.cif
#   From: 2010.05.17/outbox.cif.g08.bks.cpg/sg51_11_cif.got.tgz:21963.got - 2010.06.03 11:52:47.
