data_PCOD9402557
_publ_section_title
;
Structure prediction by ZEFSAII (Michael W. Deem and Ramdas Pophale) SiO2 
 PCOD9402557
Probable space group: P M M A
;
_chemical_formula_sum "Si O2"
_cell_formula_units_Z 40
_cell_length_a 16.659834
_cell_length_b 7.340301
_cell_length_c 14.823562
_cell_angle_alpha 90.000000
_cell_angle_beta 90.000000
_cell_angle_gamma 90.000000
_cell_volume 1812.746658
_symmetry_space_group_name_H-M "P M M A"
_symmetry_group_IT_number 51
_symmetry_cell_setting 'orthorhombic'
loop_
_space_group_symop_operation_xyz
x,y,z
1/2-x,-y,z
1/2+x,-y,-z
-x,y,-z
-x,-y,-z
1/2+x,y,-z
1/2-x,y,z
x,-y,z
loop_
_atom_site_type_symbol
_atom_site_label
_atom_site_fract_x
_atom_site_fract_y
_atom_site_fract_z
Si Si1 0.912316 0.790746 0.015586
Si Si2 0.250000 0.787744 0.072876
Si Si3 0.580780 0.721734 0.389906
Si Si4 0.396509 0.278289 0.409369
Si Si5 0.841443 0.279306 0.204198
Si Si6 0.250000 0.720669 0.284739
O O1 0.894649 0.787117 0.121714
O O2 0.917544 0.000000 0.982382
O O3 0.833150 0.709723 0.967276
O O4 0.000000 0.707464 0.000000
O O5 0.250000 0.777027 0.180774
O O6 0.250000 0.000000 0.044506
O O7 0.581797 0.500000 0.390326
O O8 0.616494 0.778104 0.486578
O O9 0.487333 0.776367 0.385282
O O10 0.627839 0.781432 0.301715
O O11 0.395261 0.500000 0.408501
O O12 0.328749 0.218039 0.339789
O O13 0.750000 0.222297 0.188981
O O14 0.843781 0.500000 0.202992
O O15 0.250000 0.500000 0.285161
#
# Coordination Sequence:
#
# PCOD9402557 Si02
#       6
#     8   4   8   8   8   4
#     4  10  22  40  59  75  97 137 180 214 260 317
#     4  10  22  40  55  72 102 136 169 212 261 314
#     4   8  15  28  46  70 106 139 164 199 250 301
#     4   8  15  28  45  71 104 137 167 201 244 297
#     4  10  20  32  52  82 108 133 168 214 263 304
#     4  10  20  30  51  80 102 128 171 212 245 292
#
# _framework density 22.065961999999999
#
# number of rings (size 3 to 8) (size 9 to 14) (size 15 to 20)
#    0.000    2.800    1.000    1.200    4.200    1.200 
#    0.000    0.000    0.000    1.200    0.000    2.800 
#    0.000    0.000    0.000    0.000    0.000    0.000 
#
# Total GULP energy -223377.741673 kJ/mol
# GULP energy per Si atom -5584.443542 kJ/mol
# Density = 2.201574 g / cm^3
# Si number density = 22.065962 Si / 1000 Ang^3
#
#
#
# Elastic Constant Matrix: (Units=GPa)
#
#
# Indices 1 2 3 4 5 6 
#
# 1 145.9214 10.2730 71.1140 0.0000 0.0000 0.0000
# 2 10.2730 84.4339 -5.3394 0.0000 0.0000 0.0000
# 3 71.1140 -5.3394 128.9946 0.0000 0.0000 0.0000
# 4 0.0000 0.0000 0.0000 19.3777 0.0000 0.0000
# 5 0.0000 0.0000 0.0000 0.0000 44.0005 0.0000
# 6 0.0000 0.0000 0.0000 0.0000 0.0000 -20.4573
#
#
#
# Elastic Compliance Matrix: (Units=1/GPa)
#
#
# Indices 1 2 3 4 5 6 
#
# 1 0.009556 -0.001500 -0.005330 0.000000 0.000000 0.000000
# 2 -0.001500 0.012110 0.001328 0.000000 0.000000 0.000000
# 3 -0.005330 0.001328 0.010746 0.000000 0.000000 0.000000
# 4 0.000000 0.000000 0.000000 0.051606 0.000000 0.000000
# 5 0.000000 0.000000 0.000000 0.000000 0.022727 0.000000
# 6 0.000000 0.000000 0.000000 0.000000 0.000000 -0.048882
#
#
# Mechanical properties :
#
#
# Convention : Reuss Voigt Hill
#
# Bulk Modulus (GPa) = 46.71157 56.82726 51.76942
# Shear Modulus (GPa) = 65.78689 27.47100 46.62895
#
# Velocity S-wave (km/s) = 5.46612 3.53221 4.60190
# Velocity P-wave (km/s) = 7.81364 6.51495 7.19366
#
# Compressibility (1/GPa) = 0.02140797
#
# Stress axis : x y z
#
# Youngs Moduli (GPa) = 104.64236 82.57608 93.05889
#
# Poissons Ratio (x) = 0.12385 0.49605
# Poissons Ratio (y) = 0.15694 -0.12359
# Poissons Ratio (z) = 0.55779 -0.10967
#
# Static dielectric constant tensor:
#      x y z
#    x 1.792810 0.000000 0.000000 
#    y 0.000000 1.902690 0.000000 
#    z 0.000000 0.000000 1.741450 
# 
# From -- ./inp_files/23782.got.cif
#   From: 2010.05.17/outbox.cif.g08.bks.cpg/sg51_12_cif.got.tgz:23782.got - 2010.06.03 11:52:47.
