data_PCOD9402575
_publ_section_title
;
Structure prediction by ZEFSAII (Michael W. Deem and Ramdas Pophale) SiO2 
 PCOD9402575
Probable space group: P M M A
;
_chemical_formula_sum "Si O2"
_cell_formula_units_Z 48
_cell_length_a 9.413983
_cell_length_b 17.616441
_cell_length_c 18.490911
_cell_angle_alpha 90.000000
_cell_angle_beta 90.000000
_cell_angle_gamma 90.000000
_cell_volume 3066.548880
_symmetry_space_group_name_H-M "P M M A"
_symmetry_group_IT_number 51
_symmetry_cell_setting 'orthorhombic'
loop_
_space_group_symop_operation_xyz
x,y,z
1/2-x,-y,z
1/2+x,-y,-z
-x,y,-z
-x,-y,-z
1/2+x,y,-z
1/2-x,y,z
x,-y,z
loop_
_atom_site_type_symbol
_atom_site_label
_atom_site_fract_x
_atom_site_fract_y
_atom_site_fract_z
Si Si1 0.587195 0.089349 0.832482
Si Si2 0.589129 0.313910 0.185671
Si Si3 0.080626 0.086820 0.575324
Si Si4 0.414337 0.591311 0.074009
Si Si5 0.910098 0.182131 0.065589
Si Si6 0.079143 0.815733 0.713419
O O1 0.750000 0.116162 0.839410
O O2 0.497092 0.111634 0.902807
O O3 0.509371 0.130348 0.766393
O O4 0.587119 0.000000 0.821368
O O5 0.750000 0.344794 0.192523
O O6 0.485869 0.372284 0.145303
O O7 0.594941 0.244162 0.128833
O O8 0.547927 0.270850 0.260500
O O9 0.250000 0.089051 0.563123
O O10 0.046991 0.152187 0.633703
O O11 0.000000 0.097638 0.500000
O O12 0.047559 0.000000 0.601706
O O13 0.250000 0.616104 0.066812
O O14 0.417089 0.500000 0.080674
O O15 0.500000 0.609610 0.000000
O O16 0.750000 0.162716 0.044714
O O17 0.000000 0.214270 0.000000
O O18 0.250000 0.825537 0.724700
#
# Coordination Sequence:
#
# PCOD9402575 Si02
#       6
#     8   8   8   8   8   8
#     4  10  20  31  43  60  80 105 141 183 224 264
#     4   9  18  31  47  66  86 112 146 181 218 262
#     4   9  17  29  46  68  94 123 153 186 224 266
#     4  10  20  32  47  68  93 121 151 183 222 268
#     4  10  20  32  45  60  79 106 141 180 222 265
#     4   9  18  32  48  65  87 117 150 182 220 266
#
# _framework density 15.652775
#
# number of rings (size 3 to 8) (size 9 to 14) (size 15 to 20)
#    0.000    2.500    0.000    3.500    0.000    8.667 
#    0.000    1.667    0.000    0.000    0.000    0.000 
#    0.000    0.667    0.000    1.500    0.000    2.667 
#
# Total GULP energy -267289.927570 kJ/mol
# GULP energy per Si atom -5568.540158 kJ/mol
# Density = 1.561715 g / cm^3
# Si number density = 15.652775 Si / 1000 Ang^3
#
#
#
# Elastic Constant Matrix: (Units=GPa)
#
#
# Indices 1 2 3 4 5 6 
#
# 1 80.4209 35.4834 34.6485 0.0000 0.0000 0.0000
# 2 35.4834 47.6880 29.4933 0.0000 0.0000 0.0000
# 3 34.6485 29.4933 75.4686 0.0000 0.0000 0.0000
# 4 0.0000 0.0000 0.0000 27.8350 0.0000 0.0000
# 5 0.0000 0.0000 0.0000 0.0000 22.3613 0.0000
# 6 0.0000 0.0000 0.0000 0.0000 0.0000 20.7373
#
#
#
# Elastic Compliance Matrix: (Units=1/GPa)
#
#
# Indices 1 2 3 4 5 6 
#
# 1 0.019532 -0.011852 -0.004336 0.000000 0.000000 0.000000
# 2 -0.011852 0.034845 -0.008176 0.000000 0.000000 0.000000
# 3 -0.004336 -0.008176 0.018436 0.000000 0.000000 0.000000
# 4 0.000000 0.000000 0.000000 0.035926 0.000000 0.000000
# 5 0.000000 0.000000 0.000000 0.000000 0.044720 0.000000
# 6 0.000000 0.000000 0.000000 0.000000 0.000000 0.048222
#
#
# Mechanical properties :
#
#
# Convention : Reuss Voigt Hill
#
# Bulk Modulus (GPa) = 41.51788 44.75865 43.13826
# Shear Modulus (GPa) = 19.34707 21.11686 20.23196
#
# Velocity S-wave (km/s) = 3.51951 3.67697 3.59910
# Velocity P-wave (km/s) = 6.56490 6.83254 6.70005
#
# Compressibility (1/GPa) = 0.02408601
#
# Stress axis : x y z
#
# Youngs Moduli (GPa) = 51.19872 28.69861 54.24063
#
# Poissons Ratio (x) = 0.34013 0.23516
# Poissons Ratio (y) = 0.60679 0.44348
# Poissons Ratio (z) = 0.22198 0.23465
#
# Static dielectric constant tensor:
#      x y z
#    x 1.532190 0.000000 0.000000 
#    y 0.000000 1.537640 0.000000 
#    z 0.000000 0.000000 1.545960 
# 
# From -- ./inp_files/27838.got.cif
#   From: 2010.05.17/outbox.cif.g08.bks.cpg/sg51_14_cif.got.tgz:27838.got - 2010.06.03 11:52:47.
