data_PCOD9402726
_publ_section_title
;
Structure prediction by ZEFSAII (Michael W. Deem and Ramdas Pophale) SiO2 
 PCOD9402726
Probable space group: P M M A
;
_chemical_formula_sum "Si O2"
_cell_formula_units_Z 52
_cell_length_a 9.311054
_cell_length_b 17.971835
_cell_length_c 18.268301
_cell_angle_alpha 90.000000
_cell_angle_beta 90.000000
_cell_angle_gamma 90.000000
_cell_volume 3056.957682
_symmetry_space_group_name_H-M "P M M A"
_symmetry_group_IT_number 51
_symmetry_cell_setting 'orthorhombic'
loop_
_space_group_symop_operation_xyz
x,y,z
1/2-x,-y,z
1/2+x,-y,-z
-x,y,-z
-x,-y,-z
1/2+x,y,-z
1/2-x,y,z
x,-y,z
loop_
_atom_site_type_symbol
_atom_site_label
_atom_site_fract_x
_atom_site_fract_y
_atom_site_fract_z
Si Si1 0.578797 0.582483 0.146873
Si Si2 0.419965 0.915367 0.775524
Si Si3 0.419902 0.112822 0.071835
Si Si4 0.577637 0.500000 0.422654
Si Si5 0.915693 0.223480 0.720911
Si Si6 0.909303 0.280493 0.889478
Si Si7 0.578243 0.633227 0.313432
O O1 0.750000 0.582316 0.140138
O O2 0.524296 0.500000 0.127518
O O3 0.517015 0.651625 0.101780
O O4 0.546394 0.598670 0.232915
O O5 0.250000 0.898686 0.784552
O O6 0.499401 0.911638 0.854308
O O7 0.495626 0.853124 0.725458
O O8 0.433893 0.000000 0.747912
O O9 0.250000 0.094294 0.074294
O O10 0.431232 0.202762 0.070193
O O11 0.500000 0.083981 0.000000
O O12 0.750000 0.500000 0.432284
O O13 0.500000 0.500000 0.500000
O O14 0.540910 0.572562 0.374439
O O15 0.750000 0.211994 0.699229
O O16 0.914657 0.254222 0.804547
O O17 0.994248 0.289451 0.677622
O O18 0.750000 0.308408 0.905727
O O19 0.750000 0.646553 0.315067
#
# Coordination Sequence:
#
# PCOD9402726 Si02
#       7
#     8   8   8   4   8   8   8
#     4   9  15  24  41  63  83 106 141 184 228 273
#     4  10  20  33  49  70  95 122 152 187 233 286
#     4  10  20  33  48  64  85 114 151 188 228 281
#     4  10  20  32  46  68 102 142 177 208 239 270
#     4   9  17  29  46  68  92 119 153 193 238 281
#     4   8  16  28  40  59  83 106 136 179 228 274
#     4   9  16  29  46  64  92 128 165 199 233 275
#
# _framework density 17.010376000000001
#
# number of rings (size 3 to 8) (size 9 to 14) (size 15 to 20)
#    0.000    2.769    0.769    2.308    0.000    6.769 
#    0.000    0.000    0.000    0.462    0.000    0.000 
#    0.000    0.615    0.000    2.000    0.000    2.462 
#
# Total GULP energy -289741.040883 kJ/mol
# GULP energy per Si atom -5571.943094 kJ/mol
# Density = 1.697166 g / cm^3
# Si number density = 17.010376 Si / 1000 Ang^3
#
#
#
# Elastic Constant Matrix: (Units=GPa)
#
#
# Indices 1 2 3 4 5 6 
#
# 1 87.1116 75.4339 25.8806 0.0000 0.0000 0.0000
# 2 75.4339 137.0288 20.3228 0.0000 0.0000 0.0000
# 3 25.8806 20.3228 33.3339 0.0000 0.0000 0.0000
# 4 0.0000 0.0000 0.0000 -9.7197 0.0000 0.0000
# 5 0.0000 0.0000 0.0000 0.0000 16.6271 0.0000
# 6 0.0000 0.0000 0.0000 0.0000 0.0000 18.6499
#
#
#
# Elastic Compliance Matrix: (Units=1/GPa)
#
#
# Indices 1 2 3 4 5 6 
#
# 1 0.025997 -0.012443 -0.012598 0.000000 0.000000 0.000000
# 2 -0.012443 0.013979 0.001138 0.000000 0.000000 0.000000
# 3 -0.012598 0.001138 0.039087 0.000000 0.000000 0.000000
# 4 0.000000 0.000000 0.000000 -0.102884 0.000000 0.000000
# 5 0.000000 0.000000 0.000000 0.000000 0.060143 0.000000
# 6 0.000000 0.000000 0.000000 0.000000 0.000000 0.053619
#
#
# Mechanical properties :
#
#
# Convention : Reuss Voigt Hill
#
# Bulk Modulus (GPa) = 31.99279 55.63877 43.81578
# Shear Modulus (GPa) = 33.74576 14.16726 23.95651
#
# Velocity S-wave (km/s) = 4.45886 2.88906 3.75687
# Velocity P-wave (km/s) = 6.73477 6.62636 6.68079
#
# Compressibility (1/GPa) = 0.03125705
#
# Stress axis : x y z
#
# Youngs Moduli (GPa) = 38.46528 71.53703 25.58400
#
# Poissons Ratio (x) = 0.89014 0.32232
# Poissons Ratio (y) = 0.47863 -0.02912
# Poissons Ratio (z) = 0.48460 -0.08143
#
# Static dielectric constant tensor:
#      x y z
#    x 1.580700 0.000000 0.000000 
#    y 0.000000 1.599380 0.000000 
#    z 0.000000 0.000000 1.551790 
# 
# From -- ./inp_files/32242.got.cif
#   From: 2010.05.17/outbox.cif.g08.bks.cpg/sg51_17_cif.got.tgz:32242.got - 2010.06.03 11:52:47.
