data_PCOD9402535
_publ_section_title
;
Structure prediction by ZEFSAII (Michael W. Deem and Ramdas Pophale) SiO2 
 PCOD9402535
Probable space group: P M M A
;
_chemical_formula_sum "Si O2"
_cell_formula_units_Z 26
_cell_length_a 18.276733
_cell_length_b 7.419709
_cell_length_c 7.478545
_cell_angle_alpha 90.000000
_cell_angle_beta 90.000000
_cell_angle_gamma 90.000000
_cell_volume 1014.150832
_symmetry_space_group_name_H-M "P M M A"
_symmetry_group_IT_number 51
_symmetry_cell_setting 'orthorhombic'
loop_
_space_group_symop_operation_xyz
x,y,z
1/2-x,-y,z
1/2+x,-y,-z
-x,y,-z
-x,-y,-z
1/2+x,y,-z
1/2-x,y,z
x,-y,z
loop_
_atom_site_type_symbol
_atom_site_label
_atom_site_fract_x
_atom_site_fract_y
_atom_site_fract_z
Si Si1 0.985703 0.793266 0.789853
Si Si2 0.828147 0.787590 0.701807
Si Si3 0.250000 0.000000 0.868616
Si Si4 0.647047 0.293899 0.291317
O O1 0.058875 0.713575 0.706942
O O2 0.905879 0.709808 0.760007
O O3 0.981578 0.000000 0.724385
O O4 0.000000 0.793011 0.000000
O O5 0.750000 0.712551 0.765438
O O6 0.828471 0.772026 0.487269
O O7 0.826837 0.000000 0.753445
O O8 0.314558 0.157969 0.846115
O O9 0.668096 0.500000 0.261740
#
# Coordination Sequence:
#
# PCOD9402535 Si02
#       4
#     8   8   2   8
#     4  10  22  41  62  94 135 181 219 261 323 386
#     4  10  19  38  63  93 130 171 217 271 321 379
#     4  12  22  44  64 100 132 164 208 282 314 394
#     4  12  23  40  69  97 128 169 215 269 326 383
#
# _framework density 25.637212999999999
#
# number of rings (size 3 to 8) (size 9 to 14) (size 15 to 20)
#    0.000    1.231    4.615    1.385    0.000    5.538 
#    2.769    0.000    0.000    0.000    0.000    0.000 
#    0.000    0.000    0.000    0.000    0.000    0.000 
#
# Total GULP energy -145046.196080 kJ/mol
# GULP energy per Si atom -5578.699849 kJ/mol
# Density = 2.557886 g / cm^3
# Si number density = 25.637213 Si / 1000 Ang^3
#
#
#
# Elastic Constant Matrix: (Units=GPa)
#
#
# Indices 1 2 3 4 5 6 
#
# 1 322.7625 39.5026 30.1254 0.0000 0.0000 0.0000
# 2 39.5026 159.5153 -4.0996 0.0000 0.0000 0.0000
# 3 30.1254 -4.0996 56.9662 0.0000 0.0000 0.0000
# 4 0.0000 0.0000 0.0000 173.0501 0.0000 0.0000
# 5 0.0000 0.0000 0.0000 0.0000 275.6738 0.0000
# 6 0.0000 0.0000 0.0000 0.0000 0.0000 -148.8046
#
#
#
# Elastic Compliance Matrix: (Units=1/GPa)
#
#
# Indices 1 2 3 4 5 6 
#
# 1 0.003379 -0.000884 -0.001851 0.000000 0.000000 0.000000
# 2 -0.000884 0.006512 0.000936 0.000000 0.000000 0.000000
# 3 -0.001851 0.000936 0.018600 0.000000 0.000000 0.000000
# 4 0.000000 0.000000 0.000000 0.005779 0.000000 0.000000
# 5 0.000000 0.000000 0.000000 0.000000 0.003627 0.000000
# 6 0.000000 0.000000 0.000000 0.000000 0.000000 -0.006720
#
#
# Mechanical properties :
#
#
# Convention : Reuss Voigt Hill
#
# Bulk Modulus (GPa) = 40.17005 74.47788 57.32397
# Shear Modulus (GPa) = 116.08166 91.56489 103.82328
#
# Velocity S-wave (km/s) = 6.73624 5.98274 6.37064
# Velocity P-wave (km/s) = 8.72956 8.76573 8.74766
#
# Compressibility (1/GPa) = 0.02489417
#
# Stress axis : x y z
#
# Youngs Moduli (GPa) = 295.92534 153.56097 53.76242
#
# Poissons Ratio (x) = 0.13581 0.09950
# Poissons Ratio (y) = 0.26172 -0.05034
# Poissons Ratio (z) = 0.54766 -0.14379
#
# Static dielectric constant tensor:
#      x y z
#    x 2.060850 0.000000 0.000000 
#    y 0.000000 1.967950 0.000000 
#    z 0.000000 0.000000 2.058720 
# 
# From -- ./inp_files/8916.got.cif
#   From: 2010.05.17/outbox.cif.g08.bks.cpg/sg51_5_cif.got.tgz:8916.got - 2010.06.03 11:52:47.
