data_PCOD9402340
_publ_section_title
;
Structure prediction by ZEFSAII (Michael W. Deem and Ramdas Pophale) SiO2 
 PCOD9402340
Probable space group: P M M A
;
_chemical_formula_sum "Si O2"
_cell_formula_units_Z 48
_cell_length_a 8.595268
_cell_length_b 31.926645
_cell_length_c 9.159351
_cell_angle_alpha 90.000000
_cell_angle_beta 90.000000
_cell_angle_gamma 90.000000
_cell_volume 2513.491425
_symmetry_space_group_name_H-M "P M M A"
_symmetry_group_IT_number 51
_symmetry_cell_setting 'orthorhombic'
loop_
_space_group_symop_operation_xyz
x,y,z
1/2-x,-y,z
1/2+x,-y,-z
-x,y,-z
-x,-y,-z
1/2+x,y,-z
1/2-x,y,z
x,-y,z
loop_
_atom_site_type_symbol
_atom_site_label
_atom_site_fract_x
_atom_site_fract_y
_atom_site_fract_z
Si Si1 0.437017 0.000000 0.164938
Si Si2 0.562748 0.748096 0.835982
Si Si3 0.562607 0.580577 0.835573
Si Si4 0.564243 0.171726 0.336322
Si Si5 0.436109 0.500000 0.664399
Si Si6 0.937472 0.335523 0.663831
Si Si7 0.062325 0.091779 0.166256
O O1 0.483771 0.045423 0.226134
O O2 0.250000 0.000000 0.160647
O O3 0.500000 0.000000 0.000000
O O4 0.750000 0.749660 0.838421
O O5 0.499095 0.789274 0.756698
O O6 0.513131 0.706719 0.746805
O O7 0.500000 0.745962 0.000000
O O8 0.750000 0.578477 0.837498
O O9 0.497055 0.540922 0.748427
O O10 0.514407 0.623303 0.753705
O O11 0.500000 0.580424 0.000000
O O12 0.500000 0.174624 0.500000
O O13 0.750000 0.172745 0.338131
O O14 0.506370 0.128974 0.261681
O O15 0.250000 0.500000 0.662225
O O16 0.500000 0.500000 0.500000
O O17 0.750000 0.335426 0.658310
O O18 0.000000 0.336669 0.500000
O O19 0.250000 0.094692 0.163709
O O20 0.000000 0.095221 0.000000
#
# Coordination Sequence:
#
# PCOD9402340 Si02
#       7
#     4   8   8   8   4   8   8
#     4   8  16  30  53  82 113 146 186 232 282 336
#     4  11  23  41  63  90 119 153 194 240 289 344
#     4  11  23  41  63  91 123 160 202 248 297 351
#     4  12  25  41  59  83 114 152 193 239 290 346
#     4  12  25  42  63  90 122 160 202 250 301 356
#     4  10  23  40  62  90 122 157 197 241 293 349
#     4  10  19  35  58  86 116 150 190 236 285 340
#
# _framework density 19.096941000000001
#
# number of rings (size 3 to 8) (size 9 to 14) (size 15 to 20)
#    0.000    1.333    0.000    6.000    0.000    6.000 
#    0.000    0.417    0.000    0.000    0.000    0.000 
#    0.000    0.000    0.000    0.000    0.000    0.000 
#
# Total GULP energy -268374.300743 kJ/mol
# GULP energy per Si atom -5591.131265 kJ/mol
# Density = 1.905348 g / cm^3
# Si number density = 19.096941 Si / 1000 Ang^3
#
#
#
# Elastic Constant Matrix: (Units=GPa)
#
#
# Indices 1 2 3 4 5 6 
#
# 1 95.2691 65.8722 53.9825 0.0000 0.0000 0.0000
# 2 65.8722 226.8904 117.9999 0.0000 0.0000 0.0000
# 3 53.9825 117.9999 181.0879 0.0000 0.0000 0.0000
# 4 0.0000 0.0000 0.0000 191.3036 0.0000 0.0000
# 5 0.0000 0.0000 0.0000 0.0000 39.4972 0.0000
# 6 0.0000 0.0000 0.0000 0.0000 0.0000 -34.5412
#
#
#
# Elastic Compliance Matrix: (Units=1/GPa)
#
#
# Indices 1 2 3 4 5 6 
#
# 1 0.013718 -0.002807 -0.002260 0.000000 0.000000 0.000000
# 2 -0.002807 0.007241 -0.003882 0.000000 0.000000 0.000000
# 3 -0.002260 -0.003882 0.008725 0.000000 0.000000 0.000000
# 4 0.000000 0.000000 0.000000 0.005227 0.000000 0.000000
# 5 0.000000 0.000000 0.000000 0.000000 0.025318 0.000000
# 6 0.000000 0.000000 0.000000 0.000000 0.000000 -0.028951
#
#
# Mechanical properties :
#
#
# Convention : Reuss Voigt Hill
#
# Bulk Modulus (GPa) = 84.84217 108.77294 96.80756
# Shear Modulus (GPa) = 94.15062 56.94479 75.54770
#
# Velocity S-wave (km/s) = 7.02911 5.46658 6.29651
# Velocity P-wave (km/s) = 10.50721 9.84513 10.18156
#
# Compressibility (1/GPa) = 0.01178659
#
# Stress axis : x y z
#
# Youngs Moduli (GPa) = 72.89515 138.09903 114.60998
#
# Poissons Ratio (x) = 0.38769 0.25903
# Poissons Ratio (y) = 0.20464 0.44487
# Poissons Ratio (z) = 0.16475 0.53605
#
# Static dielectric constant tensor:
#      x y z
#    x 1.640850 0.000000 0.000000 
#    y 0.000000 1.666900 0.000000 
#    z 0.000000 0.000000 1.609820 
# 
# From -- ./inp_files/6162.got.cif
#   From: 2010.05.17/outbox.cif.g08.bks.cpg/sg51_4_cif.got.tgz:6162.got - 2010.06.03 11:52:47.
