data_PCOD9402881
_publ_section_title
;
Structure prediction by ZEFSAII (Michael W. Deem and Ramdas Pophale) SiO2 
 PCOD9402881
Probable space group: P M M A
;
_chemical_formula_sum "Si O2"
_cell_formula_units_Z 40
_cell_length_a 15.162336
_cell_length_b 9.045859
_cell_length_c 15.261428
_cell_angle_alpha 90.000000
_cell_angle_beta 90.000000
_cell_angle_gamma 90.000000
_cell_volume 2093.201815
_symmetry_space_group_name_H-M "P M M A"
_symmetry_group_IT_number 51
_symmetry_cell_setting 'orthorhombic'
loop_
_space_group_symop_operation_xyz
x,y,z
1/2-x,-y,z
1/2+x,-y,-z
-x,y,-z
-x,-y,-z
1/2+x,y,-z
1/2-x,y,z
x,-y,z
loop_
_atom_site_type_symbol
_atom_site_label
_atom_site_fract_x
_atom_site_fract_y
_atom_site_fract_z
Si Si1 0.111366 0.822565 0.343772
Si Si2 0.750000 0.325251 0.324335
Si Si3 0.750000 0.677259 0.995252
Si Si4 0.069304 0.176988 0.736779
Si Si5 0.750000 0.325964 0.532897
Si Si6 0.250000 0.176376 0.194395
Si Si7 0.934941 0.323653 0.080969
O O1 0.164234 0.746462 0.422098
O O2 0.165727 0.785746 0.254965
O O3 0.009624 0.781780 0.329943
O O4 0.117336 0.000000 0.354828
O O5 0.750000 0.500000 0.304109
O O6 0.838234 0.251893 0.286605
O O7 0.750000 0.304480 0.429071
O O8 0.750000 0.500000 0.985614
O O9 0.750000 0.745818 0.898774
O O10 0.662803 0.718122 0.048813
O O11 0.041678 0.233306 0.832756
O O12 0.077678 0.000000 0.736247
O O13 0.750000 0.500000 0.551706
O O14 0.250000 0.000000 0.181072
O O15 0.936866 0.500000 0.100107
O O16 0.000000 0.296281 0.000000
#
# Coordination Sequence:
#
# PCOD9402881 Si02
#       7
#     8   4   4   8   4   4   8
#     4   9  20  38  59  85 118 148 181 234 291 340
#     4  11  25  43  60  83 119 154 189 239 290 341
#     4  10  20  32  48  73 106 145 188 231 276 327
#     4  11  23  39  61  87 113 151 198 238 285 343
#     4  10  22  39  62  90 114 146 190 230 279 348
#     4   9  17  32  54  80 111 147 183 226 283 334
#     4  10  21  36  54  79 114 154 192 233 283 334
#
# _framework density 19.109482
#
# number of rings (size 3 to 8) (size 9 to 14) (size 15 to 20)
#    0.000    2.000    0.000    3.600    0.000    7.600 
#    0.000    4.000    0.000    0.000    0.000    0.000 
#    0.000    0.000    0.000    0.000    0.000    0.000 
#
# Total GULP energy -223493.424344 kJ/mol
# GULP energy per Si atom -5587.335609 kJ/mol
# Density = 1.906599 g / cm^3
# Si number density = 19.109482 Si / 1000 Ang^3
#
#
#
# Elastic Constant Matrix: (Units=GPa)
#
#
# Indices 1 2 3 4 5 6 
#
# 1 134.0744 42.9648 25.7436 0.0000 0.0000 0.0000
# 2 42.9648 48.2512 41.3989 0.0000 0.0000 0.0000
# 3 25.7436 41.3989 53.5693 0.0000 0.0000 0.0000
# 4 0.0000 0.0000 0.0000 59.1203 0.0000 0.0000
# 5 0.0000 0.0000 0.0000 0.0000 0.2603 0.0000
# 6 0.0000 0.0000 0.0000 0.0000 0.0000 10.9374
#
#
#
# Elastic Compliance Matrix: (Units=1/GPa)
#
#
# Indices 1 2 3 4 5 6 
#
# 1 0.011240 -0.015950 0.006925 0.000000 0.000000 0.000000
# 2 -0.015950 0.084142 -0.057361 0.000000 0.000000 0.000000
# 3 0.006925 -0.057361 0.059669 0.000000 0.000000 0.000000
# 4 0.000000 0.000000 0.000000 0.016915 0.000000 0.000000
# 5 0.000000 0.000000 0.000000 0.000000 3.841144 0.000000
# 6 0.000000 0.000000 0.000000 0.000000 0.000000 0.091429
#
#
# Mechanical properties :
#
#
# Convention : Reuss Voigt Hill
#
# Bulk Modulus (GPa) = 44.88597 50.67882 47.78240
# Shear Modulus (GPa) = 1.17793 22.44945 11.81369
#
# Velocity S-wave (km/s) = 0.78597 3.43123 2.48908
# Velocity P-wave (km/s) = 4.93594 6.50197 5.77231
#
# Compressibility (1/GPa) = 0.02227868
#
# Stress axis : x y z
#
# Youngs Moduli (GPa) = 88.96662 11.88463 16.75916
#
# Poissons Ratio (x) = 0.18956 -0.11605
# Poissons Ratio (y) = 1.41901 0.96132
# Poissons Ratio (z) = -0.61606 0.68171
#
# Static dielectric constant tensor:
#      x y z
#    x 1.668800 0.000000 0.000000 
#    y 0.000000 1.635740 0.000000 
#    z 0.000000 0.000000 1.633610 
# 
# From -- ./inp_files/23871.got.cif
#   From: 2010.05.17/outbox.cif.g08.bks.cpg/sg51_12_cif.got.tgz:23871.got - 2010.06.03 11:52:47.
