data_PCOD9402369
_publ_section_title
;
Structure prediction by ZEFSAII (Michael W. Deem and Ramdas Pophale) SiO2 
 PCOD9402369
Probable space group: P M M A
;
_chemical_formula_sum "Si O2"
_cell_formula_units_Z 64
_cell_length_a 31.842459
_cell_length_b 8.584887
_cell_length_c 12.232454
_cell_angle_alpha 90.000000
_cell_angle_beta 90.000000
_cell_angle_gamma 90.000000
_cell_volume 3343.911483
_symmetry_space_group_name_H-M "P M M A"
_symmetry_group_IT_number 51
_symmetry_cell_setting 'orthorhombic'
loop_
_space_group_symop_operation_xyz
x,y,z
1/2-x,-y,z
1/2+x,-y,-z
-x,y,-z
-x,-y,-z
1/2+x,y,-z
1/2-x,y,z
x,-y,z
loop_
_atom_site_type_symbol
_atom_site_label
_atom_site_fract_x
_atom_site_fract_y
_atom_site_fract_z
Si Si1 0.672723 0.187075 0.503902
Si Si2 0.703300 0.312385 0.733549
Si Si3 0.955468 0.685963 0.265567
Si Si4 0.374714 0.688156 0.873736
Si Si5 0.045397 0.186356 0.262810
Si Si6 0.297118 0.811803 0.735846
Si Si7 0.623581 0.688556 0.874239
Si Si8 0.073494 0.812747 0.503914
O O1 0.693291 0.262676 0.609859
O O2 0.693193 0.235889 0.389289
O O3 0.623118 0.223569 0.500061
O O4 0.676929 0.000000 0.513503
O O5 0.750000 0.257113 0.764786
O O6 0.703343 0.500000 0.738773
O O7 0.665509 0.256680 0.811070
O O8 0.957819 0.500000 0.258490
O O9 0.915915 0.740541 0.193075
O O10 0.946780 0.735615 0.390318
O O11 0.999583 0.756597 0.228146
O O12 0.374331 0.500000 0.871778
O O13 0.333115 0.747052 0.813635
O O14 0.376277 0.738857 0.999669
O O15 0.082647 0.252491 0.188918
O O16 0.053395 0.235992 0.388838
O O17 0.047207 0.000000 0.260403
O O18 0.250000 0.762894 0.766545
O O19 0.298968 0.000000 0.738329
O O20 0.623226 0.500000 0.872037
O O21 0.068900 0.000000 0.514488
#
# Coordination Sequence:
#
# PCOD9402369 Si02
#       8
#     8   8   8   8   8   8   8   8
#     4  10  19  35  59  85 117 153 186 228 284 341
#     4  10  21  36  57  86 116 147 186 232 281 335
#     4  11  23  38  59  87 117 150 191 235 286 343
#     4  10  23  41  60  83 112 152 196 239 284 335
#     4  11  23  39  60  87 117 149 189 234 287 345
#     4  10  21  37  59  87 117 150 188 231 282 339
#     4  10  22  41  61  81 112 152 194 239 285 333
#     4  10  20  36  59  86 116 150 186 230 284 343
#
# _framework density 19.139261000000001
#
# number of rings (size 3 to 8) (size 9 to 14) (size 15 to 20)
#    0.000    1.750    2.500    1.500    0.000    6.500 
#    0.000    3.750    0.000    0.000    0.000    0.000 
#    0.000    0.000    0.000    0.000    0.000    0.000 
#
# Total GULP energy -357614.169563 kJ/mol
# GULP energy per Si atom -5587.721399 kJ/mol
# Density = 1.909570 g / cm^3
# Si number density = 19.139261 Si / 1000 Ang^3
#
#
#
# Elastic Constant Matrix: (Units=GPa)
#
#
# Indices 1 2 3 4 5 6 
#
# 1 192.1243 29.9259 96.1185 0.0000 0.0000 0.0000
# 2 29.9259 9.5621 24.1851 0.0000 0.0000 0.0000
# 3 96.1185 24.1851 156.1992 0.0000 0.0000 0.0000
# 4 0.0000 0.0000 0.0000 -165.2638 0.0000 0.0000
# 5 0.0000 0.0000 0.0000 0.0000 -2.1151 0.0000
# 6 0.0000 0.0000 0.0000 0.0000 0.0000 41.8037
#
#
#
# Elastic Compliance Matrix: (Units=1/GPa)
#
#
# Indices 1 2 3 4 5 6 
#
# 1 0.010630 -0.027488 -0.002285 0.000000 0.000000 0.000000
# 2 -0.027488 0.242983 -0.020707 0.000000 0.000000 0.000000
# 3 -0.002285 -0.020707 0.011014 0.000000 0.000000 0.000000
# 4 0.000000 0.000000 0.000000 -0.006051 0.000000 0.000000
# 5 0.000000 0.000000 0.000000 0.000000 -0.472784 0.000000
# 6 0.000000 0.000000 0.000000 0.000000 0.000000 0.023921
#
#
# Mechanical properties :
#
#
# Convention : Reuss Voigt Hill
#
# Bulk Modulus (GPa) = 6.10999 73.14941 39.62970
# Shear Modulus (GPa) = -143.80208 -11.27130 -77.53669
#
# Velocity S-wave (km/s) = -8.67743 -2.42938 -6.37180
# Velocity P-wave (km/s) = 9.85889 5.51664 5.77773
#
# Compressibility (1/GPa) = 0.16366629
#
# Stress axis : x y z
#
# Youngs Moduli (GPa) = 94.07531 4.11552 90.79050
#
# Poissons Ratio (x) = 0.11313 0.20745
# Poissons Ratio (y) = 2.58596 1.88002
# Poissons Ratio (z) = 0.21496 0.08522
#
# Static dielectric constant tensor:
#      x y z
#    x 1.660770 0.000000 0.000000 
#    y 0.000000 1.656060 0.000000 
#    z 0.000000 0.000000 1.637080 
# 
# From -- ./inp_files/19459.got.cif
#   From: 2010.05.17/outbox.cif.g08.bks.cpg/sg51_10_cif.got.tgz:19459.got - 2010.06.03 11:52:47.
