data_PCOD9402045
_publ_section_title
;
Structure prediction by ZEFSAII (Michael W. Deem and Ramdas Pophale) SiO2 
 PCOD9402045
Probable space group: P M M A
;
_chemical_formula_sum "Si O2"
_cell_formula_units_Z 56
_cell_length_a 24.787666
_cell_length_b 8.690658
_cell_length_c 15.022356
_cell_angle_alpha 90.000000
_cell_angle_beta 90.000000
_cell_angle_gamma 90.000000
_cell_volume 3236.132872
_symmetry_space_group_name_H-M "P M M A"
_symmetry_group_IT_number 51
_symmetry_cell_setting 'orthorhombic'
loop_
_space_group_symop_operation_xyz
x,y,z
1/2-x,-y,z
1/2+x,-y,-z
-x,y,-z
-x,-y,-z
1/2+x,y,-z
1/2-x,y,z
x,-y,z
loop_
_atom_site_type_symbol
_atom_site_label
_atom_site_fract_x
_atom_site_fract_y
_atom_site_fract_z
Si Si1 0.250000 0.815879 0.001330
Si Si2 0.542762 0.684186 0.169850
Si Si3 0.533007 0.315623 0.376373
Si Si4 0.365120 0.684233 0.968456
Si Si5 0.750000 0.815314 0.787995
Si Si6 0.858959 0.316513 0.704274
Si Si7 0.578815 0.183530 0.547064
Si Si8 0.428512 0.182921 0.137708
O O1 0.250000 0.777031 0.106963
O O2 0.250000 0.000000 0.993454
O O3 0.304760 0.747820 0.961005
O O4 0.533490 0.500000 0.162434
O O5 0.546452 0.722162 0.274440
O O6 0.596633 0.720887 0.115327
O O7 0.490768 0.768630 0.129366
O O8 0.527596 0.500000 0.384480
O O9 0.575735 0.254786 0.448517
O O10 0.476429 0.239102 0.404828
O O11 0.363544 0.500000 0.979627
O O12 0.393636 0.757673 0.054775
O O13 0.697030 0.746602 0.742452
O O14 0.750000 0.000000 0.780194
O O15 0.858709 0.500000 0.699986
O O16 0.873488 0.246419 0.608580
O O17 0.904625 0.261645 0.773888
O O18 0.579446 0.000000 0.542745
O O19 0.423205 0.000000 0.145600
#
# Coordination Sequence:
#
# PCOD9402045 Si02
#       8
#     4   8   8   8   4   8   8   8
#     4  11  23  39  59  82 110 145 190 240 285 331
#     4  10  22  38  57  83 115 152 192 234 281 338
#     4  10  19  34  56  81 112 149 187 228 276 335
#     4  11  23  39  59  81 111 151 193 235 282 337
#     4  11  23  39  59  84 114 145 186 236 285 335
#     4  12  23  37  58  83 113 152 191 229 279 341
#     4  11  21  34  54  83 115 146 182 229 282 333
#     4  12  23  35  54  83 117 152 187 231 283 337
#
# _framework density 17.304604999999999
#
# number of rings (size 3 to 8) (size 9 to 14) (size 15 to 20)
#    0.000    1.000    2.857    6.429    0.000    4.000 
#    0.000    0.000    0.000    0.857    0.000    4.000 
#    0.000    0.000    0.000    0.000    0.000    0.000 
#
# Total GULP energy -313089.526161 kJ/mol
# GULP energy per Si atom -5590.884396 kJ/mol
# Density = 1.726522 g / cm^3
# Si number density = 17.304605 Si / 1000 Ang^3
#
#
#
# Elastic Constant Matrix: (Units=GPa)
#
#
# Indices 1 2 3 4 5 6 
#
# 1 111.6288 39.6540 31.7334 0.0000 0.0000 0.0000
# 2 39.6540 87.1673 24.2000 0.0000 0.0000 0.0000
# 3 31.7334 24.2000 60.0087 0.0000 0.0000 0.0000
# 4 0.0000 0.0000 0.0000 -1.3002 0.0000 0.0000
# 5 0.0000 0.0000 0.0000 0.0000 20.7715 0.0000
# 6 0.0000 0.0000 0.0000 0.0000 0.0000 36.0928
#
#
#
# Elastic Compliance Matrix: (Units=1/GPa)
#
#
# Indices 1 2 3 4 5 6 
#
# 1 0.011692 -0.004056 -0.004547 0.000000 0.000000 0.000000
# 2 -0.004056 0.014326 -0.003632 0.000000 0.000000 0.000000
# 3 -0.004547 -0.003632 0.020533 0.000000 0.000000 0.000000
# 4 0.000000 0.000000 0.000000 -0.769134 0.000000 0.000000
# 5 0.000000 0.000000 0.000000 0.000000 0.048143 0.000000
# 6 0.000000 0.000000 0.000000 0.000000 0.000000 0.027706
#
#
# Mechanical properties :
#
#
# Convention : Reuss Voigt Hill
#
# Bulk Modulus (GPa) = 45.28962 49.99774 47.64368
# Shear Modulus (GPa) = -8.13137 21.99400 6.93132
#
# Velocity S-wave (km/s) = -2.17006 3.56896 2.00354
# Velocity P-wave (km/s) = 4.46654 6.77782 5.73972
#
# Compressibility (1/GPa) = 0.02208011
#
# Stress axis : x y z
#
# Youngs Moduli (GPa) = 85.52978 69.80345 48.70094
#
# Poissons Ratio (x) = 0.28316 0.22144
# Poissons Ratio (y) = 0.34695 0.17689
# Poissons Ratio (z) = 0.38890 0.25354
#
# Static dielectric constant tensor:
#      x y z
#    x 1.613990 0.000000 0.000000 
#    y 0.000000 1.575710 0.000000 
#    z 0.000000 0.000000 1.589850 
# 
# From -- ./inp_files/25818.got.cif
#   From: 2010.05.17/outbox.cif.g08.bks.cpg/sg51_13_cif.got.tgz:25818.got - 2010.06.03 11:52:47.
