data_PCOD9402524
_publ_section_title
;
Structure prediction by ZEFSAII (Michael W. Deem and Ramdas Pophale) SiO2 
 PCOD9402524
Probable space group: P M M A
;
_chemical_formula_sum "Si O2"
_cell_formula_units_Z 40
_cell_length_a 16.804607
_cell_length_b 7.857854
_cell_length_c 13.954698
_cell_angle_alpha 90.000000
_cell_angle_beta 90.000000
_cell_angle_gamma 90.000000
_cell_volume 1842.692031
_symmetry_space_group_name_H-M "P M M A"
_symmetry_group_IT_number 51
_symmetry_cell_setting 'orthorhombic'
loop_
_space_group_symop_operation_xyz
x,y,z
1/2-x,-y,z
1/2+x,-y,-z
-x,y,-z
-x,-y,-z
1/2+x,y,-z
1/2-x,y,z
x,-y,z
loop_
_atom_site_type_symbol
_atom_site_label
_atom_site_fract_x
_atom_site_fract_y
_atom_site_fract_z
Si Si1 0.908659 0.206628 0.133356
Si Si2 0.933116 0.306288 0.754855
Si Si3 0.159323 0.794653 0.063609
Si Si4 0.250000 0.208469 0.533114
Si Si5 0.081167 0.804043 0.455724
Si Si6 0.250000 0.793114 0.755534
O O1 0.829643 0.261250 0.190198
O O2 0.985699 0.270387 0.188113
O O3 0.912112 0.000000 0.133348
O O4 0.897755 0.261574 0.023079
O O5 0.930977 0.500000 0.722544
O O6 0.865458 0.273125 0.833416
O O7 0.925631 0.198199 0.658832
O O8 0.250000 0.749292 0.039400
O O9 0.154509 0.000000 0.067823
O O10 0.333048 0.269253 0.486487
O O11 0.250000 0.255800 0.644796
O O12 0.250000 0.000000 0.525507
O O13 0.000000 0.726533 0.500000
O O14 0.082607 0.000000 0.491029
O O15 0.250000 0.000000 0.758903
#
# Coordination Sequence:
#
# PCOD9402524 Si02
#       6
#     8   8   8   4   8   4
#     4  10  19  37  64  92 118 151 198 253 304 352
#     4  12  26  39  56  85 125 168 202 238 297 366
#     4  10  21  39  63  91 119 153 201 254 302 352
#     4   9  18  32  58  91 116 144 189 249 312 365
#     4  10  21  40  64  90 117 153 204 261 310 354
#     4   9  16  32  62  95 118 140 187 253 312 357
#
# _framework density 21.707370999999998
#
# number of rings (size 3 to 8) (size 9 to 14) (size 15 to 20)
#    0.000    1.800    1.000    3.600    1.400    7.200 
#    0.000    0.500    0.000    1.200    0.000    0.000 
#    0.000    0.000    0.000    0.000    0.000    0.000 
#
# Total GULP energy -223519.467437 kJ/mol
# GULP energy per Si atom -5587.986686 kJ/mol
# Density = 2.165796 g / cm^3
# Si number density = 21.707371 Si / 1000 Ang^3
#
#
#
# Elastic Constant Matrix: (Units=GPa)
#
#
# Indices 1 2 3 4 5 6 
#
# 1 112.9850 12.6667 38.0120 0.0000 0.0000 0.0000
# 2 12.6667 27.8650 -6.2219 0.0000 0.0000 0.0000
# 3 38.0120 -6.2219 113.6781 0.0000 0.0000 0.0000
# 4 0.0000 0.0000 0.0000 -27.3084 0.0000 0.0000
# 5 0.0000 0.0000 0.0000 0.0000 32.9391 0.0000
# 6 0.0000 0.0000 0.0000 0.0000 0.0000 41.0247
#
#
#
# Elastic Compliance Matrix: (Units=1/GPa)
#
#
# Indices 1 2 3 4 5 6 
#
# 1 0.010826 -0.005800 -0.003937 0.000000 0.000000 0.000000
# 2 -0.005800 0.039439 0.004098 0.000000 0.000000 0.000000
# 3 -0.003937 0.004098 0.010338 0.000000 0.000000 0.000000
# 4 0.000000 0.000000 0.000000 -0.036619 0.000000 0.000000
# 5 0.000000 0.000000 0.000000 0.000000 0.030359 0.000000
# 6 0.000000 0.000000 0.000000 0.000000 0.000000 0.024376
#
#
# Mechanical properties :
#
#
# Convention : Reuss Voigt Hill
#
# Bulk Modulus (GPa) = 20.27436 38.16019 29.21727
# Shear Modulus (GPa) = 46.97554 23.33584 35.15569
#
# Velocity S-wave (km/s) = 4.65697 3.28231 4.02870
# Velocity P-wave (km/s) = 6.18681 5.65528 5.92701
#
# Compressibility (1/GPa) = 0.04932338
#
# Stress axis : x y z
#
# Youngs Moduli (GPa) = 92.37312 25.35557 96.73366
#
# Poissons Ratio (x) = 0.14707 0.38088
# Poissons Ratio (y) = 0.53579 -0.39643
# Poissons Ratio (z) = 0.36371 -0.10391
#
# Static dielectric constant tensor:
#      x y z
#    x 1.788260 0.000000 0.000000 
#    y 0.000000 1.815630 0.000000 
#    z 0.000000 0.000000 1.739960 
# 
# From -- ./inp_files/23776.got.cif
#   From: 2010.05.17/outbox.cif.g08.bks.cpg/sg51_12_cif.got.tgz:23776.got - 2010.06.03 11:52:47.
