data_PCOD9402894
_publ_section_title
;
Structure prediction by ZEFSAII (Michael W. Deem and Ramdas Pophale) SiO2 
 PCOD9402894
Probable space group: P M M A
;
_chemical_formula_sum "Si O2"
_cell_formula_units_Z 52
_cell_length_a 28.015353
_cell_length_b 7.767868
_cell_length_c 11.673101
_cell_angle_alpha 90.000000
_cell_angle_beta 90.000000
_cell_angle_gamma 90.000000
_cell_volume 2540.295151
_symmetry_space_group_name_H-M "P M M A"
_symmetry_group_IT_number 51
_symmetry_cell_setting 'orthorhombic'
loop_
_space_group_symop_operation_xyz
x,y,z
1/2-x,-y,z
1/2+x,-y,-z
-x,y,-z
-x,-y,-z
1/2+x,y,-z
1/2-x,y,z
x,-y,z
loop_
_atom_site_type_symbol
_atom_site_label
_atom_site_fract_x
_atom_site_fract_y
_atom_site_fract_z
Si Si1 0.804020 0.292970 0.530721
Si Si2 0.303696 0.794689 0.203833
Si Si3 0.500000 0.745061 0.500000
Si Si4 0.100602 0.710875 0.600471
Si Si5 0.068131 0.707513 0.850121
Si Si6 0.525983 0.192217 0.733940
Si Si7 0.602191 0.301590 0.904091
O O1 0.750000 0.229541 0.502101
O O2 0.802742 0.500000 0.520953
O O3 0.813411 0.247751 0.663162
O O4 0.849211 0.235656 0.455299
O O5 0.250000 0.735768 0.179598
O O6 0.342257 0.711128 0.121805
O O7 0.306080 0.000000 0.190381
O O8 0.554079 0.796963 0.457985
O O9 0.483315 0.683601 0.373196
O O10 0.095040 0.500000 0.586717
O O11 0.097993 0.750551 0.735838
O O12 0.065526 0.500000 0.854240
O O13 0.015370 0.777737 0.826441
O O14 0.088741 0.768246 0.970986
O O15 0.575098 0.210568 0.800009
O O16 0.521453 0.000000 0.683822
O O17 0.586330 0.500000 0.899252
#
# Coordination Sequence:
#
# PCOD9402894 Si02
#       7
#     8   8   4   8   8   8   8
#     4   9  17  31  53  79 105 133 168 210 256 309
#     4  10  21  36  54  77 105 135 169 213 261 307
#     4  10  20  32  48  74 107 138 169 210 261 314
#     4   9  17  31  51  75 102 134 171 211 257 306
#     4   9  20  37  53  73 104 138 173 213 254 301
#     4  11  22  35  53  77 106 138 172 211 256 308
#     4  11  22  36  55  77 103 138 177 215 257 305
#
# _framework density 20.470061000000001
#
# number of rings (size 3 to 8) (size 9 to 14) (size 15 to 20)
#    0.000    2.154    0.000    3.231    0.000    7.077 
#    0.000    3.846    0.000    2.769    0.000    2.154 
#    0.000    0.000    0.000    0.000    0.000    0.000 
#
# Total GULP energy -289705.386945 kJ/mol
# GULP energy per Si atom -5571.257441 kJ/mol
# Density = 2.042347 g / cm^3
# Si number density = 20.470061 Si / 1000 Ang^3
#
#
#
# Elastic Constant Matrix: (Units=GPa)
#
#
# Indices 1 2 3 4 5 6 
#
# 1 114.8969 11.2253 71.7683 0.0000 0.0000 0.0000
# 2 11.2253 50.2855 13.8271 0.0000 0.0000 0.0000
# 3 71.7683 13.8271 99.1709 0.0000 0.0000 0.0000
# 4 0.0000 0.0000 0.0000 7.3928 0.0000 0.0000
# 5 0.0000 0.0000 0.0000 0.0000 35.3172 0.0000
# 6 0.0000 0.0000 0.0000 0.0000 0.0000 16.5754
#
#
#
# Elastic Compliance Matrix: (Units=1/GPa)
#
#
# Indices 1 2 3 4 5 6 
#
# 1 0.015891 -0.000401 -0.011444 0.000000 0.000000 0.000000
# 2 -0.000401 0.020689 -0.002595 0.000000 0.000000 0.000000
# 3 -0.011444 -0.002595 0.018727 0.000000 0.000000 0.000000
# 4 0.000000 0.000000 0.000000 0.135267 0.000000 0.000000
# 5 0.000000 0.000000 0.000000 0.000000 0.028315 0.000000
# 6 0.000000 0.000000 0.000000 0.000000 0.000000 0.060330
#
#
# Mechanical properties :
#
#
# Convention : Reuss Voigt Hill
#
# Bulk Modulus (GPa) = 37.83772 50.88829 44.36301
# Shear Modulus (GPa) = 15.77741 23.02593 19.40167
#
# Velocity S-wave (km/s) = 2.77926 3.35753 3.08199
# Velocity P-wave (km/s) = 5.36876 6.32017 5.86379
#
# Compressibility (1/GPa) = 0.02642865
#
# Stress axis : x y z
#
# Youngs Moduli (GPa) = 62.92873 48.33405 53.39784
#
# Poissons Ratio (x) = 0.01936 0.61110
# Poissons Ratio (y) = 0.02520 0.13856
# Poissons Ratio (z) = 0.72017 0.12542
#
# Static dielectric constant tensor:
#      x y z
#    x 1.719860 0.000000 0.000000 
#    y 0.000000 1.854810 0.000000 
#    z 0.000000 0.000000 1.694940 
# 
# From -- ./inp_files/19048.got.cif
#   From: 2010.05.17/outbox.cif.g08.bks.cpg/sg51_10_cif.got.tgz:19048.got - 2010.06.03 11:52:47.
