data_PCOD9402768
_publ_section_title
;
Structure prediction by ZEFSAII (Michael W. Deem and Ramdas Pophale) SiO2 
 PCOD9402768
Probable space group: P M M A
;
_chemical_formula_sum "Si O2"
_cell_formula_units_Z 48
_cell_length_a 9.665747
_cell_length_b 7.918216
_cell_length_c 32.434263
_cell_angle_alpha 90.000000
_cell_angle_beta 90.000000
_cell_angle_gamma 90.000000
_cell_volume 2482.371645
_symmetry_space_group_name_H-M "P M M A"
_symmetry_group_IT_number 51
_symmetry_cell_setting 'orthorhombic'
loop_
_space_group_symop_operation_xyz
x,y,z
1/2-x,-y,z
1/2+x,-y,-z
-x,y,-z
-x,-y,-z
1/2+x,y,-z
1/2-x,y,z
x,-y,z
loop_
_atom_site_type_symbol
_atom_site_label
_atom_site_fract_x
_atom_site_fract_y
_atom_site_fract_z
Si Si1 0.093384 0.797854 0.793450
Si Si2 0.408426 0.702757 0.462130
Si Si3 0.591356 0.201326 0.626753
Si Si4 0.910166 0.793584 0.869465
Si Si5 0.590010 0.793948 0.961696
Si Si6 0.091255 0.299578 0.283850
O O1 0.250000 0.731275 0.790742
O O2 0.009087 0.732375 0.833118
O O3 0.005059 0.765839 0.752461
O O4 0.102301 0.000000 0.798397
O O5 0.500000 0.767233 0.500000
O O6 0.250000 0.768281 0.463962
O O7 0.401732 0.500000 0.465545
O O8 0.469497 0.742649 0.416958
O O9 0.750000 0.268920 0.626497
O O10 0.533143 0.258532 0.670612
O O11 0.595167 0.000000 0.626915
O O12 0.750000 0.742906 0.862814
O O13 0.953915 0.741343 0.915624
O O14 0.910831 0.000000 0.868940
O O15 0.750000 0.746029 0.966876
O O16 0.584842 0.000000 0.961999
O O17 0.500000 0.732876 0.000000
O O18 0.250000 0.231117 0.280946
O O19 0.099144 0.500000 0.279968
#
# Coordination Sequence:
#
# PCOD9402768 Si02
#       6
#     8   8   8   8   8   8
#     4  10  20  32  47  69  96 125 157 195 242 292
#     4   9  17  30  48  70  97 128 161 196 234 278
#     4   9  17  30  50  74  97 123 158 199 239 280
#     4   8  14  25  40  58  83 118 158 196 234 279
#     4   8  13  20  31  50  78 113 151 189 230 276
#     4  10  20  34  53  74  94 121 159 199 240 289
#
# _framework density 19.336347
#
# number of rings (size 3 to 8) (size 9 to 14) (size 15 to 20)
#    0.000    3.000    0.000    2.500    0.000    5.000 
#    0.000    4.167    0.000    3.000    0.000    0.000 
#    0.000    0.667    0.000    2.167    0.000    4.333 
#
# Total GULP energy -267505.651957 kJ/mol
# GULP energy per Si atom -5573.034416 kJ/mol
# Density = 1.929234 g / cm^3
# Si number density = 19.336347 Si / 1000 Ang^3
#
#
#
# Elastic Constant Matrix: (Units=GPa)
#
#
# Indices 1 2 3 4 5 6 
#
# 1 86.5219 6.9368 102.1755 0.0000 0.0000 0.0000
# 2 6.9368 18.5559 2.7096 0.0000 0.0000 0.0000
# 3 102.1755 2.7096 221.4158 0.0000 0.0000 0.0000
# 4 0.0000 0.0000 0.0000 73.8852 0.0000 0.0000
# 5 0.0000 0.0000 0.0000 0.0000 18.0842 0.0000
# 6 0.0000 0.0000 0.0000 0.0000 0.0000 7.3978
#
#
#
# Elastic Compliance Matrix: (Units=1/GPa)
#
#
# Indices 1 2 3 4 5 6 
#
# 1 0.026577 -0.008159 -0.012165 0.000000 0.000000 0.000000
# 2 -0.008159 0.056492 0.003074 0.000000 0.000000 0.000000
# 3 -0.012165 0.003074 0.010092 0.000000 0.000000 0.000000
# 4 0.000000 0.000000 0.000000 0.013535 0.000000 0.000000
# 5 0.000000 0.000000 0.000000 0.000000 0.055297 0.000000
# 6 0.000000 0.000000 0.000000 0.000000 0.000000 0.135175
#
#
# Mechanical properties :
#
#
# Convention : Reuss Voigt Hill
#
# Bulk Modulus (GPa) = 17.04676 61.12640 39.08658
# Shear Modulus (GPa) = 14.23595 34.18487 24.21041
#
# Velocity S-wave (km/s) = 2.71629 4.20921 3.54230
# Velocity P-wave (km/s) = 4.32120 7.43667 6.08181
#
# Compressibility (1/GPa) = 0.05866217
#
# Stress axis : x y z
#
# Youngs Moduli (GPa) = 37.62583 17.70147 99.08488
#
# Poissons Ratio (x) = 0.14443 1.20534
# Poissons Ratio (y) = 0.30700 -0.30457
# Poissons Ratio (z) = 0.45771 -0.05441
#
# Static dielectric constant tensor:
#      x y z
#    x 1.684610 0.000000 0.000000 
#    y 0.000000 1.700390 0.000000 
#    z 0.000000 0.000000 1.686310 
# 
# From -- ./inp_files/37012.got.cif
#   From: 2010.05.17/outbox.cif.g08.bks.cpg/sg51_19_cif.got.tgz:37012.got - 2010.06.03 11:52:47.
