data_PCOD9402549
_publ_section_title
;
Structure prediction by ZEFSAII (Michael W. Deem and Ramdas Pophale) SiO2 
 PCOD9402549
Probable space group: P M M A
;
_chemical_formula_sum "Si O2"
_cell_formula_units_Z 56
_cell_length_a 14.207491
_cell_length_b 15.111611
_cell_length_c 15.596124
_cell_angle_alpha 90.000000
_cell_angle_beta 90.000000
_cell_angle_gamma 90.000000
_cell_volume 3348.457836
_symmetry_space_group_name_H-M "P M M A"
_symmetry_group_IT_number 51
_symmetry_cell_setting 'orthorhombic'
loop_
_space_group_symop_operation_xyz
x,y,z
1/2-x,-y,z
1/2+x,-y,-z
-x,y,-z
-x,-y,-z
1/2+x,y,-z
1/2-x,y,z
x,-y,z
loop_
_atom_site_type_symbol
_atom_site_label
_atom_site_fract_x
_atom_site_fract_y
_atom_site_fract_z
Si Si1 0.354570 0.106691 0.548269
Si Si2 0.447945 0.893542 0.367933
Si Si3 0.032099 0.793269 0.201222
Si Si4 0.857478 0.367888 0.022372
Si Si5 0.642184 0.164476 0.970029
Si Si6 0.528188 0.403904 0.853659
Si Si7 0.361579 0.098453 0.848812
O O1 0.250000 0.140097 0.570943
O O2 0.445103 0.132296 0.604557
O O3 0.381994 0.126247 0.449608
O O4 0.351702 0.000000 0.554537
O O5 0.422471 0.839016 0.283690
O O6 0.444973 0.000000 0.353674
O O7 0.039111 0.686914 0.198956
O O8 0.925146 0.828364 0.195878
O O9 0.079141 0.830652 0.113984
O O10 0.750000 0.393151 0.037453
O O11 0.863161 0.261714 0.013254
O O12 0.895491 0.400999 0.930742
O O13 0.928845 0.397212 0.095901
O O14 0.750000 0.147862 0.944358
O O15 0.618168 0.101218 0.048971
O O16 0.534690 0.500000 0.810110
O O17 0.250000 0.114106 0.838977
O O18 0.383568 0.000000 0.815174
#
# Coordination Sequence:
#
# PCOD9402549 Si02
#       7
#     8   8   8   8   8   8   8
#     4   8  15  31  52  71  94 117 138 175 222 270
#     4   9  18  30  47  73  95 116 148 176 216 280
#     4  11  20  31  46  66  95 123 150 195 235 267
#     4   9  16  30  48  62  82 115 157 205 246 276
#     4   9  18  31  44  61  88 123 163 197 229 269
#     4  10  20  30  43  66  89 116 157 198 240 280
#     4  10  20  32  45  61  86 125 166 195 223 266
#
# _framework density 16.724117
#
# number of rings (size 3 to 8) (size 9 to 14) (size 15 to 20)
#    0.000    2.571    1.429    2.571    0.000    4.000 
#    0.000    1.429    0.000    0.000    0.000    2.000 
#    0.000    1.143    0.000    0.000    0.000    0.000 
#
# Total GULP energy -312103.401576 kJ/mol
# GULP energy per Si atom -5573.275028 kJ/mol
# Density = 1.668605 g / cm^3
# Si number density = 16.724117 Si / 1000 Ang^3
#
#
#
# Elastic Constant Matrix: (Units=GPa)
#
#
# Indices 1 2 3 4 5 6 
#
# 1 45.4964 -5.4500 -10.0822 0.0000 0.0000 0.0000
# 2 -5.4500 72.5899 14.8021 0.0000 0.0000 0.0000
# 3 -10.0822 14.8021 30.3291 0.0000 0.0000 0.0000
# 4 0.0000 0.0000 0.0000 6.7748 0.0000 0.0000
# 5 0.0000 0.0000 0.0000 0.0000 4.9848 0.0000
# 6 0.0000 0.0000 0.0000 0.0000 0.0000 7.9906
#
#
#
# Elastic Compliance Matrix: (Units=1/GPa)
#
#
# Indices 1 2 3 4 5 6 
#
# 1 0.023730 0.000192 0.007795 0.000000 0.000000 0.000000
# 2 0.000192 0.015300 -0.007403 0.000000 0.000000 0.000000
# 3 0.007795 -0.007403 0.039176 0.000000 0.000000 0.000000
# 4 0.000000 0.000000 0.000000 0.147606 0.000000 0.000000
# 5 0.000000 0.000000 0.000000 0.000000 0.200609 0.000000
# 6 0.000000 0.000000 0.000000 0.000000 0.000000 0.125147
#
#
# Mechanical properties :
#
#
# Convention : Reuss Voigt Hill
#
# Bulk Modulus (GPa) = 12.59868 16.32834 14.46351
# Shear Modulus (GPa) = 8.66765 13.89309 11.28037
#
# Velocity S-wave (km/s) = 2.27903 2.88535 2.59993
# Velocity P-wave (km/s) = 3.80459 4.57000 4.20475
#
# Compressibility (1/GPa) = 0.07937337
#
# Stress axis : x y z
#
# Youngs Moduli (GPa) = 42.14056 65.35912 25.52590
#
# Poissons Ratio (x) = -0.01256 -0.19897
# Poissons Ratio (y) = -0.00810 0.18898
# Poissons Ratio (z) = -0.32847 0.48387
#
# Static dielectric constant tensor:
#      x y z
#    x 1.605990 0.000000 0.000000 
#    y 0.000000 1.591040 0.000000 
#    z 0.000000 0.000000 1.559720 
# 
# From -- ./inp_files/24279.got.cif
#   From: 2010.05.17/outbox.cif.g08.bks.cpg/sg51_13_cif.got.tgz:24279.got - 2010.06.03 11:52:47.
