data_PCOD9402047
_publ_section_title
;
Structure prediction by ZEFSAII (Michael W. Deem and Ramdas Pophale) SiO2 
 PCOD9402047
Probable space group: P M M A
;
_chemical_formula_sum "Si O2"
_cell_formula_units_Z 56
_cell_length_a 22.028418
_cell_length_b 8.133370
_cell_length_c 17.338565
_cell_angle_alpha 90.000000
_cell_angle_beta 90.000000
_cell_angle_gamma 90.000000
_cell_volume 3106.468751
_symmetry_space_group_name_H-M "P M M A"
_symmetry_group_IT_number 51
_symmetry_cell_setting 'orthorhombic'
loop_
_space_group_symop_operation_xyz
x,y,z
1/2-x,-y,z
1/2+x,-y,-z
-x,y,-z
-x,-y,-z
1/2+x,y,-z
1/2-x,y,z
x,-y,z
loop_
_atom_site_type_symbol
_atom_site_label
_atom_site_fract_x
_atom_site_fract_y
_atom_site_fract_z
Si Si1 0.438721 0.302366 0.456002
Si Si2 0.680307 0.193694 0.154400
Si Si3 0.470498 0.299863 0.120600
Si Si4 0.593431 0.301325 0.030320
Si Si5 0.878902 0.308469 0.307084
Si Si6 0.317713 0.807150 0.543853
Si Si7 0.517641 0.701103 0.705939
O O1 0.500000 0.242389 0.500000
O O2 0.442976 0.500000 0.455913
O O3 0.375625 0.259884 0.497086
O O4 0.442457 0.246353 0.366973
O O5 0.750000 0.244732 0.157605
O O6 0.651746 0.228753 0.071331
O O7 0.643163 0.288205 0.219903
O O8 0.676052 0.000000 0.171230
O O9 0.469635 0.500000 0.121978
O O10 0.535511 0.254132 0.083593
O O11 0.464284 0.241981 0.208390
O O12 0.421122 0.248192 0.056978
O O13 0.596880 0.500000 0.031357
O O14 0.878906 0.500000 0.329084
O O15 0.834650 0.219310 0.366450
O O16 0.948200 0.248468 0.311236
O O17 0.250000 0.737145 0.528131
O O18 0.315225 0.000000 0.528076
O O19 0.517631 0.500000 0.708294
#
# Coordination Sequence:
#
# PCOD9402047 Si02
#       7
#     8   8   8   8   8   8   8
#     4  10  19  34  56  82 107 136 178 224 267 317
#     4  11  23  35  46  68 107 145 173 208 255 305
#     4   8  14  27  50  78 102 125 158 208 261 299
#     4   9  16  29  52  75  96 129 172 207 245 302
#     4  11  20  34  56  79 104 137 176 214 257 315
#     4  11  24  39  53  74 109 147 180 219 267 319
#     4   9  16  29  52  80 109 132 160 214 271 310
#
# _framework density 18.026900000000001
#
# number of rings (size 3 to 8) (size 9 to 14) (size 15 to 20)
#    0.000    2.143    2.857    2.571    0.000    4.286 
#    0.000    1.429    0.000    0.857    0.000    6.000 
#    0.000    0.000    0.000    0.000    0.000    0.000 
#
# Total GULP energy -312310.063739 kJ/mol
# GULP energy per Si atom -5576.965424 kJ/mol
# Density = 1.798587 g / cm^3
# Si number density = 18.026900 Si / 1000 Ang^3
#
#
#
# Elastic Constant Matrix: (Units=GPa)
#
#
# Indices 1 2 3 4 5 6 
#
# 1 88.5836 4.5770 46.8968 0.0000 0.0000 0.0000
# 2 4.5770 8.0621 6.0511 0.0000 0.0000 0.0000
# 3 46.8968 6.0511 121.7174 0.0000 0.0000 0.0000
# 4 0.0000 0.0000 0.0000 -22.1905 0.0000 0.0000
# 5 0.0000 0.0000 0.0000 0.0000 19.9833 0.0000
# 6 0.0000 0.0000 0.0000 0.0000 0.0000 18.6790
#
#
#
# Elastic Compliance Matrix: (Units=1/GPa)
#
#
# Indices 1 2 3 4 5 6 
#
# 1 0.014313 -0.004141 -0.005309 0.000000 0.000000 0.000000
# 2 -0.004141 0.130042 -0.004869 0.000000 0.000000 0.000000
# 3 -0.005309 -0.004869 0.010503 0.000000 0.000000 0.000000
# 4 0.000000 0.000000 0.000000 -0.045064 0.000000 0.000000
# 5 0.000000 0.000000 0.000000 0.000000 0.050042 0.000000
# 6 0.000000 0.000000 0.000000 0.000000 0.000000 0.053536
#
#
# Mechanical properties :
#
#
# Convention : Reuss Voigt Hill
#
# Bulk Modulus (GPa) = 7.92267 37.04588 22.48427
# Shear Modulus (GPa) = 17.60037 14.01693 15.80865
#
# Velocity S-wave (km/s) = 3.12803 2.79149 2.96454
# Velocity P-wave (km/s) = 4.17739 5.56641 4.92115
#
# Compressibility (1/GPa) = 0.12622007
#
# Stress axis : x y z
#
# Youngs Moduli (GPa) = 69.86497 7.68980 95.20799
#
# Poissons Ratio (x) = 0.03184 0.50545
# Poissons Ratio (y) = 0.28932 0.46360
# Poissons Ratio (z) = 0.37091 0.03744
#
# Static dielectric constant tensor:
#      x y z
#    x 1.609420 0.000000 0.000000 
#    y 0.000000 1.640510 0.000000 
#    z 0.000000 0.000000 1.627440 
# 
# From -- ./inp_files/30379.got.cif
#   From: 2010.05.17/outbox.cif.g08.bks.cpg/sg51_16_cif.got.tgz:30379.got - 2010.06.03 11:52:47.
