data_PCOD9402736
_publ_section_title
;
Structure prediction by ZEFSAII (Michael W. Deem and Ramdas Pophale) SiO2 
 PCOD9402736
Probable space group: P M M A
;
_chemical_formula_sum "Si O2"
_cell_formula_units_Z 52
_cell_length_a 8.783890
_cell_length_b 16.036619
_cell_length_c 22.160741
_cell_angle_alpha 90.000000
_cell_angle_beta 90.000000
_cell_angle_gamma 90.000000
_cell_volume 3121.648344
_symmetry_space_group_name_H-M "P M M A"
_symmetry_group_IT_number 51
_symmetry_cell_setting 'orthorhombic'
loop_
_space_group_symop_operation_xyz
x,y,z
1/2-x,-y,z
1/2+x,-y,-z
-x,y,-z
-x,-y,-z
1/2+x,y,-z
1/2-x,y,z
x,-y,z
loop_
_atom_site_type_symbol
_atom_site_label
_atom_site_fract_x
_atom_site_fract_y
_atom_site_fract_z
Si Si1 0.066259 0.500000 0.716033
Si Si2 0.579181 0.903355 0.216002
Si Si3 0.069286 0.341264 0.933805
Si Si4 0.074174 0.247525 0.169135
Si Si5 0.066939 0.678152 0.299053
Si Si6 0.935343 0.000000 0.432890
Si Si7 0.935078 0.500000 0.143513
Si Si8 0.927396 0.156997 0.352514
O O1 0.250000 0.500000 0.713403
O O2 0.016191 0.500000 0.786904
O O3 0.003128 0.586805 0.688766
O O4 0.750000 0.873890 0.198579
O O5 0.451563 0.848308 0.185318
O O6 0.567332 0.888411 0.287570
O O7 0.566715 0.000000 0.202504
O O8 0.250000 0.346226 0.939344
O O9 0.014118 0.420531 0.894714
O O10 0.020195 0.266858 0.890370
O O11 0.000000 0.338834 0.000000
O O12 0.250000 0.268279 0.159394
O O13 0.020486 0.296100 0.230009
O O14 0.250000 0.674269 0.300774
O O15 0.011324 0.754330 0.341922
O O16 0.983649 0.086095 0.399121
O O17 0.000000 0.000000 0.500000
O O18 0.750000 0.000000 0.431982
O O19 0.750000 0.500000 0.144963
O O20 0.750000 0.175092 0.366296
#
# Coordination Sequence:
#
# PCOD9402736 Si02
#       8
#     4   8   8   8   8   4   4   8
#     4  11  19  32  52  74 100 137 176 211 259 318
#     4   9  16  29  51  74  96 126 163 203 246 294
#     4  11  21  35  50  67  90 122 163 205 249 303
#     4  10  20  32  46  69  97 126 159 201 254 305
#     4  10  20  32  48  74 105 135 170 218 266 305
#     4  10  20  34  54  82 116 152 187 218 253 296
#     4   9  19  32  48  68  91 122 162 200 241 300
#     4   9  17  32  51  74 105 143 181 213 248 303
#
# _framework density 16.657865000000001
#
# number of rings (size 3 to 8) (size 9 to 14) (size 15 to 20)
#    0.000    2.154    2.308    1.846    0.000    2.154 
#    0.000    1.154    0.000    0.462    0.000    0.538 
#    0.000    0.000    0.000    0.000    0.000    0.000 
#
# Total GULP energy -289725.541779 kJ/mol
# GULP energy per Si atom -5571.645034 kJ/mol
# Density = 1.661995 g / cm^3
# Si number density = 16.657865 Si / 1000 Ang^3
#
#
#
# Elastic Constant Matrix: (Units=GPa)
#
#
# Indices 1 2 3 4 5 6 
#
# 1 41.6636 34.2084 22.0083 0.0000 0.0000 0.0000
# 2 34.2084 111.6198 43.6425 0.0000 0.0000 0.0000
# 3 22.0083 43.6425 69.3622 0.0000 0.0000 0.0000
# 4 0.0000 0.0000 0.0000 17.3441 0.0000 0.0000
# 5 0.0000 0.0000 0.0000 0.0000 22.0743 0.0000
# 6 0.0000 0.0000 0.0000 0.0000 0.0000 22.5877
#
#
#
# Elastic Compliance Matrix: (Units=1/GPa)
#
#
# Indices 1 2 3 4 5 6 
#
# 1 0.033608 -0.008131 -0.005548 0.000000 0.000000 0.000000
# 2 -0.008131 0.013849 -0.006134 0.000000 0.000000 0.000000
# 3 -0.005548 -0.006134 0.020037 0.000000 0.000000 0.000000
# 4 0.000000 0.000000 0.000000 0.057656 0.000000 0.000000
# 5 0.000000 0.000000 0.000000 0.000000 0.045302 0.000000
# 6 0.000000 0.000000 0.000000 0.000000 0.000000 0.044272
#
#
# Mechanical properties :
#
#
# Convention : Reuss Voigt Hill
#
# Bulk Modulus (GPa) = 35.88219 46.92932 41.40575
# Shear Modulus (GPa) = 18.96531 20.58698 19.77614
#
# Velocity S-wave (km/s) = 3.37786 3.51931 3.44931
# Velocity P-wave (km/s) = 6.06636 6.68937 6.38547
#
# Compressibility (1/GPa) = 0.02786898
#
# Stress axis : x y z
#
# Youngs Moduli (GPa) = 29.75461 72.20628 49.90801
#
# Poissons Ratio (x) = 0.58710 0.27688
# Poissons Ratio (y) = 0.24193 0.30614
# Poissons Ratio (z) = 0.16507 0.44291
#
# Static dielectric constant tensor:
#      x y z
#    x 1.578940 0.000000 0.000000 
#    y 0.000000 1.607100 0.000000 
#    z 0.000000 0.000000 1.533510 
# 
# From -- ./inp_files/31811.got.cif
#   From: 2010.05.17/outbox.cif.g08.bks.cpg/sg51_16_cif.got.tgz:31811.got - 2010.06.03 11:52:47.
