data_PCOD9402288
_publ_section_title
;
Structure prediction by ZEFSAII (Michael W. Deem and Ramdas Pophale) SiO2 
 PCOD9402288
Probable space group: P M M A
;
_chemical_formula_sum "Si O2"
_cell_formula_units_Z 40
_cell_length_a 10.471544
_cell_length_b 7.769839
_cell_length_c 25.494496
_cell_angle_alpha 90.000000
_cell_angle_beta 90.000000
_cell_angle_gamma 90.000000
_cell_volume 2074.288562
_symmetry_space_group_name_H-M "P M M A"
_symmetry_group_IT_number 51
_symmetry_cell_setting 'orthorhombic'
loop_
_space_group_symop_operation_xyz
x,y,z
1/2-x,-y,z
1/2+x,-y,-z
-x,y,-z
-x,-y,-z
1/2+x,y,-z
1/2-x,y,z
x,-y,z
loop_
_atom_site_type_symbol
_atom_site_label
_atom_site_fract_x
_atom_site_fract_y
_atom_site_fract_z
Si Si1 0.605214 0.797476 0.460569
Si Si2 0.404640 0.300274 0.655088
Si Si3 0.100958 0.288636 0.769286
Si Si4 0.993968 0.297574 0.877426
Si Si5 0.750000 0.201614 0.063570
Si Si6 0.250000 0.710086 0.058440
O O1 0.500000 0.722321 0.500000
O O2 0.750000 0.724220 0.464618
O O3 0.560691 0.782771 0.400147
O O4 0.615976 0.000000 0.472566
O O5 0.250000 0.292678 0.657856
O O6 0.442038 0.500000 0.651814
O O7 0.446468 0.230791 0.711863
O O8 0.250000 0.239528 0.776423
O O9 0.100019 0.500000 0.768422
O O10 0.021199 0.227301 0.819251
O O11 0.967813 0.500000 0.870317
O O12 0.123457 0.279327 0.910523
O O13 0.875278 0.228313 0.910423
O O14 0.750000 0.000000 0.075095
O O15 0.750000 0.230181 0.001403
O O16 0.250000 0.500000 0.056584
#
# Coordination Sequence:
#
# PCOD9402288 Si02
#       6
#     8   8   8   8   4   4
#     4   9  17  29  45  65  90 122 158 194 230 270
#     4   8  14  25  44  70  95 120 152 191 237 282
#     4   8  13  25  49  74  94 119 153 196 242 281
#     4  10  19  35  57  77  99 129 167 207 245 293
#     4  12  24  36  52  76 102 132 167 204 249 296
#     4  10  22  36  54  78 100 130 169 204 243 296
#
# _framework density 19.283721
#
# number of rings (size 3 to 8) (size 9 to 14) (size 15 to 20)
#    0.000    2.800    1.000    2.700    0.000    3.600 
#    0.000    1.000    2.200    0.000    0.000    0.000 
#    0.000    0.000    0.000    0.000    0.000    0.000 
#
# Total GULP energy -222883.969044 kJ/mol
# GULP energy per Si atom -5572.099226 kJ/mol
# Density = 1.923983 g / cm^3
# Si number density = 19.283721 Si / 1000 Ang^3
#
#
#
# Elastic Constant Matrix: (Units=GPa)
#
#
# Indices 1 2 3 4 5 6 
#
# 1 80.5815 -10.8585 65.7097 0.0000 0.0000 0.0000
# 2 -10.8585 20.2122 -8.2241 0.0000 0.0000 0.0000
# 3 65.7097 -8.2241 175.0343 0.0000 0.0000 0.0000
# 4 0.0000 0.0000 0.0000 46.0547 0.0000 0.0000
# 5 0.0000 0.0000 0.0000 0.0000 -114.3430 0.0000
# 6 0.0000 0.0000 0.0000 0.0000 0.0000 -92.9239
#
#
#
# Elastic Compliance Matrix: (Units=1/GPa)
#
#
# Indices 1 2 3 4 5 6 
#
# 1 0.018915 0.007414 -0.006753 0.000000 0.000000 0.000000
# 2 0.007414 0.053345 -0.000277 0.000000 0.000000 0.000000
# 3 -0.006753 -0.000277 0.008235 0.000000 0.000000 0.000000
# 4 0.000000 0.000000 0.000000 0.021713 0.000000 0.000000
# 5 0.000000 0.000000 0.000000 0.000000 -0.008746 0.000000
# 6 0.000000 0.000000 0.000000 0.000000 0.000000 -0.010761
#
#
# Mechanical properties :
#
#
# Convention : Reuss Voigt Hill
#
# Bulk Modulus (GPa) = 12.30540 41.00916 26.65728
# Shear Modulus (GPa) = 45.86267 -16.96236 14.45015
#
# Velocity S-wave (km/s) = 4.88208 -2.96906 2.74039
# Velocity P-wave (km/s) = 6.17857 3.09170 4.88535
#
# Compressibility (1/GPa) = 0.08126514
#
# Stress axis : x y z
#
# Youngs Moduli (GPa) = 52.86742 18.74574 121.43052
#
# Poissons Ratio (x) = -0.13898 0.81997
# Poissons Ratio (y) = -0.39197 0.03362
# Poissons Ratio (z) = 0.35699 0.00519
#
# Static dielectric constant tensor:
#      x y z
#    x 1.697670 0.000000 0.000000 
#    y 0.000000 1.709710 0.000000 
#    z 0.000000 0.000000 1.696810 
# 
# From -- ./inp_files/35996.got.cif
#   From: 2010.05.17/outbox.cif.g08.bks.cpg/sg51_18_cif.got.tgz:35996.got - 2010.06.03 11:52:47.
