data_PCOD9402196
_publ_section_title
;
Structure prediction by ZEFSAII (Michael W. Deem and Ramdas Pophale) SiO2 
 PCOD9402196
Probable space group: P M M A
;
_chemical_formula_sum "Si O2"
_cell_formula_units_Z 64
_cell_length_a 9.173449
_cell_length_b 23.885635
_cell_length_c 14.771912
_cell_angle_alpha 90.000000
_cell_angle_beta 90.000000
_cell_angle_gamma 90.000000
_cell_volume 3236.727622
_symmetry_space_group_name_H-M "P M M A"
_symmetry_group_IT_number 51
_symmetry_cell_setting 'orthorhombic'
loop_
_space_group_symop_operation_xyz
x,y,z
1/2-x,-y,z
1/2+x,-y,-z
-x,y,-z
-x,-y,-z
1/2+x,y,-z
1/2-x,y,z
x,-y,z
loop_
_atom_site_type_symbol
_atom_site_label
_atom_site_fract_x
_atom_site_fract_y
_atom_site_fract_z
Si Si1 0.572809 0.936619 0.282691
Si Si2 0.916442 0.363517 0.590552
Si Si3 0.078981 0.249404 0.907211
Si Si4 0.425933 0.832281 0.597346
Si Si5 0.416826 0.431499 0.090357
Si Si6 0.418575 0.258075 0.276100
Si Si7 0.920580 0.886156 0.091799
Si Si8 0.415117 0.432839 0.729088
O O1 0.750000 0.936781 0.279105
O O2 0.535302 0.893231 0.361835
O O3 0.523065 0.913473 0.184762
O O4 0.522896 0.000000 0.297680
O O5 0.750000 0.378426 0.569887
O O6 0.917915 0.312315 0.660443
O O7 0.000000 0.347355 0.500000
O O8 0.999131 0.413230 0.641172
O O9 0.250000 0.264194 0.907305
O O10 0.068325 0.181323 0.901124
O O11 0.994973 0.270721 0.819097
O O12 0.000000 0.266524 0.000000
O O13 0.500000 0.823411 0.500000
O O14 0.250000 0.826896 0.591176
O O15 0.489480 0.788477 0.669917
O O16 0.250000 0.412366 0.091472
O O17 0.414920 0.500000 0.089418
O O18 0.501062 0.414150 0.180529
O O19 0.500000 0.413509 0.000000
O O20 0.250000 0.240221 0.262249
O O21 0.750000 0.900021 0.083573
O O22 0.000000 0.904019 0.000000
O O23 0.250000 0.411124 0.728301
O O24 0.410126 0.500000 0.732008
#
# Coordination Sequence:
#
# PCOD9402196 Si02
#       8
#     8   8   8   8   8   8   8   8
#     4   9  18  34  54  77 111 152 192 236 288 347
#     4  11  25  43  63  88 117 151 194 242 296 348
#     4  10  19  34  58  89 121 156 193 235 287 345
#     4  11  22  38  59  84 110 146 193 241 298 354
#     4   9  16  28  50  81 117 156 197 240 284 333
#     4  11  23  40  63  90 118 151 191 240 291 346
#     4   9  17  31  51  79 110 147 188 228 278 337
#     4  10  21  38  61  89 121 158 198 239 288 345
#
# _framework density 19.773057000000001
#
# number of rings (size 3 to 8) (size 9 to 14) (size 15 to 20)
#    0.000    2.000    1.250    2.625    0.000    6.500 
#    0.000    0.625    0.000    5.625    0.000    0.000 
#    0.000    0.000    0.000    0.000    0.000    0.000 
#
# Total GULP energy -357565.415968 kJ/mol
# GULP energy per Si atom -5586.959624 kJ/mol
# Density = 1.972805 g / cm^3
# Si number density = 19.773057 Si / 1000 Ang^3
#
#
#
# Elastic Constant Matrix: (Units=GPa)
#
#
# Indices 1 2 3 4 5 6 
#
# 1 146.7263 24.8820 75.4662 0.0000 0.0000 0.0000
# 2 24.8820 29.7457 17.9452 0.0000 0.0000 0.0000
# 3 75.4662 17.9452 149.3144 0.0000 0.0000 0.0000
# 4 0.0000 0.0000 0.0000 13.9927 0.0000 0.0000
# 5 0.0000 0.0000 0.0000 0.0000 35.4848 0.0000
# 6 0.0000 0.0000 0.0000 0.0000 0.0000 11.5306
#
#
#
# Elastic Compliance Matrix: (Units=1/GPa)
#
#
# Indices 1 2 3 4 5 6 
#
# 1 0.010048 -0.005759 -0.004386 0.000000 0.000000 0.000000
# 2 -0.005759 0.039547 -0.001842 0.000000 0.000000 0.000000
# 3 -0.004386 -0.001842 0.009136 0.000000 0.000000 0.000000
# 4 0.000000 0.000000 0.000000 0.071466 0.000000 0.000000
# 5 0.000000 0.000000 0.000000 0.000000 0.028181 0.000000
# 6 0.000000 0.000000 0.000000 0.000000 0.000000 0.086726
#
#
# Mechanical properties :
#
#
# Convention : Reuss Voigt Hill
#
# Bulk Modulus (GPa) = 28.77228 62.48592 45.62910
# Shear Modulus (GPa) = 17.81491 26.03448 21.92469
#
# Velocity S-wave (km/s) = 3.00487 3.63252 3.33350
# Velocity P-wave (km/s) = 5.15964 7.01882 6.15977
#
# Compressibility (1/GPa) = 0.03475567
#
# Stress axis : x y z
#
# Youngs Moduli (GPa) = 99.52182 25.28639 109.46160
#
# Poissons Ratio (x) = 0.14562 0.48014
# Poissons Ratio (y) = 0.57313 0.20166
# Poissons Ratio (z) = 0.43654 0.04658
#
# Static dielectric constant tensor:
#      x y z
#    x 1.678560 0.000000 0.000000 
#    y 0.000000 1.713880 0.000000 
#    z 0.000000 0.000000 1.664540 
# 
# From -- ./inp_files/22273.got.cif
#   From: 2010.05.17/outbox.cif.g08.bks.cpg/sg51_12_cif.got.tgz:22273.got - 2010.06.03 11:52:47.
