data_PCOD9402074
_publ_section_title
;
Structure prediction by ZEFSAII (Michael W. Deem and Ramdas Pophale) SiO2 
 PCOD9402074
Probable space group: P M M A
;
_chemical_formula_sum "Si O2"
_cell_formula_units_Z 48
_cell_length_a 8.483246
_cell_length_b 32.403944
_cell_length_c 9.258344
_cell_angle_alpha 90.000000
_cell_angle_beta 90.000000
_cell_angle_gamma 90.000000
_cell_volume 2545.031999
_symmetry_space_group_name_H-M "P M M A"
_symmetry_group_IT_number 51
_symmetry_cell_setting 'orthorhombic'
loop_
_space_group_symop_operation_xyz
x,y,z
1/2-x,-y,z
1/2+x,-y,-z
-x,y,-z
-x,-y,-z
1/2+x,y,-z
1/2-x,y,z
x,-y,z
loop_
_atom_site_type_symbol
_atom_site_label
_atom_site_fract_x
_atom_site_fract_y
_atom_site_fract_z
Si Si1 0.940680 0.418796 0.837241
Si Si2 0.940437 0.500000 0.662984
Si Si3 0.939964 0.157839 0.665309
Si Si4 0.559181 0.338156 0.664641
Si Si5 0.937735 0.079022 0.163021
Si Si6 0.060101 0.751729 0.335363
Si Si7 0.437793 0.000000 0.336792
O O1 0.750000 0.418637 0.838151
O O2 0.992865 0.458869 0.746989
O O3 0.995059 0.376727 0.759532
O O4 0.000000 0.421088 0.000000
O O5 0.750000 0.500000 0.661219
O O6 0.000000 0.500000 0.500000
O O7 0.750000 0.155570 0.664086
O O8 0.989309 0.203456 0.723171
O O9 0.000000 0.153999 0.500000
O O10 0.007054 0.121100 0.760747
O O11 0.500000 0.342197 0.500000
O O12 0.750000 0.338856 0.661151
O O13 0.508913 0.292924 0.724352
O O14 0.750000 0.077160 0.162152
O O15 0.002748 0.040463 0.253612
O O16 0.000000 0.077081 0.000000
O O17 0.250000 0.751822 0.335245
O O18 0.000000 0.751527 0.500000
O O19 0.500000 0.000000 0.500000
O O20 0.250000 0.000000 0.338790
#
# Coordination Sequence:
#
# PCOD9402074 Si02
#       7
#     8   4   8   8   8   8   4
#     4  10  21  35  51  73 104 137 173 213 261 316
#     4  10  21  36  54  78 102 130 169 216 262 314
#     4  10  19  34  56  83 112 146 185 228 273 322
#     4   9  17  31  51  76 103 135 175 221 265 314
#     4  12  25  42  61  85 116 151 187 227 275 328
#     4   8  15  28  49  75 105 137 175 221 268 312
#     4  12  25  44  67  92 118 148 186 228 271 320
#
# _framework density 18.860274
#
# number of rings (size 3 to 8) (size 9 to 14) (size 15 to 20)
#    0.000    2.000    0.000    4.250    0.000    2.000 
#    0.000    0.833    0.000    2.000    0.000    0.000 
#    0.000    0.000    0.000    0.000    0.000    0.000 
#
# Total GULP energy -267884.103394 kJ/mol
# GULP energy per Si atom -5580.918821 kJ/mol
# Density = 1.881735 g / cm^3
# Si number density = 18.860274 Si / 1000 Ang^3
#
#
#
# Elastic Constant Matrix: (Units=GPa)
#
#
# Indices 1 2 3 4 5 6 
#
# 1 68.3553 51.9147 34.4265 0.0000 0.0000 0.0000
# 2 51.9147 244.1168 112.3458 0.0000 0.0000 0.0000
# 3 34.4265 112.3458 135.1101 0.0000 0.0000 0.0000
# 4 0.0000 0.0000 0.0000 -14.7549 0.0000 0.0000
# 5 0.0000 0.0000 0.0000 0.0000 32.3715 0.0000
# 6 0.0000 0.0000 0.0000 0.0000 0.0000 2.8500
#
#
#
# Elastic Compliance Matrix: (Units=1/GPa)
#
#
# Indices 1 2 3 4 5 6 
#
# 1 0.017862 -0.002760 -0.002256 0.000000 0.000000 0.000000
# 2 -0.002760 0.007062 -0.005169 0.000000 0.000000 0.000000
# 3 -0.002256 -0.005169 0.012274 0.000000 0.000000 0.000000
# 4 0.000000 0.000000 0.000000 -0.067774 0.000000 0.000000
# 5 0.000000 0.000000 0.000000 0.000000 0.030891 0.000000
# 6 0.000000 0.000000 0.000000 0.000000 0.000000 0.350875
#
#
# Mechanical properties :
#
#
# Convention : Reuss Voigt Hill
#
# Bulk Modulus (GPa) = 59.42529 93.88402 76.65466
# Shear Modulus (GPa) = 13.25657 20.68632 16.97145
#
# Velocity S-wave (km/s) = 2.65407 3.31542 3.00301
# Velocity P-wave (km/s) = 6.40068 8.03385 7.26332
#
# Compressibility (1/GPa) = 0.01682785
#
# Stress axis : x y z
#
# Youngs Moduli (GPa) = 55.98439 141.59737 81.47077
#
# Poissons Ratio (x) = 0.39086 0.18380
# Poissons Ratio (y) = 0.15454 0.42112
# Poissons Ratio (z) = 0.12630 0.73192
#
# Static dielectric constant tensor:
#      x y z
#    x 1.650410 0.000000 0.000000 
#    y 0.000000 1.696290 0.000000 
#    z 0.000000 0.000000 1.589400 
# 
# From -- ./inp_files/6151.got.cif
#   From: 2010.05.17/outbox.cif.g08.bks.cpg/sg51_4_cif.got.tgz:6151.got - 2010.06.03 11:52:47.
