data_PCOD9402282
_publ_section_title
;
Structure prediction by ZEFSAII (Michael W. Deem and Ramdas Pophale) SiO2 
 PCOD9402282
Probable space group: P M M A
;
_chemical_formula_sum "Si O2"
_cell_formula_units_Z 48
_cell_length_a 15.627633
_cell_length_b 8.520946
_cell_length_c 19.500524
_cell_angle_alpha 90.000000
_cell_angle_beta 90.000000
_cell_angle_gamma 90.000000
_cell_volume 2596.733007
_symmetry_space_group_name_H-M "P M M A"
_symmetry_group_IT_number 51
_symmetry_cell_setting 'orthorhombic'
loop_
_space_group_symop_operation_xyz
x,y,z
1/2-x,-y,z
1/2+x,-y,-z
-x,y,-z
-x,-y,-z
1/2+x,y,-z
1/2-x,y,z
x,-y,z
loop_
_atom_site_type_symbol
_atom_site_label
_atom_site_fract_x
_atom_site_fract_y
_atom_site_fract_z
Si Si1 0.250000 0.313485 0.578625
Si Si2 0.250000 0.809337 0.424275
Si Si3 0.091907 0.809797 0.171203
Si Si4 0.250000 0.188561 0.919599
Si Si5 0.402054 0.686946 0.826205
Si Si6 0.750000 0.191449 0.922462
Si Si7 0.595630 0.809517 0.671854
Si Si8 0.099389 0.811373 0.673347
O O1 0.250000 0.500000 0.578087
O O2 0.250000 0.249917 0.501484
O O3 0.332707 0.253109 0.619833
O O4 0.333664 0.755947 0.381979
O O5 0.250000 0.000000 0.425304
O O6 0.165208 0.759025 0.118686
O O7 0.115308 0.764275 0.249498
O O8 0.998084 0.742867 0.156268
O O9 0.086260 0.000000 0.169614
O O10 0.166671 0.248996 0.879782
O O11 0.250000 0.000000 0.918410
O O12 0.250000 0.241608 0.998705
O O13 0.398524 0.500000 0.824126
O O14 0.381643 0.752850 0.750288
O O15 0.750000 0.000000 0.921608
O O16 0.498148 0.761227 0.656678
O O17 0.596933 0.000000 0.670542
O O18 0.102518 0.000000 0.673393
#
# Coordination Sequence:
#
# PCOD9402282 Si02
#       8
#     4   4   8   4   8   4   8   8
#     4  12  25  38  51  77 113 148 179 218 270 324
#     4  10  19  35  56  81 110 143 177 214 260 320
#     4   9  17  35  60  86 110 140 183 232 275 318
#     4  11  22  37  55  79 109 147 188 231 276 322
#     4  11  22  37  56  82 112 145 180 223 275 333
#     4   9  19  34  58  85 110 142 188 235 272 312
#     4   8  16  31  58  86 106 131 174 223 266 310
#     4  10  20  38  61  83 104 137 182 229 271 317
#
# _framework density 18.484766
#
# number of rings (size 3 to 8) (size 9 to 14) (size 15 to 20)
#    0.000    2.167    0.000    5.000    0.000    3.333 
#    0.000   12.917    0.000    0.000    0.000    0.000 
#    0.000    0.000    0.000    0.000    0.000    0.000 
#
# Total GULP energy -268041.991668 kJ/mol
# GULP energy per Si atom -5584.208160 kJ/mol
# Density = 1.844269 g / cm^3
# Si number density = 18.484766 Si / 1000 Ang^3
#
#
#
# Elastic Constant Matrix: (Units=GPa)
#
#
# Indices 1 2 3 4 5 6 
#
# 1 164.5383 42.5087 150.1896 0.0000 0.0000 0.0000
# 2 42.5087 63.4964 43.2416 0.0000 0.0000 0.0000
# 3 150.1896 43.2416 183.8556 0.0000 0.0000 0.0000
# 4 0.0000 0.0000 0.0000 -5.8983 0.0000 0.0000
# 5 0.0000 0.0000 0.0000 0.0000 -18.9573 0.0000
# 6 0.0000 0.0000 0.0000 0.0000 0.0000 -19.4079
#
#
#
# Elastic Compliance Matrix: (Units=1/GPa)
#
#
# Indices 1 2 3 4 5 6 
#
# 1 0.024461 -0.003296 -0.019206 0.000000 0.000000 0.000000
# 2 -0.003296 0.019197 -0.001823 0.000000 0.000000 0.000000
# 3 -0.019206 -0.001823 0.021557 0.000000 0.000000 0.000000
# 4 0.000000 0.000000 0.000000 -0.169539 0.000000 0.000000
# 5 0.000000 0.000000 0.000000 0.000000 -0.052750 0.000000
# 6 0.000000 0.000000 0.000000 0.000000 0.000000 -0.051526
#
#
# Mechanical properties :
#
#
# Convention : Reuss Voigt Hill
#
# Bulk Modulus (GPa) = 60.36928 98.19667 79.28297
# Shear Modulus (GPa) = -32.37729 2.87733 -14.74998
#
# Velocity S-wave (km/s) = -4.18971 1.24899 -2.82787
# Velocity P-wave (km/s) = 3.05367 7.43763 5.68521
#
# Compressibility (1/GPa) = 0.01656472
#
# Stress axis : x y z
#
# Youngs Moduli (GPa) = 40.88195 52.09269 46.38803
#
# Poissons Ratio (x) = 0.17169 0.89095
# Poissons Ratio (y) = 0.13474 0.08455
# Poissons Ratio (z) = 0.78520 0.09494
#
# Static dielectric constant tensor:
#      x y z
#    x 1.625540 0.000000 0.000000 
#    y 0.000000 1.619550 0.000000 
#    z 0.000000 0.000000 1.607910 
# 
# From -- ./inp_files/29674.got.cif
#   From: 2010.05.17/outbox.cif.g08.bks.cpg/sg51_15_cif.got.tgz:29674.got - 2010.06.03 11:52:47.
