data_PCOD9402731
_publ_section_title
;
Structure prediction by ZEFSAII (Michael W. Deem and Ramdas Pophale) SiO2 
 PCOD9402731
Probable space group: P M M A
;
_chemical_formula_sum "Si O2"
_cell_formula_units_Z 56
_cell_length_a 8.552421
_cell_length_b 19.741349
_cell_length_c 19.113790
_cell_angle_alpha 90.000000
_cell_angle_beta 90.000000
_cell_angle_gamma 90.000000
_cell_volume 3227.102113
_symmetry_space_group_name_H-M "P M M A"
_symmetry_group_IT_number 51
_symmetry_cell_setting 'orthorhombic'
loop_
_space_group_symop_operation_xyz
x,y,z
1/2-x,-y,z
1/2+x,-y,-z
-x,y,-z
-x,-y,-z
1/2+x,y,-z
1/2-x,y,z
x,-y,z
loop_
_atom_site_type_symbol
_atom_site_label
_atom_site_fract_x
_atom_site_fract_y
_atom_site_fract_z
Si Si1 0.564836 0.652764 0.424190
Si Si2 0.939284 0.293943 0.791480
Si Si3 0.937212 0.790353 0.923423
Si Si4 0.939224 0.423232 0.711519
Si Si5 0.061833 0.781971 0.352786
Si Si6 0.438938 0.075634 0.305604
Si Si7 0.562794 0.923475 0.147459
O O1 0.500000 0.634186 0.500000
O O2 0.750000 0.646167 0.422949
O O3 0.492496 0.606707 0.362881
O O4 0.517061 0.730162 0.405987
O O5 0.750000 0.295571 0.795465
O O6 0.996363 0.261215 0.863299
O O7 0.992777 0.369080 0.769974
O O8 0.976364 0.246201 0.725078
O O9 0.750000 0.788111 0.924295
O O10 0.989327 0.865148 0.899546
O O11 0.000000 0.774454 0.000000
O O12 0.750000 0.423179 0.712019
O O13 0.993658 0.500000 0.721861
O O14 0.250000 0.776902 0.361532
O O15 0.014319 0.860608 0.353175
O O16 0.250000 0.078183 0.299745
O O17 0.506481 0.084850 0.227629
O O18 0.483271 0.000000 0.329947
O O19 0.750000 0.918176 0.145233
O O20 0.517884 0.000000 0.125799
#
# Coordination Sequence:
#
# PCOD9402731 Si02
#       7
#     8   8   8   8   8   8   8
#     4  11  22  35  52  77 108 141 171 203 244 293
#     4   8  15  30  51  74  98 126 163 204 246 295
#     4  11  21  34  50  70  97 133 173 215 260 308
#     4   9  18  35  59  83 105 132 165 202 245 296
#     4   9  16  31  52  74 100 132 171 212 252 299
#     4   9  16  28  49  74  99 131 169 210 257 305
#     4  10  20  32  46  68  99 132 169 213 259 308
#
# _framework density 17.35303
#
# number of rings (size 3 to 8) (size 9 to 14) (size 15 to 20)
#    0.000    2.429    1.429    3.000    0.000    2.286 
#    0.000    0.714    0.000    0.857    0.000    0.000 
#    0.000    0.000    0.000    0.000    0.000    0.143 
#
# Total GULP energy -312257.917099 kJ/mol
# GULP energy per Si atom -5576.034234 kJ/mol
# Density = 1.731353 g / cm^3
# Si number density = 17.353030 Si / 1000 Ang^3
#
#
#
# Elastic Constant Matrix: (Units=GPa)
#
#
# Indices 1 2 3 4 5 6 
#
# 1 20.7928 20.9427 8.5678 0.0000 0.0000 0.0000
# 2 20.9427 132.8115 44.4656 0.0000 0.0000 0.0000
# 3 8.5678 44.4656 61.7338 0.0000 0.0000 0.0000
# 4 0.0000 0.0000 0.0000 15.8999 0.0000 0.0000
# 5 0.0000 0.0000 0.0000 0.0000 23.3896 0.0000
# 6 0.0000 0.0000 0.0000 0.0000 0.0000 14.5229
#
#
#
# Elastic Compliance Matrix: (Units=1/GPa)
#
#
# Indices 1 2 3 4 5 6 
#
# 1 0.057344 -0.008405 -0.001905 0.000000 0.000000 0.000000
# 2 -0.008405 0.011154 -0.006868 0.000000 0.000000 0.000000
# 3 -0.001905 -0.006868 0.021410 0.000000 0.000000 0.000000
# 4 0.000000 0.000000 0.000000 0.062894 0.000000 0.000000
# 5 0.000000 0.000000 0.000000 0.000000 0.042754 0.000000
# 6 0.000000 0.000000 0.000000 0.000000 0.000000 0.068857
#
#
# Mechanical properties :
#
#
# Convention : Reuss Voigt Hill
#
# Bulk Modulus (GPa) = 18.00080 40.36561 29.18320
# Shear Modulus (GPa) = 15.75878 20.18660 17.97269
#
# Velocity S-wave (km/s) = 3.01679 3.41440 3.22173
# Velocity P-wave (km/s) = 4.74663 6.23347 5.54015
#
# Compressibility (1/GPa) = 0.05555308
#
# Stress axis : x y z
#
# Youngs Moduli (GPa) = 17.43875 89.65349 46.70820
#
# Poissons Ratio (x) = 0.75350 0.08897
# Poissons Ratio (y) = 0.14657 0.32077
# Poissons Ratio (z) = 0.03322 0.61570
#
# Static dielectric constant tensor:
#      x y z
#    x 1.589090 0.000000 0.000000 
#    y 0.000000 1.620040 0.000000 
#    z 0.000000 0.000000 1.561100 
# 
# From -- ./inp_files/28273.got.cif
#   From: 2010.05.17/outbox.cif.g08.bks.cpg/sg51_15_cif.got.tgz:28273.got - 2010.06.03 11:52:47.
