data_PCOD9402116
_publ_section_title
;
Structure prediction by ZEFSAII (Michael W. Deem and Ramdas Pophale) SiO2 
 PCOD9402116
Probable space group: P M M A
;
_chemical_formula_sum "Si O2"
_cell_formula_units_Z 48
_cell_length_a 7.955350
_cell_length_b 10.442613
_cell_length_c 28.456057
_cell_angle_alpha 90.000000
_cell_angle_beta 90.000000
_cell_angle_gamma 90.000000
_cell_volume 2363.976729
_symmetry_space_group_name_H-M "P M M A"
_symmetry_group_IT_number 51
_symmetry_cell_setting 'orthorhombic'
loop_
_space_group_symop_operation_xyz
x,y,z
1/2-x,-y,z
1/2+x,-y,-z
-x,y,-z
-x,-y,-z
1/2+x,y,-z
1/2-x,y,z
x,-y,z
loop_
_atom_site_type_symbol
_atom_site_label
_atom_site_fract_x
_atom_site_fract_y
_atom_site_fract_z
Si Si1 0.952689 0.145107 0.553574
Si Si2 0.044036 0.645505 0.371379
Si Si3 0.043930 0.000000 0.227724
Si Si4 0.550167 0.500000 0.093030
Si Si5 0.047766 0.270268 0.267844
Si Si6 0.549163 0.500000 0.199706
Si Si7 0.956275 0.000000 0.880801
Si Si8 0.449378 0.772309 0.053008
O O1 0.750000 0.142727 0.556507
O O2 0.013243 0.250872 0.590414
O O3 0.000000 0.176101 0.500000
O O4 0.013136 0.000000 0.563750
O O5 0.250000 0.646619 0.371351
O O6 0.991953 0.500000 0.381891
O O7 0.987873 0.684515 0.319023
O O8 0.987052 0.870202 0.253028
O O9 0.991177 0.000000 0.173302
O O10 0.250000 0.000000 0.228318
O O11 0.750000 0.500000 0.096061
O O12 0.481212 0.500000 0.146434
O O13 0.499637 0.628633 0.066281
O O14 0.250000 0.263966 0.270652
O O15 0.005481 0.375079 0.228590
O O16 0.750000 0.500000 0.197648
O O17 0.015231 0.874868 0.909200
O O18 0.750000 0.000000 0.880583
O O19 0.250000 0.779227 0.055263
O O20 0.500000 0.804788 0.000000
#
# Coordination Sequence:
#
# PCOD9402116 Si02
#       8
#     8   8   4   4   8   4   4   8
#     4   9  18  32  51  74 104 139 178 223 271 322
#     4   9  17  30  50  78 106 135 177 224 267 317
#     4   9  18  31  54  86 111 133 179 233 270 315
#     4  11  24  40  57  81 112 147 187 226 269 323
#     4  10  19  34  57  83 110 143 182 227 276 327
#     4  11  23  38  56  79 112 149 184 224 270 325
#     4   9  19  35  54  82 114 143 177 221 270 325
#     4  11  22  38  60  84 113 145 181 225 275 326
#
# _framework density 20.304770000000001
#
# number of rings (size 3 to 8) (size 9 to 14) (size 15 to 20)
#    0.000    2.167    0.833    2.500    1.167    3.000 
#    0.000    2.500    0.000    4.000    0.000    0.000 
#    0.000    0.000    0.000    0.000    0.000    0.000 
#
# Total GULP energy -268127.870625 kJ/mol
# GULP energy per Si atom -5585.997305 kJ/mol
# Density = 2.025856 g / cm^3
# Si number density = 20.304770 Si / 1000 Ang^3
#
#
#
# Elastic Constant Matrix: (Units=GPa)
#
#
# Indices 1 2 3 4 5 6 
#
# 1 18.5101 8.9090 6.8604 0.0000 0.0000 0.0000
# 2 8.9090 139.2755 56.7863 0.0000 0.0000 0.0000
# 3 6.8604 56.7863 111.9198 0.0000 0.0000 0.0000
# 4 0.0000 0.0000 0.0000 44.9089 0.0000 0.0000
# 5 0.0000 0.0000 0.0000 0.0000 21.5810 0.0000
# 6 0.0000 0.0000 0.0000 0.0000 0.0000 9.6666
#
#
#
# Elastic Compliance Matrix: (Units=1/GPa)
#
#
# Indices 1 2 3 4 5 6 
#
# 1 0.056108 -0.002757 -0.002040 0.000000 0.000000 0.000000
# 2 -0.002757 0.009188 -0.004493 0.000000 0.000000 0.000000
# 3 -0.002040 -0.004493 0.011340 0.000000 0.000000 0.000000
# 4 0.000000 0.000000 0.000000 0.022267 0.000000 0.000000
# 5 0.000000 0.000000 0.000000 0.000000 0.046337 0.000000
# 6 0.000000 0.000000 0.000000 0.000000 0.000000 0.103448
#
#
# Mechanical properties :
#
#
# Convention : Reuss Voigt Hill
#
# Bulk Modulus (GPa) = 17.22507 46.09076 31.65791
# Shear Modulus (GPa) = 17.44463 28.37463 22.90963
#
# Velocity S-wave (km/s) = 2.93429 3.74229 3.36264
# Velocity P-wave (km/s) = 4.47009 6.43597 5.54091
#
# Compressibility (1/GPa) = 0.05805492
#
# Stress axis : x y z
#
# Youngs Moduli (GPa) = 17.82282 108.83427 88.18569
#
# Poissons Ratio (x) = 0.30007 0.17993
# Poissons Ratio (y) = 0.04914 0.39622
# Poissons Ratio (z) = 0.03637 0.48899
#
# Static dielectric constant tensor:
#      x y z
#    x 1.726190 0.000000 0.000000 
#    y 0.000000 1.714820 0.000000 
#    z 0.000000 0.000000 1.716230 
# 
# From -- ./inp_files/37267.got.cif
#   From: 2010.05.17/outbox.cif.g08.bks.cpg/sg51_19_cif.got.tgz:37267.got - 2010.06.03 11:52:47.
