data_PCOD9402184
_publ_section_title
;
Structure prediction by ZEFSAII (Michael W. Deem and Ramdas Pophale) SiO2 
 PCOD9402184
Probable space group: P M M A
;
_chemical_formula_sum "Si O2"
_cell_formula_units_Z 64
_cell_length_a 15.463245
_cell_length_b 8.868567
_cell_length_c 24.809771
_cell_angle_alpha 90.000000
_cell_angle_beta 90.000000
_cell_angle_gamma 90.000000
_cell_volume 3402.333207
_symmetry_space_group_name_H-M "P M M A"
_symmetry_group_IT_number 51
_symmetry_cell_setting 'orthorhombic'
loop_
_space_group_symop_operation_xyz
x,y,z
1/2-x,-y,z
1/2+x,-y,-z
-x,y,-z
-x,-y,-z
1/2+x,y,-z
1/2-x,y,z
x,-y,z
loop_
_atom_site_type_symbol
_atom_site_label
_atom_site_fract_x
_atom_site_fract_y
_atom_site_fract_z
Si Si1 0.845339 0.681514 0.889133
Si Si2 0.854937 0.672649 0.494995
Si Si3 0.396169 0.175639 0.998800
Si Si4 0.005313 0.318604 0.313547
Si Si5 0.648032 0.180519 0.381377
Si Si6 0.651311 0.819126 0.121173
Si Si7 0.998556 0.318153 0.811361
Si Si8 0.647676 0.819467 0.608441
O O1 0.750000 0.729720 0.871200
O O2 0.848150 0.500000 0.889244
O O3 0.919570 0.736295 0.848850
O O4 0.861106 0.737232 0.949713
O O5 0.750000 0.669757 0.495452
O O6 0.885814 0.500000 0.493639
O O7 0.878550 0.760264 0.440670
O O8 0.880130 0.754690 0.550138
O O9 0.365250 0.231943 0.940505
O O10 0.370273 0.000000 0.003511
O O11 0.500000 0.183583 0.000000
O O12 0.006185 0.500000 0.317542
O O13 0.085820 0.252061 0.346844
O O14 0.916604 0.255810 0.339046
O O15 0.011031 0.274257 0.250821
O O16 0.750000 0.218726 0.372850
O O17 0.640262 0.000000 0.379414
O O18 0.750000 0.787943 0.135855
O O19 0.585177 0.743713 0.161768
O O20 0.637708 0.000000 0.121510
O O21 0.999897 0.500000 0.813192
O O22 0.750000 0.782938 0.616519
O O23 0.639420 0.000000 0.608356
#
# Coordination Sequence:
#
# PCOD9402184 Si02
#       8
#     8   8   8   8   8   8   8   8
#     4  10  21  37  58  84 113 147 186 229 280 336
#     4   9  17  32  57  88 120 152 187 230 282 342
#     4  10  19  34  58  86 116 149 182 224 278 334
#     4  11  24  40  59  83 111 150 197 242 287 338
#     4  10  21  38  60  86 117 152 189 235 291 345
#     4  10  21  37  58  84 114 148 186 229 279 336
#     4  10  23  41  58  79 110 147 190 239 284 330
#     4  10  21  38  60  87 119 152 188 234 286 341
#
# _framework density 18.810621000000001
#
# number of rings (size 3 to 8) (size 9 to 14) (size 15 to 20)
#    0.000    2.000    1.250    1.875    0.000    7.250 
#    0.000    6.250    0.000    0.000    0.000    0.000 
#    0.000    0.000    0.000    0.000    0.000    0.000 
#
# Total GULP energy -357465.917989 kJ/mol
# GULP energy per Si atom -5585.404969 kJ/mol
# Density = 1.876781 g / cm^3
# Si number density = 18.810621 Si / 1000 Ang^3
#
#
#
# Elastic Constant Matrix: (Units=GPa)
#
#
# Indices 1 2 3 4 5 6 
#
# 1 69.9516 27.2671 31.7916 0.0000 0.0000 0.0000
# 2 27.2671 41.5563 25.7893 0.0000 0.0000 0.0000
# 3 31.7916 25.7893 93.2706 0.0000 0.0000 0.0000
# 4 0.0000 0.0000 0.0000 2133.8138 0.0000 0.0000
# 5 0.0000 0.0000 0.0000 0.0000 1.0282 0.0000
# 6 0.0000 0.0000 0.0000 0.0000 0.0000 27.5967
#
#
#
# Elastic Compliance Matrix: (Units=1/GPa)
#
#
# Indices 1 2 3 4 5 6 
#
# 1 0.020326 -0.010909 -0.003912 0.000000 0.000000 0.000000
# 2 -0.010909 0.034903 -0.005932 0.000000 0.000000 0.000000
# 3 -0.003912 -0.005932 0.013695 0.000000 0.000000 0.000000
# 4 0.000000 0.000000 0.000000 0.000469 0.000000 0.000000
# 5 0.000000 0.000000 0.000000 0.000000 0.972561 0.000000
# 6 0.000000 0.000000 0.000000 0.000000 0.000000 0.036236
#
#
# Mechanical properties :
#
#
# Convention : Reuss Voigt Hill
#
# Bulk Modulus (GPa) = 36.47274 41.60829 39.04051
# Shear Modulus (GPa) = 4.42934 440.48311 222.45623
#
# Velocity S-wave (km/s) = 1.53617 15.31913 10.88658
# Velocity P-wave (km/s) = 4.75163 18.30487 13.37248
#
# Compressibility (1/GPa) = 0.02741774
#
# Stress axis : x y z
#
# Youngs Moduli (GPa) = 49.19859 28.65063 73.01876
#
# Poissons Ratio (x) = 0.31255 0.28563
# Poissons Ratio (y) = 0.53671 0.43317
# Poissons Ratio (z) = 0.19245 0.16996
#
# Static dielectric constant tensor:
#      x y z
#    x 1.658560 0.000000 0.000000 
#    y 0.000000 1.636160 0.000000 
#    z 0.000000 0.000000 1.619070 
# 
# From -- ./inp_files/35864.got.cif
#   From: 2010.05.17/outbox.cif.g08.bks.cpg/sg51_18_cif.got.tgz:35864.got - 2010.06.03 11:52:47.
