data_PCOD9402444
_publ_section_title
;
Structure prediction by ZEFSAII (Michael W. Deem and Ramdas Pophale) SiO2 
 PCOD9402444
Probable space group: P M M A
;
_chemical_formula_sum "Si O2"
_cell_formula_units_Z 48
_cell_length_a 7.945184
_cell_length_b 17.286608
_cell_length_c 17.432057
_cell_angle_alpha 90.000000
_cell_angle_beta 90.000000
_cell_angle_gamma 90.000000
_cell_volume 2394.210772
_symmetry_space_group_name_H-M "P M M A"
_symmetry_group_IT_number 51
_symmetry_cell_setting 'orthorhombic'
loop_
_space_group_symop_operation_xyz
x,y,z
1/2-x,-y,z
1/2+x,-y,-z
-x,y,-z
-x,-y,-z
1/2+x,y,-z
1/2-x,y,z
x,-y,z
loop_
_atom_site_type_symbol
_atom_site_label
_atom_site_fract_x
_atom_site_fract_y
_atom_site_fract_z
Si Si1 0.043813 0.000000 0.130467
Si Si2 0.946198 0.697424 0.804324
Si Si3 0.562471 0.695677 0.619691
Si Si4 0.451391 0.000000 0.307926
Si Si5 0.750000 0.589313 0.386263
Si Si6 0.552920 0.863897 0.418915
Si Si7 0.250000 0.412263 0.800924
Si Si8 0.451312 0.166829 0.083416
O O1 0.981390 0.920287 0.093500
O O2 0.250000 0.000000 0.126773
O O3 0.995711 0.000000 0.219700
O O4 0.750000 0.680502 0.823989
O O5 0.952953 0.704843 0.712159
O O6 0.999231 0.775863 0.847781
O O7 0.081393 0.632331 0.825570
O O8 0.750000 0.666342 0.602195
O O9 0.415922 0.638284 0.592208
O O10 0.540589 0.782166 0.588441
O O11 0.512052 0.923647 0.351768
O O12 0.250000 0.000000 0.309835
O O13 0.750000 0.500000 0.412725
O O14 0.750000 0.587031 0.292601
O O15 0.500000 0.900063 0.500000
O O16 0.750000 0.847326 0.418276
O O17 0.250000 0.500000 0.827754
O O18 0.250000 0.161765 0.086811
O O19 0.500000 0.197725 0.000000
#
# Coordination Sequence:
#
# PCOD9402444 Si02
#       8
#     4   8   8   4   4   8   4   8
#     4   9  19  37  57  78 113 147 188 235 282 335
#     4   9  19  34  55  82 114 148 189 233 286 341
#     4  10  19  36  59  85 115 154 193 237 292 344
#     4  11  22  39  60  82 112 153 194 240 291 339
#     4   9  18  34  56  89 121 147 185 241 289 345
#     4  12  24  39  57  84 115 153 194 241 283 341
#     4   9  18  32  56  85 113 143 183 235 289 337
#     4  10  20  34  53  80 109 151 189 233 281 335
#
# _framework density 20.048361
#
# number of rings (size 3 to 8) (size 9 to 14) (size 15 to 20)
#    0.000    2.000    0.833    3.250    1.167    3.333 
#    0.000    5.000    0.000    1.000    0.000    0.000 
#    0.000    0.000    0.000    0.000    0.000    0.000 
#
# Total GULP energy -268119.490429 kJ/mol
# GULP energy per Si atom -5585.822717 kJ/mol
# Density = 2.000273 g / cm^3
# Si number density = 20.048361 Si / 1000 Ang^3
#
#
#
# Elastic Constant Matrix: (Units=GPa)
#
#
# Indices 1 2 3 4 5 6 
#
# 1 94.8503 44.5793 18.6251 0.0000 0.0000 0.0000
# 2 44.5793 111.2695 14.0467 0.0000 0.0000 0.0000
# 3 18.6251 14.0467 50.6027 0.0000 0.0000 0.0000
# 4 0.0000 0.0000 0.0000 -46.5739 0.0000 0.0000
# 5 0.0000 0.0000 0.0000 0.0000 18.0205 0.0000
# 6 0.0000 0.0000 0.0000 0.0000 0.0000 90.4028
#
#
#
# Elastic Compliance Matrix: (Units=1/GPa)
#
#
# Indices 1 2 3 4 5 6 
#
# 1 0.013600 -0.004992 -0.003620 0.000000 0.000000 0.000000
# 2 -0.004992 0.011146 -0.001257 0.000000 0.000000 0.000000
# 3 -0.003620 -0.001257 0.021443 0.000000 0.000000 0.000000
# 4 0.000000 0.000000 0.000000 -0.021471 0.000000 0.000000
# 5 0.000000 0.000000 0.000000 0.000000 0.055492 0.000000
# 6 0.000000 0.000000 0.000000 0.000000 0.000000 0.011062
#
#
# Mechanical properties :
#
#
# Convention : Reuss Voigt Hill
#
# Bulk Modulus (GPa) = 37.80448 45.69165 41.74806
# Shear Modulus (GPa) = 41.72745 24.33465 33.03105
#
# Velocity S-wave (km/s) = 4.56712 3.48774 4.06343
# Velocity P-wave (km/s) = 6.83440 6.24974 6.54860
#
# Compressibility (1/GPa) = 0.02645189
#
# Stress axis : x y z
#
# Youngs Moduli (GPa) = 73.53032 89.72064 46.63527
#
# Poissons Ratio (x) = 0.44786 0.16882
# Poissons Ratio (y) = 0.36704 0.05860
# Poissons Ratio (z) = 0.26618 0.11275
#
# Static dielectric constant tensor:
#      x y z
#    x 1.707210 0.000000 0.000000 
#    y 0.000000 1.697500 0.000000 
#    z 0.000000 0.000000 1.694040 
# 
# From -- ./inp_files/27719.got.cif
#   From: 2010.05.17/outbox.cif.g08.bks.cpg/sg51_14_cif.got.tgz:27719.got - 2010.06.03 11:52:47.
