data_PCOD9402040
_publ_section_title
;
Structure prediction by ZEFSAII (Michael W. Deem and Ramdas Pophale) SiO2 
 PCOD9402040
Probable space group: P M M A
;
_chemical_formula_sum "Si O2"
_cell_formula_units_Z 44
_cell_length_a 8.242663
_cell_length_b 29.540270
_cell_length_c 9.714633
_cell_angle_alpha 90.000000
_cell_angle_beta 90.000000
_cell_angle_gamma 90.000000
_cell_volume 2365.420755
_symmetry_space_group_name_H-M "P M M A"
_symmetry_group_IT_number 51
_symmetry_cell_setting 'orthorhombic'
loop_
_space_group_symop_operation_xyz
x,y,z
1/2-x,-y,z
1/2+x,-y,-z
-x,y,-z
-x,-y,-z
1/2+x,y,-z
1/2-x,y,z
x,-y,z
loop_
_atom_site_type_symbol
_atom_site_label
_atom_site_fract_x
_atom_site_fract_y
_atom_site_fract_z
Si Si1 0.443640 0.182821 0.842806
Si Si2 0.554540 0.000000 0.658680
Si Si3 0.553989 0.632498 0.344064
Si Si4 0.446202 0.265549 0.656682
Si Si5 0.944690 0.900923 0.658926
Si Si6 0.553960 0.550204 0.157262
O O1 0.250000 0.185028 0.842980
O O2 0.505805 0.227284 0.761453
O O3 0.494459 0.138920 0.755887
O O4 0.500000 0.181049 0.000000
O O5 0.500000 0.000000 0.500000
O O6 0.498928 0.049158 0.711345
O O7 0.750000 0.000000 0.665895
O O8 0.500000 0.624408 0.500000
O O9 0.750000 0.632505 0.339091
O O10 0.499248 0.683435 0.306121
O O11 0.493613 0.592126 0.247508
O O12 0.500000 0.256002 0.500000
O O13 0.250000 0.265221 0.657977
O O14 0.750000 0.900429 0.658746
O O15 0.000000 0.894997 0.500000
O O16 0.750000 0.550639 0.161454
O O17 0.500275 0.500000 0.205024
O O18 0.500000 0.555364 0.000000
#
# Coordination Sequence:
#
# PCOD9402040 Si02
#       6
#     8   4   8   8   8   8
#     4  11  23  37  52  74 103 135 171 211 255 302
#     4   8  16  30  51  78 105 132 166 206 246 292
#     4   9  18  33  51  73 100 128 161 203 249 296
#     4   9  19  35  54  74  98 129 165 204 248 299
#     4  10  19  34  56  81 107 136 170 208 250 297
#     4   9  18  32  49  70  98 131 166 203 243 290
#
# _framework density 18.601341000000001
#
# number of rings (size 3 to 8) (size 9 to 14) (size 15 to 20)
#    0.000    2.545    0.000    1.636    0.000    5.455 
#    0.000    0.455    0.000    0.000    0.000    0.000 
#    0.000    0.000    0.000    0.000    0.000    0.000 
#
# Total GULP energy -245319.719157 kJ/mol
# GULP energy per Si atom -5575.448163 kJ/mol
# Density = 1.855900 g / cm^3
# Si number density = 18.601341 Si / 1000 Ang^3
#
#
#
# Elastic Constant Matrix: (Units=GPa)
#
#
# Indices 1 2 3 4 5 6 
#
# 1 16.3810 23.9732 13.8578 0.0000 0.0000 0.0000
# 2 23.9732 218.7678 123.9879 0.0000 0.0000 0.0000
# 3 13.8578 123.9879 108.5632 0.0000 0.0000 0.0000
# 4 0.0000 0.0000 0.0000 -10.9353 0.0000 0.0000
# 5 0.0000 0.0000 0.0000 0.0000 29.7163 0.0000
# 6 0.0000 0.0000 0.0000 0.0000 0.0000 33.2122
#
#
#
# Elastic Compliance Matrix: (Units=1/GPa)
#
#
# Indices 1 2 3 4 5 6 
#
# 1 0.072717 -0.007677 -0.000514 0.000000 0.000000 0.000000
# 2 -0.007677 0.013770 -0.014746 0.000000 0.000000 0.000000
# 3 -0.000514 -0.014746 0.026118 0.000000 0.000000 0.000000
# 4 0.000000 0.000000 0.000000 -0.091447 0.000000 0.000000
# 5 0.000000 0.000000 0.000000 0.000000 0.033652 0.000000
# 6 0.000000 0.000000 0.000000 0.000000 0.000000 0.030109
#
#
# Mechanical properties :
#
#
# Convention : Reuss Voigt Hill
#
# Bulk Modulus (GPa) = 14.98589 74.14999 44.56794
# Shear Modulus (GPa) = 32.67167 22.52485 27.59826
#
# Velocity S-wave (km/s) = 4.19551 3.48361 3.85602
# Velocity P-wave (km/s) = 5.61636 7.49199 6.62093
#
# Compressibility (1/GPa) = 0.06672945
#
# Stress axis : x y z
#
# Youngs Moduli (GPa) = 13.75202 72.62193 38.28705
#
# Poissons Ratio (x) = 0.55752 0.01969
# Poissons Ratio (y) = 0.10557 0.56460
# Poissons Ratio (z) = 0.00707 1.07091
#
# Static dielectric constant tensor:
#      x y z
#    x 1.654260 0.000000 0.000000 
#    y 0.000000 1.694780 0.000000 
#    z 0.000000 0.000000 1.591420 
# 
# From -- ./inp_files/5700.got.cif
#   From: 2010.05.17/outbox.cif.g08.bks.cpg/sg51_3_cif.got.tgz:5700.got - 2010.06.03 11:52:47.
