data_PCOD9402670
_publ_section_title
;
Structure prediction by ZEFSAII (Michael W. Deem and Ramdas Pophale) SiO2 
 PCOD9402670
Probable space group: P M M A
;
_chemical_formula_sum "Si O2"
_cell_formula_units_Z 36
_cell_length_a 9.189365
_cell_length_b 12.952854
_cell_length_c 17.125521
_cell_angle_alpha 90.000000
_cell_angle_beta 90.000000
_cell_angle_gamma 90.000000
_cell_volume 2038.425131
_symmetry_space_group_name_H-M "P M M A"
_symmetry_group_IT_number 51
_symmetry_cell_setting 'orthorhombic'
loop_
_space_group_symop_operation_xyz
x,y,z
1/2-x,-y,z
1/2+x,-y,-z
-x,y,-z
-x,-y,-z
1/2+x,y,-z
1/2-x,y,z
x,-y,z
loop_
_atom_site_type_symbol
_atom_site_label
_atom_site_fract_x
_atom_site_fract_y
_atom_site_fract_z
Si Si1 0.421050 0.682557 0.300694
Si Si2 0.920657 0.617440 0.878450
Si Si3 0.577188 0.822202 0.076399
Si Si4 0.926511 0.500000 0.583990
Si Si5 0.424907 0.885812 0.748790
O O1 0.250000 0.703308 0.311883
O O2 0.435660 0.629773 0.215342
O O3 0.468921 0.601277 0.366076
O O4 0.505433 0.790302 0.296549
O O5 0.750000 0.637971 0.897208
O O6 0.955184 0.500000 0.900633
O O7 0.023064 0.703996 0.914844
O O8 0.750000 0.827785 0.067575
O O9 0.536557 0.873419 0.159215
O O10 0.500000 0.866766 0.000000
O O11 0.750000 0.500000 0.578123
O O12 0.000000 0.500000 0.500000
O O13 0.250000 0.878494 0.744193
O O14 0.469755 0.000000 0.722124
#
# Coordination Sequence:
#
# PCOD9402670 Si02
#       5
#     8   8   8   4   8
#     4   9  17  32  53  77 105 134 167 206 246 294
#     4   9  16  29  49  68  90 126 166 205 251 299
#     4  10  20  32  45  65  94 128 166 211 259 304
#     4  10  20  34  54  84 117 142 163 196 243 296
#     4   9  19  35  53  74 100 131 170 216 261 301
#
# _framework density 17.660692000000001
#
# number of rings (size 3 to 8) (size 9 to 14) (size 15 to 20)
#    0.000    2.667    1.111    0.667    0.000    3.556 
#    0.000    0.000    0.000    0.667    0.000    0.000 
#    0.000    0.000    0.000    0.000    0.000    0.000 
#
# Total GULP energy -200801.572042 kJ/mol
# GULP energy per Si atom -5577.821446 kJ/mol
# Density = 1.762050 g / cm^3
# Si number density = 17.660692 Si / 1000 Ang^3
#
#
#
# Elastic Constant Matrix: (Units=GPa)
#
#
# Indices 1 2 3 4 5 6 
#
# 1 29.4423 37.7677 30.7667 0.0000 0.0000 0.0000
# 2 37.7677 138.4939 43.1376 0.0000 0.0000 0.0000
# 3 30.7667 43.1376 90.3454 0.0000 0.0000 0.0000
# 4 0.0000 0.0000 0.0000 0.6269 0.0000 0.0000
# 5 0.0000 0.0000 0.0000 0.0000 27.7191 0.0000
# 6 0.0000 0.0000 0.0000 0.0000 0.0000 20.9834
#
#
#
# Elastic Compliance Matrix: (Units=1/GPa)
#
#
# Indices 1 2 3 4 5 6 
#
# 1 0.069215 -0.013548 -0.017102 0.000000 0.000000 0.000000
# 2 -0.013548 0.011134 -0.000702 0.000000 0.000000 0.000000
# 3 -0.017102 -0.000702 0.017228 0.000000 0.000000 0.000000
# 4 0.000000 0.000000 0.000000 1.595239 0.000000 0.000000
# 5 0.000000 0.000000 0.000000 0.000000 0.036076 0.000000
# 6 0.000000 0.000000 0.000000 0.000000 0.000000 0.047657
#
#
# Mechanical properties :
#
#
# Convention : Reuss Voigt Hill
#
# Bulk Modulus (GPa) = 28.67634 53.51396 41.09515
# Shear Modulus (GPa) = 2.70142 19.63985 11.17063
#
# Velocity S-wave (km/s) = 1.23812 3.33838 2.51771
# Velocity P-wave (km/s) = 4.27978 6.72508 5.63663
#
# Compressibility (1/GPa) = 0.03487196
#
# Stress axis : x y z
#
# Youngs Moduli (GPa) = 14.44765 89.81498 58.04518
#
# Poissons Ratio (x) = 1.21685 0.99268
# Poissons Ratio (y) = 0.19574 0.04077
# Poissons Ratio (z) = 0.24708 0.06308
#
# Static dielectric constant tensor:
#      x y z
#    x 1.588060 0.000000 0.000000 
#    y 0.000000 1.606690 0.000000 
#    z 0.000000 0.000000 1.600840 
# 
# From -- ./inp_files/20341.got.cif
#   From: 2010.05.17/outbox.cif.g08.bks.cpg/sg51_11_cif.got.tgz:20341.got - 2010.06.03 11:52:47.
