data_PCOD9402704
_publ_section_title
;
Structure prediction by ZEFSAII (Michael W. Deem and Ramdas Pophale) SiO2 
 PCOD9402704
Probable space group: P M M A
;
_chemical_formula_sum "Si O2"
_cell_formula_units_Z 64
_cell_length_a 14.499745
_cell_length_b 9.194826
_cell_length_c 26.603850
_cell_angle_alpha 90.000000
_cell_angle_beta 90.000000
_cell_angle_gamma 90.000000
_cell_volume 3546.895312
_symmetry_space_group_name_H-M "P M M A"
_symmetry_group_IT_number 51
_symmetry_cell_setting 'orthorhombic'
loop_
_space_group_symop_operation_xyz
x,y,z
1/2-x,-y,z
1/2+x,-y,-z
-x,y,-z
-x,-y,-z
1/2+x,y,-z
1/2-x,y,z
x,-y,z
loop_
_atom_site_type_symbol
_atom_site_label
_atom_site_fract_x
_atom_site_fract_y
_atom_site_fract_z
Si Si1 0.542360 0.824228 0.077695
Si Si2 0.144836 0.823692 0.026212
Si Si3 0.454550 0.324827 0.724798
Si Si4 0.858264 0.324491 0.170909
Si Si5 0.895488 0.836986 0.481835
Si Si6 0.855294 0.322468 0.685924
Si Si7 0.856845 0.340983 0.578497
Si Si8 0.139496 0.171081 0.630615
O O1 0.436814 0.779442 0.064543
O O2 0.584943 0.749465 0.126278
O O3 0.543980 0.000000 0.082742
O O4 0.605807 0.786870 0.029205
O O5 0.250000 0.771364 0.034291
O O6 0.147522 0.000000 0.028223
O O7 0.449192 0.500000 0.720900
O O8 0.402004 0.281516 0.775487
O O9 0.563155 0.283545 0.724086
O O10 0.406496 0.256662 0.676042
O O11 0.750000 0.284960 0.168622
O O12 0.864526 0.500000 0.166720
O O13 0.855581 0.742288 0.526493
O O14 0.888056 0.776636 0.425546
O O15 0.000000 0.848166 0.500000
O O16 0.855569 0.000000 0.480647
O O17 0.750000 0.274229 0.696994
O O18 0.853287 0.500000 0.683037
O O19 0.890639 0.270104 0.630488
O O20 0.750000 0.359245 0.591799
O O21 0.900838 0.500000 0.571485
O O22 0.250000 0.182462 0.634236
O O23 0.113989 0.000000 0.633551
#
# Coordination Sequence:
#
# PCOD9402704 Si02
#       8
#     8   8   8   8   8   8   8   8
#     4   9  17  30  52  79 102 133 177 211 238 286
#     4   8  14  27  49  78 110 138 167 208 250 283
#     4  10  20  35  55  74  93 124 166 206 243 289
#     4  10  21  35  49  70 103 135 163 205 256 293
#     4  10  20  32  46  66  93 123 152 185 233 293
#     4   8  15  30  52  75  96 119 152 197 246 291
#     4   9  17  29  46  68  90 112 144 186 229 278
#     4  10  21  35  49  68  97 129 159 197 245 291
#
# _framework density 18.043948
#
# number of rings (size 3 to 8) (size 9 to 14) (size 15 to 20)
#    0.000    2.750    0.000    3.375    0.000    3.500 
#    0.000    1.875    0.000    3.000    0.000    0.000 
#    0.000    0.000    0.000    0.000    0.000    0.000 
#
# Total GULP energy -356296.719834 kJ/mol
# GULP energy per Si atom -5567.136247 kJ/mol
# Density = 1.800288 g / cm^3
# Si number density = 18.043948 Si / 1000 Ang^3
#
#
#
# Elastic Constant Matrix: (Units=GPa)
#
#
# Indices 1 2 3 4 5 6 
#
# 1 143.2728 22.3216 83.6650 0.0000 0.0000 0.0000
# 2 22.3216 12.3811 28.6182 0.0000 0.0000 0.0000
# 3 83.6650 28.6182 128.0980 0.0000 0.0000 0.0000
# 4 0.0000 0.0000 0.0000 30.5128 0.0000 0.0000
# 5 0.0000 0.0000 0.0000 0.0000 29.7867 0.0000
# 6 0.0000 0.0000 0.0000 0.0000 0.0000 21.9441
#
#
#
# Elastic Compliance Matrix: (Units=1/GPa)
#
#
# Indices 1 2 3 4 5 6 
#
# 1 0.011570 -0.007015 -0.005990 0.000000 0.000000 0.000000
# 2 -0.007015 0.171268 -0.033681 0.000000 0.000000 0.000000
# 3 -0.005990 -0.033681 0.019243 0.000000 0.000000 0.000000
# 4 0.000000 0.000000 0.000000 0.032773 0.000000 0.000000
# 5 0.000000 0.000000 0.000000 0.000000 0.033572 0.000000
# 6 0.000000 0.000000 0.000000 0.000000 0.000000 0.045570
#
#
# Mechanical properties :
#
#
# Convention : Reuss Voigt Hill
#
# Bulk Modulus (GPa) = 9.19880 61.44017 35.31949
# Shear Modulus (GPa) = 11.27129 26.39186 18.83158
#
# Velocity S-wave (km/s) = 2.50203 3.82860 3.23406
# Velocity P-wave (km/s) = 3.66823 7.32588 5.79329
#
# Compressibility (1/GPa) = 0.10870979
#
# Stress axis : x y z
#
# Youngs Moduli (GPa) = 86.42767 5.83882 51.96616
#
# Poissons Ratio (x) = 0.04096 0.31127
# Poissons Ratio (y) = 0.60628 1.75027
# Poissons Ratio (z) = 0.51768 0.19666
#
# Static dielectric constant tensor:
#      x y z
#    x 1.648270 0.000000 0.000000 
#    y 0.000000 1.628840 0.000000 
#    z 0.000000 0.000000 1.621090 
# 
# From -- ./inp_files/35742.got.cif
#   From: 2010.05.17/outbox.cif.g08.bks.cpg/sg51_18_cif.got.tgz:35742.got - 2010.06.03 11:52:47.
