data_PCOD9402461
_publ_section_title
;
Structure prediction by ZEFSAII (Michael W. Deem and Ramdas Pophale) SiO2 
 PCOD9402461
Probable space group: P M M A
;
_chemical_formula_sum "Si O2"
_cell_formula_units_Z 38
_cell_length_a 16.112869
_cell_length_b 17.977423
_cell_length_c 4.742388
_cell_angle_alpha 90.000000
_cell_angle_beta 90.000000
_cell_angle_gamma 90.000000
_cell_volume 1373.717392
_symmetry_space_group_name_H-M "P M M A"
_symmetry_group_IT_number 51
_symmetry_cell_setting 'orthorhombic'
loop_
_space_group_symop_operation_xyz
x,y,z
1/2-x,-y,z
1/2+x,-y,-z
-x,y,-z
-x,-y,-z
1/2+x,y,-z
1/2-x,y,z
x,-y,z
loop_
_atom_site_type_symbol
_atom_site_label
_atom_site_fract_x
_atom_site_fract_y
_atom_site_fract_z
Si Si1 0.000000 0.000000 0.000000
Si Si2 0.584400 0.897146 0.642935
Si Si3 0.750000 0.582316 0.194623
Si Si4 0.750000 0.254066 0.146692
Si Si5 0.750000 0.920851 0.318987
Si Si6 0.916506 0.421846 0.811052
Si Si7 0.419535 0.734643 0.200750
O O1 0.929024 0.933577 0.947229
O O2 0.500000 0.927312 0.500000
O O3 0.668515 0.922514 0.510866
O O4 0.581977 0.808809 0.619871
O O5 0.750000 0.500000 0.346773
O O6 0.666458 0.580075 0.003037
O O7 0.750000 0.666873 0.328625
O O8 0.750000 0.165518 0.215795
O O9 0.834905 0.261591 0.974144
O O10 0.750000 0.000000 0.152702
O O11 0.915545 0.500000 0.649404
O O12 0.918657 0.344656 0.643921
O O13 0.000000 0.421589 0.000000
O O14 0.500000 0.738590 0.000000
#
# Coordination Sequence:
#
# PCOD9402461 Si02
#       7
#     2   8   4   4   4   8   8
#     4  12  26  46  72  86 120 166 210 264 310 396
#     4  12  26  46  67  98 128 165 215 269 322 382
#     4   8  14  27  50  82 118 159 210 260 308 368
#     4  10  21  37  61  92 127 171 215 262 322 386
#     4  12  27  42  63  94 131 164 213 270 322 378
#     4   8  14  25  47  80 114 150 201 249 291 362
#     4  10  19  36  60  87 120 165 205 250 317 372
#
# _framework density 27.662168999999999
#
# number of rings (size 3 to 8) (size 9 to 14) (size 15 to 20)
#    0.000    1.895    2.105    2.211    0.000    0.000 
#    0.000    1.053    0.000    1.895    0.000    0.000 
#    0.000    0.000    0.000    0.000    0.000    0.000 
#
# Total GULP energy -211879.090053 kJ/mol
# GULP energy per Si atom -5575.765528 kJ/mol
# Density = 2.759921 g / cm^3
# Si number density = 27.662169 Si / 1000 Ang^3
#
#
#
# Elastic Constant Matrix: (Units=GPa)
#
#
# Indices 1 2 3 4 5 6 
#
# 1 263.4354 20.2250 57.0934 0.0000 0.0000 0.0000
# 2 20.2250 392.1573 15.8202 0.0000 0.0000 0.0000
# 3 57.0934 15.8202 40.4923 0.0000 0.0000 0.0000
# 4 0.0000 0.0000 0.0000 -11.4585 0.0000 0.0000
# 5 0.0000 0.0000 0.0000 0.0000 63.2433 0.0000
# 6 0.0000 0.0000 0.0000 0.0000 0.0000 20.3884
#
#
#
# Elastic Compliance Matrix: (Units=1/GPa)
#
#
# Indices 1 2 3 4 5 6 
#
# 1 0.005467 0.000029 -0.007720 0.000000 0.000000 0.000000
# 2 0.000029 0.002591 -0.001054 0.000000 0.000000 0.000000
# 3 -0.007720 -0.001054 0.035992 0.000000 0.000000 0.000000
# 4 0.000000 0.000000 0.000000 -0.087271 0.000000 0.000000
# 5 0.000000 0.000000 0.000000 0.000000 0.015812 0.000000
# 6 0.000000 0.000000 0.000000 0.000000 0.000000 0.049048
#
#
# Mechanical properties :
#
#
# Convention : Reuss Voigt Hill
#
# Bulk Modulus (GPa) = 37.64765 98.04025 67.84395
# Shear Modulus (GPa) = 104.21017 54.63106 79.42062
#
# Velocity S-wave (km/s) = 6.14445 4.44885 5.36407
# Velocity P-wave (km/s) = 7.99865 7.86820 7.93369
#
# Compressibility (1/GPa) = 0.02656208
#
# Stress axis : x y z
#
# Youngs Moduli (GPa) = 182.92367 385.95268 27.78383
#
# Poissons Ratio (x) = -0.01138 0.21448
# Poissons Ratio (y) = -0.00539 0.02928
# Poissons Ratio (z) = 1.41209 0.40674
#
# Static dielectric constant tensor:
#      x y z
#    x 2.057750 0.000000 0.000000 
#    y 0.000000 2.199800 0.000000 
#    z 0.000000 0.000000 2.652730 
# 
# From -- ./inp_files/1978.got.cif
#   From: 2010.05.17/outbox.cif.g08.bks.cpg/sg51_1_cif.got.tgz:1978.got - 2010.06.03 11:52:47.
