data_PCOD9402015
_publ_section_title
;
Structure prediction by ZEFSAII (Michael W. Deem and Ramdas Pophale) SiO2 
 PCOD9402015
Probable space group: P M M A
;
_chemical_formula_sum "Si O2"
_cell_formula_units_Z 56
_cell_length_a 23.489290
_cell_length_b 8.433987
_cell_length_c 15.187766
_cell_angle_alpha 90.000000
_cell_angle_beta 90.000000
_cell_angle_gamma 90.000000
_cell_volume 3008.823513
_symmetry_space_group_name_H-M "P M M A"
_symmetry_group_IT_number 51
_symmetry_cell_setting 'orthorhombic'
loop_
_space_group_symop_operation_xyz
x,y,z
1/2-x,-y,z
1/2+x,-y,-z
-x,y,-z
-x,-y,-z
1/2+x,y,-z
1/2-x,y,z
x,-y,z
loop_
_atom_site_type_symbol
_atom_site_label
_atom_site_fract_x
_atom_site_fract_y
_atom_site_fract_z
Si Si1 0.990644 0.186499 0.395961
Si Si2 0.422311 0.191678 0.916367
Si Si3 0.095572 0.313958 0.290430
Si Si4 0.635454 0.691908 0.377631
Si Si5 0.686305 0.691232 0.191790
Si Si6 0.685068 0.693794 0.566631
Si Si7 0.950879 0.809977 0.886056
O O1 0.927366 0.237133 0.370397
O O2 0.000000 0.214016 0.500000
O O3 0.037086 0.283529 0.342387
O O4 0.998992 0.000000 0.377999
O O5 0.366099 0.252447 0.868191
O O6 0.483141 0.244089 0.874681
O O7 0.420836 0.000000 0.913354
O O8 0.427467 0.242134 0.018743
O O9 0.105038 0.500000 0.279333
O O10 0.144967 0.249504 0.354249
O O11 0.087938 0.239955 0.194789
O O12 0.631511 0.500000 0.378731
O O13 0.672450 0.737558 0.292789
O O14 0.661782 0.742993 0.471020
O O15 0.750000 0.746938 0.166764
O O16 0.686769 0.500000 0.188894
O O17 0.750000 0.743286 0.577820
O O18 0.683486 0.500000 0.566837
O O19 0.953336 0.000000 0.889185
#
# Coordination Sequence:
#
# PCOD9402015 Si02
#       7
#     8   8   8   8   8   8   8
#     4  11  22  34  50  75 110 145 175 217 271 314
#     4   9  19  37  59  80 104 140 179 216 267 330
#     4  11  21  33  54  82 108 138 178 219 261 315
#     4  10  19  34  56  78 104 140 182 222 262 314
#     4  10  21  35  53  81 113 143 178 224 273 315
#     4   9  18  33  52  73 101 139 179 216 254 303
#     4   9  19  37  59  81 107 137 172 220 276 325
#
# _framework density 18.611926
#
# number of rings (size 3 to 8) (size 9 to 14) (size 15 to 20)
#    0.000    2.143    1.429    3.000    0.000    6.571 
#    0.000    2.143    0.000    7.286    0.000    0.000 
#    0.000    0.000    0.000    0.000    0.000    0.000 
#
# Total GULP energy -312563.264269 kJ/mol
# GULP energy per Si atom -5581.486862 kJ/mol
# Density = 1.856956 g / cm^3
# Si number density = 18.611926 Si / 1000 Ang^3
#
#
#
# Elastic Constant Matrix: (Units=GPa)
#
#
# Indices 1 2 3 4 5 6 
#
# 1 136.9535 4.9753 62.8434 0.0000 0.0000 0.0000
# 2 4.9753 2.3829 10.2911 0.0000 0.0000 0.0000
# 3 62.8434 10.2911 90.1570 0.0000 0.0000 0.0000
# 4 0.0000 0.0000 0.0000 27.2630 0.0000 0.0000
# 5 0.0000 0.0000 0.0000 0.0000 23.8249 0.0000
# 6 0.0000 0.0000 0.0000 0.0000 0.0000 10.5430
#
#
#
# Elastic Compliance Matrix: (Units=1/GPa)
#
#
# Indices 1 2 3 4 5 6 
#
# 1 0.011217 0.020405 -0.010148 0.000000 0.000000 0.000000
# 2 0.020405 0.864768 -0.112933 0.000000 0.000000 0.000000
# 3 -0.010148 -0.112933 0.031056 0.000000 0.000000 0.000000
# 4 0.000000 0.000000 0.000000 0.036680 0.000000 0.000000
# 5 0.000000 0.000000 0.000000 0.000000 0.041973 0.000000
# 6 0.000000 0.000000 0.000000 0.000000 0.000000 0.094850
#
#
# Mechanical properties :
#
#
# Convention : Reuss Voigt Hill
#
# Bulk Modulus (GPa) = 1.42513 42.85700 22.14106
# Shear Modulus (GPa) = 3.28992 22.41840 12.85416
#
# Velocity S-wave (km/s) = 1.33097 3.47438 2.63086
# Velocity P-wave (km/s) = 1.76900 6.25873 4.59897
#
# Compressibility (1/GPa) = 0.70168948
#
# Stress axis : x y z
#
# Youngs Moduli (GPa) = 89.15046 1.15638 32.19968
#
# Poissons Ratio (x) = -0.02360 0.32676
# Poissons Ratio (y) = -1.81916 3.63642
# Poissons Ratio (z) = 0.90469 0.13059
#
# Static dielectric constant tensor:
#      x y z
#    x 1.625190 0.000000 0.000000 
#    y 0.000000 1.641050 0.000000 
#    z 0.000000 0.000000 1.647530 
# 
# From -- ./inp_files/25665.got.cif
#   From: 2010.05.17/outbox.cif.g08.bks.cpg/sg51_13_cif.got.tgz:25665.got - 2010.06.03 11:52:47.
