data_PCOD9402182
_publ_section_title
;
Structure prediction by ZEFSAII (Michael W. Deem and Ramdas Pophale) SiO2 
 PCOD9402182
Probable space group: P M M A
;
_chemical_formula_sum "Si O2"
_cell_formula_units_Z 64
_cell_length_a 25.856075
_cell_length_b 8.668601
_cell_length_c 14.975377
_cell_angle_alpha 90.000000
_cell_angle_beta 90.000000
_cell_angle_gamma 90.000000
_cell_volume 3356.521063
_symmetry_space_group_name_H-M "P M M A"
_symmetry_group_IT_number 51
_symmetry_cell_setting 'orthorhombic'
loop_
_space_group_symop_operation_xyz
x,y,z
1/2-x,-y,z
1/2+x,-y,-z
-x,y,-z
-x,-y,-z
1/2+x,y,-z
1/2-x,y,z
x,-y,z
loop_
_atom_site_type_symbol
_atom_site_label
_atom_site_fract_x
_atom_site_fract_y
_atom_site_fract_z
Si Si1 0.602346 0.812364 0.655468
Si Si2 0.193300 0.814147 0.814228
Si Si3 0.509269 0.820181 0.777025
Si Si4 0.058784 0.186546 0.527429
Si Si5 0.052485 0.674308 0.055199
Si Si6 0.844158 0.185867 0.991962
Si Si7 0.592646 0.318116 0.281383
Si Si8 0.191355 0.811987 0.207677
O O1 0.547053 0.768699 0.697790
O O2 0.598136 0.766938 0.552157
O O3 0.648966 0.758349 0.719509
O O4 0.604071 0.000000 0.658112
O O5 0.250000 0.762694 0.782382
O O6 0.145258 0.749443 0.759015
O O7 0.191202 0.000000 0.808480
O O8 0.187736 0.774769 0.919513
O O9 0.543485 0.791676 0.864177
O O10 0.456353 0.727206 0.780117
O O11 0.496884 0.000000 0.765900
O O12 0.077319 0.251021 0.621835
O O13 0.000000 0.232413 0.500000
O O14 0.058319 0.000000 0.533187
O O15 0.062018 0.500000 0.088289
O O16 0.100552 0.733530 0.998986
O O17 0.000000 0.673496 0.000000
O O18 0.822087 0.232525 0.894679
O O19 0.849679 0.000000 0.990226
O O20 0.597131 0.500000 0.286790
O O21 0.250000 0.763675 0.228995
O O22 0.190292 0.000000 0.208880
#
# Coordination Sequence:
#
# PCOD9402182 Si02
#       8
#     8   8   8   8   8   8   8   8
#     4   9  17  31  54  84 113 144 184 235 292 340
#     4  10  22  41  64  89 116 153 205 256 294 336
#     4  11  20  36  59  83 113 149 193 242 292 346
#     4  10  19  36  61  86 116 152 193 242 290 346
#     4  11  23  35  48  76 118 158 193 235 291 352
#     4  10  19  34  58  86 113 148 195 242 288 341
#     4  12  25  39  58  88 122 156 193 238 303 369
#     4   9  16  29  53  86 118 144 180 234 288 338
#
# _framework density 19.067360999999998
#
# number of rings (size 3 to 8) (size 9 to 14) (size 15 to 20)
#    0.000    1.750    2.500    3.000    0.000    5.500 
#    0.000    0.625    0.000    3.375    0.000    0.000 
#    0.000    0.000    0.000    0.000    0.000    0.000 
#
# Total GULP energy -357169.518031 kJ/mol
# GULP energy per Si atom -5580.773719 kJ/mol
# Density = 1.902396 g / cm^3
# Si number density = 19.067361 Si / 1000 Ang^3
#
#
#
# Elastic Constant Matrix: (Units=GPa)
#
#
# Indices 1 2 3 4 5 6 
#
# 1 144.6675 30.3903 49.0444 0.0000 0.0000 0.0000
# 2 30.3903 21.4949 22.6628 0.0000 0.0000 0.0000
# 3 49.0444 22.6628 84.0440 0.0000 0.0000 0.0000
# 4 0.0000 0.0000 0.0000 5.2005 0.0000 0.0000
# 5 0.0000 0.0000 0.0000 0.0000 16.1970 0.0000
# 6 0.0000 0.0000 0.0000 0.0000 0.0000 -16.4734
#
#
#
# Elastic Compliance Matrix: (Units=1/GPa)
#
#
# Indices 1 2 3 4 5 6 
#
# 1 0.010321 -0.011516 -0.002917 0.000000 0.000000 0.000000
# 2 -0.011516 0.077853 -0.014273 0.000000 0.000000 0.000000
# 3 -0.002917 -0.014273 0.017450 0.000000 0.000000 0.000000
# 4 0.000000 0.000000 0.000000 0.192291 0.000000 0.000000
# 5 0.000000 0.000000 0.000000 0.000000 0.061740 0.000000
# 6 0.000000 0.000000 0.000000 0.000000 0.000000 -0.060704
#
#
# Mechanical properties :
#
#
# Convention : Reuss Voigt Hill
#
# Bulk Modulus (GPa) = 20.74234 50.48903 35.61569
# Shear Modulus (GPa) = 13.42525 10.85874 12.14199
#
# Velocity S-wave (km/s) = 2.65636 2.38899 2.52622
# Velocity P-wave (km/s) = 4.50671 5.84350 5.21809
#
# Compressibility (1/GPa) = 0.04821056
#
# Stress axis : x y z
#
# Youngs Moduli (GPa) = 96.89427 12.84475 57.30721
#
# Poissons Ratio (x) = 0.14792 0.16719
# Poissons Ratio (y) = 1.11580 0.81796
# Poissons Ratio (z) = 0.28268 0.18334
#
# Static dielectric constant tensor:
#      x y z
#    x 1.659160 0.000000 0.000000 
#    y 0.000000 1.644180 0.000000 
#    z 0.000000 0.000000 1.687850 
# 
# From -- ./inp_files/26259.got.cif
#   From: 2010.05.17/outbox.cif.g08.bks.cpg/sg51_14_cif.got.tgz:26259.got - 2010.06.03 11:52:47.
