data_PCOD9402374
_publ_section_title
;
Structure prediction by ZEFSAII (Michael W. Deem and Ramdas Pophale) SiO2 
 PCOD9402374
Probable space group: P M M A
;
_chemical_formula_sum "Si O2"
_cell_formula_units_Z 64
_cell_length_a 8.867802
_cell_length_b 25.860562
_cell_length_c 14.827805
_cell_angle_alpha 90.000000
_cell_angle_beta 90.000000
_cell_angle_gamma 90.000000
_cell_volume 3400.406302
_symmetry_space_group_name_H-M "P M M A"
_symmetry_group_IT_number 51
_symmetry_cell_setting 'orthorhombic'
loop_
_space_group_symop_operation_xyz
x,y,z
1/2-x,-y,z
1/2+x,-y,-z
-x,y,-z
-x,-y,-z
1/2+x,y,-z
1/2-x,y,z
x,-y,z
loop_
_atom_site_type_symbol
_atom_site_label
_atom_site_fract_x
_atom_site_fract_y
_atom_site_fract_z
Si Si1 0.930262 0.846996 0.597945
Si Si2 0.922842 0.936955 0.092329
Si Si3 0.069602 0.441320 0.726126
Si Si4 0.430810 0.244379 0.712279
Si Si5 0.931245 0.347024 0.400860
Si Si6 0.931165 0.715837 0.092672
Si Si7 0.569617 0.600733 0.906259
Si Si8 0.931512 0.940788 0.719200
O O1 0.750000 0.845938 0.591234
O O2 0.978153 0.901899 0.640672
O O3 0.000000 0.838751 0.500000
O O4 0.985657 0.802729 0.665495
O O5 0.750000 0.920218 0.095421
O O6 0.006571 0.922330 0.184171
O O7 0.925669 0.000000 0.090076
O O8 0.000000 0.918978 0.000000
O O9 0.250000 0.434691 0.741459
O O10 0.043491 0.500000 0.695506
O O11 0.022247 0.398609 0.652996
O O12 0.985361 0.430838 0.819804
O O13 0.250000 0.237457 0.703835
O O14 0.471366 0.297143 0.659383
O O15 0.465694 0.251772 0.817756
O O16 0.750000 0.347805 0.408726
O O17 0.000000 0.343900 0.500000
O O18 0.750000 0.710555 0.085249
O O19 0.002921 0.658801 0.104417
O O20 0.000000 0.737395 0.000000
O O21 0.750000 0.602484 0.912077
O O22 0.500000 0.580334 0.000000
O O23 0.750000 0.940914 0.723893
O O24 0.982087 0.000000 0.704258
#
# Coordination Sequence:
#
# PCOD9402374 Si02
#       8
#     8   8   8   8   8   8   8   8
#     4  11  24  40  60  86 115 147 190 238 289 343
#     4   9  16  27  48  79 112 147 187 230 275 327
#     4  10  21  39  59  79 111 152 192 238 288 339
#     4  10  21  39  62  85 116 151 187 233 281 335
#     4  10  21  38  58  83 110 143 188 233 285 340
#     4  10  19  35  59  88 119 151 188 228 276 335
#     4  11  21  34  56  84 116 151 189 232 279 337
#     4   9  19  37  58  81 113 153 194 237 283 336
#
# _framework density 18.821280000000002
#
# number of rings (size 3 to 8) (size 9 to 14) (size 15 to 20)
#    0.000    2.000    1.250    3.375    0.000    6.500 
#    0.000    0.625    0.000    1.500    0.000    0.000 
#    0.000    0.000    0.000    0.000    0.000    0.000 
#
# Total GULP energy -357394.493862 kJ/mol
# GULP energy per Si atom -5584.288967 kJ/mol
# Density = 1.877844 g / cm^3
# Si number density = 18.821280 Si / 1000 Ang^3
#
#
#
# Elastic Constant Matrix: (Units=GPa)
#
#
# Indices 1 2 3 4 5 6 
#
# 1 50.7589 36.3932 44.1636 0.0000 0.0000 0.0000
# 2 36.3932 81.7110 59.4849 0.0000 0.0000 0.0000
# 3 44.1636 59.4849 135.6399 0.0000 0.0000 0.0000
# 4 0.0000 0.0000 0.0000 10.2017 0.0000 0.0000
# 5 0.0000 0.0000 0.0000 0.0000 31.6732 0.0000
# 6 0.0000 0.0000 0.0000 0.0000 0.0000 19.2411
#
#
#
# Elastic Compliance Matrix: (Units=1/GPa)
#
#
# Indices 1 2 3 4 5 6 
#
# 1 0.032084 -0.009820 -0.006140 0.000000 0.000000 0.000000
# 2 -0.009820 0.020984 -0.006005 0.000000 0.000000 0.000000
# 3 -0.006140 -0.006005 0.012005 0.000000 0.000000 0.000000
# 4 0.000000 0.000000 0.000000 0.098023 0.000000 0.000000
# 5 0.000000 0.000000 0.000000 0.000000 0.031572 0.000000
# 6 0.000000 0.000000 0.000000 0.000000 0.000000 0.051972
#
#
# Mechanical properties :
#
#
# Convention : Reuss Voigt Hill
#
# Bulk Modulus (GPa) = 47.29746 60.91036 54.10391
# Shear Modulus (GPa) = 16.80012 20.76108 18.78060
#
# Velocity S-wave (km/s) = 2.99090 3.32484 3.16229
# Velocity P-wave (km/s) = 6.09194 6.86820 6.49168
#
# Compressibility (1/GPa) = 0.02114278
#
# Stress axis : x y z
#
# Youngs Moduli (GPa) = 31.16834 47.65619 83.29873
#
# Poissons Ratio (x) = 0.46799 0.51143
# Poissons Ratio (y) = 0.30608 0.50021
# Poissons Ratio (z) = 0.19136 0.28617
#
# Static dielectric constant tensor:
#      x y z
#    x 1.631890 0.000000 0.000000 
#    y 0.000000 1.658620 0.000000 
#    z 0.000000 0.000000 1.630880 
# 
# From -- ./inp_files/22325.got.cif
#   From: 2010.05.17/outbox.cif.g08.bks.cpg/sg51_12_cif.got.tgz:22325.got - 2010.06.03 11:52:47.
