data_PCOD9402568
_publ_section_title
;
Structure prediction by ZEFSAII (Michael W. Deem and Ramdas Pophale) SiO2 
 PCOD9402568
Probable space group: P M M A
;
_chemical_formula_sum "Si O2"
_cell_formula_units_Z 64
_cell_length_a 8.949453
_cell_length_b 19.926637
_cell_length_c 19.608284
_cell_angle_alpha 90.000000
_cell_angle_beta 90.000000
_cell_angle_gamma 90.000000
_cell_volume 3496.794332
_symmetry_space_group_name_H-M "P M M A"
_symmetry_group_IT_number 51
_symmetry_cell_setting 'orthorhombic'
loop_
_space_group_symop_operation_xyz
x,y,z
1/2-x,-y,z
1/2+x,-y,-z
-x,y,-z
-x,-y,-z
1/2+x,y,-z
1/2-x,y,z
x,-y,z
loop_
_atom_site_type_symbol
_atom_site_label
_atom_site_fract_x
_atom_site_fract_y
_atom_site_fract_z
Si Si1 0.427988 0.149672 0.927147
Si Si2 0.580838 0.422589 0.695147
Si Si3 0.917195 0.370095 0.433571
Si Si4 0.428130 0.798436 0.284868
Si Si5 0.931237 0.278924 0.160702
Si Si6 0.571159 0.426386 0.159750
Si Si7 0.418636 0.789790 0.568055
Si Si8 0.928821 0.922844 0.208805
O O1 0.250000 0.151655 0.935519
O O2 0.473528 0.220435 0.892256
O O3 0.462460 0.093626 0.870342
O O4 0.500000 0.138960 0.000000
O O5 0.750000 0.401546 0.712656
O O6 0.586135 0.500000 0.672401
O O7 0.513154 0.381572 0.633616
O O8 0.477261 0.421539 0.761404
O O9 0.750000 0.397949 0.425843
O O10 0.905049 0.290256 0.442536
O O11 0.000000 0.398222 0.500000
O O12 0.250000 0.791453 0.284938
O O13 0.498875 0.742185 0.233871
O O14 0.491625 0.797117 0.361519
O O15 0.480496 0.869161 0.252595
O O16 0.750000 0.278039 0.168549
O O17 0.977443 0.352795 0.133836
O O18 0.750000 0.428315 0.153489
O O19 0.514231 0.500000 0.134619
O O20 0.500000 0.816770 0.500000
O O21 0.250000 0.817029 0.574986
O O22 0.750000 0.910614 0.218111
O O23 0.960398 0.000000 0.225074
#
# Coordination Sequence:
#
# PCOD9402568 Si02
#       8
#     8   8   8   8   8   8   8   8
#     4   9  18  32  51  77 108 141 175 209 247 294
#     4  10  20  31  42  59  85 115 147 189 244 304
#     4  10  20  32  46  62  82 112 151 196 244 296
#     4  11  21  32  51  79 107 136 172 213 256 305
#     4   9  18  33  51  72 101 136 173 214 260 310
#     4   9  17  30  49  70  90 118 161 211 258 302
#     4  10  20  34  51  72  98 128 165 210 259 307
#     4   9  19  37  58  79 107 143 177 208 247 295
#
# _framework density 18.302479000000002
#
# number of rings (size 3 to 8) (size 9 to 14) (size 15 to 20)
#    0.000    2.375    0.000    3.750    0.000    8.500 
#    0.000    0.000    0.000    0.750    0.000    0.000 
#    0.000    0.000    0.000    0.000    0.000    0.250 
#
# Total GULP energy -356670.643847 kJ/mol
# GULP energy per Si atom -5572.978810 kJ/mol
# Density = 1.826082 g / cm^3
# Si number density = 18.302479 Si / 1000 Ang^3
#
#
#
# Elastic Constant Matrix: (Units=GPa)
#
#
# Indices 1 2 3 4 5 6 
#
# 1 44.5971 16.6653 19.2830 0.0000 0.0000 0.0000
# 2 16.6653 67.2591 -11.0056 0.0000 0.0000 0.0000
# 3 19.2830 -11.0056 43.5703 0.0000 0.0000 0.0000
# 4 0.0000 0.0000 0.0000 21.0066 0.0000 0.0000
# 5 0.0000 0.0000 0.0000 0.0000 26.3917 0.0000
# 6 0.0000 0.0000 0.0000 0.0000 0.0000 12.2040
#
#
#
# Elastic Compliance Matrix: (Units=1/GPa)
#
#
# Indices 1 2 3 4 5 6 
#
# 1 0.034638 -0.011569 -0.018252 0.000000 0.000000 0.000000
# 2 -0.011569 0.019373 0.010014 0.000000 0.000000 0.000000
# 3 -0.018252 0.010014 0.033559 0.000000 0.000000 0.000000
# 4 0.000000 0.000000 0.000000 0.047604 0.000000 0.000000
# 5 0.000000 0.000000 0.000000 0.000000 0.037891 0.000000
# 6 0.000000 0.000000 0.000000 0.000000 0.000000 0.081940
#
#
# Mechanical properties :
#
#
# Convention : Reuss Voigt Hill
#
# Bulk Modulus (GPa) = 20.85308 22.81244 21.83276
# Shear Modulus (GPa) = 16.09760 20.61937 18.35848
#
# Velocity S-wave (km/s) = 2.96891 3.36011 3.17055
# Velocity P-wave (km/s) = 4.81361 5.24833 5.03566
#
# Compressibility (1/GPa) = 0.04795455
#
# Stress axis : x y z
#
# Youngs Moduli (GPa) = 28.86990 51.61825 29.79850
#
# Poissons Ratio (x) = 0.59718 0.54389
# Poissons Ratio (y) = 0.33400 -0.29839
# Poissons Ratio (z) = 0.52694 -0.51689
#
# Static dielectric constant tensor:
#      x y z
#    x 1.636870 0.000000 0.000000 
#    y 0.000000 1.669400 0.000000 
#    z 0.000000 0.000000 1.594710 
# 
# From -- ./inp_files/28450.got.cif
#   From: 2010.05.17/outbox.cif.g08.bks.cpg/sg51_15_cif.got.tgz:28450.got - 2010.06.03 11:52:47.
