data_PCOD9402261
_publ_section_title
;
Structure prediction by ZEFSAII (Michael W. Deem and Ramdas Pophale) SiO2 
 PCOD9402261
Probable space group: P M M A
;
_chemical_formula_sum "Si O2"
_cell_formula_units_Z 64
_cell_length_a 15.702351
_cell_length_b 22.226582
_cell_length_c 9.499998
_cell_angle_alpha 90.000000
_cell_angle_beta 90.000000
_cell_angle_gamma 90.000000
_cell_volume 3315.590427
_symmetry_space_group_name_H-M "P M M A"
_symmetry_group_IT_number 51
_symmetry_cell_setting 'orthorhombic'
loop_
_space_group_symop_operation_xyz
x,y,z
1/2-x,-y,z
1/2+x,-y,-z
-x,y,-z
-x,-y,-z
1/2+x,y,-z
1/2-x,y,z
x,-y,z
loop_
_atom_site_type_symbol
_atom_site_label
_atom_site_fract_x
_atom_site_fract_y
_atom_site_fract_z
Si Si1 0.650319 0.238842 0.308886
Si Si2 0.146669 0.570615 0.705025
Si Si3 0.348888 0.654583 0.464086
Si Si4 0.847972 0.067139 0.118203
Si Si5 0.081215 0.837726 0.098656
Si Si6 0.967924 0.122087 0.343704
Si Si7 0.345165 0.710355 0.190834
Si Si8 0.409166 0.332262 0.923355
O O1 0.750000 0.221770 0.283575
O O2 0.649892 0.287321 0.434542
O O3 0.589257 0.183277 0.345728
O O4 0.613367 0.274991 0.174834
O O5 0.250000 0.580611 0.714789
O O6 0.130632 0.500000 0.713457
O O7 0.116801 0.599852 0.557172
O O8 0.103320 0.609378 0.827596
O O9 0.250000 0.637920 0.434441
O O10 0.391146 0.675963 0.318937
O O11 0.750000 0.070795 0.162499
O O12 0.908134 0.077776 0.252958
O O13 0.864699 0.000000 0.060914
O O14 0.863752 0.117418 0.998288
O O15 0.118337 0.773847 0.142290
O O16 0.048977 0.867703 0.242614
O O17 0.000000 0.826697 0.000000
O O18 0.000000 0.106372 0.500000
O O19 0.250000 0.723875 0.240380
O O20 0.345386 0.668711 0.054458
O O21 0.500000 0.327767 0.000000
#
# Coordination Sequence:
#
# PCOD9402261 Si02
#       8
#     8   8   8   8   8   8   8   8
#     4  10  19  35  55  76 109 151 190 221 270 350
#     4   9  18  36  57  73  97 140 188 224 267 338
#     4   8  17  31  51  77 101 133 174 219 269 322
#     4  10  22  42  63  80 106 152 202 236 271 334
#     4  10  21  35  55  84 115 148 185 225 278 341
#     4  11  22  35  56  87 120 147 181 235 298 348
#     4  11  19  31  52  80 111 135 171 227 281 328
#     4  11  21  32  50  78 110 142 180 231 285 332
#
# _framework density 19.302745999999999
#
# number of rings (size 3 to 8) (size 9 to 14) (size 15 to 20)
#    0.000    2.000    0.000    6.000    0.000    2.750 
#    0.000    4.375    0.000    4.500    0.000    0.000 
#    0.000    0.000    0.000    0.000    0.000    0.000 
#
# Total GULP energy -356976.435428 kJ/mol
# GULP energy per Si atom -5577.756804 kJ/mol
# Density = 1.925881 g / cm^3
# Si number density = 19.302746 Si / 1000 Ang^3
#
#
#
# Elastic Constant Matrix: (Units=GPa)
#
#
# Indices 1 2 3 4 5 6 
#
# 1 52.9698 23.2950 25.6050 0.0000 0.0000 0.0000
# 2 23.2950 90.6440 40.6757 0.0000 0.0000 0.0000
# 3 25.6050 40.6757 146.7793 0.0000 0.0000 0.0000
# 4 0.0000 0.0000 0.0000 13.6380 0.0000 0.0000
# 5 0.0000 0.0000 0.0000 0.0000 10.8817 0.0000
# 6 0.0000 0.0000 0.0000 0.0000 0.0000 -67.6767
#
#
#
# Elastic Compliance Matrix: (Units=1/GPa)
#
#
# Indices 1 2 3 4 5 6 
#
# 1 0.022125 -0.004516 -0.002608 0.000000 0.000000 0.000000
# 2 -0.004516 0.013521 -0.002959 0.000000 0.000000 0.000000
# 3 -0.002608 -0.002959 0.008088 0.000000 0.000000 0.000000
# 4 0.000000 0.000000 0.000000 0.073325 0.000000 0.000000
# 5 0.000000 0.000000 0.000000 0.000000 0.091898 0.000000
# 6 0.000000 0.000000 0.000000 0.000000 0.000000 -0.014776
#
#
# Mechanical properties :
#
#
# Convention : Reuss Voigt Hill
#
# Bulk Modulus (GPa) = 42.43071 52.17161 47.30116
# Shear Modulus (GPa) = 22.50203 4.75642 13.62922
#
# Velocity S-wave (km/s) = 3.41800 1.57145 2.66009
# Velocity P-wave (km/s) = 6.13240 5.51175 5.83034
#
# Compressibility (1/GPa) = 0.02356783
#
# Stress axis : x y z
#
# Youngs Moduli (GPa) = 45.19696 73.96163 123.64013
#
# Poissons Ratio (x) = 0.33398 0.32249
# Poissons Ratio (y) = 0.20409 0.36586
# Poissons Ratio (z) = 0.11789 0.21886
#
# Static dielectric constant tensor:
#      x y z
#    x 1.758530 0.000000 0.000000 
#    y 0.000000 1.670630 0.000000 
#    z 0.000000 0.000000 1.703340 
# 
# From -- ./inp_files/8756.got.cif
#   From: 2010.05.17/outbox.cif.g08.bks.cpg/sg51_5_cif.got.tgz:8756.got - 2010.06.03 11:52:47.
