data_PCOD9402548
_publ_section_title
;
Structure prediction by ZEFSAII (Michael W. Deem and Ramdas Pophale) SiO2 
 PCOD9402548
Probable space group: P M M A
;
_chemical_formula_sum "Si O2"
_cell_formula_units_Z 64
_cell_length_a 28.694832
_cell_length_b 8.179707
_cell_length_c 14.600717
_cell_angle_alpha 90.000000
_cell_angle_beta 90.000000
_cell_angle_gamma 90.000000
_cell_volume 3427.011936
_symmetry_space_group_name_H-M "P M M A"
_symmetry_group_IT_number 51
_symmetry_cell_setting 'orthorhombic'
loop_
_space_group_symop_operation_xyz
x,y,z
1/2-x,-y,z
1/2+x,-y,-z
-x,y,-z
-x,-y,-z
1/2+x,y,-z
1/2-x,y,z
x,-y,z
loop_
_atom_site_type_symbol
_atom_site_label
_atom_site_fract_x
_atom_site_fract_y
_atom_site_fract_z
Si Si1 0.979624 0.805083 0.598492
Si Si2 0.302654 0.695163 0.021971
Si Si3 0.375625 0.314005 0.879339
Si Si4 0.063650 0.697717 0.719245
Si Si5 0.302395 0.194107 0.228390
Si Si6 0.197086 0.187140 0.747358
Si Si7 0.873950 0.305135 0.618546
Si Si8 0.148399 0.302618 0.584146
O O1 0.928518 0.737662 0.620064
O O2 0.000000 0.743197 0.500000
O O3 0.015190 0.759538 0.679460
O O4 0.976307 0.000000 0.591463
O O5 0.250000 0.758567 0.999477
O O6 0.301718 0.500000 0.004350
O O7 0.309934 0.724691 0.129423
O O8 0.346620 0.762788 0.963719
O O9 0.388434 0.500000 0.904719
O O10 0.418740 0.243051 0.819736
O O11 0.335505 0.310620 0.801756
O O12 0.062853 0.500000 0.723286
O O13 0.102217 0.744029 0.642434
O O14 0.250000 0.242910 0.260298
O O15 0.342370 0.236707 0.300271
O O16 0.302218 0.000000 0.214108
O O17 0.250000 0.207958 0.774947
O O18 0.190173 0.224039 0.640704
O O19 0.182691 0.000000 0.766659
O O20 0.869598 0.500000 0.620875
O O21 0.855695 0.246207 0.519628
O O22 0.151869 0.500000 0.585574
#
# Coordination Sequence:
#
# PCOD9402548 Si02
#       8
#     8   8   8   8   8   8   8   8
#     4  11  22  34  53  81 111 144 181 222 269 320
#     4   9  17  32  56  82 106 137 180 225 267 318
#     4   9  18  32  52  77 104 137 176 219 266 315
#     4   9  17  32  51  75 107 139 175 217 264 314
#     4  10  22  39  57  80 112 144 176 221 274 325
#     4  10  20  30  42  66 101 138 173 211 258 315
#     4  11  22  37  58  80 104 139 184 229 269 315
#     4   9  19  33  49  69  95 132 175 217 260 310
#
# _framework density 18.675160999999999
#
# number of rings (size 3 to 8) (size 9 to 14) (size 15 to 20)
#    0.000    2.250    1.250    2.625    0.000    6.750 
#    0.000    3.750    0.000    0.750    0.000    5.250 
#    0.000    0.000    0.000    0.000    0.000    0.000 
#
# Total GULP energy -356638.377792 kJ/mol
# GULP energy per Si atom -5572.474653 kJ/mol
# Density = 1.863266 g / cm^3
# Si number density = 18.675161 Si / 1000 Ang^3
#
#
#
# Elastic Constant Matrix: (Units=GPa)
#
#
# Indices 1 2 3 4 5 6 
#
# 1 63.6758 -0.2035 42.3805 0.0000 0.0000 0.0000
# 2 -0.2035 10.9664 -2.7900 0.0000 0.0000 0.0000
# 3 42.3805 -2.7900 90.6161 0.0000 0.0000 0.0000
# 4 0.0000 0.0000 0.0000 4.9454 0.0000 0.0000
# 5 0.0000 0.0000 0.0000 0.0000 30.4833 0.0000
# 6 0.0000 0.0000 0.0000 0.0000 0.0000 14.8704
#
#
#
# Elastic Compliance Matrix: (Units=1/GPa)
#
#
# Indices 1 2 3 4 5 6 
#
# 1 0.022861 -0.002314 -0.010763 0.000000 0.000000 0.000000
# 2 -0.002314 0.092142 0.003919 0.000000 0.000000 0.000000
# 3 -0.010763 0.003919 0.016190 0.000000 0.000000 0.000000
# 4 0.000000 0.000000 0.000000 0.202209 0.000000 0.000000
# 5 0.000000 0.000000 0.000000 0.000000 0.032805 0.000000
# 6 0.000000 0.000000 0.000000 0.000000 0.000000 0.067248
#
#
# Mechanical properties :
#
#
# Convention : Reuss Voigt Hill
#
# Bulk Modulus (GPa) = 8.85923 27.11471 17.98697
# Shear Modulus (GPa) = 10.21669 18.45124 14.33397
#
# Velocity S-wave (km/s) = 2.34150 3.14667 2.77346
# Velocity P-wave (km/s) = 3.47337 5.26808 4.46190
#
# Compressibility (1/GPa) = 0.11287663
#
# Stress axis : x y z
#
# Youngs Moduli (GPa) = 43.74329 10.85285 61.76645
#
# Poissons Ratio (x) = 0.02511 0.66479
# Poissons Ratio (y) = 0.10123 -0.24208
# Poissons Ratio (z) = 0.47081 -0.04253
#
# Static dielectric constant tensor:
#      x y z
#    x 1.652030 0.000000 0.000000 
#    y 0.000000 1.670800 0.000000 
#    z 0.000000 0.000000 1.671090 
# 
# From -- ./inp_files/26345.got.cif
#   From: 2010.05.17/outbox.cif.g08.bks.cpg/sg51_14_cif.got.tgz:26345.got - 2010.06.03 11:52:47.
