data_PCOD9402343
_publ_section_title
;
Structure prediction by ZEFSAII (Michael W. Deem and Ramdas Pophale) SiO2 
 PCOD9402343
Probable space group: P M M A
;
_chemical_formula_sum "Si O2"
_cell_formula_units_Z 64
_cell_length_a 8.072207
_cell_length_b 15.832930
_cell_length_c 24.462736
_cell_angle_alpha 90.000000
_cell_angle_beta 90.000000
_cell_angle_gamma 90.000000
_cell_volume 3126.501277
_symmetry_space_group_name_H-M "P M M A"
_symmetry_group_IT_number 51
_symmetry_cell_setting 'orthorhombic'
loop_
_space_group_symop_operation_xyz
x,y,z
1/2-x,-y,z
1/2+x,-y,-z
-x,y,-z
-x,-y,-z
1/2+x,y,-z
1/2-x,y,z
x,-y,z
loop_
_atom_site_type_symbol
_atom_site_label
_atom_site_fract_x
_atom_site_fract_y
_atom_site_fract_z
Si Si1 0.947469 0.098008 0.061090
Si Si2 0.436643 0.601554 0.940709
Si Si3 0.051928 0.094658 0.563143
Si Si4 0.551646 0.407201 0.699622
Si Si5 0.059133 0.185226 0.165621
Si Si6 0.449688 0.768374 0.349541
Si Si7 0.549730 0.910081 0.731986
Si Si8 0.938829 0.636203 0.179183
O O1 0.750000 0.104638 0.067098
O O2 0.034412 0.158385 0.103901
O O3 0.995679 0.000000 0.070626
O O4 0.000000 0.119449 0.000000
O O5 0.250000 0.635616 0.935782
O O6 0.432067 0.500000 0.945037
O O7 0.517544 0.617636 0.880999
O O8 0.500000 0.632355 0.000000
O O9 0.250000 0.093520 0.566934
O O10 0.000000 0.102594 0.500000
O O11 0.991128 0.176157 0.596949
O O12 0.990815 0.000000 0.581544
O O13 0.750000 0.408461 0.692697
O O14 0.486177 0.500000 0.683446
O O15 0.488647 0.326296 0.664684
O O16 0.519069 0.395477 0.764637
O O17 0.250000 0.209791 0.176564
O O18 0.019010 0.106657 0.204507
O O19 0.946165 0.263041 0.181583
O O20 0.250000 0.763310 0.347091
O O21 0.511471 0.830396 0.301587
O O22 0.750000 0.912104 0.724798
O O23 0.481230 0.000000 0.714120
O O24 0.750000 0.604037 0.178337
#
# Coordination Sequence:
#
# PCOD9402343 Si02
#       8
#     8   8   8   8   8   8   8   8
#     4  10  21  37  55  75  99 132 178 230 285 346
#     4   9  19  35  53  73  96 125 165 216 278 347
#     4  10  21  37  59  91 129 168 206 243 286 336
#     4  10  21  38  60  86 116 153 199 247 298 358
#     4  11  21  35  53  75 106 140 180 228 282 344
#     4  10  19  35  58  86 120 157 198 242 288 340
#     4   9  17  30  51  78 108 144 184 225 276 338
#     4  11  22  36  54  77 109 143 183 235 292 353
#
# _framework density 20.470165999999999
#
# number of rings (size 3 to 8) (size 9 to 14) (size 15 to 20)
#    0.000    2.000    1.250    2.625    0.000    5.250 
#    0.000    2.500    0.000    2.625    0.000    0.000 
#    0.000    0.000    0.000    0.000    0.000    0.000 
#
# Total GULP energy -356834.204416 kJ/mol
# GULP energy per Si atom -5575.534444 kJ/mol
# Density = 2.042358 g / cm^3
# Si number density = 20.470166 Si / 1000 Ang^3
#
#
#
# Elastic Constant Matrix: (Units=GPa)
#
#
# Indices 1 2 3 4 5 6 
#
# 1 21.0029 15.1881 0.9805 0.0000 0.0000 0.0000
# 2 15.1881 152.9012 60.0340 0.0000 0.0000 0.0000
# 3 0.9805 60.0340 91.8453 0.0000 0.0000 0.0000
# 4 0.0000 0.0000 0.0000 29.9940 0.0000 0.0000
# 5 0.0000 0.0000 0.0000 0.0000 21.0750 0.0000
# 6 0.0000 0.0000 0.0000 0.0000 0.0000 9.6100
#
#
#
# Elastic Compliance Matrix: (Units=1/GPa)
#
#
# Indices 1 2 3 4 5 6 
#
# 1 0.052272 -0.006690 0.003815 0.000000 0.000000 0.000000
# 2 -0.006690 0.009654 -0.006239 0.000000 0.000000 0.000000
# 3 0.003815 -0.006239 0.014925 0.000000 0.000000 0.000000
# 4 0.000000 0.000000 0.000000 0.033340 0.000000 0.000000
# 5 0.000000 0.000000 0.000000 0.000000 0.047450 0.000000
# 6 0.000000 0.000000 0.000000 0.000000 0.000000 0.104058
#
#
# Mechanical properties :
#
#
# Convention : Reuss Voigt Hill
#
# Bulk Modulus (GPa) = 17.05805 46.46163 31.75984
# Shear Modulus (GPa) = 16.69618 24.77225 20.73421
#
# Velocity S-wave (km/s) = 2.85903 3.48251 3.18606
# Velocity P-wave (km/s) = 4.38748 6.23835 5.39291
#
# Compressibility (1/GPa) = 0.05862333
#
# Stress axis : x y z
#
# Youngs Moduli (GPa) = 19.13057 103.57943 67.00028
#
# Poissons Ratio (x) = 0.69298 -0.25561
# Poissons Ratio (y) = 0.12799 0.41802
# Poissons Ratio (z) = -0.07298 0.64625
#
# Static dielectric constant tensor:
#      x y z
#    x 1.742210 0.000000 0.000000 
#    y 0.000000 1.761440 0.000000 
#    z 0.000000 0.000000 1.786820 
# 
# From -- ./inp_files/34964.got.cif
#   From: 2010.05.17/outbox.cif.g08.bks.cpg/sg51_18_cif.got.tgz:34964.got - 2010.06.03 11:52:47.
