data_PCOD9402102
_publ_section_title
;
Structure prediction by ZEFSAII (Michael W. Deem and Ramdas Pophale) SiO2 
 PCOD9402102
Probable space group: P M M A
;
_chemical_formula_sum "Si O2"
_cell_formula_units_Z 56
_cell_length_a 15.578237
_cell_length_b 7.572313
_cell_length_c 22.395351
_cell_angle_alpha 90.000000
_cell_angle_beta 90.000000
_cell_angle_gamma 90.000000
_cell_volume 2641.829207
_symmetry_space_group_name_H-M "P M M A"
_symmetry_group_IT_number 51
_symmetry_cell_setting 'orthorhombic'
loop_
_space_group_symop_operation_xyz
x,y,z
1/2-x,-y,z
1/2+x,-y,-z
-x,y,-z
-x,-y,-z
1/2+x,y,-z
1/2-x,y,z
x,-y,z
loop_
_atom_site_type_symbol
_atom_site_label
_atom_site_fract_x
_atom_site_fract_y
_atom_site_fract_z
Si Si1 0.507796 0.792460 0.710577
Si Si2 0.750000 0.706567 0.033248
Si Si3 0.441212 0.711893 0.944955
Si Si4 0.250000 0.785072 0.106773
Si Si5 0.344103 0.790333 0.642302
Si Si6 0.657196 0.713702 0.619465
Si Si7 0.098176 0.286843 0.508867
Si Si8 0.069431 0.212203 0.162203
O O1 0.420660 0.715509 0.682696
O O2 0.580134 0.777682 0.660045
O O3 0.542450 0.717674 0.772835
O O4 0.492274 0.000000 0.721414
O O5 0.750000 0.500000 0.050507
O O6 0.657206 0.780368 0.054325
O O7 0.750000 0.722374 0.961513
O O8 0.434885 0.500000 0.952654
O O9 0.494903 0.748115 0.885354
O O10 0.500000 0.779454 0.000000
O O11 0.337728 0.724445 0.138801
O O12 0.250000 0.000000 0.105686
O O13 0.250000 0.715273 0.654294
O O14 0.365816 0.770649 0.572312
O O15 0.340931 0.000000 0.653458
O O16 0.750000 0.769888 0.642923
O O17 0.653787 0.500000 0.619707
O O18 0.647229 0.770708 0.550694
O O19 0.099524 0.500000 0.509822
O O20 0.000000 0.229373 0.500000
O O21 0.077666 0.000000 0.166217
#
# Coordination Sequence:
#
# PCOD9402102 Si02
#       8
#     8   4   8   4   8   8   8   8
#     4  10  22  39  57  78 109 148 185 225 271 322
#     4  10  20  36  58  86 116 144 179 222 273 324
#     4  10  20  36  59  84 112 145 180 223 271 320
#     4  10  20  34  56  84 114 144 179 222 267 324
#     4  10  21  37  57  80 107 142 187 233 276 327
#     4  10  21  36  54  80 111 141 177 224 276 330
#     4  10  19  34  57  81 108 140 177 226 280 331
#     4  10  22  38  56  82 114 148 185 225 270 322
#
# _framework density 21.197434000000001
#
# number of rings (size 3 to 8) (size 9 to 14) (size 15 to 20)
#    0.000    2.000    2.857    0.429    1.000    3.429 
#    1.286    0.000    0.000    0.000    0.000    0.000 
#    0.000    0.000    0.000    0.000    0.000    0.000 
#
# Total GULP energy -312734.809693 kJ/mol
# GULP energy per Si atom -5584.550173 kJ/mol
# Density = 2.114919 g / cm^3
# Si number density = 21.197434 Si / 1000 Ang^3
#
#
#
# Elastic Constant Matrix: (Units=GPa)
#
#
# Indices 1 2 3 4 5 6 
#
# 1 220.3587 1.9771 82.8155 0.0000 0.0000 0.0000
# 2 1.9771 45.3357 -8.3641 0.0000 0.0000 0.0000
# 3 82.8155 -8.3641 116.8804 0.0000 0.0000 0.0000
# 4 0.0000 0.0000 0.0000 23.9144 0.0000 0.0000
# 5 0.0000 0.0000 0.0000 0.0000 -9.7107 0.0000
# 6 0.0000 0.0000 0.0000 0.0000 0.0000 11.9063
#
#
#
# Elastic Compliance Matrix: (Units=1/GPa)
#
#
# Indices 1 2 3 4 5 6 
#
# 1 0.006239 -0.001102 -0.004499 0.000000 0.000000 0.000000
# 2 -0.001102 0.022547 0.002394 0.000000 0.000000 0.000000
# 3 -0.004499 0.002394 0.011915 0.000000 0.000000 0.000000
# 4 0.000000 0.000000 0.000000 0.041816 0.000000 0.000000
# 5 0.000000 0.000000 0.000000 0.000000 -0.102979 0.000000
# 6 0.000000 0.000000 0.000000 0.000000 0.000000 0.083989
#
#
# Mechanical properties :
#
#
# Convention : Reuss Voigt Hill
#
# Bulk Modulus (GPa) = 29.16537 59.49243 44.32890
# Shear Modulus (GPa) = 61.44691 25.63175 43.53933
#
# Velocity S-wave (km/s) = 5.38988 3.48112 4.53701
# Velocity P-wave (km/s) = 7.24729 6.65465 6.95728
#
# Compressibility (1/GPa) = 0.03428724
#
# Stress axis : x y z
#
# Youngs Moduli (GPa) = 160.28361 44.35087 83.92639
#
# Poissons Ratio (x) = 0.04888 0.37762
# Poissons Ratio (y) = 0.17666 -0.20096
# Poissons Ratio (z) = 0.72119 -0.10620
#
# Static dielectric constant tensor:
#      x y z
#    x 1.783210 0.000000 0.000000 
#    y 0.000000 1.800150 0.000000 
#    z 0.000000 0.000000 1.718860 
# 
# From -- ./inp_files/33558.got.cif
#   From: 2010.05.17/outbox.cif.g08.bks.cpg/sg51_17_cif.got.tgz:33558.got - 2010.06.03 11:52:47.
