data_PCOD9402249
_publ_section_title
;
Structure prediction by ZEFSAII (Michael W. Deem and Ramdas Pophale) SiO2 
 PCOD9402249
Probable space group: P M M A
;
_chemical_formula_sum "Si O2"
_cell_formula_units_Z 56
_cell_length_a 17.878698
_cell_length_b 14.493726
_cell_length_c 12.928056
_cell_angle_alpha 90.000000
_cell_angle_beta 90.000000
_cell_angle_gamma 90.000000
_cell_volume 3350.033577
_symmetry_space_group_name_H-M "P M M A"
_symmetry_group_IT_number 51
_symmetry_cell_setting 'orthorhombic'
loop_
_space_group_symop_operation_xyz
x,y,z
1/2-x,-y,z
1/2+x,-y,-z
-x,y,-z
-x,-y,-z
1/2+x,y,-z
1/2-x,y,z
x,-y,z
loop_
_atom_site_type_symbol
_atom_site_label
_atom_site_fract_x
_atom_site_fract_y
_atom_site_fract_z
Si Si1 0.660127 0.392726 0.148129
Si Si2 0.578669 0.290990 0.330907
Si Si3 0.661657 0.894685 0.653235
Si Si4 0.338453 0.609817 0.090588
Si Si5 0.920426 0.105397 0.441837
Si Si6 0.662754 0.609785 0.517621
Si Si7 0.404857 0.292514 0.284952
O O1 0.750000 0.387177 0.158007
O O2 0.639267 0.500000 0.168205
O O3 0.621131 0.327275 0.230204
O O4 0.641447 0.370880 0.028797
O O5 0.590034 0.183242 0.356669
O O6 0.610847 0.346090 0.429603
O O7 0.490720 0.306562 0.315544
O O8 0.750000 0.882519 0.668798
O O9 0.641169 0.884756 0.531961
O O10 0.616459 0.815331 0.711210
O O11 0.640973 0.000000 0.681823
O O12 0.250000 0.630373 0.104210
O O13 0.347634 0.500000 0.106592
O O14 0.385461 0.664654 0.174482
O O15 0.000000 0.121114 0.500000
O O16 0.920141 0.000000 0.403811
O O17 0.750000 0.625642 0.491436
O O18 0.650663 0.500000 0.524259
O O19 0.644199 0.657030 0.626879
#
# Coordination Sequence:
#
# PCOD9402249 Si02
#       7
#     8   8   8   8   8   8   8
#     4   9  20  39  59  77 102 142 188 228 269 321
#     4  12  22  33  52  81 109 141 174 217 273 328
#     4  10  20  34  54  79 105 137 179 220 260 314
#     4   9  19  37  58  77 101 140 186 226 266 316
#     4  10  19  35  54  75 108 146 178 213 262 318
#     4  11  23  36  50  72 106 146 180 215 264 321
#     4  12  22  33  52  81 111 138 173 222 275 320
#
# _framework density 16.716249999999999
#
# number of rings (size 3 to 8) (size 9 to 14) (size 15 to 20)
#    0.000    1.571    2.857    3.857    0.000    6.286 
#    0.000    1.429    0.000    0.857    0.000    4.000 
#    0.000    0.000    0.000    0.000    0.000    0.000 
#
# Total GULP energy -312728.139800 kJ/mol
# GULP energy per Si atom -5584.431068 kJ/mol
# Density = 1.667820 g / cm^3
# Si number density = 16.716250 Si / 1000 Ang^3
#
#
#
# Elastic Constant Matrix: (Units=GPa)
#
#
# Indices 1 2 3 4 5 6 
#
# 1 52.3949 45.0681 34.0521 0.0000 0.0000 0.0000
# 2 45.0681 111.3952 71.4434 0.0000 0.0000 0.0000
# 3 34.0521 71.4434 90.3921 0.0000 0.0000 0.0000
# 4 0.0000 0.0000 0.0000 20.5083 0.0000 0.0000
# 5 0.0000 0.0000 0.0000 0.0000 33.3896 0.0000
# 6 0.0000 0.0000 0.0000 0.0000 0.0000 25.2136
#
#
#
# Elastic Compliance Matrix: (Units=1/GPa)
#
#
# Indices 1 2 3 4 5 6 
#
# 1 0.029791 -0.009846 -0.003441 0.000000 0.000000 0.000000
# 2 -0.009846 0.021460 -0.013252 0.000000 0.000000 0.000000
# 3 -0.003441 -0.013252 0.022833 0.000000 0.000000 0.000000
# 4 0.000000 0.000000 0.000000 0.048761 0.000000 0.000000
# 5 0.000000 0.000000 0.000000 0.000000 0.029949 0.000000
# 6 0.000000 0.000000 0.000000 0.000000 0.000000 0.039661
#
#
# Mechanical properties :
#
#
# Convention : Reuss Voigt Hill
#
# Bulk Modulus (GPa) = 47.60452 61.70104 54.65278
# Shear Modulus (GPa) = 19.79918 22.73019 21.26468
#
# Velocity S-wave (km/s) = 3.44528 3.69150 3.57052
# Velocity P-wave (km/s) = 6.66082 7.42701 7.05432
#
# Compressibility (1/GPa) = 0.02100641
#
# Stress axis : x y z
#
# Youngs Moduli (GPa) = 33.56678 46.59866 43.79611
#
# Poissons Ratio (x) = 0.45882 0.15069
# Poissons Ratio (y) = 0.33051 0.58039
# Poissons Ratio (z) = 0.11549 0.61753
#
# Static dielectric constant tensor:
#      x y z
#    x 1.573400 0.000000 0.000000 
#    y 0.000000 1.567680 0.000000 
#    z 0.000000 0.000000 1.536190 
# 
# From -- ./inp_files/16634.got.cif
#   From: 2010.05.17/outbox.cif.g08.bks.cpg/sg51_9_cif.got.tgz:16634.got - 2010.06.03 11:52:47.
