data_PCOD9402258
_publ_section_title
;
Structure prediction by ZEFSAII (Michael W. Deem and Ramdas Pophale) SiO2 
 PCOD9402258
Probable space group: P M M A
;
_chemical_formula_sum "Si O2"
_cell_formula_units_Z 40
_cell_length_a 9.969138
_cell_length_b 7.357699
_cell_length_c 25.040316
_cell_angle_alpha 90.000000
_cell_angle_beta 90.000000
_cell_angle_gamma 90.000000
_cell_volume 1836.705093
_symmetry_space_group_name_H-M "P M M A"
_symmetry_group_IT_number 51
_symmetry_cell_setting 'orthorhombic'
loop_
_space_group_symop_operation_xyz
x,y,z
1/2-x,-y,z
1/2+x,-y,-z
-x,y,-z
-x,-y,-z
1/2+x,y,-z
1/2-x,y,z
x,-y,z
loop_
_atom_site_type_symbol
_atom_site_label
_atom_site_fract_x
_atom_site_fract_y
_atom_site_fract_z
Si Si1 0.405673 0.721727 0.450481
Si Si2 0.404009 0.278755 0.645385
Si Si3 0.095657 0.278105 0.766818
Si Si4 0.974346 0.294541 0.872360
Si Si5 0.750000 0.208553 0.076003
Si Si6 0.250000 0.721266 0.048481
O O1 0.500000 0.776643 0.500000
O O2 0.250000 0.780521 0.453758
O O3 0.402554 0.500000 0.450770
O O4 0.484977 0.779230 0.397135
O O5 0.250000 0.223259 0.632459
O O6 0.402743 0.500000 0.644670
O O7 0.435181 0.223381 0.706213
O O8 0.250000 0.225178 0.778053
O O9 0.093497 0.500000 0.768255
O O10 0.998442 0.212838 0.813815
O O11 0.924792 0.500000 0.863324
O O12 0.118747 0.298518 0.899929
O O13 0.875946 0.215172 0.916450
O O14 0.750000 0.000000 0.093350
O O15 0.750000 0.215002 0.012082
O O16 0.250000 0.500000 0.044167
#
# Coordination Sequence:
#
# PCOD9402258 Si02
#       6
#     8   8   8   8   4   4
#     4   9  15  21  28  41  66 104 144 182 222 265
#     4   8  13  21  33  50  70  95 135 184 227 267
#     4   8  13  24  44  64  81 108 146 190 236 280
#     4  10  19  35  55  74  98 128 162 201 246 298
#     4  12  24  36  54  76  98 128 165 202 242 292
#     4  10  22  36  52  76 100 128 161 198 248 298
#
# _framework density 21.778126
#
# number of rings (size 3 to 8) (size 9 to 14) (size 15 to 20)
#    0.000    2.800    1.000    3.300    0.000    5.600 
#    1.800    0.000    0.000    0.000    0.000    0.000 
#    0.000    0.000    0.000    0.000    0.000    1.000 
#
# Total GULP energy -223231.112226 kJ/mol
# GULP energy per Si atom -5580.777806 kJ/mol
# Density = 2.172856 g / cm^3
# Si number density = 21.778126 Si / 1000 Ang^3
#
#
#
# Elastic Constant Matrix: (Units=GPa)
#
#
# Indices 1 2 3 4 5 6 
#
# 1 134.0225 -5.3093 80.0329 0.0000 0.0000 0.0000
# 2 -5.3093 86.1955 -3.1275 0.0000 0.0000 0.0000
# 3 80.0329 -3.1275 173.9231 0.0000 0.0000 0.0000
# 4 0.0000 0.0000 0.0000 -47.6560 0.0000 0.0000
# 5 0.0000 0.0000 0.0000 0.0000 26.9880 0.0000
# 6 0.0000 0.0000 0.0000 0.0000 0.0000 -14.8240
#
#
#
# Elastic Compliance Matrix: (Units=1/GPa)
#
#
# Indices 1 2 3 4 5 6 
#
# 1 0.010307 0.000463 -0.004735 0.000000 0.000000 0.000000
# 2 0.000463 0.011630 -0.000004 0.000000 0.000000 0.000000
# 3 -0.004735 -0.000004 0.007928 0.000000 0.000000 0.000000
# 4 0.000000 0.000000 0.000000 -0.020984 0.000000 0.000000
# 5 0.000000 0.000000 0.000000 0.000000 0.037053 0.000000
# 6 0.000000 0.000000 0.000000 0.000000 0.000000 -0.067458
#
#
# Mechanical properties :
#
#
# Convention : Reuss Voigt Hill
#
# Bulk Modulus (GPa) = 46.91681 59.70370 53.31025
# Shear Modulus (GPa) = -852.19283 14.40459 -418.89412
#
# Velocity S-wave (km/s) = -19.80294 2.57461 -13.88394
# Velocity P-wave (km/s) = 22.38940 6.02596 15.24751
#
# Compressibility (1/GPa) = 0.02131432
#
# Stress axis : x y z
#
# Youngs Moduli (GPa) = 97.02048 85.98511 126.13063
#
# Poissons Ratio (x) = -0.03982 0.59718
# Poissons Ratio (y) = -0.04493 0.00050
# Poissons Ratio (z) = 0.45935 0.00034
#
# Static dielectric constant tensor:
#      x y z
#    x 1.764010 0.000000 0.000000 
#    y 0.000000 1.881530 0.000000 
#    z 0.000000 0.000000 1.778020 
# 
# From -- ./inp_files/35997.got.cif
#   From: 2010.05.17/outbox.cif.g08.bks.cpg/sg51_18_cif.got.tgz:35997.got - 2010.06.03 11:52:47.
