data_PCOD9402822
_publ_section_title
;
Structure prediction by ZEFSAII (Michael W. Deem and Ramdas Pophale) SiO2 
 PCOD9402822
Probable space group: P M M A
;
_chemical_formula_sum "Si O2"
_cell_formula_units_Z 52
_cell_length_a 8.954586
_cell_length_b 15.603582
_cell_length_c 23.322714
_cell_angle_alpha 90.000000
_cell_angle_beta 90.000000
_cell_angle_gamma 90.000000
_cell_volume 3258.733957
_symmetry_space_group_name_H-M "P M M A"
_symmetry_group_IT_number 51
_symmetry_cell_setting 'orthorhombic'
loop_
_space_group_symop_operation_xyz
x,y,z
1/2-x,-y,z
1/2+x,-y,-z
-x,y,-z
-x,-y,-z
1/2+x,y,-z
1/2-x,y,z
x,-y,z
loop_
_atom_site_type_symbol
_atom_site_label
_atom_site_fract_x
_atom_site_fract_y
_atom_site_fract_z
Si Si1 0.570838 0.600427 0.820499
Si Si2 0.420683 0.603673 0.942033
Si Si3 0.071705 0.500000 0.438566
Si Si4 0.929451 0.902639 0.688832
Si Si5 0.074584 0.856012 0.440400
Si Si6 0.926988 0.679014 0.616173
Si Si7 0.427012 0.735635 0.732809
O O1 0.750000 0.605066 0.817829
O O2 0.529024 0.500000 0.807751
O O3 0.513114 0.620965 0.884489
O O4 0.499917 0.669869 0.777866
O O5 0.250000 0.634394 0.937465
O O6 0.414739 0.500000 0.946317
O O7 0.500000 0.635136 0.000000
O O8 0.250000 0.500000 0.444221
O O9 0.030583 0.586393 0.406238
O O10 0.000000 0.500000 0.500000
O O11 0.750000 0.887628 0.689058
O O12 0.977415 0.892594 0.621542
O O13 0.005635 0.831781 0.729007
O O14 0.958731 0.000000 0.706656
O O15 0.250000 0.875823 0.444634
O O16 0.055655 0.753615 0.430973
O O17 0.000000 0.883267 0.500000
O O18 0.750000 0.679652 0.632417
O O19 0.026681 0.700710 0.670438
O O20 0.250000 0.738218 0.740784
#
# Coordination Sequence:
#
# PCOD9402822 Si02
#       7
#     8   8   4   8   8   8   8
#     4  10  20  33  50  71  99 138 177 209 243 287
#     4   9  16  27  44  68 100 136 174 212 247 283
#     4  10  20  32  48  66  86 114 153 198 241 286
#     4   9  19  37  56  71  92 124 158 192 239 300
#     4   9  17  29  46  67  91 115 144 184 233 290
#     4   9  19  34  47  62  87 122 158 192 236 290
#     4  11  22  34  50  73  99 124 157 204 249 290
#
# _framework density 15.957117
#
# number of rings (size 3 to 8) (size 9 to 14) (size 15 to 20)
#    0.000    2.462    0.000    3.692    1.077    6.462 
#    0.000    0.000    0.000    0.000    0.000    0.000 
#    0.000    0.615    0.000    2.308    0.000    3.538 
#
# Total GULP energy -289806.882385 kJ/mol
# GULP energy per Si atom -5573.209277 kJ/mol
# Density = 1.592080 g / cm^3
# Si number density = 15.957117 Si / 1000 Ang^3
#
#
#
# Elastic Constant Matrix: (Units=GPa)
#
#
# Indices 1 2 3 4 5 6 
#
# 1 72.7452 44.1341 47.5092 0.0000 0.0000 0.0000
# 2 44.1341 104.8463 41.4114 0.0000 0.0000 0.0000
# 3 47.5092 41.4114 83.7665 0.0000 0.0000 0.0000
# 4 0.0000 0.0000 0.0000 7.7384 0.0000 0.0000
# 5 0.0000 0.0000 0.0000 0.0000 28.8888 0.0000
# 6 0.0000 0.0000 0.0000 0.0000 0.0000 13.6209
#
#
#
# Elastic Compliance Matrix: (Units=1/GPa)
#
#
# Indices 1 2 3 4 5 6 
#
# 1 0.024542 -0.006006 -0.010950 0.000000 0.000000 0.000000
# 2 -0.006006 0.013322 -0.003180 0.000000 0.000000 0.000000
# 3 -0.010950 -0.003180 0.019720 0.000000 0.000000 0.000000
# 4 0.000000 0.000000 0.000000 0.129226 0.000000 0.000000
# 5 0.000000 0.000000 0.000000 0.000000 0.034616 0.000000
# 6 0.000000 0.000000 0.000000 0.000000 0.000000 0.073417
#
#
# Mechanical properties :
#
#
# Convention : Reuss Voigt Hill
#
# Bulk Modulus (GPa) = 57.76031 58.60748 58.18389
# Shear Modulus (GPa) = 14.66780 18.60317 16.63548
#
# Velocity S-wave (km/s) = 3.03512 3.41812 3.23230
# Velocity P-wave (km/s) = 6.96839 7.23781 7.10438
#
# Compressibility (1/GPa) = 0.01731293
#
# Stress axis : x y z
#
# Youngs Moduli (GPa) = 40.74725 75.06584 50.70916
#
# Poissons Ratio (x) = 0.45081 0.55527
# Poissons Ratio (y) = 0.24471 0.16124
# Poissons Ratio (z) = 0.44618 0.23868
#
# Static dielectric constant tensor:
#      x y z
#    x 1.540820 0.000000 0.000000 
#    y 0.000000 1.554520 0.000000 
#    z 0.000000 0.000000 1.513480 
# 
# From -- ./inp_files/31786.got.cif
#   From: 2010.05.17/outbox.cif.g08.bks.cpg/sg51_16_cif.got.tgz:31786.got - 2010.06.03 11:52:47.
