data_PCOD9402980
_publ_section_title
;
Structure prediction by ZEFSAII (Michael W. Deem and Ramdas Pophale) SiO2 
 PCOD9402980
Probable space group: P M M A
;
_chemical_formula_sum "Si O2"
_cell_formula_units_Z 52
_cell_length_a 8.117667
_cell_length_b 14.940155
_cell_length_c 21.108740
_cell_angle_alpha 90.000000
_cell_angle_beta 90.000000
_cell_angle_gamma 90.000000
_cell_volume 2560.051168
_symmetry_space_group_name_H-M "P M M A"
_symmetry_group_IT_number 51
_symmetry_cell_setting 'orthorhombic'
loop_
_space_group_symop_operation_xyz
x,y,z
1/2-x,-y,z
1/2+x,-y,-z
-x,y,-z
-x,-y,-z
1/2+x,y,-z
1/2-x,y,z
x,-y,z
loop_
_atom_site_type_symbol
_atom_site_label
_atom_site_fract_x
_atom_site_fract_y
_atom_site_fract_z
Si Si1 0.444802 0.710774 0.066442
Si Si2 0.950321 0.902961 0.895765
Si Si3 0.550351 0.802369 0.572698
Si Si4 0.055315 0.399039 0.810939
Si Si5 0.051278 0.000000 0.426192
Si Si6 0.553537 0.900844 0.250961
Si Si7 0.940955 0.716107 0.694193
O O1 0.250000 0.717270 0.064295
O O2 0.512737 0.812447 0.071728
O O3 0.489008 0.657120 0.129666
O O4 0.500000 0.668998 0.000000
O O5 0.750000 0.900912 0.893914
O O6 0.015722 0.900018 0.823926
O O7 0.000549 0.000000 0.922713
O O8 0.500000 0.788308 0.500000
O O9 0.750000 0.803728 0.575114
O O10 0.490552 0.901774 0.594804
O O11 0.492215 0.727834 0.622723
O O12 0.250000 0.403736 0.819729
O O13 0.987019 0.500000 0.810060
O O14 0.023334 0.348835 0.744760
O O15 0.000000 0.000000 0.500000
O O16 0.250000 0.000000 0.420081
O O17 0.750000 0.890292 0.260592
O O18 0.458089 0.816929 0.279005
O O19 0.502993 0.000000 0.274715
O O20 0.750000 0.690589 0.691322
#
# Coordination Sequence:
#
# PCOD9402980 Si02
#       7
#     8   8   8   8   4   8   8
#     4  11  23  39  62  90 121 158 195 238 288 343
#     4   9  18  34  55  81 116 158 199 236 279 332
#     4   9  19  33  52  79 115 157 198 237 281 332
#     4  11  25  45  67  89 114 145 187 244 303 358
#     4   8  14  28  46  70 108 154 197 232 267 318
#     4  10  20  32  50  80 116 155 198 242 285 334
#     4  11  22  36  59  88 117 154 194 239 295 352
#
# _framework density 20.312093999999998
#
# number of rings (size 3 to 8) (size 9 to 14) (size 15 to 20)
#    0.000    2.000    1.538    1.846    1.077    4.615 
#    0.000    0.000    0.000    0.462    0.000    0.000 
#    0.000    0.000    0.000    0.000    0.000    0.000 
#
# Total GULP energy -290162.161731 kJ/mol
# GULP energy per Si atom -5580.041572 kJ/mol
# Density = 2.026586 g / cm^3
# Si number density = 20.312094 Si / 1000 Ang^3
#
#
#
# Elastic Constant Matrix: (Units=GPa)
#
#
# Indices 1 2 3 4 5 6 
#
# 1 26.1696 8.3055 3.1480 0.0000 0.0000 0.0000
# 2 8.3055 104.0187 54.9192 0.0000 0.0000 0.0000
# 3 3.1480 54.9192 126.3792 0.0000 0.0000 0.0000
# 4 0.0000 0.0000 0.0000 -13.8064 0.0000 0.0000
# 5 0.0000 0.0000 0.0000 0.0000 25.8584 0.0000
# 6 0.0000 0.0000 0.0000 0.0000 0.0000 18.9994
#
#
#
# Elastic Compliance Matrix: (Units=1/GPa)
#
#
# Indices 1 2 3 4 5 6 
#
# 1 0.039230 -0.003395 0.000498 0.000000 0.000000 0.000000
# 2 -0.003395 0.012770 -0.005465 0.000000 0.000000 0.000000
# 3 0.000498 -0.005465 0.010275 0.000000 0.000000 0.000000
# 4 0.000000 0.000000 0.000000 -0.072430 0.000000 0.000000
# 5 0.000000 0.000000 0.000000 0.000000 0.038672 0.000000
# 6 0.000000 0.000000 0.000000 0.000000 0.000000 0.052633
#
#
# Mechanical properties :
#
#
# Convention : Reuss Voigt Hill
#
# Bulk Modulus (GPa) = 21.95331 43.25703 32.60517
# Shear Modulus (GPa) = 44.22522 18.88993 31.55757
#
# Velocity S-wave (km/s) = 4.67120 3.05287 3.94589
# Velocity P-wave (km/s) = 6.31862 5.81112 6.07018
#
# Compressibility (1/GPa) = 0.04555121
#
# Stress axis : x y z
#
# Youngs Moduli (GPa) = 25.49073 78.30841 97.32324
#
# Poissons Ratio (x) = 0.26590 -0.04850
# Poissons Ratio (y) = 0.08655 0.53185
# Poissons Ratio (z) = -0.01270 0.42794
#
# Static dielectric constant tensor:
#      x y z
#    x 1.707050 0.000000 0.000000 
#    y 0.000000 1.753130 0.000000 
#    z 0.000000 0.000000 1.757360 
# 
# From -- ./inp_files/31788.got.cif
#   From: 2010.05.17/outbox.cif.g08.bks.cpg/sg51_16_cif.got.tgz:31788.got - 2010.06.03 11:52:47.
