data_PCOD9402702
_publ_section_title
;
Structure prediction by ZEFSAII (Michael W. Deem and Ramdas Pophale) SiO2 
 PCOD9402702
Probable space group: P M M A
;
_chemical_formula_sum "Si O2"
_cell_formula_units_Z 48
_cell_length_a 18.697285
_cell_length_b 7.892272
_cell_length_c 13.675296
_cell_angle_alpha 90.000000
_cell_angle_beta 90.000000
_cell_angle_gamma 90.000000
_cell_volume 2017.982184
_symmetry_space_group_name_H-M "P M M A"
_symmetry_group_IT_number 51
_symmetry_cell_setting 'orthorhombic'
loop_
_space_group_symop_operation_xyz
x,y,z
1/2-x,-y,z
1/2+x,-y,-z
-x,y,-z
-x,-y,-z
1/2+x,y,-z
1/2-x,y,z
x,-y,z
loop_
_atom_site_type_symbol
_atom_site_label
_atom_site_fract_x
_atom_site_fract_y
_atom_site_fract_z
Si Si1 0.327830 0.292429 0.934182
Si Si2 0.365321 0.796729 0.359484
Si Si3 0.866838 0.705194 0.846594
Si Si4 0.520111 0.692769 0.114832
Si Si5 0.517582 0.812677 0.384405
Si Si6 0.173691 0.301596 0.577062
O O1 0.250000 0.240534 0.895940
O O2 0.330819 0.500000 0.931167
O O3 0.333575 0.244326 0.049217
O O4 0.400353 0.231822 0.881134
O O5 0.331180 0.758248 0.254819
O O6 0.445850 0.718446 0.351480
O O7 0.332466 0.728928 0.459866
O O8 0.368680 0.000000 0.372343
O O9 0.869407 0.500000 0.849136
O O10 0.948320 0.776462 0.845324
O O11 0.524849 0.500000 0.154441
O O12 0.500000 0.678826 0.000000
O O13 0.500000 0.823895 0.500000
O O14 0.598599 0.752921 0.375929
O O15 0.516381 0.000000 0.340991
O O16 0.250000 0.224835 0.609637
O O17 0.177047 0.500000 0.594656
#
# Coordination Sequence:
#
# PCOD9402702 Si02
#       6
#     8   8   8   8   8   8
#     4   8  13  22  39  63  87 110 141 182 222 261
#     4  10  20  32  46  66  92 122 153 182 217 264
#     4   9  16  26  42  64  88 114 144 180 222 263
#     4   7  11  21  37  57  81 110 143 176 214 259
#     4   8  16  31  48  65  86 116 154 186 213 256
#     4  10  20  32  48  71  94 115 143 181 224 267
#
# _framework density 23.786135999999999
#
# number of rings (size 3 to 8) (size 9 to 14) (size 15 to 20)
#    0.000    3.333    0.000    4.000    0.000    5.667 
#    0.000    1.667    0.000    5.500    0.000    2.333 
#    0.000    0.000    0.000    0.000    0.000    0.000 
#
# Total GULP energy -267281.151587 kJ/mol
# GULP energy per Si atom -5568.357325 kJ/mol
# Density = 2.373200 g / cm^3
# Si number density = 23.786136 Si / 1000 Ang^3
#
#
#
# Elastic Constant Matrix: (Units=GPa)
#
#
# Indices 1 2 3 4 5 6 
#
# 1 209.8117 15.0776 -11.2851 0.0000 0.0000 0.0000
# 2 15.0776 31.1681 -13.5348 0.0000 0.0000 0.0000
# 3 -11.2851 -13.5348 38.2605 0.0000 0.0000 0.0000
# 4 0.0000 0.0000 0.0000 245.3049 0.0000 0.0000
# 5 0.0000 0.0000 0.0000 0.0000 -5.0846 0.0000
# 6 0.0000 0.0000 0.0000 0.0000 0.0000 4.0824
#
#
#
# Elastic Compliance Matrix: (Units=1/GPa)
#
#
# Indices 1 2 3 4 5 6 
#
# 1 0.004955 -0.002082 0.000725 0.000000 0.000000 0.000000
# 2 -0.002082 0.038782 0.013105 0.000000 0.000000 0.000000
# 3 0.000725 0.013105 0.030986 0.000000 0.000000 0.000000
# 4 0.000000 0.000000 0.000000 0.004077 0.000000 0.000000
# 5 0.000000 0.000000 0.000000 0.000000 -0.196673 0.000000
# 6 0.000000 0.000000 0.000000 0.000000 0.000000 0.244952
#
#
# Mechanical properties :
#
#
# Convention : Reuss Voigt Hill
#
# Bulk Modulus (GPa) = 10.18125 28.86173 19.52149
# Shear Modulus (GPa) = 36.67763 68.12606 52.40185
#
# Velocity S-wave (km/s) = 3.93106 5.35754 4.69875
# Velocity P-wave (km/s) = 4.98938 7.10149 6.13698
#
# Compressibility (1/GPa) = 0.09821980
#
# Stress axis : x y z
#
# Youngs Moduli (GPa) = 201.82474 25.78493 32.27213
#
# Poissons Ratio (x) = 0.05369 -0.02339
# Poissons Ratio (y) = 0.42022 -0.42294
# Poissons Ratio (z) = -0.14630 -0.33792
#
# Static dielectric constant tensor:
#      x y z
#    x 2.024250 0.000000 0.000000 
#    y 0.000000 1.872000 0.000000 
#    z 0.000000 0.000000 1.932980 
# 
# From -- ./inp_files/30052.got.cif
#   From: 2010.05.17/outbox.cif.g08.bks.cpg/sg51_16_cif.got.tgz:30052.got - 2010.06.03 11:52:47.
