data_PCOD9402150
_publ_section_title
;
Structure prediction by ZEFSAII (Michael W. Deem and Ramdas Pophale) SiO2 
 PCOD9402150
Probable space group: P M M A
;
_chemical_formula_sum "Si O2"
_cell_formula_units_Z 48
_cell_length_a 9.303740
_cell_length_b 30.320092
_cell_length_c 8.989193
_cell_angle_alpha 90.000000
_cell_angle_beta 90.000000
_cell_angle_gamma 90.000000
_cell_volume 2535.763725
_symmetry_space_group_name_H-M "P M M A"
_symmetry_group_IT_number 51
_symmetry_cell_setting 'orthorhombic'
loop_
_space_group_symop_operation_xyz
x,y,z
1/2-x,-y,z
1/2+x,-y,-z
-x,y,-z
-x,-y,-z
1/2+x,y,-z
1/2-x,y,z
x,-y,z
loop_
_atom_site_type_symbol
_atom_site_label
_atom_site_fract_x
_atom_site_fract_y
_atom_site_fract_z
Si Si1 0.750000 0.945607 0.831640
Si Si2 0.926393 0.275425 0.661639
Si Si3 0.923588 0.195993 0.159410
Si Si4 0.425472 0.354893 0.836350
Si Si5 0.250000 0.948520 0.820629
Si Si6 0.992181 0.895316 0.324027
Si Si7 0.578794 0.547287 0.158812
O O1 0.875937 0.919507 0.751912
O O2 0.750000 0.000000 0.816547
O O3 0.750000 0.933885 0.007312
O O4 0.750000 0.275029 0.657171
O O5 0.000000 0.271768 0.500000
O O6 0.992152 0.235322 0.757806
O O7 0.991490 0.319400 0.737119
O O8 0.750000 0.203766 0.148412
O O9 0.951513 0.151202 0.250243
O O10 0.000000 0.191287 0.000000
O O11 0.250000 0.347548 0.844377
O O12 0.451493 0.404618 0.773994
O O13 0.500000 0.352702 0.000000
O O14 0.376811 0.930514 0.724117
O O15 0.250000 0.000000 0.829981
O O16 0.000000 0.889608 0.500000
O O17 0.750000 0.547125 0.133264
O O18 0.541832 0.500000 0.233565
O O19 0.500000 0.547129 0.000000
#
# Coordination Sequence:
#
# PCOD9402150 Si02
#       7
#     4   8   8   8   4   8   8
#     4  11  25  43  69  97 131 177 221 267 318 383
#     4  12  26  44  66  91 124 163 207 261 319 380
#     4  12  26  46  71  98 128 165 211 260 319 389
#     4  10  19  34  57  87 124 163 209 260 314 379
#     4  11  23  45  67  95 131 173 221 265 318 381
#     4  12  26  42  67  98 134 170 213 267 324 385
#     4   8  14  25  45  76 114 156 201 253 310 367
#
# _framework density 18.929209
#
# number of rings (size 3 to 8) (size 9 to 14) (size 15 to 20)
#    0.000    1.167    0.833    6.000    2.333    4.000 
#    0.000    0.000    0.000    0.500    0.000    0.000 
#    0.000    0.000    0.000    0.000    0.000    0.000 
#
# Total GULP energy -267399.804196 kJ/mol
# GULP energy per Si atom -5570.829254 kJ/mol
# Density = 1.888612 g / cm^3
# Si number density = 18.929209 Si / 1000 Ang^3
#
#
#
# Elastic Constant Matrix: (Units=GPa)
#
#
# Indices 1 2 3 4 5 6 
#
# 1 151.1039 20.3479 40.9789 0.0000 0.0000 0.0000
# 2 20.3479 57.3874 41.3177 0.0000 0.0000 0.0000
# 3 40.9789 41.3177 137.3454 0.0000 0.0000 0.0000
# 4 0.0000 0.0000 0.0000 -32.6138 0.0000 0.0000
# 5 0.0000 0.0000 0.0000 0.0000 -25.5641 0.0000
# 6 0.0000 0.0000 0.0000 0.0000 0.0000 27.6397
#
#
#
# Elastic Compliance Matrix: (Units=1/GPa)
#
#
# Indices 1 2 3 4 5 6 
#
# 1 0.007276 -0.001298 -0.001780 0.000000 0.000000 0.000000
# 2 -0.001298 0.022475 -0.006374 0.000000 0.000000 0.000000
# 3 -0.001780 -0.006374 0.009730 0.000000 0.000000 0.000000
# 4 0.000000 0.000000 0.000000 -0.030662 0.000000 0.000000
# 5 0.000000 0.000000 0.000000 0.000000 -0.039117 0.000000
# 6 0.000000 0.000000 0.000000 0.000000 0.000000 0.036180
#
#
# Mechanical properties :
#
#
# Convention : Reuss Voigt Hill
#
# Bulk Modulus (GPa) = 48.60111 61.23617 54.91864
# Shear Modulus (GPa) = 158.01276 10.10517 84.05896
#
# Velocity S-wave (km/s) = 9.14641 2.31300 6.67109
# Velocity P-wave (km/s) = 11.71637 6.28917 9.40285
#
# Compressibility (1/GPa) = 0.02057566
#
# Stress axis : x y z
#
# Youngs Moduli (GPa) = 137.44659 44.49463 102.77988
#
# Poissons Ratio (x) = 0.05775 0.18298
# Poissons Ratio (y) = 0.17839 0.65510
# Poissons Ratio (z) = 0.24470 0.28360
#
# Static dielectric constant tensor:
#      x y z
#    x 1.606940 0.000000 0.000000 
#    y 0.000000 1.676330 0.000000 
#    z 0.000000 0.000000 1.650630 
# 
# From -- ./inp_files/6177.got.cif
#   From: 2010.05.17/outbox.cif.g08.bks.cpg/sg51_4_cif.got.tgz:6177.got - 2010.06.03 11:52:47.
