data_PCOD9402303
_publ_section_title
;
Structure prediction by ZEFSAII (Michael W. Deem and Ramdas Pophale) SiO2 
 PCOD9402303
Probable space group: P M M A
;
_chemical_formula_sum "Si O2"
_cell_formula_units_Z 64
_cell_length_a 19.669568
_cell_length_b 9.174727
_cell_length_c 20.866516
_cell_angle_alpha 90.000000
_cell_angle_beta 90.000000
_cell_angle_gamma 90.000000
_cell_volume 3765.632337
_symmetry_space_group_name_H-M "P M M A"
_symmetry_group_IT_number 51
_symmetry_cell_setting 'orthorhombic'
loop_
_space_group_symop_operation_xyz
x,y,z
1/2-x,-y,z
1/2+x,-y,-z
-x,y,-z
-x,-y,-z
1/2+x,y,-z
1/2-x,y,z
x,-y,z
loop_
_atom_site_type_symbol
_atom_site_label
_atom_site_fract_x
_atom_site_fract_y
_atom_site_fract_z
Si Si1 0.543789 0.825269 0.937792
Si Si2 0.672035 0.173365 0.492862
Si Si3 0.533726 0.673771 0.692664
Si Si4 0.171567 0.675008 0.860961
Si Si5 0.672553 0.325234 0.988383
Si Si6 0.540436 0.174573 0.189713
Si Si7 0.953318 0.326711 0.439193
Si Si8 0.327484 0.325674 0.369543
O O1 0.616614 0.750951 0.945140
O O2 0.503300 0.786632 0.873641
O O3 0.551512 0.000000 0.939557
O O4 0.500000 0.780942 0.000000
O O5 0.750000 0.204531 0.473765
O O6 0.616939 0.241412 0.445578
O O7 0.661876 0.245007 0.562927
O O8 0.663640 0.000000 0.497525
O O9 0.530598 0.500000 0.705912
O O10 0.498185 0.760998 0.749213
O O11 0.493722 0.700326 0.626180
O O12 0.612462 0.713813 0.679252
O O13 0.250000 0.710768 0.844620
O O14 0.163826 0.500000 0.855022
O O15 0.114878 0.756194 0.819914
O O16 0.161650 0.712415 0.936391
O O17 0.750000 0.284577 0.972063
O O18 0.666778 0.500000 0.983533
O O19 0.545404 0.000000 0.193435
O O20 0.940349 0.500000 0.443965
O O21 0.000000 0.285470 0.500000
O O22 0.250000 0.295835 0.347926
O O23 0.333420 0.500000 0.381124
#
# Coordination Sequence:
#
# PCOD9402303 Si02
#       8
#     8   8   8   8   8   8   8   8
#     4  10  20  35  53  77 109 143 180 219 263 320
#     4  10  20  32  50  81 115 143 175 220 272 319
#     4  10  21  37  56  80 110 143 180 223 271 322
#     4   9  18  34  56  81 108 138 176 222 271 323
#     4   9  18  32  53  83 111 136 175 227 276 319
#     4  11  23  37  54  79 111 146 183 222 266 320
#     4  10  19  35  57  81 106 136 178 222 265 317
#     4   9  17  33  57  80 104 139 182 224 266 317
#
# _framework density 16.995816999999999
#
# number of rings (size 3 to 8) (size 9 to 14) (size 15 to 20)
#    0.000    2.250    2.500    1.500    0.000    3.750 
#    0.000    2.500    0.000    3.000    0.000    0.000 
#    0.000    0.000    0.000    0.000    0.000    0.000 
#
# Total GULP energy -357041.393911 kJ/mol
# GULP energy per Si atom -5578.771780 kJ/mol
# Density = 1.695713 g / cm^3
# Si number density = 16.995817 Si / 1000 Ang^3
#
#
#
# Elastic Constant Matrix: (Units=GPa)
#
#
# Indices 1 2 3 4 5 6 
#
# 1 152.4149 57.2771 59.8062 0.0000 0.0000 0.0000
# 2 57.2771 32.1561 39.0394 0.0000 0.0000 0.0000
# 3 59.8062 39.0394 80.4906 0.0000 0.0000 0.0000
# 4 0.0000 0.0000 0.0000 23.0065 0.0000 0.0000
# 5 0.0000 0.0000 0.0000 0.0000 26.8569 0.0000
# 6 0.0000 0.0000 0.0000 0.0000 0.0000 15.7358
#
#
#
# Elastic Compliance Matrix: (Units=1/GPa)
#
#
# Indices 1 2 3 4 5 6 
#
# 1 0.021039 -0.044986 0.006187 0.000000 0.000000 0.000000
# 2 -0.044986 0.171826 -0.049913 0.000000 0.000000 0.000000
# 3 0.006187 -0.049913 0.032036 0.000000 0.000000 0.000000
# 4 0.000000 0.000000 0.000000 0.043466 0.000000 0.000000
# 5 0.000000 0.000000 0.000000 0.000000 0.037234 0.000000
# 6 0.000000 0.000000 0.000000 0.000000 0.000000 0.063549
#
#
# Mechanical properties :
#
#
# Convention : Reuss Voigt Hill
#
# Bulk Modulus (GPa) = 21.06340 64.14523 42.60431
# Shear Modulus (GPa) = 8.89044 20.38246 14.63645
#
# Velocity S-wave (km/s) = 2.28961 3.46680 2.93777
# Velocity P-wave (km/s) = 4.40567 7.33816 6.05221
#
# Compressibility (1/GPa) = 0.04747572
#
# Stress axis : x y z
#
# Youngs Moduli (GPa) = 47.53032 5.81983 31.21514
#
# Poissons Ratio (x) = 0.26181 -0.19312
# Poissons Ratio (y) = 2.13822 1.55804
# Poissons Ratio (z) = -0.29405 0.29049
#
# Static dielectric constant tensor:
#      x y z
#    x 1.585030 0.000000 0.000000 
#    y 0.000000 1.562490 0.000000 
#    z 0.000000 0.000000 1.547930 
# 
# From -- ./inp_files/30520.got.cif
#   From: 2010.05.17/outbox.cif.g08.bks.cpg/sg51_16_cif.got.tgz:30520.got - 2010.06.03 11:52:47.
