data_PCOD9402499
_publ_section_title
;
Structure prediction by ZEFSAII (Michael W. Deem and Ramdas Pophale) SiO2 
 PCOD9402499
Probable space group: P M M A
;
_chemical_formula_sum "Si O2"
_cell_formula_units_Z 48
_cell_length_a 8.666522
_cell_length_b 14.725076
_cell_length_c 20.847785
_cell_angle_alpha 90.000000
_cell_angle_beta 90.000000
_cell_angle_gamma 90.000000
_cell_volume 2660.494150
_symmetry_space_group_name_H-M "P M M A"
_symmetry_group_IT_number 51
_symmetry_cell_setting 'orthorhombic'
loop_
_space_group_symop_operation_xyz
x,y,z
1/2-x,-y,z
1/2+x,-y,-z
-x,y,-z
-x,-y,-z
1/2+x,y,-z
1/2-x,y,z
x,-y,z
loop_
_atom_site_type_symbol
_atom_site_label
_atom_site_fract_x
_atom_site_fract_y
_atom_site_fract_z
Si Si1 0.564240 0.685822 0.809615
Si Si2 0.562937 0.000000 0.871380
Si Si3 0.935844 0.192808 0.930211
Si Si4 0.565796 0.000000 0.272981
Si Si5 0.567411 0.500000 0.239415
Si Si6 0.934907 0.809082 0.684908
Si Si7 0.434261 0.309394 0.569043
Si Si8 0.065761 0.500000 0.382697
O O1 0.750000 0.672441 0.810733
O O2 0.517161 0.736814 0.874725
O O3 0.482664 0.590261 0.798102
O O4 0.529852 0.751237 0.749230
O O5 0.516351 0.091397 0.908437
O O6 0.493593 0.000000 0.800380
O O7 0.750000 0.000000 0.865236
O O8 0.750000 0.193291 0.932461
O O9 0.000000 0.214539 0.000000
O O10 0.501215 0.090573 0.306067
O O11 0.750000 0.000000 0.274164
O O12 0.750000 0.500000 0.251225
O O13 0.480688 0.500000 0.307833
O O14 0.750000 0.812432 0.678571
O O15 0.006650 0.757234 0.624634
O O16 0.500000 0.281901 0.500000
O O17 0.250000 0.311146 0.567833
O O18 0.497325 0.409703 0.585571
O O19 0.250000 0.500000 0.388785
#
# Coordination Sequence:
#
# PCOD9402499 Si02
#       8
#     8   4   8   4   4   8   8   4
#     4  10  21  39  63  86 118 161 204 246 301 368
#     4  10  19  37  59  85 123 161 200 243 305 371
#     4  10  21  37  59  87 121 160 199 248 302 364
#     4  12  24  37  60  95 127 157 204 259 301 351
#     4  12  24  37  60  93 124 153 200 261 306 353
#     4  11  22  41  66  89 121 164 205 249 304 364
#     4  12  25  42  63  93 128 163 205 252 306 363
#     4  12  23  39  62  91 128 167 202 247 308 365
#
# _framework density 18.04176
#
# number of rings (size 3 to 8) (size 9 to 14) (size 15 to 20)
#    0.000    1.000    3.333    4.750    0.000    2.000 
#    0.000    0.833    0.000    0.000    0.000    0.000 
#    0.000    0.000    0.000    0.000    0.000    0.000 
#
# Total GULP energy -268475.211684 kJ/mol
# GULP energy per Si atom -5593.233577 kJ/mol
# Density = 1.800070 g / cm^3
# Si number density = 18.041760 Si / 1000 Ang^3
#
#
#
# Elastic Constant Matrix: (Units=GPa)
#
#
# Indices 1 2 3 4 5 6 
#
# 1 98.9664 63.1180 62.8327 0.0000 0.0000 0.0000
# 2 63.1180 135.8253 72.0130 0.0000 0.0000 0.0000
# 3 62.8327 72.0130 164.7980 0.0000 0.0000 0.0000
# 4 0.0000 0.0000 0.0000 33.6260 0.0000 0.0000
# 5 0.0000 0.0000 0.0000 0.0000 34.4813 0.0000
# 6 0.0000 0.0000 0.0000 0.0000 0.0000 18.5393
#
#
#
# Elastic Compliance Matrix: (Units=1/GPa)
#
#
# Indices 1 2 3 4 5 6 
#
# 1 0.015918 -0.005439 -0.003692 0.000000 0.000000 0.000000
# 2 -0.005439 0.011441 -0.002926 0.000000 0.000000 0.000000
# 3 -0.003692 -0.002926 0.008754 0.000000 0.000000 0.000000
# 4 0.000000 0.000000 0.000000 0.029739 0.000000 0.000000
# 5 0.000000 0.000000 0.000000 0.000000 0.029001 0.000000
# 6 0.000000 0.000000 0.000000 0.000000 0.000000 0.053939
#
#
# Mechanical properties :
#
#
# Convention : Reuss Voigt Hill
#
# Bulk Modulus (GPa) = 83.34197 88.39079 85.86638
# Shear Modulus (GPa) = 28.26355 30.77105 29.51730
#
# Velocity S-wave (km/s) = 3.96228 4.13431 4.04920
# Velocity P-wave (km/s) = 8.19921 8.47872 8.34014
#
# Compressibility (1/GPa) = 0.01199876
#
# Stress axis : x y z
#
# Youngs Moduli (GPa) = 62.82361 87.40283 114.23167
#
# Poissons Ratio (x) = 0.47542 0.42174
# Poissons Ratio (y) = 0.34173 0.33421
# Poissons Ratio (z) = 0.23194 0.25571
#
# Static dielectric constant tensor:
#      x y z
#    x 1.591090 0.000000 0.000000 
#    y 0.000000 1.595060 0.000000 
#    z 0.000000 0.000000 1.595290 
# 
# From -- ./inp_files/27707.got.cif
#   From: 2010.05.17/outbox.cif.g08.bks.cpg/sg51_14_cif.got.tgz:27707.got - 2010.06.03 11:52:47.
