data_PCOD9402342
_publ_section_title
;
Structure prediction by ZEFSAII (Michael W. Deem and Ramdas Pophale) SiO2 
 PCOD9402342
Probable space group: P M M A
;
_chemical_formula_sum "Si O2"
_cell_formula_units_Z 64
_cell_length_a 8.888737
_cell_length_b 15.608967
_cell_length_c 24.269804
_cell_angle_alpha 90.000000
_cell_angle_beta 90.000000
_cell_angle_gamma 90.000000
_cell_volume 3367.289747
_symmetry_space_group_name_H-M "P M M A"
_symmetry_group_IT_number 51
_symmetry_cell_setting 'orthorhombic'
loop_
_space_group_symop_operation_xyz
x,y,z
1/2-x,-y,z
1/2+x,-y,-z
-x,y,-z
-x,-y,-z
1/2+x,y,-z
1/2-x,y,z
x,-y,z
loop_
_atom_site_type_symbol
_atom_site_label
_atom_site_fract_x
_atom_site_fract_y
_atom_site_fract_z
Si Si1 0.070746 0.401935 0.555428
Si Si2 0.420086 0.896856 0.556675
Si Si3 0.426959 0.730476 0.145197
Si Si4 0.073339 0.858987 0.325250
Si Si5 0.424929 0.684327 0.668844
Si Si6 0.430485 0.402346 0.939132
Si Si7 0.933177 0.905308 0.797017
Si Si8 0.420616 0.593934 0.242082
O O1 0.250000 0.405043 0.549815
O O2 0.016350 0.500000 0.563325
O O3 0.036882 0.345190 0.607756
O O4 0.000000 0.367102 0.500000
O O5 0.500000 0.866388 0.500000
O O6 0.250000 0.862307 0.558368
O O7 0.497331 0.879912 0.615892
O O8 0.413602 0.000000 0.552093
O O9 0.250000 0.738810 0.130315
O O10 0.510169 0.676040 0.098100
O O11 0.483158 0.824099 0.165987
O O12 0.437281 0.668329 0.197922
O O13 0.250000 0.877157 0.330703
O O14 0.018781 0.900236 0.267549
O O15 0.036613 0.759865 0.315373
O O16 0.250000 0.710373 0.671939
O O17 0.458985 0.607581 0.710254
O O18 0.250000 0.398545 0.941628
O O19 0.471045 0.500000 0.919417
O O20 0.500000 0.394336 0.000000
O O21 0.750000 0.899452 0.795528
O O22 0.974135 0.000000 0.818291
O O23 0.250000 0.598669 0.264774
O O24 0.437706 0.500000 0.216576
#
# Coordination Sequence:
#
# PCOD9402342 Si02
#       8
#     8   8   8   8   8   8   8   8
#     4   9  19  35  52  69  90 122 167 218 272 333
#     4  10  21  37  56  79 105 134 174 226 289 359
#     4  10  19  35  58  86 120 155 196 242 287 338
#     4  11  21  36  56  78 108 143 186 236 291 352
#     4  11  22  35  51  73 105 138 177 227 282 342
#     4  10  21  37  59  90 127 166 205 241 284 336
#     4   9  18  34  58  85 113 150 196 242 292 351
#     4  10  20  34  53  79 111 148 188 229 281 344
#
# _framework density 19.006383
#
# number of rings (size 3 to 8) (size 9 to 14) (size 15 to 20)
#    0.000    2.000    1.250    2.625    0.000    5.250 
#    0.000    2.500    0.000    2.250    0.000    0.000 
#    0.000    0.000    0.000    0.000    0.000    0.000 
#
# Total GULP energy -356826.037533 kJ/mol
# GULP energy per Si atom -5575.406836 kJ/mol
# Density = 1.896312 g / cm^3
# Si number density = 19.006383 Si / 1000 Ang^3
#
#
#
# Elastic Constant Matrix: (Units=GPa)
#
#
# Indices 1 2 3 4 5 6 
#
# 1 35.8959 27.8015 41.0238 0.0000 0.0000 0.0000
# 2 27.8015 118.8917 47.1662 0.0000 0.0000 0.0000
# 3 41.0238 47.1662 95.2015 0.0000 0.0000 0.0000
# 4 0.0000 0.0000 0.0000 40.4812 0.0000 0.0000
# 5 0.0000 0.0000 0.0000 0.0000 27.4162 0.0000
# 6 0.0000 0.0000 0.0000 0.0000 0.0000 27.2783
#
#
#
# Elastic Compliance Matrix: (Units=1/GPa)
#
#
# Indices 1 2 3 4 5 6 
#
# 1 0.056712 -0.004439 -0.022239 0.000000 0.000000 0.000000
# 2 -0.004439 0.010816 -0.003446 0.000000 0.000000 0.000000
# 3 -0.022239 -0.003446 0.021794 0.000000 0.000000 0.000000
# 4 0.000000 0.000000 0.000000 0.024703 0.000000 0.000000
# 5 0.000000 0.000000 0.000000 0.000000 0.036475 0.000000
# 6 0.000000 0.000000 0.000000 0.000000 0.000000 0.036659
#
#
# Mechanical properties :
#
#
# Convention : Reuss Voigt Hill
#
# Bulk Modulus (GPa) = 34.39373 53.55245 43.97309
# Shear Modulus (GPa) = 19.44782 27.96832 23.70807
#
# Velocity S-wave (km/s) = 3.20226 3.84020 3.53565
# Velocity P-wave (km/s) = 5.63984 6.92099 6.31300
#
# Compressibility (1/GPa) = 0.02907507
#
# Stress axis : x y z
#
# Youngs Moduli (GPa) = 17.63292 92.45535 45.88356
#
# Poissons Ratio (x) = 0.41041 1.02040
# Poissons Ratio (y) = 0.07827 0.15811
# Poissons Ratio (z) = 0.39214 0.31859
#
# Static dielectric constant tensor:
#      x y z
#    x 1.659750 0.000000 0.000000 
#    y 0.000000 1.714450 0.000000 
#    z 0.000000 0.000000 1.632350 
# 
# From -- ./inp_files/34862.got.cif
#   From: 2010.05.17/outbox.cif.g08.bks.cpg/sg51_18_cif.got.tgz:34862.got - 2010.06.03 11:52:47.
