data_PCOD9402449
_publ_section_title
;
Structure prediction by ZEFSAII (Michael W. Deem and Ramdas Pophale) SiO2 
 PCOD9402449
Probable space group: P M M A
;
_chemical_formula_sum "Si O2"
_cell_formula_units_Z 56
_cell_length_a 8.415931
_cell_length_b 21.880201
_cell_length_c 15.922535
_cell_angle_alpha 90.000000
_cell_angle_beta 90.000000
_cell_angle_gamma 90.000000
_cell_volume 2932.011610
_symmetry_space_group_name_H-M "P M M A"
_symmetry_group_IT_number 51
_symmetry_cell_setting 'orthorhombic'
loop_
_space_group_symop_operation_xyz
x,y,z
1/2-x,-y,z
1/2+x,-y,-z
-x,y,-z
-x,-y,-z
1/2+x,y,-z
1/2-x,y,z
x,-y,z
loop_
_atom_site_type_symbol
_atom_site_label
_atom_site_fract_x
_atom_site_fract_y
_atom_site_fract_z
Si Si1 0.058402 0.631381 0.408897
Si Si2 0.944136 0.289327 0.750641
Si Si3 0.060923 0.500000 0.848188
Si Si4 0.057479 0.500000 0.343470
Si Si5 0.057775 0.851102 0.251222
Si Si6 0.559735 0.929526 0.407473
Si Si7 0.941751 0.929489 0.908407
Si Si8 0.440223 0.630146 0.090740
O O1 0.250000 0.631362 0.408806
O O2 0.004677 0.674810 0.332993
O O3 0.004762 0.562020 0.389063
O O4 0.000000 0.650971 0.500000
O O5 0.750000 0.289721 0.750938
O O6 0.996191 0.219142 0.750387
O O7 0.995663 0.326462 0.833167
O O8 0.250000 0.500000 0.850837
O O9 0.002075 0.500000 0.751966
O O10 0.998095 0.438601 0.891569
O O11 0.250000 0.500000 0.340920
O O12 0.250000 0.851099 0.250413
O O13 0.003088 0.887557 0.168332
O O14 0.003145 0.886267 0.334301
O O15 0.500000 0.911371 0.500000
O O16 0.750000 0.928611 0.407290
O O17 0.506514 0.000000 0.392889
O O18 0.750000 0.929098 0.908793
O O19 0.994183 0.000000 0.896161
O O20 0.000000 0.909114 0.000000
O O21 0.250000 0.629935 0.091081
O O22 0.500000 0.650832 0.000000
#
# Coordination Sequence:
#
# PCOD9402449 Si02
#       8
#     8   8   4   4   8   8   8   8
#     4  10  20  36  57  81 108 144 183 222 275 328
#     4   9  20  38  58  79 111 152 187 225 276 333
#     4  12  23  36  59  89 114 141 185 237 288 337
#     4  10  19  36  60  81 110 147 178 223 286 339
#     4  10  20  36  58  83 112 149 191 230 279 335
#     4  10  21  37  58  85 115 148 187 234 286 337
#     4   9  18  32  52  79 110 143 179 223 273 324
#     4  11  22  40  61  83 114 150 189 232 284 340
#
# _framework density 19.099513999999999
#
# number of rings (size 3 to 8) (size 9 to 14) (size 15 to 20)
#    0.000    2.000    1.429    2.357    0.000    3.714 
#    0.000    5.000    0.000    0.000    0.000    0.000 
#    0.000    0.000    0.000    0.000    0.000    0.000 
#
# Total GULP energy -312807.347189 kJ/mol
# GULP energy per Si atom -5585.845486 kJ/mol
# Density = 1.905604 g / cm^3
# Si number density = 19.099514 Si / 1000 Ang^3
#
#
#
# Elastic Constant Matrix: (Units=GPa)
#
#
# Indices 1 2 3 4 5 6 
#
# 1 15.2659 21.3121 20.1545 0.0000 0.0000 0.0000
# 2 21.3121 148.7088 116.8656 0.0000 0.0000 0.0000
# 3 20.1545 116.8656 206.8848 0.0000 0.0000 0.0000
# 4 0.0000 0.0000 0.0000 -0.3775 0.0000 0.0000
# 5 0.0000 0.0000 0.0000 0.0000 33.4723 0.0000
# 6 0.0000 0.0000 0.0000 0.0000 0.0000 10.2058
#
#
#
# Elastic Compliance Matrix: (Units=1/GPa)
#
#
# Indices 1 2 3 4 5 6 
#
# 1 0.082571 -0.009912 -0.002445 0.000000 0.000000 0.000000
# 2 -0.009912 0.013283 -0.006538 0.000000 0.000000 0.000000
# 3 -0.002445 -0.006538 0.008765 0.000000 0.000000 0.000000
# 4 0.000000 0.000000 0.000000 -2.648676 0.000000 0.000000
# 5 0.000000 0.000000 0.000000 0.000000 0.029875 0.000000
# 6 0.000000 0.000000 0.000000 0.000000 0.000000 0.097984
#
#
# Mechanical properties :
#
#
# Convention : Reuss Voigt Hill
#
# Bulk Modulus (GPa) = 14.96348 76.39154 45.67751
# Shear Modulus (GPa) = -2.12212 22.82861 10.35324
#
# Velocity S-wave (km/s) = -1.05522 3.46098 2.33076
# Velocity P-wave (km/s) = 2.52326 7.48696 5.58666
#
# Compressibility (1/GPa) = 0.06682939
#
# Stress axis : x y z
#
# Youngs Moduli (GPa) = 12.11077 75.28522 114.09375
#
# Poissons Ratio (x) = 0.74626 0.27891
# Poissons Ratio (y) = 0.12005 0.74590
# Poissons Ratio (z) = 0.02961 0.49218
#
# Static dielectric constant tensor:
#      x y z
#    x 1.659830 0.000000 0.000000 
#    y 0.000000 1.654390 0.000000 
#    z 0.000000 0.000000 1.638970 
# 
# From -- ./inp_files/21904.got.cif
#   From: 2010.05.17/outbox.cif.g08.bks.cpg/sg51_11_cif.got.tgz:21904.got - 2010.06.03 11:52:47.
