data_PCOD9402132
_publ_section_title
;
Structure prediction by ZEFSAII (Michael W. Deem and Ramdas Pophale) SiO2 
 PCOD9402132
Probable space group: P M M A
;
_chemical_formula_sum "Si O2"
_cell_formula_units_Z 48
_cell_length_a 8.629152
_cell_length_b 32.213255
_cell_length_c 9.219714
_cell_angle_alpha 90.000000
_cell_angle_beta 90.000000
_cell_angle_gamma 90.000000
_cell_volume 2562.832240
_symmetry_space_group_name_H-M "P M M A"
_symmetry_group_IT_number 51
_symmetry_cell_setting 'orthorhombic'
loop_
_space_group_symop_operation_xyz
x,y,z
1/2-x,-y,z
1/2+x,-y,-z
-x,y,-z
-x,-y,-z
1/2+x,y,-z
1/2-x,y,z
x,-y,z
loop_
_atom_site_type_symbol
_atom_site_label
_atom_site_fract_x
_atom_site_fract_y
_atom_site_fract_z
Si Si1 0.063744 0.251912 0.337402
Si Si2 0.063561 0.000000 0.663632
Si Si3 0.936968 0.591016 0.664865
Si Si4 0.563503 0.090853 0.335549
Si Si5 0.563798 0.500000 0.663425
Si Si6 0.064339 0.830967 0.161861
Si Si7 0.435098 0.669462 0.837621
O O1 0.250000 0.254742 0.340185
O O2 0.019238 0.209676 0.254131
O O3 0.000000 0.251067 0.500000
O O4 0.996689 0.291343 0.252922
O O5 0.016616 0.954992 0.724488
O O6 0.000000 0.000000 0.500000
O O7 0.250000 0.000000 0.659331
O O8 0.750000 0.594038 0.661734
O O9 0.982211 0.545028 0.724478
O O10 0.000000 0.594429 0.500000
O O11 0.005768 0.627689 0.760323
O O12 0.500000 0.094482 0.500000
O O13 0.750000 0.093039 0.340176
O O14 0.498995 0.127970 0.239584
O O15 0.750000 0.500000 0.658182
O O16 0.500000 0.500000 0.500000
O O17 0.250000 0.832820 0.157487
O O18 0.000000 0.827614 0.000000
O O19 0.250000 0.669981 0.840205
O O20 0.500000 0.671692 0.000000
#
# Coordination Sequence:
#
# PCOD9402132 Si02
#       7
#     8   4   8   8   4   8   8
#     4  11  24  42  64  89 115 146 185 230 277 331
#     4   8  16  30  51  80 111 146 186 232 280 328
#     4  10  19  35  58  86 117 151 192 236 282 332
#     4  10  19  34  57  84 115 149 190 235 281 332
#     4   8  16  30  53  82 113 148 188 234 280 328
#     4  11  24  40  59  84 115 150 188 230 282 337
#     4  12  25  41  60  84 115 151 189 232 283 338
#
# _framework density 18.729278999999998
#
# number of rings (size 3 to 8) (size 9 to 14) (size 15 to 20)
#    0.000    1.667    0.000    5.000    0.000    6.667 
#    0.000    0.833    0.000    0.000    0.000    0.000 
#    0.000    0.000    0.000    0.000    0.000    0.000 
#
# Total GULP energy -268052.469906 kJ/mol
# GULP energy per Si atom -5584.426456 kJ/mol
# Density = 1.868665 g / cm^3
# Si number density = 18.729279 Si / 1000 Ang^3
#
#
#
# Elastic Constant Matrix: (Units=GPa)
#
#
# Indices 1 2 3 4 5 6 
#
# 1 76.5344 73.0131 48.8082 0.0000 0.0000 0.0000
# 2 73.0131 239.8455 110.3911 0.0000 0.0000 0.0000
# 3 48.8082 110.3911 136.8114 0.0000 0.0000 0.0000
# 4 0.0000 0.0000 0.0000 -28.1109 0.0000 0.0000
# 5 0.0000 0.0000 0.0000 0.0000 32.8184 0.0000
# 6 0.0000 0.0000 0.0000 0.0000 0.0000 0.4231
#
#
#
# Elastic Compliance Matrix: (Units=1/GPa)
#
#
# Indices 1 2 3 4 5 6 
#
# 1 0.019372 -0.004321 -0.003425 0.000000 0.000000 0.000000
# 2 -0.004321 0.007596 -0.004588 0.000000 0.000000 0.000000
# 3 -0.003425 -0.004588 0.012233 0.000000 0.000000 0.000000
# 4 0.000000 0.000000 0.000000 -0.035573 0.000000 0.000000
# 5 0.000000 0.000000 0.000000 0.000000 0.030471 0.000000
# 6 0.000000 0.000000 0.000000 0.000000 0.000000 2.363636
#
#
# Mechanical properties :
#
#
# Convention : Reuss Voigt Hill
#
# Bulk Modulus (GPa) = 68.80129 101.95736 85.37932
# Shear Modulus (GPa) = 2.05995 15.75803 8.90899
#
# Velocity S-wave (km/s) = 1.04988 2.90376 2.18336
# Velocity P-wave (km/s) = 6.18741 8.11160 7.21395
#
# Compressibility (1/GPa) = 0.01453461
#
# Stress axis : x y z
#
# Youngs Moduli (GPa) = 51.62032 131.64247 81.74683
#
# Poissons Ratio (x) = 0.56883 0.27995
# Poissons Ratio (y) = 0.22305 0.37504
# Poissons Ratio (z) = 0.17678 0.60395
#
# Static dielectric constant tensor:
#      x y z
#    x 1.631870 0.000000 0.000000 
#    y 0.000000 1.675190 0.000000 
#    z 0.000000 0.000000 1.592240 
# 
# From -- ./inp_files/6293.got.cif
#   From: 2010.05.17/outbox.cif.g08.bks.cpg/sg51_4_cif.got.tgz:6293.got - 2010.06.03 11:52:47.
