data_PCOD9402367
_publ_section_title
;
Structure prediction by ZEFSAII (Michael W. Deem and Ramdas Pophale) SiO2 
 PCOD9402367
Probable space group: P M M A
;
_chemical_formula_sum "Si O2"
_cell_formula_units_Z 56
_cell_length_a 22.519644
_cell_length_b 8.619650
_cell_length_c 14.991446
_cell_angle_alpha 90.000000
_cell_angle_beta 90.000000
_cell_angle_gamma 90.000000
_cell_volume 2910.011312
_symmetry_space_group_name_H-M "P M M A"
_symmetry_group_IT_number 51
_symmetry_cell_setting 'orthorhombic'
loop_
_space_group_symop_operation_xyz
x,y,z
1/2-x,-y,z
1/2+x,-y,-z
-x,y,-z
-x,-y,-z
1/2+x,y,-z
1/2-x,y,z
x,-y,z
loop_
_atom_site_type_symbol
_atom_site_label
_atom_site_fract_x
_atom_site_fract_y
_atom_site_fract_z
Si Si1 0.081843 0.312650 0.771602
Si Si2 0.456806 0.687596 0.309651
Si Si3 0.250000 0.676099 0.165621
Si Si4 0.250000 0.324597 0.377227
Si Si5 0.369626 0.815802 0.455158
Si Si6 0.377685 0.314865 0.140452
Si Si7 0.067969 0.175609 0.968510
Si Si8 0.319236 0.312863 0.636225
O O1 0.080189 0.500000 0.780119
O O2 0.074046 0.240459 0.869062
O O3 0.143716 0.268483 0.724421
O O4 0.025031 0.268506 0.710150
O O5 0.454090 0.500000 0.314487
O O6 0.425159 0.751961 0.398143
O O7 0.418913 0.740410 0.222284
O O8 0.250000 0.500000 0.126472
O O9 0.250000 0.661176 0.271747
O O10 0.188198 0.754326 0.142678
O O11 0.250000 0.500000 0.416460
O O12 0.190534 0.237612 0.405200
O O13 0.358067 0.747618 0.553315
O O14 0.373439 0.000000 0.459456
O O15 0.373059 0.500000 0.154771
O O16 0.402399 0.281389 0.043351
O O17 0.091630 0.000000 0.972189
O O18 0.000000 0.170747 0.000000
O O19 0.250000 0.259969 0.632480
O O20 0.318223 0.500000 0.632232
#
# Coordination Sequence:
#
# PCOD9402367 Si02
#       8
#     8   8   4   4   8   8   8   8
#     4  10  22  41  65  90 113 150 208 257 295 349
#     4  10  20  36  61  90 120 155 197 249 301 350
#     4   9  18  33  55  84 113 148 193 241 292 346
#     4  11  19  35  59  84 117 158 205 245 288 344
#     4  12  24  36  57  91 125 157 196 238 297 364
#     4  10  19  35  59  85 115 154 199 245 293 350
#     4  11  23  38  59  87 119 157 194 238 306 368
#     4  10  22  42  66  87 114 157 205 252 298 346
#
# _framework density 19.243912000000002
#
# number of rings (size 3 to 8) (size 9 to 14) (size 15 to 20)
#    0.000    1.571    3.571    1.929    0.000    2.857 
#    1.286    3.214    0.000    0.000    0.000    0.000 
#    0.000    0.000    0.000    0.000    0.000    0.000 
#
# Total GULP energy -312440.655644 kJ/mol
# GULP energy per Si atom -5579.297422 kJ/mol
# Density = 1.920011 g / cm^3
# Si number density = 19.243912 Si / 1000 Ang^3
#
#
#
# Elastic Constant Matrix: (Units=GPa)
#
#
# Indices 1 2 3 4 5 6 
#
# 1 85.9758 18.7168 46.8005 0.0000 0.0000 0.0000
# 2 18.7168 19.0040 16.1671 0.0000 0.0000 0.0000
# 3 46.8005 16.1671 112.3263 0.0000 0.0000 0.0000
# 4 0.0000 0.0000 0.0000 -48.5485 0.0000 0.0000
# 5 0.0000 0.0000 0.0000 0.0000 7.6173 0.0000
# 6 0.0000 0.0000 0.0000 0.0000 0.0000 20.6784
#
#
#
# Elastic Compliance Matrix: (Units=1/GPa)
#
#
# Indices 1 2 3 4 5 6 
#
# 1 0.017280 -0.012414 -0.005413 0.000000 0.000000 0.000000
# 2 -0.012414 0.068881 -0.004742 0.000000 0.000000 0.000000
# 3 -0.005413 -0.004742 0.011840 0.000000 0.000000 0.000000
# 4 0.000000 0.000000 0.000000 -0.020598 0.000000 0.000000
# 5 0.000000 0.000000 0.000000 0.000000 0.131279 0.000000
# 6 0.000000 0.000000 0.000000 0.000000 0.000000 0.048360
#
#
# Mechanical properties :
#
#
# Convention : Reuss Voigt Hill
#
# Bulk Modulus (GPa) = 18.91650 42.29720 30.60685
# Shear Modulus (GPa) = 15.63468 4.99089 10.31278
#
# Velocity S-wave (km/s) = 2.85344 1.61218 2.31746
# Velocity P-wave (km/s) = 4.55053 5.04903 4.80625
#
# Compressibility (1/GPa) = 0.05286389
#
# Stress axis : x y z
#
# Youngs Moduli (GPa) = 57.86947 14.51780 84.45640
#
# Poissons Ratio (x) = 0.18023 0.45716
# Poissons Ratio (y) = 0.71840 0.40047
# Poissons Ratio (z) = 0.31325 0.06884
#
# Static dielectric constant tensor:
#      x y z
#    x 1.687770 0.000000 0.000000 
#    y 0.000000 1.666690 0.000000 
#    z 0.000000 0.000000 1.652690 
# 
# From -- ./inp_files/25922.got.cif
#   From: 2010.05.17/outbox.cif.g08.bks.cpg/sg51_13_cif.got.tgz:25922.got - 2010.06.03 11:52:47.
