data_PCOD9402313
_publ_section_title
;
Structure prediction by ZEFSAII (Michael W. Deem and Ramdas Pophale) SiO2 
 PCOD9402313
Probable space group: P M M A
;
_chemical_formula_sum "Si O2"
_cell_formula_units_Z 48
_cell_length_a 14.009918
_cell_length_b 13.649695
_cell_length_c 12.286255
_cell_angle_alpha 90.000000
_cell_angle_beta 90.000000
_cell_angle_gamma 90.000000
_cell_volume 2349.514153
_symmetry_space_group_name_H-M "P M M A"
_symmetry_group_IT_number 51
_symmetry_cell_setting 'orthorhombic'
loop_
_space_group_symop_operation_xyz
x,y,z
1/2-x,-y,z
1/2+x,-y,-z
-x,y,-z
-x,-y,-z
1/2+x,y,-z
1/2-x,y,z
x,-y,z
loop_
_atom_site_type_symbol
_atom_site_label
_atom_site_fract_x
_atom_site_fract_y
_atom_site_fract_z
Si Si1 0.358243 0.306479 0.872215
Si Si2 0.137319 0.387057 0.484549
Si Si3 0.358189 0.198248 0.230362
Si Si4 0.386276 0.107946 0.002095
Si Si5 0.009402 0.702604 0.663678
Si Si6 0.634856 0.395457 0.904716
O O1 0.250000 0.334059 0.841658
O O2 0.428313 0.313423 0.771383
O O3 0.354589 0.197620 0.925968
O O4 0.393999 0.373286 0.971545
O O5 0.250000 0.370286 0.467142
O O6 0.126497 0.500000 0.522735
O O7 0.088991 0.311238 0.568929
O O8 0.073320 0.372442 0.376793
O O9 0.250000 0.199154 0.275336
O O10 0.359565 0.124331 0.128652
O O11 0.445617 0.198498 0.315835
O O12 0.380547 0.300881 0.168560
O O13 0.355867 0.000000 0.965768
O O14 0.500000 0.111848 0.000000
O O15 0.750000 0.400580 0.909054
O O16 0.597776 0.500000 0.865887
#
# Coordination Sequence:
#
# PCOD9402313 Si02
#       6
#     8   8   8   8   8   8
#     4  10  20  33  52  79 112 150 191 230 275 330
#     4  10  23  41  58  79 107 142 190 243 295 346
#     4  10  20  33  52  79 112 150 191 230 275 330
#     4  10  19  35  57  83 120 160 192 231 276 330
#     4  11  20  35  55  78 105 139 180 233 282 334
#     4   8  16  29  43  66 105 146 179 212 253 309
#
# _framework density 20.429753999999999
#
# number of rings (size 3 to 8) (size 9 to 14) (size 15 to 20)
#    0.000    2.167    1.667    3.500    0.000    4.000 
#    0.000    4.167    0.000    0.000    0.000    9.333 
#    0.000   16.000    0.000    0.000    0.000    0.000 
#
# Total GULP energy -267391.151230 kJ/mol
# GULP energy per Si atom -5570.648984 kJ/mol
# Density = 2.038326 g / cm^3
# Si number density = 20.429754 Si / 1000 Ang^3
#
#
#
# Elastic Constant Matrix: (Units=GPa)
#
#
# Indices 1 2 3 4 5 6 
#
# 1 168.2679 -0.6405 30.5255 0.0000 0.0000 0.0000
# 2 -0.6405 58.2119 12.8184 0.0000 0.0000 0.0000
# 3 30.5255 12.8184 70.5100 0.0000 0.0000 0.0000
# 4 0.0000 0.0000 0.0000 13.2837 0.0000 0.0000
# 5 0.0000 0.0000 0.0000 0.0000 14.9663 0.0000
# 6 0.0000 0.0000 0.0000 0.0000 0.0000 -8.1176
#
#
#
# Elastic Compliance Matrix: (Units=1/GPa)
#
#
# Indices 1 2 3 4 5 6 
#
# 1 0.006478 0.000718 -0.002935 0.000000 0.000000 0.000000
# 2 0.000718 0.017974 -0.003578 0.000000 0.000000 0.000000
# 3 -0.002935 -0.003578 0.016104 0.000000 0.000000 0.000000
# 4 0.000000 0.000000 0.000000 0.075281 0.000000 0.000000
# 5 0.000000 0.000000 0.000000 0.000000 0.066817 0.000000
# 6 0.000000 0.000000 0.000000 0.000000 0.000000 -0.123189
#
#
# Mechanical properties :
#
#
# Convention : Reuss Voigt Hill
#
# Bulk Modulus (GPa) = 34.52491 42.48852 38.50672
# Shear Modulus (GPa) = 61.94948 20.97890 41.46419
#
# Velocity S-wave (km/s) = 5.51262 3.20797 4.50999
# Velocity P-wave (km/s) = 7.57989 5.87911 6.78302
#
# Compressibility (1/GPa) = 0.02896459
#
# Stress axis : x y z
#
# Youngs Moduli (GPa) = 154.36710 55.63447 62.09818
#
# Poissons Ratio (x) = -0.03992 0.18226
# Poissons Ratio (y) = -0.11077 0.22221
# Poissons Ratio (z) = 0.45306 0.19908
#
# Static dielectric constant tensor:
#      x y z
#    x 1.796620 0.000000 0.000000 
#    y 0.000000 1.746780 0.000000 
#    z 0.000000 0.000000 1.817780 
# 
# From -- ./inp_files/16385.got.cif
#   From: 2010.05.17/outbox.cif.g08.bks.cpg/sg51_9_cif.got.tgz:16385.got - 2010.06.03 11:52:47.
