data_PCOD9402281
_publ_section_title
;
Structure prediction by ZEFSAII (Michael W. Deem and Ramdas Pophale) SiO2 
 PCOD9402281
Probable space group: P M M A
;
_chemical_formula_sum "Si O2"
_cell_formula_units_Z 48
_cell_length_a 7.973718
_cell_length_b 10.443972
_cell_length_c 28.421558
_cell_angle_alpha 90.000000
_cell_angle_beta 90.000000
_cell_angle_gamma 90.000000
_cell_volume 2366.870258
_symmetry_space_group_name_H-M "P M M A"
_symmetry_group_IT_number 51
_symmetry_cell_setting 'orthorhombic'
loop_
_space_group_symop_operation_xyz
x,y,z
1/2-x,-y,z
1/2+x,-y,-z
-x,y,-z
-x,-y,-z
1/2+x,y,-z
1/2-x,y,z
x,-y,z
loop_
_atom_site_type_symbol
_atom_site_label
_atom_site_fract_x
_atom_site_fract_y
_atom_site_fract_z
Si Si1 0.956175 0.000000 0.727342
Si Si2 0.049909 0.500000 0.699574
Si Si3 0.455933 0.500000 0.591202
Si Si4 0.044507 0.645462 0.128741
Si Si5 0.048373 0.729554 0.232377
Si Si6 0.948852 0.000000 0.620037
Si Si7 0.547746 0.145115 0.946397
Si Si8 0.550840 0.770520 0.447428
O O1 0.011702 0.870168 0.752863
O O2 0.015293 0.000000 0.673259
O O3 0.750000 0.000000 0.727485
O O4 0.250000 0.500000 0.698039
O O5 0.989666 0.500000 0.645701
O O6 0.993995 0.624925 0.728256
O O7 0.250000 0.500000 0.590589
O O8 0.515127 0.629395 0.565858
O O9 0.250000 0.646621 0.128786
O O10 0.992614 0.500000 0.118144
O O11 0.988266 0.684223 0.181174
O O12 0.987423 0.749188 0.090525
O O13 0.250000 0.735593 0.229465
O O14 0.998857 0.875029 0.590754
O O15 0.750000 0.000000 0.623805
O O16 0.750000 0.142857 0.943575
O O17 0.487654 0.000000 0.936157
O O18 0.500000 0.176063 0.000000
O O19 0.500000 0.808343 0.500000
O O20 0.750000 0.763505 0.446414
#
# Coordination Sequence:
#
# PCOD9402281 Si02
#       8
#     4   4   4   8   8   4   8   8
#     4   9  20  34  56  85 110 135 181 233 270 313
#     4  11  21  36  56  80 111 147 182 218 262 325
#     4   9  21  38  58  82 110 143 181 220 267 325
#     4   9  17  30  51  78 104 134 176 220 263 317
#     4  10  19  35  56  81 109 142 180 227 275 319
#     4  11  22  38  55  81 114 145 179 221 268 323
#     4   9  18  32  51  75 103 137 176 219 266 317
#     4  11  22  39  60  83 109 142 180 223 271 322
#
# _framework density 20.279945000000001
#
# number of rings (size 3 to 8) (size 9 to 14) (size 15 to 20)
#    0.000    2.167    0.833    2.500    1.167    0.333 
#    0.000    5.833    0.000    0.000    0.000    0.000 
#    0.000    0.000    0.000    0.000    0.000    0.000 
#
# Total GULP energy -268128.964856 kJ/mol
# GULP energy per Si atom -5586.020101 kJ/mol
# Density = 2.023379 g / cm^3
# Si number density = 20.279945 Si / 1000 Ang^3
#
#
#
# Elastic Constant Matrix: (Units=GPa)
#
#
# Indices 1 2 3 4 5 6 
#
# 1 17.9874 9.5027 6.0388 0.0000 0.0000 0.0000
# 2 9.5027 138.0039 53.5246 0.0000 0.0000 0.0000
# 3 6.0388 53.5246 108.6957 0.0000 0.0000 0.0000
# 4 0.0000 0.0000 0.0000 47.8831 0.0000 0.0000
# 5 0.0000 0.0000 0.0000 0.0000 18.8925 0.0000
# 6 0.0000 0.0000 0.0000 0.0000 0.0000 57.4518
#
#
#
# Elastic Compliance Matrix: (Units=1/GPa)
#
#
# Indices 1 2 3 4 5 6 
#
# 1 0.057904 -0.003386 -0.001550 0.000000 0.000000 0.000000
# 2 -0.003386 0.009155 -0.004320 0.000000 0.000000 0.000000
# 3 -0.001550 -0.004320 0.011413 0.000000 0.000000 0.000000
# 4 0.000000 0.000000 0.000000 0.020884 0.000000 0.000000
# 5 0.000000 0.000000 0.000000 0.000000 0.052931 0.000000
# 6 0.000000 0.000000 0.000000 0.000000 0.000000 0.017406
#
#
# Mechanical properties :
#
#
# Convention : Reuss Voigt Hill
#
# Bulk Modulus (GPa) = 16.67763 44.75771 30.71767
# Shear Modulus (GPa) = 24.01641 37.88688 30.95164
#
# Velocity S-wave (km/s) = 3.44502 4.32695 3.91092
# Velocity P-wave (km/s) = 4.90569 6.86157 5.96435
#
# Compressibility (1/GPa) = 0.05996057
#
# Stress axis : x y z
#
# Youngs Moduli (GPa) = 17.27006 109.23204 87.61675
#
# Poissons Ratio (x) = 0.36988 0.13576
# Poissons Ratio (y) = 0.05848 0.37850
# Poissons Ratio (z) = 0.02676 0.47188
#
# Static dielectric constant tensor:
#      x y z
#    x 1.724670 0.000000 0.000000 
#    y 0.000000 2.083900 0.000000 
#    z 0.000000 0.000000 1.721200 
# 
# From -- ./inp_files/37247.got.cif
#   From: 2010.05.17/outbox.cif.g08.bks.cpg/sg51_19_cif.got.tgz:37247.got - 2010.06.03 11:52:47.
