data_PCOD9402299
_publ_section_title
;
Structure prediction by ZEFSAII (Michael W. Deem and Ramdas Pophale) SiO2 
 PCOD9402299
Probable space group: P M M A
;
_chemical_formula_sum "Si O2"
_cell_formula_units_Z 56
_cell_length_a 8.728768
_cell_length_b 16.380926
_cell_length_c 20.044097
_cell_angle_alpha 90.000000
_cell_angle_beta 90.000000
_cell_angle_gamma 90.000000
_cell_volume 2866.011276
_symmetry_space_group_name_H-M "P M M A"
_symmetry_group_IT_number 51
_symmetry_cell_setting 'orthorhombic'
loop_
_space_group_symop_operation_xyz
x,y,z
1/2-x,-y,z
1/2+x,-y,-z
-x,y,-z
-x,-y,-z
1/2+x,y,-z
1/2-x,y,z
x,-y,z
loop_
_atom_site_type_symbol
_atom_site_label
_atom_site_fract_x
_atom_site_fract_y
_atom_site_fract_z
Si Si1 0.431204 0.348262 0.290679
Si Si2 0.063935 0.748266 0.925671
Si Si3 0.926069 0.598802 0.430045
Si Si4 0.934498 0.589149 0.157550
Si Si5 0.435036 0.170926 0.709316
Si Si6 0.935850 0.909877 0.153910
Si Si7 0.434116 0.095161 0.569037
O O1 0.250000 0.355568 0.286984
O O2 0.487251 0.371262 0.364553
O O3 0.507035 0.402248 0.233017
O O4 0.486614 0.256589 0.276416
O O5 0.250000 0.748184 0.926710
O O6 0.013437 0.667647 0.884825
O O7 0.013106 0.832094 0.889330
O O8 0.000000 0.745521 0.000000
O O9 0.750000 0.626276 0.426715
O O10 0.928707 0.500000 0.429570
O O11 0.000000 0.625693 0.500000
O O12 0.750000 0.591940 0.158754
O O13 0.981384 0.500000 0.130580
O O14 0.250000 0.181701 0.709704
O O15 0.472388 0.108525 0.768720
O O16 0.482141 0.140060 0.636390
O O17 0.750000 0.911045 0.149397
O O18 0.991703 0.000000 0.133828
O O19 0.500000 0.129149 0.500000
O O20 0.250000 0.097741 0.566012
O O21 0.480867 0.000000 0.573892
#
# Coordination Sequence:
#
# PCOD9402299 Si02
#       7
#     8   8   8   8   8   8   8
#     4  12  24  36  55  84 118 152 193 243 296 348
#     4  10  21  38  60  89 122 154 190 234 286 348
#     4  10  21  38  59  82 111 149 194 244 297 352
#     4  10  21  40  64  87 114 154 200 241 286 343
#     4  10  19  35  57  79 108 148 197 244 288 341
#     4   9  17  33  60  88 113 148 196 243 288 343
#     4   9  18  32  52  78 107 143 188 239 292 345
#
# _framework density 19.539352000000001
#
# number of rings (size 3 to 8) (size 9 to 14) (size 15 to 20)
#    0.000    2.000    1.429    2.571    0.000    6.857 
#    0.000    1.429    0.000    2.143    0.000    0.000 
#    0.000    0.000    0.000    0.000    0.000    0.000 
#
# Total GULP energy -312670.038489 kJ/mol
# GULP energy per Si atom -5583.393544 kJ/mol
# Density = 1.949488 g / cm^3
# Si number density = 19.539352 Si / 1000 Ang^3
#
#
#
# Elastic Constant Matrix: (Units=GPa)
#
#
# Indices 1 2 3 4 5 6 
#
# 1 6.6287 21.7043 11.1235 0.0000 0.0000 0.0000
# 2 21.7043 134.9548 66.1522 0.0000 0.0000 0.0000
# 3 11.1235 66.1522 129.4054 0.0000 0.0000 0.0000
# 4 0.0000 0.0000 0.0000 17.2587 0.0000 0.0000
# 5 0.0000 0.0000 0.0000 0.0000 33.6270 0.0000
# 6 0.0000 0.0000 0.0000 0.0000 0.0000 4.0362
#
#
#
# Elastic Compliance Matrix: (Units=1/GPa)
#
#
# Indices 1 2 3 4 5 6 
#
# 1 0.318915 -0.050509 -0.001593 0.000000 0.000000 0.000000
# 2 -0.050509 0.017887 -0.004802 0.000000 0.000000 0.000000
# 3 -0.001593 -0.004802 0.010319 0.000000 0.000000 0.000000
# 4 0.000000 0.000000 0.000000 0.057942 0.000000 0.000000
# 5 0.000000 0.000000 0.000000 0.000000 0.029738 0.000000
# 6 0.000000 0.000000 0.000000 0.000000 0.000000 0.247755
#
#
# Mechanical properties :
#
#
# Convention : Reuss Voigt Hill
#
# Bulk Modulus (GPa) = 4.28610 52.10543 28.19576
# Shear Modulus (GPa) = 5.71994 22.45166 14.08580
#
# Velocity S-wave (km/s) = 1.71282 3.39344 2.68786
# Velocity P-wave (km/s) = 2.47184 6.48681 4.90860
#
# Compressibility (1/GPa) = 0.23331259
#
# Stress axis : x y z
#
# Youngs Moduli (GPa) = 3.13563 55.90645 96.90411
#
# Poissons Ratio (x) = 2.82378 0.15438
# Poissons Ratio (y) = 0.15838 0.46535
# Poissons Ratio (z) = 0.00500 0.26847
#
# Static dielectric constant tensor:
#      x y z
#    x 1.656220 0.000000 0.000000 
#    y 0.000000 1.711470 0.000000 
#    z 0.000000 0.000000 1.658970 
# 
# From -- ./inp_files/31941.got.cif
#   From: 2010.05.17/outbox.cif.g08.bks.cpg/sg51_16_cif.got.tgz:31941.got - 2010.06.03 11:52:47.
