data_PCOD9402912
_publ_section_title
;
Structure prediction by ZEFSAII (Michael W. Deem and Ramdas Pophale) SiO2 
 PCOD9402912
Probable space group: P M M A
;
_chemical_formula_sum "Si O2"
_cell_formula_units_Z 44
_cell_length_a 9.465672
_cell_length_b 7.738885
_cell_length_c 31.567480
_cell_angle_alpha 90.000000
_cell_angle_beta 90.000000
_cell_angle_gamma 90.000000
_cell_volume 2312.436195
_symmetry_space_group_name_H-M "P M M A"
_symmetry_group_IT_number 51
_symmetry_cell_setting 'orthorhombic'
loop_
_space_group_symop_operation_xyz
x,y,z
1/2-x,-y,z
1/2+x,-y,-z
-x,y,-z
-x,-y,-z
1/2+x,y,-z
1/2-x,y,z
x,-y,z
loop_
_atom_site_type_symbol
_atom_site_label
_atom_site_fract_x
_atom_site_fract_y
_atom_site_fract_z
Si Si1 0.581190 0.500000 0.455946
Si Si2 0.410845 0.295883 0.775009
Si Si3 0.091126 0.794386 0.306637
Si Si4 0.415064 0.211045 0.959218
Si Si5 0.418094 0.795626 0.611038
Si Si6 0.585930 0.207723 0.132913
O O1 0.750000 0.500000 0.463214
O O2 0.500000 0.500000 0.500000
O O3 0.547345 0.670001 0.427948
O O4 0.250000 0.221863 0.772973
O O5 0.399237 0.500000 0.770737
O O6 0.506546 0.234054 0.736645
O O7 0.473989 0.260254 0.821703
O O8 0.250000 0.722313 0.304952
O O9 0.002904 0.734794 0.347450
O O10 0.101700 0.000000 0.311923
O O11 0.250000 0.258493 0.962174
O O12 0.471595 0.266191 0.912798
O O13 0.419992 0.000000 0.959722
O O14 0.500000 0.273258 0.000000
O O15 0.250000 0.780384 0.619416
O O16 0.446836 0.000000 0.602776
O O17 0.750000 0.266357 0.133701
O O18 0.585601 0.000000 0.132176
#
# Coordination Sequence:
#
# PCOD9402912 Si02
#       6
#     4   8   8   8   8   8
#     4  10  22  38  58  86 116 148 188 228 271 322
#     4  10  20  32  49  73  99 131 170 209 252 305
#     4  10  21  36  54  78 106 136 172 215 265 316
#     4   8  13  22  38  60  83 108 144 192 243 292
#     4   9  19  37  59  82 111 147 186 229 270 315
#     4   8  14  26  44  64  88 120 157 198 244 295
#
# _framework density 19.027550000000002
#
# number of rings (size 3 to 8) (size 9 to 14) (size 15 to 20)
#    0.000    2.909    0.000    2.182    1.273    3.273 
#    0.000    0.909    0.000    3.818    0.000    0.000 
#    0.000    0.000    0.000    0.000    0.000    0.000 
#
# Total GULP energy -245154.044267 kJ/mol
# GULP energy per Si atom -5571.682824 kJ/mol
# Density = 1.898424 g / cm^3
# Si number density = 19.027550 Si / 1000 Ang^3
#
#
#
# Elastic Constant Matrix: (Units=GPa)
#
#
# Indices 1 2 3 4 5 6 
#
# 1 64.0824 23.5169 89.1076 0.0000 0.0000 0.0000
# 2 23.5169 44.3089 37.3626 0.0000 0.0000 0.0000
# 3 89.1076 37.3626 219.2673 0.0000 0.0000 0.0000
# 4 0.0000 0.0000 0.0000 64.5801 0.0000 0.0000
# 5 0.0000 0.0000 0.0000 0.0000 31.5451 0.0000
# 6 0.0000 0.0000 0.0000 0.0000 0.0000 9.1496
#
#
#
# Elastic Compliance Matrix: (Units=1/GPa)
#
#
# Indices 1 2 3 4 5 6 
#
# 1 0.038403 -0.008434 -0.014169 0.000000 0.000000 0.000000
# 2 -0.008434 0.028208 -0.001379 0.000000 0.000000 0.000000
# 3 -0.014169 -0.001379 0.010554 0.000000 0.000000 0.000000
# 4 0.000000 0.000000 0.000000 0.015485 0.000000 0.000000
# 5 0.000000 0.000000 0.000000 0.000000 0.031701 0.000000
# 6 0.000000 0.000000 0.000000 0.000000 0.000000 0.109294
#
#
# Mechanical properties :
#
#
# Convention : Reuss Voigt Hill
#
# Bulk Modulus (GPa) = 34.24701 69.73697 51.99199
# Shear Modulus (GPa) = 17.16195 32.89974 25.03084
#
# Velocity S-wave (km/s) = 3.00651 4.16271 3.63092
# Velocity P-wave (km/s) = 5.48542 7.73526 6.70537
#
# Compressibility (1/GPa) = 0.02919963
#
# Stress axis : x y z
#
# Youngs Moduli (GPa) = 26.03995 35.45084 94.75263
#
# Poissons Ratio (x) = 0.29900 1.34256
# Poissons Ratio (y) = 0.21963 0.13067
# Poissons Ratio (z) = 0.36896 0.04889
#
# Static dielectric constant tensor:
#      x y z
#    x 1.684420 0.000000 0.000000 
#    y 0.000000 1.688410 0.000000 
#    z 0.000000 0.000000 1.667210 
# 
# From -- ./inp_files/36805.got.cif
#   From: 2010.05.17/outbox.cif.g08.bks.cpg/sg51_19_cif.got.tgz:36805.got - 2010.06.03 11:52:47.
