data_PCOD9402674
_publ_section_title
;
Structure prediction by ZEFSAII (Michael W. Deem and Ramdas Pophale) SiO2 
 PCOD9402674
Probable space group: P M M A
;
_chemical_formula_sum "Si O2"
_cell_formula_units_Z 52
_cell_length_a 8.745552
_cell_length_b 19.082744
_cell_length_c 19.470471
_cell_angle_alpha 90.000000
_cell_angle_beta 90.000000
_cell_angle_gamma 90.000000
_cell_volume 3249.409965
_symmetry_space_group_name_H-M "P M M A"
_symmetry_group_IT_number 51
_symmetry_cell_setting 'orthorhombic'
loop_
_space_group_symop_operation_xyz
x,y,z
1/2-x,-y,z
1/2+x,-y,-z
-x,y,-z
-x,-y,-z
1/2+x,y,-z
1/2-x,y,z
x,-y,z
loop_
_atom_site_type_symbol
_atom_site_label
_atom_site_fract_x
_atom_site_fract_y
_atom_site_fract_z
Si Si1 0.067433 0.796785 0.336927
Si Si2 0.434415 0.421883 0.699651
Si Si3 0.934726 0.655171 0.076303
Si Si4 0.065813 0.500000 0.923303
Si Si5 0.066967 0.658196 0.424051
Si Si6 0.565378 0.715582 0.214750
Si Si7 0.432836 0.918574 0.574493
O O1 0.250000 0.801606 0.335753
O O2 0.024525 0.732071 0.387602
O O3 0.006160 0.775465 0.261994
O O4 0.997103 0.866914 0.368136
O O5 0.250000 0.421242 0.696673
O O6 0.482033 0.500000 0.721403
O O7 0.500636 0.401863 0.625391
O O8 0.479627 0.358428 0.749685
O O9 0.750000 0.656075 0.071583
O O10 0.979817 0.576786 0.103067
O O11 0.981046 0.709913 0.135122
O O12 0.000000 0.665843 0.000000
O O13 0.250000 0.500000 0.922816
O O14 0.000000 0.500000 0.000000
O O15 0.250000 0.653727 0.426119
O O16 0.000000 0.654815 0.500000
O O17 0.750000 0.720708 0.217825
O O18 0.500000 0.898517 0.500000
O O19 0.250000 0.913366 0.571714
O O20 0.474563 0.000000 0.586809
#
# Coordination Sequence:
#
# PCOD9402674 Si02
#       7
#     8   8   8   4   8   8   8
#     4  10  20  33  49  69  94 124 156 191 229 273
#     4   9  18  31  46  62  80 107 146 190 235 279
#     4   9  17  28  44  65  90 119 152 193 238 286
#     4   8  14  24  38  58  84 112 145 184 231 284
#     4  10  20  32  46  63  83 110 146 186 229 273
#     4   9  18  31  47  66  89 120 155 193 236 282
#     4  10  20  33  51  76 104 132 160 190 225 267
#
# _framework density 16.002905999999999
#
# number of rings (size 3 to 8) (size 9 to 14) (size 15 to 20)
#    0.000    2.615    0.000    1.846    1.077    5.231 
#    0.000    0.000    0.000    0.000    0.000    0.000 
#    0.000    0.615    0.000    2.000    0.000    2.462 
#
# Total GULP energy -289821.852593 kJ/mol
# GULP energy per Si atom -5573.497165 kJ/mol
# Density = 1.596648 g / cm^3
# Si number density = 16.002906 Si / 1000 Ang^3
#
#
#
# Elastic Constant Matrix: (Units=GPa)
#
#
# Indices 1 2 3 4 5 6 
#
# 1 15.2513 23.6340 24.2697 0.0000 0.0000 0.0000
# 2 23.6340 72.7611 46.0189 0.0000 0.0000 0.0000
# 3 24.2697 46.0189 114.0921 0.0000 0.0000 0.0000
# 4 0.0000 0.0000 0.0000 24.6594 0.0000 0.0000
# 5 0.0000 0.0000 0.0000 0.0000 20.1333 0.0000
# 6 0.0000 0.0000 0.0000 0.0000 0.0000 18.4044
#
#
#
# Elastic Compliance Matrix: (Units=1/GPa)
#
#
# Indices 1 2 3 4 5 6 
#
# 1 0.152624 -0.038987 -0.016741 0.000000 0.000000 0.000000
# 2 -0.038987 0.028409 -0.003166 0.000000 0.000000 0.000000
# 3 -0.016741 -0.003166 0.013603 0.000000 0.000000 0.000000
# 4 0.000000 0.000000 0.000000 0.040552 0.000000 0.000000
# 5 0.000000 0.000000 0.000000 0.000000 0.049669 0.000000
# 6 0.000000 0.000000 0.000000 0.000000 0.000000 0.054335
#
#
# Mechanical properties :
#
#
# Convention : Reuss Voigt Hill
#
# Bulk Modulus (GPa) = 13.01240 43.32774 28.17007
# Shear Modulus (GPa) = 10.36063 19.85154 15.10609
#
# Velocity S-wave (km/s) = 2.54721 3.52589 3.07572
# Velocity P-wave (km/s) = 4.09877 6.61132 5.50043
#
# Compressibility (1/GPa) = 0.07684977
#
# Stress axis : x y z
#
# Youngs Moduli (GPa) = 6.55203 35.19981 73.51395
#
# Poissons Ratio (x) = 1.37233 1.23071
# Poissons Ratio (y) = 0.25544 0.23271
# Poissons Ratio (z) = 0.10969 0.11143
#
# Static dielectric constant tensor:
#      x y z
#    x 1.250220 0.000000 0.000000 
#    y 0.000000 1.540330 0.000000 
#    z 0.000000 0.000000 1.532550 
# 
# From -- ./inp_files/27914.got.cif
#   From: 2010.05.17/outbox.cif.g08.bks.cpg/sg51_14_cif.got.tgz:27914.got - 2010.06.03 11:52:47.
