data_PCOD9402160
_publ_section_title
;
Structure prediction by ZEFSAII (Michael W. Deem and Ramdas Pophale) SiO2 
 PCOD9402160
Probable space group: P M M A
;
_chemical_formula_sum "Si O2"
_cell_formula_units_Z 48
_cell_length_a 15.151451
_cell_length_b 8.618139
_cell_length_c 19.508689
_cell_angle_alpha 90.000000
_cell_angle_beta 90.000000
_cell_angle_gamma 90.000000
_cell_volume 2547.392146
_symmetry_space_group_name_H-M "P M M A"
_symmetry_group_IT_number 51
_symmetry_cell_setting 'orthorhombic'
loop_
_space_group_symop_operation_xyz
x,y,z
1/2-x,-y,z
1/2+x,-y,-z
-x,y,-z
-x,-y,-z
1/2+x,y,-z
1/2-x,y,z
x,-y,z
loop_
_atom_site_type_symbol
_atom_site_label
_atom_site_fract_x
_atom_site_fract_y
_atom_site_fract_z
Si Si1 0.145920 0.313089 0.500130
Si Si2 0.394162 0.179225 0.000386
Si Si3 0.653445 0.313616 0.853745
Si Si4 0.000280 0.184787 0.398587
Si Si5 0.352096 0.182173 0.848321
Si Si6 0.501362 0.315129 0.246570
O O1 0.250000 0.266045 0.500255
O O2 0.143727 0.500000 0.500188
O O3 0.087390 0.251969 0.564051
O O4 0.087794 0.252387 0.435902
O O5 0.362206 0.265163 0.067934
O O6 0.364790 0.000000 0.005263
O O7 0.500000 0.183236 0.000000
O O8 0.363198 0.239870 0.926594
O O9 0.750000 0.258668 0.831825
O O10 0.651633 0.500000 0.851307
O O11 0.577612 0.257890 0.802808
O O12 0.999863 0.232794 0.319568
O O13 0.000202 0.000000 0.406851
O O14 0.250000 0.188785 0.829638
O O15 0.410865 0.276210 0.795669
O O16 0.380193 0.000000 0.848120
O O17 0.493197 0.500000 0.256861
#
# Coordination Sequence:
#
# PCOD9402160 Si02
#       6
#     8   8   8   8   8   8
#     4  10  21  40  67  95 123 156 193 232 278 336
#     4  10  19  34  58  82 108 143 188 240 293 350
#     4  10  22  38  56  80 110 147 192 240 290 343
#     4  11  23  39  62  91 124 157 193 238 285 337
#     4  10  21  37  56  80 111 148 191 240 295 350
#     4  11  23  39  58  81 115 154 194 238 288 344
#
# _framework density 18.8428
#
# number of rings (size 3 to 8) (size 9 to 14) (size 15 to 20)
#    0.000    1.667    1.667    4.000    0.000    5.667 
#    0.000    1.667    0.000    0.000    0.000    0.000 
#    0.000    0.000    0.000    0.000    0.000    0.000 
#
# Total GULP energy -268036.294320 kJ/mol
# GULP energy per Si atom -5584.089465 kJ/mol
# Density = 1.879991 g / cm^3
# Si number density = 18.842800 Si / 1000 Ang^3
#
#
#
# Elastic Constant Matrix: (Units=GPa)
#
#
# Indices 1 2 3 4 5 6 
#
# 1 134.8668 40.1758 60.5432 0.0000 0.0000 0.0000
# 2 40.1758 60.7012 33.0484 0.0000 0.0000 0.0000
# 3 60.5432 33.0484 139.7865 0.0000 0.0000 0.0000
# 4 0.0000 0.0000 0.0000 34.3920 0.0000 0.0000
# 5 0.0000 0.0000 0.0000 0.0000 -408.0125 0.0000
# 6 0.0000 0.0000 0.0000 0.0000 0.0000 7.8237
#
#
#
# Elastic Compliance Matrix: (Units=1/GPa)
#
#
# Indices 1 2 3 4 5 6 
#
# 1 0.010417 -0.005094 -0.003307 0.000000 0.000000 0.000000
# 2 -0.005094 0.021399 -0.002853 0.000000 0.000000 0.000000
# 3 -0.003307 -0.002853 0.009261 0.000000 0.000000 0.000000
# 4 0.000000 0.000000 0.000000 0.029077 0.000000 0.000000
# 5 0.000000 0.000000 0.000000 0.000000 -0.002451 0.000000
# 6 0.000000 0.000000 0.000000 0.000000 0.000000 0.127817
#
#
# Mechanical properties :
#
#
# Convention : Reuss Voigt Hill
#
# Bulk Modulus (GPa) = 53.85572 66.98769 60.42171
# Shear Modulus (GPa) = 22.29986 -59.72023 -18.71019
#
# Velocity S-wave (km/s) = 3.44389 -5.63584 -3.15455
# Velocity P-wave (km/s) = 6.66764 2.59274 4.34368
#
# Compressibility (1/GPa) = 0.01856813
#
# Stress axis : x y z
#
# Youngs Moduli (GPa) = 95.99825 46.73155 107.98301
#
# Poissons Ratio (x) = 0.23804 0.35714
# Poissons Ratio (y) = 0.48900 0.30807
# Poissons Ratio (z) = 0.31750 0.13332
#
# Static dielectric constant tensor:
#      x y z
#    x 1.662330 0.000000 0.000000 
#    y 0.000000 1.651680 0.000000 
#    z 0.000000 0.000000 1.626310 
# 
# From -- ./inp_files/29482.got.cif
#   From: 2010.05.17/outbox.cif.g08.bks.cpg/sg51_15_cif.got.tgz:29482.got - 2010.06.03 11:52:47.
