data_PCOD9402073
_publ_section_title
;
Structure prediction by ZEFSAII (Michael W. Deem and Ramdas Pophale) SiO2 
 PCOD9402073
Probable space group: P M M A
;
_chemical_formula_sum "Si O2"
_cell_formula_units_Z 48
_cell_length_a 8.584228
_cell_length_b 31.900494
_cell_length_c 9.396751
_cell_angle_alpha 90.000000
_cell_angle_beta 90.000000
_cell_angle_gamma 90.000000
_cell_volume 2573.216760
_symmetry_space_group_name_H-M "P M M A"
_symmetry_group_IT_number 51
_symmetry_cell_setting 'orthorhombic'
loop_
_space_group_symop_operation_xyz
x,y,z
1/2-x,-y,z
1/2+x,-y,-z
-x,y,-z
-x,-y,-z
1/2+x,y,-z
1/2-x,y,z
x,-y,z
loop_
_atom_site_type_symbol
_atom_site_label
_atom_site_fract_x
_atom_site_fract_y
_atom_site_fract_z
Si Si1 0.062369 0.331789 0.159413
Si Si2 0.937360 0.000000 0.339174
Si Si3 0.562356 0.091914 0.338040
Si Si4 0.563646 0.577372 0.159997
Si Si5 0.062939 0.830154 0.159852
Si Si6 0.063790 0.500000 0.340551
Si Si7 0.062165 0.749033 0.340542
O O1 0.250000 0.334307 0.154548
O O2 0.014902 0.293888 0.262098
O O3 0.994801 0.376631 0.206075
O O4 0.000000 0.323786 0.000000
O O5 0.984970 0.045497 0.280336
O O6 0.000000 0.000000 0.500000
O O7 0.750000 0.000000 0.342097
O O8 0.500000 0.095955 0.500000
O O9 0.750000 0.094242 0.341631
O O10 0.496427 0.128774 0.241572
O O11 0.750000 0.576391 0.157760
O O12 0.498256 0.540948 0.259073
O O13 0.500000 0.570956 0.000000
O O14 0.250000 0.830550 0.156483
O O15 0.011149 0.789054 0.247821
O O16 0.000000 0.828704 0.000000
O O17 0.250000 0.500000 0.340191
O O18 0.000000 0.500000 0.500000
O O19 0.250000 0.749564 0.345028
O O20 0.000000 0.751442 0.500000
#
# Coordination Sequence:
#
# PCOD9402073 Si02
#       7
#     8   4   8   8   8   4   8
#     4  10  20  37  59  86 115 148 188 232 278 332
#     4   8  16  30  51  78 109 142 180 222 272 326
#     4  10  19  34  56  83 112 145 183 228 275 330
#     4  11  22  39  62  89 118 154 194 236 282 335
#     4  11  23  39  57  81 110 146 187 232 282 335
#     4  12  25  42  61  86 118 154 194 240 289 340
#     4  10  23  39  58  83 113 146 185 228 277 333
#
# _framework density 18.653693000000001
#
# number of rings (size 3 to 8) (size 9 to 14) (size 15 to 20)
#    0.000    1.667    0.000    6.000    0.000    5.333 
#    0.000    2.083    0.000    0.000    0.000    0.000 
#    0.000    0.000    0.000    0.000    0.000    0.000 
#
# Total GULP energy -268159.584959 kJ/mol
# GULP energy per Si atom -5586.658020 kJ/mol
# Density = 1.861124 g / cm^3
# Si number density = 18.653693 Si / 1000 Ang^3
#
#
#
# Elastic Constant Matrix: (Units=GPa)
#
#
# Indices 1 2 3 4 5 6 
#
# 1 96.4644 66.8093 45.8753 0.0000 0.0000 0.0000
# 2 66.8093 223.3999 129.2176 0.0000 0.0000 0.0000
# 3 45.8753 129.2176 130.6310 0.0000 0.0000 0.0000
# 4 0.0000 0.0000 0.0000 36.4555 0.0000 0.0000
# 5 0.0000 0.0000 0.0000 0.0000 35.3700 0.0000
# 6 0.0000 0.0000 0.0000 0.0000 0.0000 33.6917
#
#
#
# Elastic Compliance Matrix: (Units=1/GPa)
#
#
# Indices 1 2 3 4 5 6 
#
# 1 0.013236 -0.002968 -0.001713 0.000000 0.000000 0.000000
# 2 -0.002968 0.011128 -0.009965 0.000000 0.000000 0.000000
# 3 -0.001713 -0.009965 0.018114 0.000000 0.000000 0.000000
# 4 0.000000 0.000000 0.000000 0.027431 0.000000 0.000000
# 5 0.000000 0.000000 0.000000 0.000000 0.028273 0.000000
# 6 0.000000 0.000000 0.000000 0.000000 0.000000 0.029681
#
#
# Mechanical properties :
#
#
# Convention : Reuss Voigt Hill
#
# Bulk Modulus (GPa) = 75.83305 103.81111 89.82208
# Shear Modulus (GPa) = 30.95026 35.00963 32.97995
#
# Velocity S-wave (km/s) = 4.07775 4.33693 4.20933
# Velocity P-wave (km/s) = 7.93171 8.99173 8.47830
#
# Compressibility (1/GPa) = 0.01318686
#
# Stress axis : x y z
#
# Youngs Moduli (GPa) = 75.54886 89.86484 55.20590
#
# Poissons Ratio (x) = 0.26670 0.09455
# Poissons Ratio (y) = 0.22421 0.55014
# Poissons Ratio (z) = 0.12940 0.89552
#
# Static dielectric constant tensor:
#      x y z
#    x 1.631060 0.000000 0.000000 
#    y 0.000000 1.658380 0.000000 
#    z 0.000000 0.000000 1.596260 
# 
# From -- ./inp_files/6128.got.cif
#   From: 2010.05.17/outbox.cif.g08.bks.cpg/sg51_4_cif.got.tgz:6128.got - 2010.06.03 11:52:47.
