data_PCOD9402758
_publ_section_title
;
Structure prediction by ZEFSAII (Michael W. Deem and Ramdas Pophale) SiO2 
 PCOD9402758
Probable space group: P M M A
;
_chemical_formula_sum "Si O2"
_cell_formula_units_Z 56
_cell_length_a 9.098301
_cell_length_b 20.169646
_cell_length_c 15.392656
_cell_angle_alpha 90.000000
_cell_angle_beta 90.000000
_cell_angle_gamma 90.000000
_cell_volume 2824.698766
_symmetry_space_group_name_H-M "P M M A"
_symmetry_group_IT_number 51
_symmetry_cell_setting 'orthorhombic'
loop_
_space_group_symop_operation_xyz
x,y,z
1/2-x,-y,z
1/2+x,-y,-z
-x,y,-z
-x,-y,-z
1/2+x,y,-z
1/2-x,y,z
x,-y,z
loop_
_atom_site_type_symbol
_atom_site_label
_atom_site_fract_x
_atom_site_fract_y
_atom_site_fract_z
Si Si1 0.419852 0.317834 0.089287
Si Si2 0.587538 0.072513 0.623287
Si Si3 0.920836 0.928044 0.207320
Si Si4 0.586248 0.841212 0.916620
Si Si5 0.578515 0.224834 0.587487
Si Si6 0.924665 0.578241 0.593699
Si Si7 0.927772 0.317962 0.276948
O O1 0.250000 0.341950 0.095014
O O2 0.411803 0.237996 0.081277
O O3 0.508905 0.327851 0.179222
O O4 0.500000 0.341449 0.000000
O O5 0.750000 0.073911 0.667564
O O6 0.456893 0.071072 0.691559
O O7 0.577397 0.144571 0.580874
O O8 0.586002 0.000000 0.577622
O O9 0.750000 0.921428 0.190431
O O10 0.005618 0.867430 0.167090
O O11 0.971353 0.000000 0.172461
O O12 0.750000 0.866811 0.918278
O O13 0.500000 0.866146 0.000000
O O14 0.500000 0.250544 0.500000
O O15 0.750000 0.244682 0.591411
O O16 0.495108 0.253607 0.672228
O O17 0.750000 0.594148 0.591059
O O18 0.937841 0.500000 0.613903
O O19 0.000000 0.588798 0.500000
O O20 0.009854 0.622157 0.664106
O O21 0.750000 0.314773 0.275828
#
# Coordination Sequence:
#
# PCOD9402758 Si02
#       7
#     8   8   8   8   8   8   8
#     4  10  21  38  59  85 115 148 191 239 289 344
#     4   9  19  36  55  73  97 135 182 231 285 344
#     4  10  20  32  47  68  93 123 164 216 273 336
#     4  10  20  33  50  70  95 129 168 217 276 338
#     4  11  23  38  56  81 114 150 192 243 297 354
#     4  10  21  39  64  94 129 167 205 245 290 344
#     4  12  24  38  60  89 123 161 199 242 292 346
#
# _framework density 19.825123000000001
#
# number of rings (size 3 to 8) (size 9 to 14) (size 15 to 20)
#    0.000    1.714    0.000    4.714    0.000    8.571 
#    0.000    0.000    0.000    0.429    0.000    0.000 
#    0.000    0.000    0.000    0.000    0.000    0.000 
#
# Total GULP energy -312201.333039 kJ/mol
# GULP energy per Si atom -5575.023804 kJ/mol
# Density = 1.978000 g / cm^3
# Si number density = 19.825123 Si / 1000 Ang^3
#
#
#
# Elastic Constant Matrix: (Units=GPa)
#
#
# Indices 1 2 3 4 5 6 
#
# 1 157.0088 37.7370 76.0950 0.0000 0.0000 0.0000
# 2 37.7370 77.6724 24.5093 0.0000 0.0000 0.0000
# 3 76.0950 24.5093 118.1476 0.0000 0.0000 0.0000
# 4 0.0000 0.0000 0.0000 24.1252 0.0000 0.0000
# 5 0.0000 0.0000 0.0000 0.0000 31.6412 0.0000
# 6 0.0000 0.0000 0.0000 0.0000 0.0000 29.7520
#
#
#
# Elastic Compliance Matrix: (Units=1/GPa)
#
#
# Indices 1 2 3 4 5 6 
#
# 1 0.009866 -0.002984 -0.005735 0.000000 0.000000 0.000000
# 2 -0.002984 0.014679 -0.001123 0.000000 0.000000 0.000000
# 3 -0.005735 -0.001123 0.012391 0.000000 0.000000 0.000000
# 4 0.000000 0.000000 0.000000 0.041450 0.000000 0.000000
# 5 0.000000 0.000000 0.000000 0.000000 0.031604 0.000000
# 6 0.000000 0.000000 0.000000 0.000000 0.000000 0.033611
#
#
# Mechanical properties :
#
#
# Convention : Reuss Voigt Hill
#
# Bulk Modulus (GPa) = 57.96821 69.94572 63.95696
# Shear Modulus (GPa) = 29.57945 31.40284 30.49115
#
# Velocity S-wave (km/s) = 3.86686 3.98426 3.92600
# Velocity P-wave (km/s) = 7.01712 7.51822 7.27199
#
# Compressibility (1/GPa) = 0.01725084
#
# Stress axis : x y z
#
# Youngs Moduli (GPa) = 101.36009 68.12629 80.70381
#
# Poissons Ratio (x) = 0.20326 0.46286
# Poissons Ratio (y) = 0.30241 0.09067
# Poissons Ratio (z) = 0.58133 0.07654
#
# Static dielectric constant tensor:
#      x y z
#    x 1.686560 0.000000 0.000000 
#    y 0.000000 1.740330 0.000000 
#    z 0.000000 0.000000 1.703480 
# 
# From -- ./inp_files/21760.got.cif
#   From: 2010.05.17/outbox.cif.g08.bks.cpg/sg51_11_cif.got.tgz:21760.got - 2010.06.03 11:52:47.
