data_PCOD9402491
_publ_section_title
;
Structure prediction by ZEFSAII (Michael W. Deem and Ramdas Pophale) SiO2 
 PCOD9402491
Probable space group: P M M A
;
_chemical_formula_sum "Si O2"
_cell_formula_units_Z 52
_cell_length_a 9.152317
_cell_length_b 19.664977
_cell_length_c 15.324975
_cell_angle_alpha 90.000000
_cell_angle_beta 90.000000
_cell_angle_gamma 90.000000
_cell_volume 2758.190584
_symmetry_space_group_name_H-M "P M M A"
_symmetry_group_IT_number 51
_symmetry_cell_setting 'orthorhombic'
loop_
_space_group_symop_operation_xyz
x,y,z
1/2-x,-y,z
1/2+x,-y,-z
-x,y,-z
-x,-y,-z
1/2+x,y,-z
1/2-x,y,z
x,-y,z
loop_
_atom_site_type_symbol
_atom_site_label
_atom_site_fract_x
_atom_site_fract_y
_atom_site_fract_z
Si Si1 0.914334 0.419139 0.128770
Si Si2 0.583905 0.500000 0.588587
Si Si3 0.077963 0.768458 0.593217
Si Si4 0.577959 0.081152 0.907343
Si Si5 0.088647 0.383205 0.667857
Si Si6 0.927297 0.185806 0.219026
Si Si7 0.576549 0.288656 0.912039
O O1 0.750000 0.408067 0.091229
O O2 0.945678 0.500000 0.123957
O O3 0.904499 0.394299 0.228884
O O4 0.034955 0.368462 0.091450
O O5 0.750000 0.500000 0.570571
O O6 0.500000 0.500000 0.500000
O O7 0.536395 0.566814 0.638597
O O8 0.250000 0.779521 0.578735
O O9 0.061245 0.691640 0.630684
O O10 0.033728 0.813059 0.677940
O O11 0.000000 0.777155 0.500000
O O12 0.750000 0.100668 0.910136
O O13 0.492416 0.121508 0.832266
O O14 0.570393 0.000000 0.893162
O O15 0.500000 0.095250 0.000000
O O16 0.250000 0.404400 0.634083
O O17 0.750000 0.190462 0.212136
O O18 0.001134 0.249569 0.168769
O O19 0.750000 0.278585 0.912402
O O20 0.500000 0.261440 0.000000
#
# Coordination Sequence:
#
# PCOD9402491 Si02
#       7
#     8   4   8   8   8   8   8
#     4  10  20  38  61  80 107 146 188 240 302 361
#     4  12  24  34  48  74 103 136 183 236 296 360
#     4  10  22  38  59  84 114 150 192 241 292 349
#     4  10  21  38  62  96 134 168 201 239 286 343
#     4  10  19  37  57  76 104 141 182 233 299 357
#     4  11  22  40  63  89 123 161 200 243 295 347
#     4  12  25  40  60  85 115 151 196 246 297 355
#
# _framework density 18.85294
#
# number of rings (size 3 to 8) (size 9 to 14) (size 15 to 20)
#    0.000    1.385    2.308    3.923    0.000    5.231 
#    0.000    0.000    0.000    0.462    0.000    0.000 
#    0.000    0.000    0.000    0.000    0.000    0.000 
#
# Total GULP energy -290214.938939 kJ/mol
# GULP energy per Si atom -5581.056518 kJ/mol
# Density = 1.881003 g / cm^3
# Si number density = 18.852940 Si / 1000 Ang^3
#
#
#
# Elastic Constant Matrix: (Units=GPa)
#
#
# Indices 1 2 3 4 5 6 
#
# 1 135.2685 44.5126 65.9107 0.0000 0.0000 0.0000
# 2 44.5126 82.6688 40.2452 0.0000 0.0000 0.0000
# 3 65.9107 40.2452 137.8645 0.0000 0.0000 0.0000
# 4 0.0000 0.0000 0.0000 25.1826 0.0000 0.0000
# 5 0.0000 0.0000 0.0000 0.0000 33.2406 0.0000
# 6 0.0000 0.0000 0.0000 0.0000 0.0000 34.5597
#
#
#
# Elastic Compliance Matrix: (Units=1/GPa)
#
#
# Indices 1 2 3 4 5 6 
#
# 1 0.010554 -0.003761 -0.003948 0.000000 0.000000 0.000000
# 2 -0.003761 0.015440 -0.002709 0.000000 0.000000 0.000000
# 3 -0.003948 -0.002709 0.009932 0.000000 0.000000 0.000000
# 4 0.000000 0.000000 0.000000 0.039710 0.000000 0.000000
# 5 0.000000 0.000000 0.000000 0.000000 0.030084 0.000000
# 6 0.000000 0.000000 0.000000 0.000000 0.000000 0.028935
#
#
# Mechanical properties :
#
#
# Convention : Reuss Voigt Hill
#
# Bulk Modulus (GPa) = 66.26828 73.01542 69.64185
# Shear Modulus (GPa) = 31.14854 32.27212 31.71033
#
# Velocity S-wave (km/s) = 4.06912 4.14186 4.10565
# Velocity P-wave (km/s) = 7.56990 7.85406 7.71329
#
# Compressibility (1/GPa) = 0.01509018
#
# Stress axis : x y z
#
# Youngs Moduli (GPa) = 94.75214 64.76499 100.68690
#
# Poissons Ratio (x) = 0.24357 0.39749
# Poissons Ratio (y) = 0.35634 0.27280
# Poissons Ratio (z) = 0.37406 0.17547
#
# Static dielectric constant tensor:
#      x y z
#    x 1.668640 0.000000 0.000000 
#    y 0.000000 1.857450 0.000000 
#    z 0.000000 0.000000 1.430930 
# 
# From -- ./inp_files/21628.got.cif
#   From: 2010.05.17/outbox.cif.g08.bks.cpg/sg51_11_cif.got.tgz:21628.got - 2010.06.03 11:52:47.
