data_PCOD9402968
_publ_section_title
;
Structure prediction by ZEFSAII (Michael W. Deem and Ramdas Pophale) SiO2 
 PCOD9402968
Probable space group: P M M A
;
_chemical_formula_sum "Si O2"
_cell_formula_units_Z 64
_cell_length_a 20.257330
_cell_length_b 7.727425
_cell_length_c 19.900664
_cell_angle_alpha 90.000000
_cell_angle_beta 90.000000
_cell_angle_gamma 90.000000
_cell_volume 3115.190206
_symmetry_space_group_name_H-M "P M M A"
_symmetry_group_IT_number 51
_symmetry_cell_setting 'orthorhombic'
loop_
_space_group_symop_operation_xyz
x,y,z
1/2-x,-y,z
1/2+x,-y,-z
-x,y,-z
-x,-y,-z
1/2+x,y,-z
1/2-x,y,z
x,-y,z
loop_
_atom_site_type_symbol
_atom_site_label
_atom_site_fract_x
_atom_site_fract_y
_atom_site_fract_z
Si Si1 0.825715 0.790793 0.918493
Si Si2 0.952920 0.803128 0.175382
Si Si3 0.427248 0.798098 0.969589
Si Si4 0.460784 0.202893 0.295926
Si Si5 0.678984 0.291257 0.402936
Si Si6 0.674885 0.294909 0.764031
Si Si7 0.677739 0.706816 0.243094
Si Si8 0.965151 0.292987 0.433320
O O1 0.750000 0.734845 0.930558
O O2 0.843333 0.739943 0.842137
O O3 0.827505 0.000000 0.919519
O O4 0.875446 0.726148 0.976108
O O5 0.937412 0.717445 0.103862
O O6 0.882540 0.805664 0.211389
O O7 0.002655 0.721205 0.229620
O O8 0.977601 0.000000 0.161273
O O9 0.406720 0.000000 0.958962
O O10 0.500000 0.797576 0.000000
O O11 0.382798 0.226988 0.284305
O O12 0.492656 0.267727 0.365233
O O13 0.475783 0.000000 0.295330
O O14 0.750000 0.225163 0.428676
O O15 0.679505 0.500000 0.412998
O O16 0.677629 0.264199 0.322854
O O17 0.609427 0.222355 0.428864
O O18 0.750000 0.226236 0.753884
O O19 0.677282 0.500000 0.754587
O O20 0.750000 0.755932 0.216520
O O21 0.669016 0.500000 0.232829
O O22 0.958952 0.500000 0.440709
O O23 0.000000 0.223860 0.500000
#
# Coordination Sequence:
#
# PCOD9402968 Si02
#       8
#     8   8   8   8   8   8   8   8
#     4   9  17  31  52  75 100 135 177 218 267 324
#     4  10  20  32  50  77 104 136 179 222 266 312
#     4   9  17  30  47  68  98 134 173 217 261 313
#     4  11  22  36  56  81 110 143 177 219 274 331
#     4   8  14  28  51  75 102 139 178 212 251 306
#     4  10  21  37  58  82 106 136 178 227 273 320
#     4   9  17  30  49  72  99 135 174 211 257 309
#     4  10  20  35  57  84 112 145 186 229 274 323
#
# _framework density 20.544491000000001
#
# number of rings (size 3 to 8) (size 9 to 14) (size 15 to 20)
#    0.000    2.500    1.250    2.250    0.000    4.250 
#    0.000    2.500    0.000    5.625    0.000    0.000 
#    0.000    0.000    0.000    0.000    0.000    0.000 
#
# Total GULP energy -356768.929868 kJ/mol
# GULP energy per Si atom -5574.514529 kJ/mol
# Density = 2.049773 g / cm^3
# Si number density = 20.544491 Si / 1000 Ang^3
#
#
#
# Elastic Constant Matrix: (Units=GPa)
#
#
# Indices 1 2 3 4 5 6 
#
# 1 141.1133 0.3683 82.1830 0.0000 0.0000 0.0000
# 2 0.3683 28.5182 4.1134 0.0000 0.0000 0.0000
# 3 82.1830 4.1134 94.2218 0.0000 0.0000 0.0000
# 4 0.0000 0.0000 0.0000 28.9089 0.0000 0.0000
# 5 0.0000 0.0000 0.0000 0.0000 28.4990 0.0000
# 6 0.0000 0.0000 0.0000 0.0000 0.0000 9.4559
#
#
#
# Elastic Compliance Matrix: (Units=1/GPa)
#
#
# Indices 1 2 3 4 5 6 
#
# 1 0.014479 0.001645 -0.012701 0.000000 0.000000 0.000000
# 2 0.001645 0.035474 -0.002983 0.000000 0.000000 0.000000
# 3 -0.012701 -0.002983 0.021822 0.000000 0.000000 0.000000
# 4 0.000000 0.000000 0.000000 0.034591 0.000000 0.000000
# 5 0.000000 0.000000 0.000000 0.000000 0.035089 0.000000
# 6 0.000000 0.000000 0.000000 0.000000 0.000000 0.105754
#
#
# Mechanical properties :
#
#
# Convention : Reuss Voigt Hill
#
# Bulk Modulus (GPa) = 22.88523 48.57585 35.73054
# Shear Modulus (GPa) = 17.25005 25.18532 21.21769
#
# Velocity S-wave (km/s) = 2.90080 3.50507 3.21716
# Velocity P-wave (km/s) = 4.73108 6.33058 5.58835
#
# Compressibility (1/GPa) = 0.04369630
#
# Stress axis : x y z
#
# Youngs Moduli (GPa) = 69.06508 28.18933 45.82613
#
# Poissons Ratio (x) = -0.04637 0.58203
# Poissons Ratio (y) = -0.11361 0.13672
# Poissons Ratio (z) = 0.87719 0.08410
#
# Static dielectric constant tensor:
#      x y z
#    x 1.767200 0.000000 0.000000 
#    y 0.000000 1.774100 0.000000 
#    z 0.000000 0.000000 1.732900 
# 
# From -- ./inp_files/33931.got.cif
#   From: 2010.05.17/outbox.cif.g08.bks.cpg/sg51_17_cif.got.tgz:33931.got - 2010.06.03 11:52:47.
