data_PCOD9402344
_publ_section_title
;
Structure prediction by ZEFSAII (Michael W. Deem and Ramdas Pophale) SiO2 
 PCOD9402344
Probable space group: P M M A
;
_chemical_formula_sum "Si O2"
_cell_formula_units_Z 48
_cell_length_a 8.577226
_cell_length_b 31.774067
_cell_length_c 9.435867
_cell_angle_alpha 90.000000
_cell_angle_beta 90.000000
_cell_angle_gamma 90.000000
_cell_volume 2571.588478
_symmetry_space_group_name_H-M "P M M A"
_symmetry_group_IT_number 51
_symmetry_cell_setting 'orthorhombic'
loop_
_space_group_symop_operation_xyz
x,y,z
1/2-x,-y,z
1/2+x,-y,-z
-x,y,-z
-x,-y,-z
1/2+x,y,-z
1/2-x,y,z
x,-y,z
loop_
_atom_site_type_symbol
_atom_site_label
_atom_site_fract_x
_atom_site_fract_y
_atom_site_fract_z
Si Si1 0.562677 0.500000 0.339986
Si Si2 0.061386 0.000000 0.342237
Si Si3 0.936130 0.251201 0.340724
Si Si4 0.561831 0.592478 0.338271
Si Si5 0.936226 0.329423 0.840310
Si Si6 0.937691 0.174734 0.840907
Si Si7 0.562237 0.078891 0.842901
O O1 0.750000 0.500000 0.343189
O O2 0.500000 0.500000 0.500000
O O3 0.515628 0.545721 0.281617
O O4 0.008421 0.957921 0.260833
O O5 0.000000 0.000000 0.500000
O O6 0.250000 0.000000 0.342617
O O7 0.750000 0.252885 0.343160
O O8 0.000000 0.254349 0.500000
O O9 0.000421 0.289541 0.246730
O O10 0.992512 0.208232 0.267052
O O11 0.500000 0.596599 0.500000
O O12 0.750000 0.595463 0.340945
O O13 0.493120 0.628885 0.241103
O O14 0.750000 0.328058 0.842993
O O15 0.000000 0.328645 0.000000
O O16 0.750000 0.177911 0.841494
O O17 0.983173 0.126626 0.803153
O O18 0.000000 0.182956 0.000000
O O19 0.750000 0.077998 0.847106
O O20 0.500000 0.070638 0.000000
#
# Coordination Sequence:
#
# PCOD9402344 Si02
#       7
#     4   4   8   8   8   8   8
#     4   8  16  30  53  82 115 150 188 230 276 328
#     4  10  21  36  52  78 112 148 187 232 280 330
#     4  12  25  42  62  86 114 148 186 230 279 334
#     4  10  19  35  58  87 118 152 191 234 280 332
#     4  12  25  42  61  84 113 149 189 234 283 336
#     4  10  20  37  59  86 116 149 186 230 279 334
#     4   9  19  35  57  82 111 145 187 230 274 328
#
# _framework density 18.665506000000001
#
# number of rings (size 3 to 8) (size 9 to 14) (size 15 to 20)
#    0.000    1.667    0.000    5.250    0.000    2.667 
#    0.000    2.083    0.000    0.000    0.000    0.000 
#    0.000    0.000    0.000    0.000    0.000    0.000 
#
# Total GULP energy -268138.014135 kJ/mol
# GULP energy per Si atom -5586.208628 kJ/mol
# Density = 1.862302 g / cm^3
# Si number density = 18.665506 Si / 1000 Ang^3
#
#
#
# Elastic Constant Matrix: (Units=GPa)
#
#
# Indices 1 2 3 4 5 6 
#
# 1 106.0180 64.4406 57.9853 0.0000 0.0000 0.0000
# 2 64.4406 191.4716 128.8958 0.0000 0.0000 0.0000
# 3 57.9853 128.8958 150.0147 0.0000 0.0000 0.0000
# 4 0.0000 0.0000 0.0000 36.7277 0.0000 0.0000
# 5 0.0000 0.0000 0.0000 0.0000 36.0888 0.0000
# 6 0.0000 0.0000 0.0000 0.0000 0.0000 26.4268
#
#
#
# Elastic Compliance Matrix: (Units=1/GPa)
#
#
# Indices 1 2 3 4 5 6 
#
# 1 0.012352 -0.002237 -0.002852 0.000000 0.000000 0.000000
# 2 -0.002237 0.012793 -0.010128 0.000000 0.000000 0.000000
# 3 -0.002852 -0.010128 0.016470 0.000000 0.000000 0.000000
# 4 0.000000 0.000000 0.000000 0.027227 0.000000 0.000000
# 5 0.000000 0.000000 0.000000 0.000000 0.027709 0.000000
# 6 0.000000 0.000000 0.000000 0.000000 0.000000 0.037840
#
#
# Mechanical properties :
#
#
# Convention : Reuss Voigt Hill
#
# Bulk Modulus (GPa) = 89.43067 105.57196 97.50131
# Shear Modulus (GPa) = 29.66397 32.92750 31.29574
#
# Velocity S-wave (km/s) = 3.99085 4.20466 4.09915
# Velocity P-wave (km/s) = 8.32179 8.95851 8.64601
#
# Compressibility (1/GPa) = 0.01118185
#
# Stress axis : x y z
#
# Youngs Moduli (GPa) = 80.95762 78.16553 60.71464
#
# Poissons Ratio (x) = 0.17485 0.17319
# Poissons Ratio (y) = 0.18110 0.61490
# Poissons Ratio (z) = 0.23093 0.79164
#
# Static dielectric constant tensor:
#      x y z
#    x 1.630710 0.000000 0.000000 
#    y 0.000000 1.667400 0.000000 
#    z 0.000000 0.000000 1.580370 
# 
# From -- ./inp_files/6194.got.cif
#   From: 2010.05.17/outbox.cif.g08.bks.cpg/sg51_4_cif.got.tgz:6194.got - 2010.06.03 11:52:47.
