data_PCOD9402712
_publ_section_title
;
Structure prediction by ZEFSAII (Michael W. Deem and Ramdas Pophale) SiO2 
 PCOD9402712
Probable space group: P M M A
;
_chemical_formula_sum "Si O2"
_cell_formula_units_Z 56
_cell_length_a 15.509381
_cell_length_b 14.009861
_cell_length_c 14.676499
_cell_angle_alpha 90.000000
_cell_angle_beta 90.000000
_cell_angle_gamma 90.000000
_cell_volume 3188.972401
_symmetry_space_group_name_H-M "P M M A"
_symmetry_group_IT_number 51
_symmetry_cell_setting 'orthorhombic'
loop_
_space_group_symop_operation_xyz
x,y,z
1/2-x,-y,z
1/2+x,-y,-z
-x,y,-z
-x,-y,-z
1/2+x,y,-z
1/2-x,y,z
x,-y,z
loop_
_atom_site_type_symbol
_atom_site_label
_atom_site_fract_x
_atom_site_fract_y
_atom_site_fract_z
Si Si1 0.019456 0.103582 0.893738
Si Si2 0.909039 0.387643 0.943171
Si Si3 0.654549 0.614354 0.280503
Si Si4 0.007655 0.385249 0.396342
Si Si5 0.851188 0.679077 0.743060
Si Si6 0.155191 0.732366 0.897545
Si Si7 0.154739 0.105878 0.218190
O O1 0.082778 0.190359 0.876315
O O2 0.926669 0.111023 0.847387
O O3 0.057200 0.000000 0.868370
O O4 0.000000 0.104755 0.000000
O O5 0.884656 0.500000 0.944819
O O6 0.852469 0.316249 0.003890
O O7 0.899293 0.352158 0.838107
O O8 0.000000 0.381549 0.000000
O O9 0.750000 0.644183 0.313666
O O10 0.652002 0.500000 0.281383
O O11 0.574925 0.650960 0.339500
O O12 0.645939 0.649593 0.177323
O O13 0.001569 0.500000 0.399427
O O14 0.094254 0.362041 0.340832
O O15 0.000000 0.350033 0.500000
O O16 0.750000 0.648771 0.748046
O O17 0.850794 0.793999 0.729652
O O18 0.250000 0.775846 0.888194
O O19 0.250000 0.108334 0.172872
O O20 0.149935 0.000000 0.263766
#
# Coordination Sequence:
#
# PCOD9402712 Si02
#       7
#     8   8   8   8   8   8   8
#     4  10  20  32  46  66  95 131 171 213 250 289
#     4  11  22  34  50  73 105 143 178 214 257 305
#     4   9  18  33  52  73  98 131 172 213 251 297
#     4  10  21  36  54  76 103 136 173 214 260 310
#     4  11  22  35  54  80 109 139 172 216 266 314
#     4  11  21  32  49  72 101 138 174 206 244 296
#     4   9  18  33  53  75  98 128 166 208 259 315
#
# _framework density 17.560517000000001
#
# number of rings (size 3 to 8) (size 9 to 14) (size 15 to 20)
#    0.000    1.857    0.000    5.143    0.000    7.429 
#    0.000    2.857    0.000    0.429    0.000    0.000 
#    0.000    2.286    0.000    0.000    0.000    0.286 
#
# Total GULP energy -311865.318018 kJ/mol
# GULP energy per Si atom -5569.023536 kJ/mol
# Density = 1.752055 g / cm^3
# Si number density = 17.560517 Si / 1000 Ang^3
#
#
#
# Elastic Constant Matrix: (Units=GPa)
#
#
# Indices 1 2 3 4 5 6 
#
# 1 95.5270 26.5791 36.4953 0.0000 0.0000 0.0000
# 2 26.5791 62.0924 8.4318 0.0000 0.0000 0.0000
# 3 36.4953 8.4318 89.3180 0.0000 0.0000 0.0000
# 4 0.0000 0.0000 0.0000 6.9232 0.0000 0.0000
# 5 0.0000 0.0000 0.0000 0.0000 14.0280 0.0000
# 6 0.0000 0.0000 0.0000 0.0000 0.0000 23.0928
#
#
#
# Elastic Compliance Matrix: (Units=1/GPa)
#
#
# Indices 1 2 3 4 5 6 
#
# 1 0.013911 -0.005250 -0.005189 0.000000 0.000000 0.000000
# 2 -0.005250 0.018296 0.000418 0.000000 0.000000 0.000000
# 3 -0.005189 0.000418 0.013277 0.000000 0.000000 0.000000
# 4 0.000000 0.000000 0.000000 0.144443 0.000000 0.000000
# 5 0.000000 0.000000 0.000000 0.000000 0.071286 0.000000
# 6 0.000000 0.000000 0.000000 0.000000 0.000000 0.043304
#
#
# Mechanical properties :
#
#
# Convention : Reuss Voigt Hill
#
# Bulk Modulus (GPa) = 39.30490 43.32778 41.31634
# Shear Modulus (GPa) = 15.01331 20.50419 17.75875
#
# Velocity S-wave (km/s) = 2.92712 3.42077 3.18353
# Velocity P-wave (km/s) = 5.81852 6.35053 6.09033
#
# Compressibility (1/GPa) = 0.02544212
#
# Stress axis : x y z
#
# Youngs Moduli (GPa) = 71.88407 54.65773 75.32099
#
# Poissons Ratio (x) = 0.28697 0.39080
# Poissons Ratio (y) = 0.37741 -0.03149
# Poissons Ratio (z) = 0.37297 -0.02285
#
# Static dielectric constant tensor:
#      x y z
#    x 1.645220 0.000000 0.000000 
#    y 0.000000 1.641450 0.000000 
#    z 0.000000 0.000000 1.575350 
# 
# From -- ./inp_files/24299.got.cif
#   From: 2010.05.17/outbox.cif.g08.bks.cpg/sg51_13_cif.got.tgz:24299.got - 2010.06.03 11:52:47.
