data_PCOD9402553
_publ_section_title
;
Structure prediction by ZEFSAII (Michael W. Deem and Ramdas Pophale) SiO2 
 PCOD9402553
Probable space group: P M M A
;
_chemical_formula_sum "Si O2"
_cell_formula_units_Z 38
_cell_length_a 7.711012
_cell_length_b 25.983625
_cell_length_c 9.279912
_cell_angle_alpha 90.000000
_cell_angle_beta 90.000000
_cell_angle_gamma 90.000000
_cell_volume 1859.323578
_symmetry_space_group_name_H-M "P M M A"
_symmetry_group_IT_number 51
_symmetry_cell_setting 'orthorhombic'
loop_
_space_group_symop_operation_xyz
x,y,z
1/2-x,-y,z
1/2+x,-y,-z
-x,y,-z
-x,-y,-z
1/2+x,y,-z
1/2-x,y,z
x,-y,z
loop_
_atom_site_type_symbol
_atom_site_label
_atom_site_fract_x
_atom_site_fract_y
_atom_site_fract_z
Si Si1 0.961280 0.079719 0.669545
Si Si2 0.953843 0.197504 0.663571
Si Si3 0.454118 0.701400 0.833376
Si Si4 0.541341 0.500000 0.168546
Si Si5 0.250000 0.000000 0.767806
Si Si6 0.040843 0.398135 0.668189
O O1 0.750000 0.072816 0.692996
O O2 0.015459 0.139387 0.692679
O O3 0.000000 0.068078 0.500000
O O4 0.093519 0.044276 0.757488
O O5 0.750000 0.192863 0.669224
O O6 0.000000 0.212204 0.500000
O O7 0.003796 0.242597 0.771041
O O8 0.250000 0.696450 0.821935
O O9 0.529551 0.654445 0.739390
O O10 0.500000 0.696502 0.000000
O O11 0.750000 0.500000 0.182301
O O12 0.475893 0.551575 0.246894
O O13 0.500000 0.500000 0.000000
O O14 0.250000 0.398204 0.681125
O O15 0.000000 0.400765 0.500000
#
# Coordination Sequence:
#
# PCOD9402553 Si02
#       6
#     8   8   8   4   2   8
#     4  10  20  30  46  76 112 152 192 237 294 358
#     4  10  21  37  56  81 117 151 191 239 296 353
#     4  11  23  38  59  84 114 148 197 244 298 357
#     4  10  21  38  58  84 122 158 203 246 294 344
#     4  12  20  28  50  74 118 152 194 234 304 340
#     4  10  22  38  58  87 117 156 196 246 297 356
#
# _framework density 20.437539999999998
#
# number of rings (size 3 to 8) (size 9 to 14) (size 15 to 20)
#    0.000    1.684    1.053    3.474    2.947    4.211 
#    0.000    0.000    0.000    0.000    0.000    0.737 
#    0.000    0.000    0.000    0.000    0.000    0.000 
#
# Total GULP energy -211585.158937 kJ/mol
# GULP energy per Si atom -5568.030498 kJ/mol
# Density = 2.039102 g / cm^3
# Si number density = 20.437540 Si / 1000 Ang^3
#
#
#
# Elastic Constant Matrix: (Units=GPa)
#
#
# Indices 1 2 3 4 5 6 
#
# 1 64.6905 22.5363 -6.0072 0.0000 0.0000 0.0000
# 2 22.5363 142.0010 72.7731 0.0000 0.0000 0.0000
# 3 -6.0072 72.7731 101.2172 0.0000 0.0000 0.0000
# 4 0.0000 0.0000 0.0000 -3.1027 0.0000 0.0000
# 5 0.0000 0.0000 0.0000 0.0000 27.9370 0.0000
# 6 0.0000 0.0000 0.0000 0.0000 0.0000 39.5944
#
#
#
# Elastic Compliance Matrix: (Units=1/GPa)
#
#
# Indices 1 2 3 4 5 6 
#
# 1 0.017765 -0.005320 0.004879 0.000000 0.000000 0.000000
# 2 -0.005320 0.012744 -0.009478 0.000000 0.000000 0.000000
# 3 0.004879 -0.009478 0.016984 0.000000 0.000000 0.000000
# 4 0.000000 0.000000 0.000000 -0.322296 0.000000 0.000000
# 5 0.000000 0.000000 0.000000 0.000000 0.035795 0.000000
# 6 0.000000 0.000000 0.000000 0.000000 0.000000 0.025256
#
#
# Mechanical properties :
#
#
# Convention : Reuss Voigt Hill
#
# Bulk Modulus (GPa) = 36.16039 54.05699 45.10869
# Shear Modulus (GPa) = -27.07154 27.45949 0.19397
#
# Velocity S-wave (km/s) = -3.64345 3.66947 0.30841
# Velocity P-wave (km/s) = 0.17853 6.66788 4.71659
#
# Compressibility (1/GPa) = 0.02765457
#
# Stress axis : x y z
#
# Youngs Moduli (GPa) = 56.29178 78.46820 58.87857
#
# Poissons Ratio (x) = 0.41744 -0.28728
# Poissons Ratio (y) = 0.29946 0.55808
# Poissons Ratio (z) = -0.27466 0.74375
#
# Static dielectric constant tensor:
#      x y z
#    x 1.750100 0.000000 0.000000 
#    y 0.000000 1.908000 0.000000 
#    z 0.000000 0.000000 1.673830 
# 
# From -- ./inp_files/5315.got.cif
#   From: 2010.05.17/outbox.cif.g08.bks.cpg/sg51_3_cif.got.tgz:5315.got - 2010.06.03 11:52:47.
