data_PCOD9402614
_publ_section_title
;
Structure prediction by ZEFSAII (Michael W. Deem and Ramdas Pophale) SiO2 
 PCOD9402614
Probable space group: P M M A
;
_chemical_formula_sum "Si O2"
_cell_formula_units_Z 48
_cell_length_a 15.232056
_cell_length_b 7.413800
_cell_length_c 18.751152
_cell_angle_alpha 90.000000
_cell_angle_beta 90.000000
_cell_angle_gamma 90.000000
_cell_volume 2117.519157
_symmetry_space_group_name_H-M "P M M A"
_symmetry_group_IT_number 51
_symmetry_cell_setting 'orthorhombic'
loop_
_space_group_symop_operation_xyz
x,y,z
1/2-x,-y,z
1/2+x,-y,-z
-x,y,-z
-x,-y,-z
1/2+x,y,-z
1/2-x,y,z
x,-y,z
loop_
_atom_site_type_symbol
_atom_site_label
_atom_site_fract_x
_atom_site_fract_y
_atom_site_fract_z
Si Si1 0.026403 0.221460 0.178578
Si Si2 0.347646 0.293449 0.628603
Si Si3 0.649592 0.784254 0.536603
Si Si4 0.460908 0.794169 0.332630
Si Si5 0.850425 0.219316 0.950231
Si Si6 0.651227 0.780275 0.112828
O O1 0.059769 0.285183 0.255337
O O2 0.084589 0.279573 0.111518
O O3 0.926226 0.277424 0.164492
O O4 0.027632 0.000000 0.179939
O O5 0.250000 0.217128 0.643602
O O6 0.348280 0.500000 0.652736
O O7 0.359199 0.291295 0.542793
O O8 0.433841 0.203206 0.660109
O O9 0.750000 0.753119 0.560260
O O10 0.582895 0.714474 0.596443
O O11 0.636511 0.000000 0.527517
O O12 0.428024 0.000000 0.331380
O O13 0.750000 0.271499 0.935254
O O14 0.853678 0.000000 0.950564
O O15 0.870891 0.274432 0.031355
O O16 0.750000 0.720601 0.130143
O O17 0.652415 0.000000 0.113174
#
# Coordination Sequence:
#
# PCOD9402614 Si02
#       6
#     8   8   8   8   8   8
#     4   9  16  24  35  55  85 118 148 179 219 268
#     4  10  21  36  53  71  90 117 155 195 233 275
#     4   9  18  33  51  70  94 123 154 190 231 275
#     4  10  20  31  46  71  99 126 154 186 231 282
#     4   8  13  21  34  52  77 113 153 188 221 258
#     4   8  13  21  33  50  75 111 152 187 219 257
#
# _framework density 22.668036000000001
#
# number of rings (size 3 to 8) (size 9 to 14) (size 15 to 20)
#    0.000    3.000    0.000    2.500    0.000    7.000 
#    0.000    5.000    0.000    0.000    0.000    0.000 
#    0.000    2.667    0.000    3.667    0.000    4.167 
#
# Total GULP energy -267958.217194 kJ/mol
# GULP energy per Si atom -5582.462858 kJ/mol
# Density = 2.261644 g / cm^3
# Si number density = 22.668036 Si / 1000 Ang^3
#
#
#
# Elastic Constant Matrix: (Units=GPa)
#
#
# Indices 1 2 3 4 5 6 
#
# 1 35.9150 -1.9137 4.6001 0.0000 0.0000 0.0000
# 2 -1.9137 72.1721 -4.0591 0.0000 0.0000 0.0000
# 3 4.6001 -4.0591 25.4721 0.0000 0.0000 0.0000
# 4 0.0000 0.0000 0.0000 40.5294 0.0000 0.0000
# 5 0.0000 0.0000 0.0000 0.0000 -1.1225 0.0000
# 6 0.0000 0.0000 0.0000 0.0000 0.0000 -21.6867
#
#
#
# Elastic Compliance Matrix: (Units=1/GPa)
#
#
# Indices 1 2 3 4 5 6 
#
# 1 0.028519 0.000471 -0.005075 0.000000 0.000000 0.000000
# 2 0.000471 0.013989 0.002144 0.000000 0.000000 0.000000
# 3 -0.005075 0.002144 0.040517 0.000000 0.000000 0.000000
# 4 0.000000 0.000000 0.000000 0.024673 0.000000 0.000000
# 5 0.000000 0.000000 0.000000 0.000000 -0.890849 0.000000
# 6 0.000000 0.000000 0.000000 0.000000 0.000000 -0.046111
#
#
# Mechanical properties :
#
#
# Convention : Reuss Voigt Hill
#
# Bulk Modulus (GPa) = 12.80348 14.53486 13.66917
# Shear Modulus (GPa) = -6.26325 12.53948 3.13812
#
# Velocity S-wave (km/s) = -1.66404 2.35453 1.17787
# Velocity P-wave (km/s) = 1.40302 3.71722 2.80946
#
# Compressibility (1/GPa) = 0.07810375
#
# Stress axis : x y z
#
# Youngs Moduli (GPa) = 35.06474 71.48555 24.68105
#
# Poissons Ratio (x) = -0.03365 0.12526
# Poissons Ratio (y) = -0.01651 -0.05292
# Poissons Ratio (z) = 0.17796 -0.15328
#
# Static dielectric constant tensor:
#      x y z
#    x 1.817990 0.000000 0.000000 
#    y 0.000000 1.990570 0.000000 
#    z 0.000000 0.000000 1.820420 
# 
# From -- ./inp_files/24824.got.cif
#   From: 2010.05.17/outbox.cif.g08.bks.cpg/sg51_13_cif.got.tgz:24824.got - 2010.06.03 11:52:47.
