data_PCOD9402270
_publ_section_title
;
Structure prediction by ZEFSAII (Michael W. Deem and Ramdas Pophale) SiO2 
 PCOD9402270
Probable space group: P M M A
;
_chemical_formula_sum "Si O2"
_cell_formula_units_Z 48
_cell_length_a 8.549908
_cell_length_b 17.002410
_cell_length_c 18.996059
_cell_angle_alpha 90.000000
_cell_angle_beta 90.000000
_cell_angle_gamma 90.000000
_cell_volume 2761.438885
_symmetry_space_group_name_H-M "P M M A"
_symmetry_group_IT_number 51
_symmetry_cell_setting 'orthorhombic'
loop_
_space_group_symop_operation_xyz
x,y,z
1/2-x,-y,z
1/2+x,-y,-z
-x,y,-z
-x,-y,-z
1/2+x,y,-z
1/2-x,y,z
x,-y,z
loop_
_atom_site_type_symbol
_atom_site_label
_atom_site_fract_x
_atom_site_fract_y
_atom_site_fract_z
Si Si1 0.939642 0.261906 0.705685
Si Si2 0.561905 0.841926 0.578664
Si Si3 0.438057 0.000000 0.651613
Si Si4 0.936197 0.683087 0.076775
Si Si5 0.062698 0.000000 0.816518
Si Si6 0.937608 0.167878 0.845857
Si Si7 0.439511 0.589425 0.210231
O O1 0.750000 0.262816 0.704287
O O2 0.992355 0.227389 0.631425
O O3 0.984291 0.202483 0.768896
O O4 0.991397 0.348430 0.729972
O O5 0.500000 0.833048 0.500000
O O6 0.750000 0.843369 0.577487
O O7 0.502491 0.923101 0.612695
O O8 0.486061 0.000000 0.733845
O O9 0.250000 0.000000 0.648496
O O10 0.750000 0.680653 0.077292
O O11 0.993650 0.770353 0.098639
O O12 0.002050 0.624739 0.136442
O O13 0.000000 0.662783 0.000000
O O14 0.998509 0.920488 0.851128
O O15 0.250000 0.000000 0.819065
O O16 0.750000 0.169546 0.850237
O O17 0.250000 0.590312 0.208880
O O18 0.491567 0.500000 0.221011
#
# Coordination Sequence:
#
# PCOD9402270 Si02
#       7
#     8   8   4   8   4   8   8
#     4   8  16  31  52  75 100 134 174 215 262 315
#     4  11  21  34  50  72 104 142 182 221 270 318
#     4  11  22  34  49  74 107 139 178 221 267 312
#     4  11  22  37  56  80 111 143 175 213 264 317
#     4  11  21  32  51  80 109 137 178 225 269 312
#     4  10  19  35  56  77 102 139 184 222 264 312
#     4   9  18  35  59  85 108 134 173 218 264 318
#
# _framework density 17.382242000000002
#
# number of rings (size 3 to 8) (size 9 to 14) (size 15 to 20)
#    0.000    2.000    1.667    4.250    0.000    1.333 
#    0.000    1.250    0.000    0.500    0.000    0.000 
#    0.000    0.000    0.000    0.000    0.000    0.167 
#
# Total GULP energy -267921.895997 kJ/mol
# GULP energy per Si atom -5581.706167 kJ/mol
# Density = 1.734268 g / cm^3
# Si number density = 17.382242 Si / 1000 Ang^3
#
#
#
# Elastic Constant Matrix: (Units=GPa)
#
#
# Indices 1 2 3 4 5 6 
#
# 1 44.4403 24.6121 14.3522 0.0000 0.0000 0.0000
# 2 24.6121 157.2206 48.0817 0.0000 0.0000 0.0000
# 3 14.3522 48.0817 79.5937 0.0000 0.0000 0.0000
# 4 0.0000 0.0000 0.0000 14.4429 0.0000 0.0000
# 5 0.0000 0.0000 0.0000 0.0000 17.6510 0.0000
# 6 0.0000 0.0000 0.0000 0.0000 0.0000 17.6386
#
#
#
# Elastic Compliance Matrix: (Units=1/GPa)
#
#
# Indices 1 2 3 4 5 6 
#
# 1 0.025082 -0.003120 -0.002638 0.000000 0.000000 0.000000
# 2 -0.003120 0.008190 -0.004385 0.000000 0.000000 0.000000
# 3 -0.002638 -0.004385 0.015688 0.000000 0.000000 0.000000
# 4 0.000000 0.000000 0.000000 0.069238 0.000000 0.000000
# 5 0.000000 0.000000 0.000000 0.000000 0.056654 0.000000
# 6 0.000000 0.000000 0.000000 0.000000 0.000000 0.056694
#
#
# Mechanical properties :
#
#
# Convention : Reuss Voigt Hill
#
# Bulk Modulus (GPa) = 34.87399 50.59408 42.73403
# Shear Modulus (GPa) = 19.12852 22.89373 21.01112
#
# Velocity S-wave (km/s) = 3.32092 3.63309 3.48051
# Velocity P-wave (km/s) = 5.90011 6.83879 6.38672
#
# Compressibility (1/GPa) = 0.02867467
#
# Stress axis : x y z
#
# Youngs Moduli (GPa) = 39.86954 122.10237 63.74142
#
# Poissons Ratio (x) = 0.38091 0.16816
# Poissons Ratio (y) = 0.12438 0.27950
# Poissons Ratio (z) = 0.10518 0.53540
#
# Static dielectric constant tensor:
#      x y z
#    x 1.584300 0.000000 0.000000 
#    y 0.000000 1.586450 0.000000 
#    z 0.000000 0.000000 1.577440 
# 
# From -- ./inp_files/27642.got.cif
#   From: 2010.05.17/outbox.cif.g08.bks.cpg/sg51_14_cif.got.tgz:27642.got - 2010.06.03 11:52:47.
