data_PCOD9402224
_publ_section_title
;
Structure prediction by ZEFSAII (Michael W. Deem and Ramdas Pophale) SiO2 
 PCOD9402224
Probable space group: P M M A
;
_chemical_formula_sum "Si O2"
_cell_formula_units_Z 38
_cell_length_a 9.561864
_cell_length_b 7.466111
_cell_length_c 27.194243
_cell_angle_alpha 90.000000
_cell_angle_beta 90.000000
_cell_angle_gamma 90.000000
_cell_volume 1941.395321
_symmetry_space_group_name_H-M "P M M A"
_symmetry_group_IT_number 51
_symmetry_cell_setting 'orthorhombic'
loop_
_space_group_symop_operation_xyz
x,y,z
1/2-x,-y,z
1/2+x,-y,-z
-x,y,-z
-x,-y,-z
1/2+x,y,-z
1/2-x,y,z
x,-y,z
loop_
_atom_site_type_symbol
_atom_site_label
_atom_site_fract_x
_atom_site_fract_y
_atom_site_fract_z
Si Si1 0.993863 0.000000 0.079059
Si Si2 0.588053 0.218721 0.547783
Si Si3 0.914374 0.293753 0.848337
Si Si4 0.088689 0.218852 0.643053
Si Si5 0.911024 0.216555 0.736696
Si Si6 0.250000 0.000000 0.002069
O O1 0.999414 0.170018 0.115314
O O2 0.130032 0.000000 0.045129
O O3 0.868789 0.000000 0.041325
O O4 0.500000 0.274427 0.500000
O O5 0.750000 0.276649 0.546868
O O6 0.505166 0.274549 0.596662
O O7 0.590290 0.000000 0.547706
O O8 0.750000 0.239154 0.850477
O O9 0.923878 0.500000 0.863176
O O10 0.954959 0.275222 0.791186
O O11 0.250000 0.276338 0.639420
O O12 0.013236 0.276019 0.693342
O O13 0.089672 0.000000 0.642894
O O14 0.750000 0.275308 0.728266
O O15 0.910066 0.000000 0.736593
#
# Coordination Sequence:
#
# PCOD9402224 Si02
#       6
#     4   8   8   8   8   2
#     4  11  20  44  60  92 118 156 189 240 274 336
#     4   9  15  22  33  51  80 122 169 220 274 332
#     4  10  19  34  60  87 115 152 192 234 284 339
#     4   9  16  25  37  58  88 124 169 220 275 332
#     4   9  16  28  47  70  96 134 177 222 271 329
#     4  10  24  38  70  86 120 156 196 226 288 326
#
# _framework density 19.573550000000001
#
# number of rings (size 3 to 8) (size 9 to 14) (size 15 to 20)
#    0.000    2.526    2.105    1.263    0.000    5.053 
#    1.895    3.684    0.000    0.000    0.000    0.000 
#    0.000    0.842    0.000    2.316    0.000    4.211 
#
# Total GULP energy -211621.651489 kJ/mol
# GULP energy per Si atom -5568.990829 kJ/mol
# Density = 1.952900 g / cm^3
# Si number density = 19.573550 Si / 1000 Ang^3
#
#
#
# Elastic Constant Matrix: (Units=GPa)
#
#
# Indices 1 2 3 4 5 6 
#
# 1 160.2316 14.6299 91.2122 0.0000 0.0000 0.0000
# 2 14.6299 59.8999 27.4399 0.0000 0.0000 0.0000
# 3 91.2122 27.4399 175.2162 0.0000 0.0000 0.0000
# 4 0.0000 0.0000 0.0000 -4.4533 0.0000 0.0000
# 5 0.0000 0.0000 0.0000 0.0000-1782.4090 0.0000
# 6 0.0000 0.0000 0.0000 0.0000 0.0000 -41.7912
#
#
#
# Elastic Compliance Matrix: (Units=1/GPa)
#
#
# Indices 1 2 3 4 5 6 
#
# 1 0.008869 -0.000055 -0.004609 0.000000 0.000000 0.000000
# 2 -0.000055 0.017985 -0.002788 0.000000 0.000000 0.000000
# 3 -0.004609 -0.002788 0.008543 0.000000 0.000000 0.000000
# 4 0.000000 0.000000 0.000000 -0.224550 0.000000 0.000000
# 5 0.000000 0.000000 0.000000 0.000000 -0.000561 0.000000
# 6 0.000000 0.000000 0.000000 0.000000 0.000000 -0.023928
#
#
# Mechanical properties :
#
#
# Convention : Reuss Voigt Hill
#
# Bulk Modulus (GPa) = 48.79389 73.54574 61.16982
# Shear Modulus (GPa) = -26.05417 -348.25965 -187.15691
#
# Velocity S-wave (km/s) = -3.65237 -13.35327 -9.78902
# Velocity P-wave (km/s) = 2.68257 14.14535 9.82076
#
# Compressibility (1/GPa) = 0.02049437
#
# Stress axis : x y z
#
# Youngs Moduli (GPa) = 112.74718 55.60159 117.05651
#
# Poissons Ratio (x) = 0.00306 0.53946
# Poissons Ratio (y) = 0.00621 0.32634
# Poissons Ratio (z) = 0.51960 0.15501
#
# Static dielectric constant tensor:
#      x y z
#    x 1.653760 0.000000 0.000000 
#    y 0.000000 1.784910 0.000000 
#    z 0.000000 0.000000 1.642060 
# 
# From -- ./inp_files/34400.got.cif
#   From: 2010.05.17/outbox.cif.g08.bks.cpg/sg51_18_cif.got.tgz:34400.got - 2010.06.03 11:52:47.
