data_PCOD9402914
_publ_section_title
;
Structure prediction by ZEFSAII (Michael W. Deem and Ramdas Pophale) SiO2 
 PCOD9402914
Probable space group: P M M A
;
_chemical_formula_sum "Si O2"
_cell_formula_units_Z 40
_cell_length_a 8.649111
_cell_length_b 26.776523
_cell_length_c 9.902847
_cell_angle_alpha 90.000000
_cell_angle_beta 90.000000
_cell_angle_gamma 90.000000
_cell_volume 2293.431230
_symmetry_space_group_name_H-M "P M M A"
_symmetry_group_IT_number 51
_symmetry_cell_setting 'orthorhombic'
loop_
_space_group_symop_operation_xyz
x,y,z
1/2-x,-y,z
1/2+x,-y,-z
-x,y,-z
-x,-y,-z
1/2+x,y,-z
1/2-x,y,z
x,-y,z
loop_
_atom_site_type_symbol
_atom_site_label
_atom_site_fract_x
_atom_site_fract_y
_atom_site_fract_z
Si Si1 0.936515 0.443675 0.149758
Si Si2 0.435805 0.751816 0.349445
Si Si3 0.064866 0.158051 0.152040
Si Si4 0.063951 0.355817 0.650313
Si Si5 0.064627 0.945615 0.846909
O O1 0.750000 0.442794 0.144804
O O2 0.984048 0.500000 0.190947
O O3 0.986567 0.400584 0.252051
O O4 0.000000 0.434690 0.000000
O O5 0.500000 0.761206 0.500000
O O6 0.250000 0.749094 0.355902
O O7 0.480254 0.795806 0.246961
O O8 0.501266 0.698146 0.304395
O O9 0.250000 0.155826 0.143754
O O10 0.003963 0.105376 0.211335
O O11 0.000000 0.163977 0.000000
O O12 0.250000 0.354137 0.646083
O O13 0.000000 0.364138 0.500000
O O14 0.250000 0.941932 0.851234
O O15 0.023675 0.000000 0.785889
O O16 0.000000 0.946574 0.000000
#
# Coordination Sequence:
#
# PCOD9402914 Si02
#       5
#     8   8   8   8   8
#     4   9  19  35  53  75 103 133 165 201 243 291
#     4  10  21  36  53  73  98 130 167 204 246 294
#     4  10  20  32  49  74 100 128 163 202 244 291
#     4  10  20  34  53  75  99 129 165 204 245 290
#     4   9  16  26  43  68  97 128 160 197 242 288
#
# _framework density 17.441117999999999
#
# number of rings (size 3 to 8) (size 9 to 14) (size 15 to 20)
#    0.000    2.400    0.000    4.800    0.000    7.200 
#    0.000    4.000    0.000    0.600    0.000    0.000 
#    0.000    0.000    0.000    0.000    0.000    0.000 
#
# Total GULP energy -223005.188633 kJ/mol
# GULP energy per Si atom -5575.129716 kJ/mol
# Density = 1.740142 g / cm^3
# Si number density = 17.441118 Si / 1000 Ang^3
#
#
#
# Elastic Constant Matrix: (Units=GPa)
#
#
# Indices 1 2 3 4 5 6 
#
# 1 46.5135 51.4354 25.4063 0.0000 0.0000 0.0000
# 2 51.4354 216.3878 97.6960 0.0000 0.0000 0.0000
# 3 25.4063 97.6960 58.4999 0.0000 0.0000 0.0000
# 4 0.0000 0.0000 0.0000 -24.9272 0.0000 0.0000
# 5 0.0000 0.0000 0.0000 0.0000 22.9515 0.0000
# 6 0.0000 0.0000 0.0000 0.0000 0.0000 -16.5790
#
#
#
# Elastic Compliance Matrix: (Units=1/GPa)
#
#
# Indices 1 2 3 4 5 6 
#
# 1 0.029450 -0.004983 -0.004469 0.000000 0.000000 0.000000
# 2 -0.004983 0.019628 -0.030616 0.000000 0.000000 0.000000
# 3 -0.004469 -0.030616 0.070163 0.000000 0.000000 0.000000
# 4 0.000000 0.000000 0.000000 -0.040117 0.000000 0.000000
# 5 0.000000 0.000000 0.000000 0.000000 0.043570 0.000000
# 6 0.000000 0.000000 0.000000 0.000000 0.000000 -0.060317
#
#
# Mechanical properties :
#
#
# Convention : Reuss Voigt Hill
#
# Bulk Modulus (GPa) = 25.57060 74.49738 50.03399
# Shear Modulus (GPa) = 32.14451 6.07998 19.11224
#
# Velocity S-wave (km/s) = 4.29771 1.86911 3.31390
# Velocity P-wave (km/s) = 6.27057 6.88945 6.58728
#
# Compressibility (1/GPa) = 0.03910741
#
# Stress axis : x y z
#
# Youngs Moduli (GPa) = 33.95586 50.94719 14.25243
#
# Poissons Ratio (x) = 0.25385 0.06369
# Poissons Ratio (y) = 0.16919 0.43635
# Poissons Ratio (z) = 0.15175 1.55978
#
# Static dielectric constant tensor:
#      x y z
#    x 1.588350 0.000000 0.000000 
#    y 0.000000 1.631040 0.000000 
#    z 0.000000 0.000000 1.557910 
# 
# From -- ./inp_files/14231.got.cif
#   From: 2010.05.17/outbox.cif.g08.bks.cpg/sg51_8_cif.got.tgz:14231.got - 2010.06.03 11:52:47.
