data_PCOD9402061
_publ_section_title
;
Structure prediction by ZEFSAII (Michael W. Deem and Ramdas Pophale) SiO2 
 PCOD9402061
Probable space group: P M M A
;
_chemical_formula_sum "Si O2"
_cell_formula_units_Z 32
_cell_length_a 8.523138
_cell_length_b 21.504646
_cell_length_c 9.235529
_cell_angle_alpha 90.000000
_cell_angle_beta 90.000000
_cell_angle_gamma 90.000000
_cell_volume 1692.753009
_symmetry_space_group_name_H-M "P M M A"
_symmetry_group_IT_number 51
_symmetry_cell_setting 'orthorhombic'
loop_
_space_group_symop_operation_xyz
x,y,z
1/2-x,-y,z
1/2+x,-y,-z
-x,y,-z
-x,-y,-z
1/2+x,y,-z
1/2-x,y,z
x,-y,z
loop_
_atom_site_type_symbol
_atom_site_label
_atom_site_fract_x
_atom_site_fract_y
_atom_site_fract_z
Si Si1 0.060409 0.377121 0.836718
Si Si2 0.561234 0.864010 0.834898
Si Si3 0.561868 0.254431 0.337201
Si Si4 0.438910 0.000000 0.164525
Si Si5 0.560345 0.500000 0.336639
O O1 0.250000 0.377267 0.839719
O O2 0.008713 0.314552 0.754646
O O3 0.008600 0.438205 0.748702
O O4 0.000000 0.378430 0.000000
O O5 0.750000 0.861257 0.837620
O O6 0.496701 0.808098 0.739664
O O7 0.511928 0.932588 0.775765
O O8 0.500000 0.858315 0.000000
O O9 0.500000 0.258486 0.500000
O O10 0.750000 0.254277 0.339369
O O11 0.250000 0.000000 0.163241
O O12 0.500000 0.000000 0.000000
O O13 0.750000 0.500000 0.339692
O O14 0.500000 0.500000 0.500000
#
# Coordination Sequence:
#
# PCOD9402061 Si02
#       5
#     8   8   8   4   4
#     4  10  22  38  58  83 111 142 182 225 268 318
#     4  10  19  34  56  82 110 142 180 224 270 323
#     4  11  23  38  55  79 109 144 183 226 275 328
#     4   8  16  30  51  78 107 138 176 220 268 318
#     4  10  21  38  58  84 114 146 181 220 266 318
#
# _framework density 18.904116999999999
#
# number of rings (size 3 to 8) (size 9 to 14) (size 15 to 20)
#    0.000    2.000    0.000    3.375    0.000    6.000 
#    0.000    0.625    0.000    0.000    0.000    0.000 
#    0.000    0.000    0.000    0.000    0.000    0.000 
#
# Total GULP energy -178655.263997 kJ/mol
# GULP energy per Si atom -5582.977000 kJ/mol
# Density = 1.886109 g / cm^3
# Si number density = 18.904117 Si / 1000 Ang^3
#
#
#
# Elastic Constant Matrix: (Units=GPa)
#
#
# Indices 1 2 3 4 5 6 
#
# 1 29.7326 40.3341 27.7926 0.0000 0.0000 0.0000
# 2 40.3341 238.4468 118.9069 0.0000 0.0000 0.0000
# 3 27.7926 118.9069 158.7534 0.0000 0.0000 0.0000
# 4 0.0000 0.0000 0.0000 18.8851 0.0000 0.0000
# 5 0.0000 0.0000 0.0000 0.0000 36.3230 0.0000
# 6 0.0000 0.0000 0.0000 0.0000 0.0000 60.4575
#
#
#
# Elastic Compliance Matrix: (Units=1/GPa)
#
#
# Indices 1 2 3 4 5 6 
#
# 1 0.044809 -0.005854 -0.003460 0.000000 0.000000 0.000000
# 2 -0.005854 0.007459 -0.004562 0.000000 0.000000 0.000000
# 3 -0.003460 -0.004562 0.010322 0.000000 0.000000 0.000000
# 4 0.000000 0.000000 0.000000 0.052952 0.000000 0.000000
# 5 0.000000 0.000000 0.000000 0.000000 0.027531 0.000000
# 6 0.000000 0.000000 0.000000 0.000000 0.000000 0.016541
#
#
# Mechanical properties :
#
#
# Convention : Reuss Voigt Hill
#
# Bulk Modulus (GPa) = 28.70462 88.99999 58.85231
# Shear Modulus (GPa) = 25.12856 39.12640 32.12748
#
# Velocity S-wave (km/s) = 3.64986 4.55436 4.12697
# Velocity P-wave (km/s) = 5.74276 8.65091 7.34226
#
# Compressibility (1/GPa) = 0.03483760
#
# Stress axis : x y z
#
# Youngs Moduli (GPa) = 22.31709 134.06661 96.88391
#
# Poissons Ratio (x) = 0.78487 0.33518
# Poissons Ratio (y) = 0.13065 0.44198
# Poissons Ratio (z) = 0.07721 0.61160
#
# Static dielectric constant tensor:
#      x y z
#    x 1.649800 0.000000 0.000000 
#    y 0.000000 1.684170 0.000000 
#    z 0.000000 0.000000 1.594370 
# 
# From -- ./inp_files/5018.got.cif
#   From: 2010.05.17/outbox.cif.g08.bks.cpg/sg51_3_cif.got.tgz:5018.got - 2010.06.03 11:52:47.
