data_PCOD9402742
_publ_section_title
;
Structure prediction by ZEFSAII (Michael W. Deem and Ramdas Pophale) SiO2 
 PCOD9402742
Probable space group: P M M A
;
_chemical_formula_sum "Si O2"
_cell_formula_units_Z 64
_cell_length_a 8.098011
_cell_length_b 20.673273
_cell_length_c 20.815637
_cell_angle_alpha 90.000000
_cell_angle_beta 90.000000
_cell_angle_gamma 90.000000
_cell_volume 3484.795585
_symmetry_space_group_name_H-M "P M M A"
_symmetry_group_IT_number 51
_symmetry_cell_setting 'orthorhombic'
loop_
_space_group_symop_operation_xyz
x,y,z
1/2-x,-y,z
1/2+x,-y,-z
-x,y,-z
-x,-y,-z
1/2+x,y,-z
1/2-x,y,z
x,-y,z
loop_
_atom_site_type_symbol
_atom_site_label
_atom_site_fract_x
_atom_site_fract_y
_atom_site_fract_z
Si Si1 0.551667 0.569736 0.604127
Si Si2 0.054350 0.292062 0.930679
Si Si3 0.554430 0.287506 0.430751
Si Si4 0.554944 0.756020 0.295014
Si Si5 0.449201 0.925989 0.928517
Si Si6 0.948829 0.429853 0.885012
Si Si7 0.948923 0.615304 0.744771
Si Si8 0.452991 0.184612 0.831803
O O1 0.750000 0.570411 0.596938
O O2 0.488880 0.500000 0.580266
O O3 0.487660 0.636141 0.574161
O O4 0.514190 0.575765 0.680198
O O5 0.250000 0.289369 0.927626
O O6 0.990181 0.246532 0.873634
O O7 0.002622 0.366266 0.922352
O O8 0.000000 0.267378 0.000000
O O9 0.500000 0.262575 0.500000
O O10 0.750000 0.282443 0.427280
O O11 0.483586 0.252032 0.367054
O O12 0.750000 0.769014 0.301666
O O13 0.531976 0.685033 0.263721
O O14 0.489479 0.805929 0.241604
O O15 0.250000 0.926533 0.926975
O O16 0.505312 0.878231 0.871994
O O17 0.508246 0.000000 0.920503
O O18 0.500000 0.903905 0.000000
O O19 0.750000 0.431249 0.886621
O O20 0.010409 0.500000 0.907725
O O21 0.999035 0.418630 0.810682
O O22 0.750000 0.624416 0.746622
O O23 0.250000 0.184872 0.830638
#
# Coordination Sequence:
#
# PCOD9402742 Si02
#       8
#     8   8   8   8   8   8   8   8
#     4   9  17  29  45  64  86 112 143 181 228 283
#     4  11  22  35  50  66  88 117 151 193 237 281
#     4  10  20  32  47  64  87 117 147 185 232 282
#     4   9  17  31  49  68  90 117 150 188 231 273
#     4   9  17  30  49  74 105 139 167 191 224 269
#     4  10  20  33  48  65  86 112 146 191 242 291
#     4   9  16  28  46  67  88 110 141 185 235 282
#     4   9  17  31  51  73  97 124 156 194 231 269
#
# _framework density 18.365496
#
# number of rings (size 3 to 8) (size 9 to 14) (size 15 to 20)
#    0.000    2.500    1.250    1.500    0.000    3.000 
#    0.000    1.250    0.000    2.250    0.000    0.000 
#    0.000    0.500    0.000    0.375    0.000    0.750 
#
# Total GULP energy -356868.434292 kJ/mol
# GULP energy per Si atom -5576.069286 kJ/mol
# Density = 1.832370 g / cm^3
# Si number density = 18.365496 Si / 1000 Ang^3
#
#
#
# Elastic Constant Matrix: (Units=GPa)
#
#
# Indices 1 2 3 4 5 6 
#
# 1 8.9311 5.6874 10.6703 0.0000 0.0000 0.0000
# 2 5.6874 76.3993 55.2360 0.0000 0.0000 0.0000
# 3 10.6703 55.2360 141.8632 0.0000 0.0000 0.0000
# 4 0.0000 0.0000 0.0000 -2.6337 0.0000 0.0000
# 5 0.0000 0.0000 0.0000 0.0000 16.7966 0.0000
# 6 0.0000 0.0000 0.0000 0.0000 0.0000 4.7278
#
#
#
# Elastic Compliance Matrix: (Units=1/GPa)
#
#
# Indices 1 2 3 4 5 6 
#
# 1 0.123675 -0.003453 -0.007958 0.000000 0.000000 0.000000
# 2 -0.003453 0.018314 -0.006871 0.000000 0.000000 0.000000
# 3 -0.007958 -0.006871 0.010323 0.000000 0.000000 0.000000
# 4 0.000000 0.000000 0.000000 -0.379701 0.000000 0.000000
# 5 0.000000 0.000000 0.000000 0.000000 0.059536 0.000000
# 6 0.000000 0.000000 0.000000 0.000000 0.000000 0.211516
#
#
# Mechanical properties :
#
#
# Convention : Reuss Voigt Hill
#
# Bulk Modulus (GPa) = 8.63950 41.15345 24.89648
# Shear Modulus (GPa) = 42.08444 14.15148 28.11796
#
# Velocity S-wave (km/s) = 4.79215 2.77888 3.91707
# Velocity P-wave (km/s) = 5.94424 5.72302 5.83468
#
# Compressibility (1/GPa) = 0.11574747
#
# Stress axis : x y z
#
# Youngs Moduli (GPa) = 8.08573 54.60354 96.87235
#
# Poissons Ratio (x) = 0.18857 0.77088
# Poissons Ratio (y) = 0.02792 0.66560
# Poissons Ratio (z) = 0.06434 0.37518
#
# Static dielectric constant tensor:
#      x y z
#    x 1.654540 0.000000 0.000000 
#    y 0.000000 1.634740 0.000000 
#    z 0.000000 0.000000 1.675490 
# 
# From -- ./inp_files/32620.got.cif
#   From: 2010.05.17/outbox.cif.g08.bks.cpg/sg51_17_cif.got.tgz:32620.got - 2010.06.03 11:52:47.
