data_PCOD9402445
_publ_section_title
;
Structure prediction by ZEFSAII (Michael W. Deem and Ramdas Pophale) SiO2 
 PCOD9402445
Probable space group: P M M A
;
_chemical_formula_sum "Si O2"
_cell_formula_units_Z 64
_cell_length_a 25.590264
_cell_length_b 8.628019
_cell_length_c 14.863293
_cell_angle_alpha 90.000000
_cell_angle_beta 90.000000
_cell_angle_gamma 90.000000
_cell_volume 3281.715273
_symmetry_space_group_name_H-M "P M M A"
_symmetry_group_IT_number 51
_symmetry_cell_setting 'orthorhombic'
loop_
_space_group_symop_operation_xyz
x,y,z
1/2-x,-y,z
1/2+x,-y,-z
-x,y,-z
-x,-y,-z
1/2+x,y,-z
1/2-x,y,z
x,-y,z
loop_
_atom_site_type_symbol
_atom_site_label
_atom_site_fract_x
_atom_site_fract_y
_atom_site_fract_z
Si Si1 0.192759 0.815357 0.815639
Si Si2 0.089803 0.314671 0.721709
Si Si3 0.057921 0.179460 0.034878
Si Si4 0.836262 0.318273 0.995998
Si Si5 0.020299 0.681185 0.208910
Si Si6 0.394100 0.681606 0.355371
Si Si7 0.441298 0.184389 0.528199
Si Si8 0.690217 0.311578 0.792715
O O1 0.250000 0.764402 0.781448
O O2 0.143797 0.744882 0.762785
O O3 0.189505 0.000000 0.808742
O O4 0.189191 0.767876 0.920380
O O5 0.089718 0.500000 0.723066
O O6 0.078356 0.258417 0.620816
O O7 0.039125 0.264542 0.780148
O O8 0.101841 0.289490 0.994807
O O9 0.052703 0.215923 0.140009
O O10 0.071051 0.000000 0.017249
O O11 0.000000 0.211984 0.000000
O O12 0.823525 0.500000 0.001319
O O13 0.821737 0.260647 0.895467
O O14 0.021795 0.500000 0.179495
O O15 0.050718 0.688719 0.302801
O O16 0.383362 0.500000 0.374660
O O17 0.402152 0.772458 0.447334
O O18 0.350209 0.738893 0.284558
O O19 0.500000 0.237804 0.500000
O O20 0.443623 0.000000 0.540188
O O21 0.750000 0.271872 0.770859
O O22 0.685479 0.500000 0.795698
#
# Coordination Sequence:
#
# PCOD9402445 Si02
#       8
#     8   8   8   8   8   8   8   8
#     4  11  25  44  63  87 123 161 199 249 304 358
#     4  11  23  40  65  92 119 155 201 252 301 362
#     4  11  23  35  50  78 118 162 201 243 300 363
#     4  11  21  37  61  88 118 156 206 254 294 349
#     4  10  20  35  56  85 117 151 193 245 302 354
#     4  10  19  36  59  85 119 154 194 245 298 351
#     4  11  23  38  60  91 123 157 196 242 302 369
#     4   9  18  34  58  87 117 152 196 244 290 339
#
# _framework density 19.501998
#
# number of rings (size 3 to 8) (size 9 to 14) (size 15 to 20)
#    0.000    1.500    2.500    3.000    0.000    6.500 
#    0.000    0.625    0.000    4.125    0.000    0.000 
#    0.000    0.000    0.000    0.000    0.000    0.000 
#
# Total GULP energy -357451.472560 kJ/mol
# GULP energy per Si atom -5585.179259 kJ/mol
# Density = 1.945761 g / cm^3
# Si number density = 19.501998 Si / 1000 Ang^3
#
#
#
# Elastic Constant Matrix: (Units=GPa)
#
#
# Indices 1 2 3 4 5 6 
#
# 1 126.4138 21.6308 44.4664 0.0000 0.0000 0.0000
# 2 21.6308 14.9617 6.4347 0.0000 0.0000 0.0000
# 3 44.4664 6.4347 76.3327 0.0000 0.0000 0.0000
# 4 0.0000 0.0000 0.0000 76.8195 0.0000 0.0000
# 5 0.0000 0.0000 0.0000 0.0000 17.7206 0.0000
# 6 0.0000 0.0000 0.0000 0.0000 0.0000 15.9980
#
#
#
# Elastic Compliance Matrix: (Units=1/GPa)
#
#
# Indices 1 2 3 4 5 6 
#
# 1 0.012766 -0.015832 -0.006102 0.000000 0.000000 0.000000
# 2 -0.015832 0.088986 0.001721 0.000000 0.000000 0.000000
# 3 -0.006102 0.001721 0.016510 0.000000 0.000000 0.000000
# 4 0.000000 0.000000 0.000000 0.013018 0.000000 0.000000
# 5 0.000000 0.000000 0.000000 0.000000 0.056431 0.000000
# 6 0.000000 0.000000 0.000000 0.000000 0.000000 0.062508
#
#
# Mechanical properties :
#
#
# Convention : Reuss Voigt Hill
#
# Bulk Modulus (GPa) = 12.84737 40.30799 26.57768
# Shear Modulus (GPa) = 15.79327 31.78604 23.78965
#
# Velocity S-wave (km/s) = 2.84884 4.04156 3.49643
# Velocity P-wave (km/s) = 4.17411 6.51863 5.47338
#
# Compressibility (1/GPa) = 0.07783694
#
# Stress axis : x y z
#
# Youngs Moduli (GPa) = 78.33323 11.23767 60.56910
#
# Poissons Ratio (x) = 0.17792 0.36959
# Poissons Ratio (y) = 1.24018 -0.10426
# Poissons Ratio (z) = 0.47799 -0.01934
#
# Static dielectric constant tensor:
#      x y z
#    x 1.714100 0.000000 0.000000 
#    y 0.000000 1.667030 0.000000 
#    z 0.000000 0.000000 1.688890 
# 
# From -- ./inp_files/26356.got.cif
#   From: 2010.05.17/outbox.cif.g08.bks.cpg/sg51_14_cif.got.tgz:26356.got - 2010.06.03 11:52:47.
