data_PCOD9402527
_publ_section_title
;
Structure prediction by ZEFSAII (Michael W. Deem and Ramdas Pophale) SiO2 
 PCOD9402527
Probable space group: P M M A
;
_chemical_formula_sum "Si O2"
_cell_formula_units_Z 30
_cell_length_a 10.400084
_cell_length_b 11.559479
_cell_length_c 13.824613
_cell_angle_alpha 90.000000
_cell_angle_beta 90.000000
_cell_angle_gamma 90.000000
_cell_volume 1661.988790
_symmetry_space_group_name_H-M "P M M A"
_symmetry_group_IT_number 51
_symmetry_cell_setting 'orthorhombic'
loop_
_space_group_symop_operation_xyz
x,y,z
1/2-x,-y,z
1/2+x,-y,-z
-x,y,-z
-x,-y,-z
1/2+x,y,-z
1/2-x,y,z
x,-y,z
loop_
_atom_site_type_symbol
_atom_site_label
_atom_site_fract_x
_atom_site_fract_y
_atom_site_fract_z
Si Si1 0.895300 0.000000 0.662474
Si Si2 0.522262 0.747319 0.711746
Si Si3 0.250000 0.000000 0.530588
Si Si4 0.750000 0.746600 0.376380
Si Si5 0.899681 0.361808 0.914490
Si Si6 0.250000 0.362853 0.413030
O O1 0.963301 0.884433 0.696358
O O2 0.750000 0.000000 0.703909
O O3 0.868167 0.000000 0.546619
O O4 0.377670 0.716734 0.682794
O O5 0.560483 0.706338 0.818310
O O6 0.624956 0.689445 0.639308
O O7 0.250000 0.882766 0.592278
O O8 0.750000 0.677235 0.476628
O O9 0.750000 0.336904 0.939073
O O10 0.907860 0.500000 0.894898
O O11 0.000000 0.335488 0.000000
O O12 0.250000 0.500000 0.403667
#
# Coordination Sequence:
#
# PCOD9402527 Si02
#       6
#     4   8   2   4   8   4
#     4  10  19  37  67  88 117 165 215 251 303 367
#     4  12  23  41  62  94 126 164 210 260 316 369
#     4  10  20  42  60  94 122 170 222 256 288 368
#     4  12  26  36  61  92 132 167 206 260 302 370
#     4  10  22  42  68  92 120 162 211 263 317 376
#     4  12  24  40  59  84 124 169 211 252 311 372
#
# _framework density 18.050664000000001
#
# number of rings (size 3 to 8) (size 9 to 14) (size 15 to 20)
#    0.400    0.533    5.333    2.400    1.867    4.267 
#    0.000    0.667    0.000    0.000    0.000    0.000 
#    0.000    0.000    0.000    0.000    0.000    0.000 
#
# Total GULP energy -167615.941251 kJ/mol
# GULP energy per Si atom -5587.198042 kJ/mol
# Density = 1.800958 g / cm^3
# Si number density = 18.050664 Si / 1000 Ang^3
#
#
#
# Elastic Constant Matrix: (Units=GPa)
#
#
# Indices 1 2 3 4 5 6 
#
# 1 189.4046 44.5413 73.4956 0.0000 0.0000 0.0000
# 2 44.5413 94.0438 26.5359 0.0000 0.0000 0.0000
# 3 73.4956 26.5359 77.7992 0.0000 0.0000 0.0000
# 4 0.0000 0.0000 0.0000 38.8964 0.0000 0.0000
# 5 0.0000 0.0000 0.0000 0.0000 32.6928 0.0000
# 6 0.0000 0.0000 0.0000 0.0000 0.0000 -29.3811
#
#
#
# Elastic Compliance Matrix: (Units=1/GPa)
#
#
# Indices 1 2 3 4 5 6 
#
# 1 0.008657 -0.001983 -0.007502 0.000000 0.000000 0.000000
# 2 -0.001983 0.012220 -0.002294 0.000000 0.000000 0.000000
# 3 -0.007502 -0.002294 0.020723 0.000000 0.000000 0.000000
# 4 0.000000 0.000000 0.000000 0.025709 0.000000 0.000000
# 5 0.000000 0.000000 0.000000 0.000000 0.030588 0.000000
# 6 0.000000 0.000000 0.000000 0.000000 0.000000 -0.034035
#
#
# Mechanical properties :
#
#
# Convention : Reuss Voigt Hill
#
# Bulk Modulus (GPa) = 55.42884 72.26591 63.84737
# Shear Modulus (GPa) = 53.51363 22.88662 38.20013
#
# Velocity S-wave (km/s) = 5.45075 3.56464 4.60529
# Velocity P-wave (km/s) = 8.38977 7.55408 7.98287
#
# Compressibility (1/GPa) = 0.01804115
#
# Stress axis : x y z
#
# Youngs Moduli (GPa) = 115.51291 81.83216 48.25595
#
# Poissons Ratio (x) = 0.16231 0.36200
# Poissons Ratio (y) = 0.22912 0.11071
# Poissons Ratio (z) = 0.86654 0.18775
#
# Static dielectric constant tensor:
#      x y z
#    x 1.634980 0.000000 0.000000 
#    y 0.000000 1.611030 0.000000 
#    z 0.000000 0.000000 1.583280 
# 
# From -- ./inp_files/20082.got.cif
#   From: 2010.05.17/outbox.cif.g08.bks.cpg/sg51_11_cif.got.tgz:20082.got - 2010.06.03 11:52:47.
