data_PCOD9402417
_publ_section_title
;
Structure prediction by ZEFSAII (Michael W. Deem and Ramdas Pophale) SiO2 
 PCOD9402417
Probable space group: P M M A
;
_chemical_formula_sum "Si O2"
_cell_formula_units_Z 48
_cell_length_a 8.713089
_cell_length_b 15.032169
_cell_length_c 20.996288
_cell_angle_alpha 90.000000
_cell_angle_beta 90.000000
_cell_angle_gamma 90.000000
_cell_volume 2750.022968
_symmetry_space_group_name_H-M "P M M A"
_symmetry_group_IT_number 51
_symmetry_cell_setting 'orthorhombic'
loop_
_space_group_symop_operation_xyz
x,y,z
1/2-x,-y,z
1/2+x,-y,-z
-x,y,-z
-x,-y,-z
1/2+x,y,-z
1/2-x,y,z
x,-y,z
loop_
_atom_site_type_symbol
_atom_site_label
_atom_site_fract_x
_atom_site_fract_y
_atom_site_fract_z
Si Si1 0.428220 0.100470 0.792171
Si Si2 0.927533 0.840970 0.353950
Si Si3 0.565734 0.500000 0.426424
Si Si4 0.068078 0.000000 0.431073
Si Si5 0.934819 0.292604 0.807695
Si Si6 0.065004 0.603513 0.066826
Si Si7 0.932789 0.652620 0.666263
O O1 0.250000 0.104134 0.812728
O O2 0.430519 0.115255 0.716140
O O3 0.513426 0.189866 0.814481
O O4 0.486659 0.000000 0.806813
O O5 0.750000 0.821497 0.369348
O O6 0.025748 0.751590 0.356164
O O7 0.001610 0.913129 0.398330
O O8 0.750000 0.500000 0.431292
O O9 0.500000 0.500000 0.500000
O O10 0.510513 0.416566 0.382460
O O11 0.000000 0.000000 0.500000
O O12 0.250000 0.000000 0.429086
O O13 0.750000 0.293603 0.805092
O O14 0.987111 0.345181 0.870191
O O15 0.985477 0.340707 0.741234
O O16 0.250000 0.607522 0.064607
O O17 0.019585 0.500000 0.072114
O O18 0.000000 0.638570 0.000000
O O19 0.750000 0.635823 0.665915
#
# Coordination Sequence:
#
# PCOD9402417 Si02
#       7
#     8   8   4   4   8   8   8
#     4   9  17  31  52  77 107 140 172 216 270 317
#     4  10  19  36  56  77 107 139 173 220 273 325
#     4  12  26  44  62  82 107 144 185 228 279 334
#     4  12  24  36  52  76 104 138 179 220 271 332
#     4   9  19  33  54  83 112 145 182 224 272 321
#     4   9  18  33  53  78 112 150 185 221 268 321
#     4  10  21  38  60  86 111 142 182 228 278 330
#
# _framework density 17.454398999999999
#
# number of rings (size 3 to 8) (size 9 to 14) (size 15 to 20)
#    0.000    2.167    0.833    2.500    1.167    3.000 
#    0.000    3.333    0.000    0.500    0.000    0.000 
#    0.000    0.000    0.000    0.000    0.000    0.000 
#
# Total GULP energy -267397.122324 kJ/mol
# GULP energy per Si atom -5570.773382 kJ/mol
# Density = 1.741467 g / cm^3
# Si number density = 17.454399 Si / 1000 Ang^3
#
#
#
# Elastic Constant Matrix: (Units=GPa)
#
#
# Indices 1 2 3 4 5 6 
#
# 1 33.1569 16.3026 36.0484 0.0000 0.0000 0.0000
# 2 16.3026 105.7199 82.2249 0.0000 0.0000 0.0000
# 3 36.0484 82.2249 132.9365 0.0000 0.0000 0.0000
# 4 0.0000 0.0000 0.0000 38.1833 0.0000 0.0000
# 5 0.0000 0.0000 0.0000 0.0000 24.4376 0.0000
# 6 0.0000 0.0000 0.0000 0.0000 0.0000 32.4388
#
#
#
# Elastic Compliance Matrix: (Units=1/GPa)
#
#
# Indices 1 2 3 4 5 6 
#
# 1 0.044001 0.004808 -0.014905 0.000000 0.000000 0.000000
# 2 0.004808 0.018753 -0.012903 0.000000 0.000000 0.000000
# 3 -0.014905 -0.012903 0.019545 0.000000 0.000000 0.000000
# 4 0.000000 0.000000 0.000000 0.026189 0.000000 0.000000
# 5 0.000000 0.000000 0.000000 0.000000 0.040920 0.000000
# 6 0.000000 0.000000 0.000000 0.000000 0.000000 0.030827
#
#
# Mechanical properties :
#
#
# Convention : Reuss Voigt Hill
#
# Bulk Modulus (GPa) = 27.54987 60.10723 43.82855
# Shear Modulus (GPa) = 20.97866 28.16110 24.56988
#
# Velocity S-wave (km/s) = 3.47062 4.02109 3.75595
# Velocity P-wave (km/s) = 5.64610 7.48801 6.63132
#
# Compressibility (1/GPa) = 0.03629781
#
# Stress axis : x y z
#
# Youngs Moduli (GPa) = 22.72669 53.32469 51.16354
#
# Poissons Ratio (x) = -0.25637 0.76262
# Poissons Ratio (y) = -0.10926 0.66016
# Poissons Ratio (z) = 0.33875 0.68805
#
# Static dielectric constant tensor:
#      x y z
#    x 1.600670 0.000000 0.000000 
#    y 0.000000 1.580430 0.000000 
#    z 0.000000 0.000000 1.588930 
# 
# From -- ./inp_files/27650.got.cif
#   From: 2010.05.17/outbox.cif.g08.bks.cpg/sg51_14_cif.got.tgz:27650.got - 2010.06.03 11:52:47.
