data_PCOD9402170
_publ_section_title
;
Structure prediction by ZEFSAII (Michael W. Deem and Ramdas Pophale) SiO2 
 PCOD9402170
Probable space group: P M M A
;
_chemical_formula_sum "Si O2"
_cell_formula_units_Z 40
_cell_length_a 26.473487
_cell_length_b 9.135906
_cell_length_c 9.151847
_cell_angle_alpha 90.000000
_cell_angle_beta 90.000000
_cell_angle_gamma 90.000000
_cell_volume 2213.459206
_symmetry_space_group_name_H-M "P M M A"
_symmetry_group_IT_number 51
_symmetry_cell_setting 'orthorhombic'
loop_
_space_group_symop_operation_xyz
x,y,z
1/2-x,-y,z
1/2+x,-y,-z
-x,y,-z
-x,-y,-z
1/2+x,y,-z
1/2-x,y,z
x,-y,z
loop_
_atom_site_type_symbol
_atom_site_label
_atom_site_fract_x
_atom_site_fract_y
_atom_site_fract_z
Si Si1 0.948347 0.825422 0.912325
Si Si2 0.250000 0.167380 0.575689
Si Si3 0.148094 0.325969 0.582089
Si Si4 0.250000 0.830168 0.931408
Si Si5 0.048592 0.674938 0.399387
Si Si6 0.354252 0.324706 0.928030
O O1 0.953990 0.763959 0.749505
O O2 0.940289 0.000000 0.912316
O O3 0.901105 0.745705 0.988079
O O4 0.000000 0.794454 0.000000
O O5 0.198664 0.246405 0.529667
O O6 0.250000 0.172049 0.753523
O O7 0.250000 0.000000 0.528657
O O8 0.155856 0.500000 0.570851
O O9 0.099021 0.286500 0.489142
O O10 0.139832 0.294075 0.754149
O O11 0.198872 0.747038 0.976279
O O12 0.250000 0.000000 0.977287
O O13 0.049842 0.500000 0.368201
O O14 0.000000 0.702799 0.500000
O O15 0.352852 0.500000 0.947721
#
# Coordination Sequence:
#
# PCOD9402170 Si02
#       6
#     8   4   8   4   8   8
#     4  11  24  39  55  79 111 145 181 224 276 330
#     4   9  17  29  50  79 110 145 180 214 258 315
#     4   9  18  33  55  82 110 140 177 222 267 314
#     4   9  17  31  52  81 116 147 178 220 268 319
#     4  10  21  38  59  82 107 138 179 225 273 326
#     4  10  19  34  58  84 110 144 185 225 267 318
#
# _framework density 18.071262000000001
#
# number of rings (size 3 to 8) (size 9 to 14) (size 15 to 20)
#    0.000    2.200    0.000    3.000    0.000    7.600 
#    0.000    1.000    0.000    3.600    0.000    0.000 
#    0.000    0.000    0.000    0.000    0.000    0.000 
#
# Total GULP energy -223341.162535 kJ/mol
# GULP energy per Si atom -5583.529063 kJ/mol
# Density = 1.803013 g / cm^3
# Si number density = 18.071262 Si / 1000 Ang^3
#
#
#
# Elastic Constant Matrix: (Units=GPa)
#
#
# Indices 1 2 3 4 5 6 
#
# 1 196.9272 97.1148 78.7260 0.0000 0.0000 0.0000
# 2 97.1148 86.1385 65.2243 0.0000 0.0000 0.0000
# 3 78.7260 65.2243 80.8694 0.0000 0.0000 0.0000
# 4 0.0000 0.0000 0.0000 23.9590 0.0000 0.0000
# 5 0.0000 0.0000 0.0000 0.0000 30.7875 0.0000
# 6 0.0000 0.0000 0.0000 0.0000 0.0000 7.7024
#
#
#
# Elastic Compliance Matrix: (Units=1/GPa)
#
#
# Indices 1 2 3 4 5 6 
#
# 1 0.011550 -0.011580 -0.001904 0.000000 0.000000 0.000000
# 2 -0.011580 0.041431 -0.022143 0.000000 0.000000 0.000000
# 3 -0.001904 -0.022143 0.032079 0.000000 0.000000 0.000000
# 4 0.000000 0.000000 0.000000 0.041738 0.000000 0.000000
# 5 0.000000 0.000000 0.000000 0.000000 0.032481 0.000000
# 6 0.000000 0.000000 0.000000 0.000000 0.000000 0.129830
#
#
# Mechanical properties :
#
#
# Convention : Reuss Voigt Hill
#
# Bulk Modulus (GPa) = 72.43414 94.00726 83.22070
# Shear Modulus (GPa) = 13.69995 20.68110 17.19052
#
# Velocity S-wave (km/s) = 2.75636 3.38660 3.08760
# Velocity P-wave (km/s) = 7.09222 8.21129 7.67218
#
# Compressibility (1/GPa) = 0.01380564
#
# Stress axis : x y z
#
# Youngs Moduli (GPa) = 86.58159 24.13634 31.17332
#
# Poissons Ratio (x) = 0.27949 0.05936
# Poissons Ratio (y) = 1.00258 0.69028
# Poissons Ratio (z) = 0.16487 0.53446
#
# Static dielectric constant tensor:
#      x y z
#    x 1.594670 0.000000 0.000000 
#    y 0.000000 1.602000 0.000000 
#    z 0.000000 0.000000 1.601560 
# 
# From -- ./inp_files/12209.got.cif
#   From: 2010.05.17/outbox.cif.g08.bks.cpg/sg51_7_cif.got.tgz:12209.got - 2010.06.03 11:52:47.
