data_PCOD9402422
_publ_section_title
;
Structure prediction by ZEFSAII (Michael W. Deem and Ramdas Pophale) SiO2 
 PCOD9402422
Probable space group: P M M A
;
_chemical_formula_sum "Si O2"
_cell_formula_units_Z 56
_cell_length_a 19.484574
_cell_length_b 8.843058
_cell_length_c 18.214431
_cell_angle_alpha 90.000000
_cell_angle_beta 90.000000
_cell_angle_gamma 90.000000
_cell_volume 3138.405075
_symmetry_space_group_name_H-M "P M M A"
_symmetry_group_IT_number 51
_symmetry_cell_setting 'orthorhombic'
loop_
_space_group_symop_operation_xyz
x,y,z
1/2-x,-y,z
1/2+x,-y,-z
-x,y,-z
-x,-y,-z
1/2+x,y,-z
1/2-x,y,z
x,-y,z
loop_
_atom_site_type_symbol
_atom_site_label
_atom_site_fract_x
_atom_site_fract_y
_atom_site_fract_z
Si Si1 0.561899 0.681409 0.700341
Si Si2 0.914346 0.181812 0.266130
Si Si3 0.833347 0.826156 0.977921
Si Si4 0.668794 0.319710 0.131636
Si Si5 0.828337 0.815935 0.410079
Si Si6 0.670299 0.681983 0.824337
Si Si7 0.427700 0.817942 0.460225
O O1 0.557370 0.500000 0.699502
O O2 0.490004 0.750036 0.727259
O O3 0.622136 0.725955 0.756727
O O4 0.575966 0.741242 0.618634
O O5 0.874799 0.239690 0.194576
O O6 0.871258 0.229529 0.338397
O O7 0.918238 0.000000 0.265722
O O8 0.750000 0.823040 0.976863
O O9 0.854801 0.752692 0.901020
O O10 0.855443 0.000000 0.982866
O O11 0.853521 0.736060 0.050926
O O12 0.750000 0.282374 0.140551
O O13 0.661689 0.500000 0.136795
O O14 0.750000 0.762970 0.407038
O O15 0.867798 0.770226 0.483914
O O16 0.827564 0.000000 0.409946
O O17 0.750000 0.726400 0.812428
O O18 0.668703 0.500000 0.831371
O O19 0.500000 0.783805 0.500000
O O20 0.424963 0.000000 0.450669
#
# Coordination Sequence:
#
# PCOD9402422 Si02
#       7
#     8   8   8   8   8   8   8
#     4  11  23  37  56  82 111 145 184 224 278 341
#     4  11  21  36  56  79 111 149 189 232 276 326
#     4   9  17  31  54  83 111 142 184 230 275 325
#     4  10  20  34  54  82 116 151 186 226 275 330
#     4   9  18  33  55  81 107 139 181 228 275 322
#     4   9  19  37  58  79 108 145 182 225 279 336
#     4  10  19  36  57  78 105 141 182 223 273 331
#
# _framework density 17.843457999999998
#
# number of rings (size 3 to 8) (size 9 to 14) (size 15 to 20)
#    0.000    2.143    1.429    2.143    0.000    5.143 
#    0.000    0.714    0.000    6.000    0.000    0.000 
#    0.000    0.000    0.000    0.000    0.000    0.000 
#
# Total GULP energy -312570.476463 kJ/mol
# GULP energy per Si atom -5581.615651 kJ/mol
# Density = 1.780285 g / cm^3
# Si number density = 17.843458 Si / 1000 Ang^3
#
#
#
# Elastic Constant Matrix: (Units=GPa)
#
#
# Indices 1 2 3 4 5 6 
#
# 1 110.5135 39.1916 84.4860 0.0000 0.0000 0.0000
# 2 39.1916 42.7294 57.2081 0.0000 0.0000 0.0000
# 3 84.4860 57.2081 187.8946 0.0000 0.0000 0.0000
# 4 0.0000 0.0000 0.0000 46.8481 0.0000 0.0000
# 5 0.0000 0.0000 0.0000 0.0000 25.3412 0.0000
# 6 0.0000 0.0000 0.0000 0.0000 0.0000 20.8207
#
#
#
# Elastic Compliance Matrix: (Units=1/GPa)
#
#
# Indices 1 2 3 4 5 6 
#
# 1 0.015300 -0.008141 -0.004401 0.000000 0.000000 0.000000
# 2 -0.008141 0.043840 -0.009687 0.000000 0.000000 0.000000
# 3 -0.004401 -0.009687 0.010250 0.000000 0.000000 0.000000
# 4 0.000000 0.000000 0.000000 0.021346 0.000000 0.000000
# 5 0.000000 0.000000 0.000000 0.000000 0.039461 0.000000
# 6 0.000000 0.000000 0.000000 0.000000 0.000000 0.048029
#
#
# Mechanical properties :
#
#
# Convention : Reuss Voigt Hill
#
# Bulk Modulus (GPa) = 40.10933 78.10100 59.10517
# Shear Modulus (GPa) = 21.64535 29.28546 25.46540
#
# Velocity S-wave (km/s) = 3.48669 4.05562 3.78187
# Velocity P-wave (km/s) = 6.22387 8.11147 7.22954
#
# Compressibility (1/GPa) = 0.02493185
#
# Stress axis : x y z
#
# Youngs Moduli (GPa) = 65.35827 22.81017 97.55657
#
# Poissons Ratio (x) = 0.18570 0.42934
# Poissons Ratio (y) = 0.53210 0.94505
# Poissons Ratio (z) = 0.28764 0.22097
#
# Static dielectric constant tensor:
#      x y z
#    x 1.598310 0.000000 0.000000 
#    y 0.000000 1.602350 0.000000 
#    z 0.000000 0.000000 1.584710 
# 
# From -- ./inp_files/25786.got.cif
#   From: 2010.05.17/outbox.cif.g08.bks.cpg/sg51_13_cif.got.tgz:25786.got - 2010.06.03 11:52:47.
