data_PCOD9402219
_publ_section_title
;
Structure prediction by ZEFSAII (Michael W. Deem and Ramdas Pophale) SiO2 
 PCOD9402219
Probable space group: P M M A
;
_chemical_formula_sum "Si O2"
_cell_formula_units_Z 48
_cell_length_a 18.780359
_cell_length_b 10.446746
_cell_length_c 13.854217
_cell_angle_alpha 90.000000
_cell_angle_beta 90.000000
_cell_angle_gamma 90.000000
_cell_volume 2718.109266
_symmetry_space_group_name_H-M "P M M A"
_symmetry_group_IT_number 51
_symmetry_cell_setting 'orthorhombic'
loop_
_space_group_symop_operation_xyz
x,y,z
1/2-x,-y,z
1/2+x,-y,-z
-x,y,-z
-x,-y,-z
1/2+x,y,-z
1/2-x,y,z
x,-y,z
loop_
_atom_site_type_symbol
_atom_site_label
_atom_site_fract_x
_atom_site_fract_y
_atom_site_fract_z
Si Si1 0.898908 0.255996 0.329899
Si Si2 0.921907 0.758196 0.946739
Si Si3 0.670676 0.000000 0.252719
Si Si4 0.833812 0.500000 0.227670
Si Si5 0.832228 0.000000 0.022513
Si Si6 0.451932 0.153904 0.270675
Si Si7 0.163645 0.500000 0.003276
Si Si8 0.585664 0.855952 0.521367
O O1 0.865881 0.127690 0.287347
O O2 0.867035 0.376726 0.277511
O O3 0.886897 0.247134 0.444959
O O4 0.981142 0.238968 0.302748
O O5 0.929846 0.796028 0.834005
O O6 0.877416 0.626715 0.959043
O O7 0.875832 0.874237 0.991584
O O8 0.000000 0.750548 0.000000
O O9 0.750000 0.000000 0.291113
O O10 0.671208 0.000000 0.137555
O O11 0.750000 0.500000 0.243883
O O12 0.845313 0.500000 0.112830
O O13 0.750000 0.000000 0.985870
O O14 0.401599 0.165972 0.365182
O O15 0.468493 0.000000 0.264211
O O16 0.250000 0.500000 0.023180
O O17 0.500000 0.860054 0.500000
O O18 0.611449 0.000000 0.497527
#
# Coordination Sequence:
#
# PCOD9402219 Si02
#       8
#     8   8   4   4   4   8   4   8
#     4  11  19  35  57  82 114 148 184 235 296 343
#     4  12  23  37  62  91 119 151 202 259 295 334
#     4  11  20  31  53  79 103 142 197 238 276 345
#     4  11  24  39  55  79 115 156 191 234 290 349
#     4  11  23  37  54  83 120 158 193 238 301 359
#     4  10  19  34  59  90 118 144 184 244 301 339
#     4  11  25  45  60  79 120 170 201 228 295 379
#     4   8  15  31  55  83 111 143 175 221 293 360
#
# _framework density 17.659334000000001
#
# number of rings (size 3 to 8) (size 9 to 14) (size 15 to 20)
#    0.000    1.500    2.500    5.500    0.000    3.333 
#    0.000    4.583    0.000    6.000    0.000    0.000 
#    0.000    0.000    0.000    0.000    0.000    0.000 
#
# Total GULP energy -267531.745102 kJ/mol
# GULP energy per Si atom -5573.578023 kJ/mol
# Density = 1.761914 g / cm^3
# Si number density = 17.659334 Si / 1000 Ang^3
#
#
#
# Elastic Constant Matrix: (Units=GPa)
#
#
# Indices 1 2 3 4 5 6 
#
# 1 66.5664 42.6255 34.6487 0.0000 0.0000 0.0000
# 2 42.6255 130.5778 51.3352 0.0000 0.0000 0.0000
# 3 34.6487 51.3352 138.3660 0.0000 0.0000 0.0000
# 4 0.0000 0.0000 0.0000 30.7388 0.0000 0.0000
# 5 0.0000 0.0000 0.0000 0.0000 17.5482 0.0000
# 6 0.0000 0.0000 0.0000 0.0000 0.0000 -0.7049
#
#
#
# Elastic Compliance Matrix: (Units=1/GPa)
#
#
# Indices 1 2 3 4 5 6 
#
# 1 0.020023 -0.005345 -0.003031 0.000000 0.000000 0.000000
# 2 -0.005345 0.010393 -0.002517 0.000000 0.000000 0.000000
# 3 -0.003031 -0.002517 0.008920 0.000000 0.000000 0.000000
# 4 0.000000 0.000000 0.000000 0.032532 0.000000 0.000000
# 5 0.000000 0.000000 0.000000 0.000000 0.056986 0.000000
# 6 0.000000 0.000000 0.000000 0.000000 0.000000 -1.418584
#
#
# Mechanical properties :
#
#
# Convention : Reuss Voigt Hill
#
# Bulk Modulus (GPa) = 56.98179 65.85876 61.42027
# Shear Modulus (GPa) = -3.96167 23.30981 9.67407
#
# Velocity S-wave (km/s) = -1.49942 3.63708 2.34309
# Velocity P-wave (km/s) = 5.41660 7.41706 6.49432
#
# Compressibility (1/GPa) = 0.01754947
#
# Stress axis : x y z
#
# Youngs Moduli (GPa) = 49.94344 96.22214 112.10488
#
# Poissons Ratio (x) = 0.51426 0.33980
# Poissons Ratio (y) = 0.26692 0.28222
# Poissons Ratio (z) = 0.15138 0.24223
#
# Static dielectric constant tensor:
#      x y z
#    x 1.316580 0.000000 0.000000 
#    y 0.000000 1.569970 0.000000 
#    z 0.000000 0.000000 1.638180 
# 
# From -- ./inp_files/25019.got.cif
#   From: 2010.05.17/outbox.cif.g08.bks.cpg/sg51_13_cif.got.tgz:25019.got - 2010.06.03 11:52:47.
