data_PCOD9402816
_publ_section_title
;
Structure prediction by ZEFSAII (Michael W. Deem and Ramdas Pophale) SiO2 
 PCOD9402816
Probable space group: P M M A
;
_chemical_formula_sum "Si O2"
_cell_formula_units_Z 58
_cell_length_a 8.053270
_cell_length_b 15.845191
_cell_length_c 26.324568
_cell_angle_alpha 90.000000
_cell_angle_beta 90.000000
_cell_angle_gamma 90.000000
_cell_volume 3359.162329
_symmetry_space_group_name_H-M "P M M A"
_symmetry_group_IT_number 51
_symmetry_cell_setting 'orthorhombic'
loop_
_space_group_symop_operation_xyz
x,y,z
1/2-x,-y,z
1/2+x,-y,-z
-x,y,-z
-x,-y,-z
1/2+x,y,-z
1/2-x,y,z
x,-y,z
loop_
_atom_site_type_symbol
_atom_site_label
_atom_site_fract_x
_atom_site_fract_y
_atom_site_fract_z
Si Si1 0.551801 0.876814 0.784688
Si Si2 0.052457 0.402348 0.663222
Si Si3 0.442207 0.678488 0.233543
Si Si4 0.949003 0.907847 0.905432
Si Si5 0.447958 0.403012 0.446119
Si Si6 0.054412 0.731907 0.055136
Si Si7 0.057192 0.406203 0.865039
Si Si8 0.750000 0.000000 0.244334
O O1 0.750000 0.896038 0.772547
O O2 0.527230 0.777533 0.774717
O O3 0.531448 0.895730 0.844829
O O4 0.401924 0.927647 0.758275
O O5 0.250000 0.403698 0.668928
O O6 0.991088 0.500000 0.665577
O O7 0.977508 0.349874 0.709234
O O8 0.010418 0.367093 0.607226
O O9 0.250000 0.663106 0.221421
O O10 0.542126 0.623070 0.193181
O O11 0.750000 0.910500 0.914347
O O12 0.019793 0.824689 0.932474
O O13 0.017973 0.000000 0.920014
O O14 0.500000 0.363715 0.500000
O O15 0.250000 0.405549 0.444545
O O16 0.514529 0.500000 0.446899
O O17 0.250000 0.742948 0.053830
O O18 0.017823 0.665527 0.099273
O O19 0.000000 0.701328 0.000000
O O20 0.250000 0.410199 0.878543
O O21 0.984021 0.500000 0.871542
#
# Coordination Sequence:
#
# PCOD9402816 Si02
#       8
#     8   8   8   8   8   8   8   2
#     4  10  21  36  54  83 112 139 178 217 260 326
#     4  10  20  32  47  71 106 145 190 237 271 314
#     4  11  22  36  55  79 110 143 175 221 274 320
#     4   9  17  35  58  77 107 136 162 204 257 315
#     4   9  16  27  44  66  95 136 187 234 276 320
#     4  11  23  40  59  80 104 135 167 212 266 319
#     4  11  24  40  59  80 103 134 177 226 267 319
#     4  12  22  32  60  86 104 148 178 208 270 324
#
# _framework density 17.266210999999998
#
# number of rings (size 3 to 8) (size 9 to 14) (size 15 to 20)
#    0.000    1.793    2.069    2.690    1.931    5.793 
#    1.241    0.000    0.000    0.000    0.000    0.000 
#    0.000    0.000    0.000    0.621    4.414    1.793 
#
# Total GULP energy -322882.047691 kJ/mol
# GULP energy per Si atom -5566.931857 kJ/mol
# Density = 1.722691 g / cm^3
# Si number density = 17.266211 Si / 1000 Ang^3
#
#
#
# Elastic Constant Matrix: (Units=GPa)
#
#
# Indices 1 2 3 4 5 6 
#
# 1 52.0864 19.1257 -2.0510 0.0000 0.0000 0.0000
# 2 19.1257 76.7786 27.2234 0.0000 0.0000 0.0000
# 3 -2.0510 27.2234 74.8492 0.0000 0.0000 0.0000
# 4 0.0000 0.0000 0.0000 -13.0849 0.0000 0.0000
# 5 0.0000 0.0000 0.0000 0.0000 25.2261 0.0000
# 6 0.0000 0.0000 0.0000 0.0000 0.0000 19.3309
#
#
#
# Elastic Compliance Matrix: (Units=1/GPa)
#
#
# Indices 1 2 3 4 5 6 
#
# 1 0.021680 -0.006442 0.002937 0.000000 0.000000 0.000000
# 2 -0.006442 0.016867 -0.006311 0.000000 0.000000 0.000000
# 3 0.002937 -0.006311 0.015736 0.000000 0.000000 0.000000
# 4 0.000000 0.000000 0.000000 -0.076424 0.000000 0.000000
# 5 0.000000 0.000000 0.000000 0.000000 0.039641 0.000000
# 6 0.000000 0.000000 0.000000 0.000000 0.000000 0.051731
#
#
# Mechanical properties :
#
#
# Convention : Reuss Voigt Hill
#
# Bulk Modulus (GPa) = 28.85928 32.47894 30.66911
# Shear Modulus (GPa) = 49.79406 16.92216 33.35811
#
# Velocity S-wave (km/s) = 5.37602 3.13401 4.40021
# Velocity P-wave (km/s) = 7.43546 5.65222 6.60430
#
# Compressibility (1/GPa) = 0.03465089
#
# Stress axis : x y z
#
# Youngs Moduli (GPa) = 46.12559 59.28765 63.54804
#
# Poissons Ratio (x) = 0.38193 -0.18664
# Poissons Ratio (y) = 0.29714 0.40106
# Poissons Ratio (z) = -0.13547 0.37418
#
# Static dielectric constant tensor:
#      x y z
#    x 1.595180 0.000000 0.000000 
#    y 0.000000 1.620520 0.000000 
#    z 0.000000 0.000000 1.578800 
# 
# From -- ./inp_files/34800.got.cif
#   From: 2010.05.17/outbox.cif.g08.bks.cpg/sg51_18_cif.got.tgz:34800.got - 2010.06.03 11:52:47.
