data_PCOD9402064
_publ_section_title
;
Structure prediction by ZEFSAII (Michael W. Deem and Ramdas Pophale) SiO2 
 PCOD9402064
Probable space group: P M M A
;
_chemical_formula_sum "Si O2"
_cell_formula_units_Z 52
_cell_length_a 8.755671
_cell_length_b 18.503453
_cell_length_c 18.070468
_cell_angle_alpha 90.000000
_cell_angle_beta 90.000000
_cell_angle_gamma 90.000000
_cell_volume 2927.599174
_symmetry_space_group_name_H-M "P M M A"
_symmetry_group_IT_number 51
_symmetry_cell_setting 'orthorhombic'
loop_
_space_group_symop_operation_xyz
x,y,z
1/2-x,-y,z
1/2+x,-y,-z
-x,y,-z
-x,-y,-z
1/2+x,y,-z
1/2-x,y,z
x,-y,z
loop_
_atom_site_type_symbol
_atom_site_label
_atom_site_fract_x
_atom_site_fract_y
_atom_site_fract_z
Si Si1 0.066953 0.840912 0.082699
Si Si2 0.565901 0.000000 0.916846
Si Si3 0.428598 0.216068 0.340835
Si Si4 0.570092 0.636716 0.579439
Si Si5 0.570124 0.082239 0.418050
Si Si6 0.069637 0.274200 0.806556
Si Si7 0.065627 0.418945 0.733062
O O1 0.250000 0.839164 0.079215
O O2 0.020795 0.920941 0.114619
O O3 0.009528 0.774176 0.131353
O O4 0.000000 0.836116 0.000000
O O5 0.750000 0.000000 0.919750
O O6 0.500000 0.000000 0.000000
O O7 0.250000 0.218425 0.319440
O O8 0.451488 0.277779 0.403177
O O9 0.477386 0.138832 0.370136
O O10 0.532288 0.236464 0.271460
O O11 0.500000 0.617818 0.500000
O O12 0.750000 0.621545 0.578311
O O13 0.497197 0.598071 0.650940
O O14 0.500000 0.084566 0.500000
O O15 0.750000 0.100805 0.420494
O O16 0.555784 0.000000 0.390657
O O17 0.250000 0.275339 0.821015
O O18 0.015490 0.356529 0.790466
O O19 0.250000 0.415053 0.729123
O O20 0.021051 0.500000 0.754725
#
# Coordination Sequence:
#
# PCOD9402064 Si02
#       7
#     8   4   8   8   8   8   8
#     4  10  19  34  56  82 111 142 177 213 254 303
#     4   8  16  30  50  76 106 138 169 202 241 288
#     4  10  20  34  51  71  97 131 171 214 260 310
#     4  10  20  32  49  74 101 131 169 212 260 312
#     4  10  20  33  49  69  94 127 170 217 264 311
#     4  10  20  35  55  79 106 136 171 212 259 312
#     4   9  19  36  56  76 101 135 173 214 262 314
#
# _framework density 17.761994000000001
#
# number of rings (size 3 to 8) (size 9 to 14) (size 15 to 20)
#    0.000    2.308    0.000    2.769    0.000    5.846 
#    1.385    0.000    0.000    0.462    0.000    0.000 
#    0.000    0.000    0.000    0.000    0.000    0.000 
#
# Total GULP energy -289913.123963 kJ/mol
# GULP energy per Si atom -5575.252384 kJ/mol
# Density = 1.772157 g / cm^3
# Si number density = 17.761994 Si / 1000 Ang^3
#
#
#
# Elastic Constant Matrix: (Units=GPa)
#
#
# Indices 1 2 3 4 5 6 
#
# 1 36.9171 35.6241 16.7439 0.0000 0.0000 0.0000
# 2 35.6241 136.4325 55.7586 0.0000 0.0000 0.0000
# 3 16.7439 55.7586 56.5522 0.0000 0.0000 0.0000
# 4 0.0000 0.0000 0.0000 20.9391 0.0000 0.0000
# 5 0.0000 0.0000 0.0000 0.0000 29.6925 0.0000
# 6 0.0000 0.0000 0.0000 0.0000 0.0000 19.3916
#
#
#
# Elastic Compliance Matrix: (Units=1/GPa)
#
#
# Indices 1 2 3 4 5 6 
#
# 1 0.036398 -0.008541 -0.002355 0.000000 0.000000 0.000000
# 2 -0.008541 0.014281 -0.011552 0.000000 0.000000 0.000000
# 3 -0.002355 -0.011552 0.029770 0.000000 0.000000 0.000000
# 4 0.000000 0.000000 0.000000 0.047758 0.000000 0.000000
# 5 0.000000 0.000000 0.000000 0.000000 0.033679 0.000000
# 6 0.000000 0.000000 0.000000 0.000000 0.000000 0.051569
#
#
# Mechanical properties :
#
#
# Convention : Reuss Voigt Hill
#
# Bulk Modulus (GPa) = 28.12752 49.57276 38.85014
# Shear Modulus (GPa) = 18.50477 22.12299 20.31388
#
# Velocity S-wave (km/s) = 3.23122 3.53303 3.38549
# Velocity P-wave (km/s) = 5.45814 6.67930 6.09936
#
# Compressibility (1/GPa) = 0.03555237
#
# Stress axis : x y z
#
# Youngs Moduli (GPa) = 27.47387 70.02351 33.59141
#
# Poissons Ratio (x) = 0.59811 0.07911
# Poissons Ratio (y) = 0.23467 0.38803
# Poissons Ratio (z) = 0.06470 0.80888
#
# Static dielectric constant tensor:
#      x y z
#    x 1.599610 0.000000 0.000000 
#    y 0.000000 1.653540 0.000000 
#    z 0.000000 0.000000 1.554400 
# 
# From -- ./inp_files/27964.got.cif
#   From: 2010.05.17/outbox.cif.g08.bks.cpg/sg51_14_cif.got.tgz:27964.got - 2010.06.03 11:52:47.
