data_PCOD9402022
_publ_section_title
;
Structure prediction by ZEFSAII (Michael W. Deem and Ramdas Pophale) SiO2 
 PCOD9402022
Probable space group: P M M A
;
_chemical_formula_sum "Si O2"
_cell_formula_units_Z 64
_cell_length_a 17.240189
_cell_length_b 18.515729
_cell_length_c 10.436561
_cell_angle_alpha 90.000000
_cell_angle_beta 90.000000
_cell_angle_gamma 90.000000
_cell_volume 3331.503349
_symmetry_space_group_name_H-M "P M M A"
_symmetry_group_IT_number 51
_symmetry_cell_setting 'orthorhombic'
loop_
_space_group_symop_operation_xyz
x,y,z
1/2-x,-y,z
1/2+x,-y,-z
-x,y,-z
-x,-y,-z
1/2+x,y,-z
1/2-x,y,z
x,-y,z
loop_
_atom_site_type_symbol
_atom_site_label
_atom_site_fract_x
_atom_site_fract_y
_atom_site_fract_z
Si Si1 0.841114 0.234167 0.781975
Si Si2 0.554998 0.335691 0.620974
Si Si3 0.343959 0.078106 0.270218
Si Si4 0.841193 0.775135 0.297781
Si Si5 0.155281 0.919490 0.569984
Si Si6 0.161096 0.619341 0.574382
Si Si7 0.441955 0.418999 0.807052
Si Si8 0.342073 0.312462 0.947638
O O1 0.750000 0.235651 0.740842
O O2 0.895223 0.270392 0.676420
O O3 0.865342 0.151118 0.801729
O O4 0.847078 0.278705 0.912703
O O5 0.500000 0.316087 0.500000
O O6 0.613397 0.392410 0.554748
O O7 0.507696 0.371347 0.737225
O O8 0.250000 0.075089 0.265999
O O9 0.365426 0.086626 0.419926
O O10 0.372936 0.000000 0.224143
O O11 0.750000 0.789476 0.280468
O O12 0.874762 0.849399 0.353742
O O13 0.845916 0.705437 0.390783
O O14 0.868364 0.745684 0.160370
O O15 0.250000 0.918348 0.573811
O O16 0.131336 0.000000 0.615105
O O17 0.250000 0.601299 0.559782
O O18 0.123428 0.580401 0.695115
O O19 0.467296 0.500000 0.835872
O O20 0.399356 0.379387 0.924471
O O21 0.250000 0.329928 0.922575
#
# Coordination Sequence:
#
# PCOD9402022 Si02
#       8
#     8   8   8   8   8   8   8   8
#     4  10  19  34  56  79 107 140 175 219 261 300
#     4  10  21  34  52  79 107 138 177 215 261 323
#     4   8  14  25  45  76 108 135 166 209 264 315
#     4   8  13  24  41  64  97 130 163 205 245 288
#     4   8  12  18  33  61  97 134 165 195 240 294
#     4   9  17  30  52  79 103 132 170 214 266 317
#     4  10  21  37  55  75 103 137 172 215 264 316
#     4   9  19  34  53  77 100 132 181 221 255 308
#
# _framework density 19.210546999999998
#
# number of rings (size 3 to 8) (size 9 to 14) (size 15 to 20)
#    0.000    3.000    0.000    3.000    0.000    5.750 
#    0.000    1.875    0.000    6.000    0.000    8.750 
#    0.000    0.000    0.000    0.000    0.000    0.000 
#
# Total GULP energy -356453.332051 kJ/mol
# GULP energy per Si atom -5569.583313 kJ/mol
# Density = 1.916682 g / cm^3
# Si number density = 19.210547 Si / 1000 Ang^3
#
#
#
# Elastic Constant Matrix: (Units=GPa)
#
#
# Indices 1 2 3 4 5 6 
#
# 1 46.1974 17.6396 12.0964 0.0000 0.0000 0.0000
# 2 17.6396 113.8584 26.4098 0.0000 0.0000 0.0000
# 3 12.0964 26.4098 34.9111 0.0000 0.0000 0.0000
# 4 0.0000 0.0000 0.0000 3.6886 0.0000 0.0000
# 5 0.0000 0.0000 0.0000 0.0000 20.0789 0.0000
# 6 0.0000 0.0000 0.0000 0.0000 0.0000 11.1972
#
#
#
# Elastic Compliance Matrix: (Units=1/GPa)
#
#
# Indices 1 2 3 4 5 6 
#
# 1 0.024249 -0.002193 -0.006743 0.000000 0.000000 0.000000
# 2 -0.002193 0.010850 -0.007448 0.000000 0.000000 0.000000
# 3 -0.006743 -0.007448 0.036615 0.000000 0.000000 0.000000
# 4 0.000000 0.000000 0.000000 0.271105 0.000000 0.000000
# 5 0.000000 0.000000 0.000000 0.000000 0.049804 0.000000
# 6 0.000000 0.000000 0.000000 0.000000 0.000000 0.089308
#
#
# Mechanical properties :
#
#
# Convention : Reuss Voigt Hill
#
# Bulk Modulus (GPa) = 25.67668 34.13984 29.90826
# Shear Modulus (GPa) = 9.47540 16.24769 12.86155
#
# Velocity S-wave (km/s) = 2.22331 2.91137 2.59029
# Velocity P-wave (km/s) = 4.47054 5.39550 4.95465
#
# Compressibility (1/GPa) = 0.03894585
#
# Stress axis : x y z
#
# Youngs Moduli (GPa) = 41.23853 92.16431 27.31103
#
# Poissons Ratio (x) = 0.20208 0.18417
# Poissons Ratio (y) = 0.09042 0.20342
# Poissons Ratio (z) = 0.27809 0.68647
#
# Static dielectric constant tensor:
#      x y z
#    x 1.704620 0.000000 0.000000 
#    y 0.000000 1.701280 0.000000 
#    z 0.000000 0.000000 1.668350 
# 
# From -- ./inp_files/10044.got.cif
#   From: 2010.05.17/outbox.cif.g08.bks.cpg/sg51_6_cif.got.tgz:10044.got - 2010.06.03 11:52:47.
