data_PCOD9402110
_publ_section_title
;
Structure prediction by ZEFSAII (Michael W. Deem and Ramdas Pophale) SiO2 
 PCOD9402110
Probable space group: P M M A
;
_chemical_formula_sum "Si O2"
_cell_formula_units_Z 48
_cell_length_a 31.750447
_cell_length_b 7.779700
_cell_length_c 9.237669
_cell_angle_alpha 90.000000
_cell_angle_beta 90.000000
_cell_angle_gamma 90.000000
_cell_volume 2281.786943
_symmetry_space_group_name_H-M "P M M A"
_symmetry_group_IT_number 51
_symmetry_cell_setting 'orthorhombic'
loop_
_space_group_symop_operation_xyz
x,y,z
1/2-x,-y,z
1/2+x,-y,-z
-x,y,-z
-x,-y,-z
1/2+x,y,-z
1/2-x,y,z
x,-y,z
loop_
_atom_site_type_symbol
_atom_site_label
_atom_site_fract_x
_atom_site_fract_y
_atom_site_fract_z
Si Si1 0.498388 0.710560 0.166222
Si Si2 0.336027 0.199405 0.183693
Si Si3 0.750000 0.289364 0.321883
Si Si4 0.084143 0.289367 0.673484
Si Si5 0.750000 0.294060 0.654988
Si Si6 0.333498 0.707602 0.846854
Si Si7 0.081326 0.300014 0.346080
O O1 0.497419 0.500000 0.162917
O O2 0.540556 0.760722 0.250977
O O3 0.456737 0.772465 0.249872
O O4 0.500000 0.767887 0.000000
O O5 0.291931 0.238060 0.261607
O O6 0.374798 0.292874 0.261184
O O7 0.345441 0.000000 0.199057
O O8 0.333074 0.243318 0.014601
O O9 0.750000 0.500000 0.322614
O O10 0.750000 0.232668 0.488709
O O11 0.791771 0.232976 0.237183
O O12 0.085611 0.500000 0.673565
O O13 0.124481 0.231451 0.765444
O O14 0.085725 0.227682 0.507743
O O15 0.750000 0.500000 0.651856
O O16 0.333437 0.500000 0.841018
O O17 0.070222 0.500000 0.367822
#
# Coordination Sequence:
#
# PCOD9402110 Si02
#       7
#     8   8   4   8   4   8   8
#     4   9  16  27  49  83 116 143 180 234 287 330
#     4  12  25  39  55  82 117 149 184 225 272 327
#     4   9  19  35  60  90 112 135 176 227 272 326
#     4   9  17  30  53  85 113 141 187 242 285 326
#     4  11  22  41  66  88 110 141 182 225 274 328
#     4  10  19  35  58  82 110 146 187 229 276 327
#     4  10  19  34  57  82 110 147 188 231 281 333
#
# _framework density 21.036144
#
# number of rings (size 3 to 8) (size 9 to 14) (size 15 to 20)
#    0.000    2.000    0.000    4.750    0.000    8.000 
#    0.000    4.167    0.000    6.500    0.000    0.000 
#    0.000    0.000    0.000    0.000    0.000    0.000 
#
# Total GULP energy -268279.992328 kJ/mol
# GULP energy per Si atom -5589.166507 kJ/mol
# Density = 2.098827 g / cm^3
# Si number density = 21.036144 Si / 1000 Ang^3
#
#
#
# Elastic Constant Matrix: (Units=GPa)
#
#
# Indices 1 2 3 4 5 6 
#
# 1 175.4166 -17.5791 107.1578 0.0000 0.0000 0.0000
# 2 -17.5791 27.7391 -8.0052 0.0000 0.0000 0.0000
# 3 107.1578 -8.0052 226.4308 0.0000 0.0000 0.0000
# 4 0.0000 0.0000 0.0000 -26.3740 0.0000 0.0000
# 5 0.0000 0.0000 0.0000 0.0000 33.8728 0.0000
# 6 0.0000 0.0000 0.0000 0.0000 0.0000 -13.5988
#
#
#
# Elastic Compliance Matrix: (Units=1/GPa)
#
#
# Indices 1 2 3 4 5 6 
#
# 1 0.008491 0.004265 -0.003867 0.000000 0.000000 0.000000
# 2 0.004265 0.038564 -0.000655 0.000000 0.000000 0.000000
# 3 -0.003867 -0.000655 0.006223 0.000000 0.000000 0.000000
# 4 0.000000 0.000000 0.000000 -0.037916 0.000000 0.000000
# 5 0.000000 0.000000 0.000000 0.000000 0.029522 0.000000
# 6 0.000000 0.000000 0.000000 0.000000 0.000000 -0.073536
#
#
# Mechanical properties :
#
#
# Convention : Reuss Voigt Hill
#
# Bulk Modulus (GPa) = 18.95282 65.85929 42.40605
# Shear Modulus (GPa) = -473.96513 21.98087 -225.99213
#
# Velocity S-wave (km/s) = -15.02661 3.23601 -10.37611
# Velocity P-wave (km/s) = 17.08907 6.73335 11.10626
#
# Compressibility (1/GPa) = 0.05276260
#
# Stress axis : x y z
#
# Youngs Moduli (GPa) = 117.77769 25.93108 160.68305
#
# Poissons Ratio (x) = -0.11059 0.62142
# Poissons Ratio (y) = -0.50228 0.10522
# Poissons Ratio (z) = 0.45549 0.01698
#
# Static dielectric constant tensor:
#      x y z
#    x 1.695040 0.000000 0.000000 
#    y 0.000000 1.766580 0.000000 
#    z 0.000000 0.000000 1.723130 
# 
# From -- ./inp_files/12931.got.cif
#   From: 2010.05.17/outbox.cif.g08.bks.cpg/sg51_7_cif.got.tgz:12931.got - 2010.06.03 11:52:47.
