data_PCOD9402716
_publ_section_title
;
Structure prediction by ZEFSAII (Michael W. Deem and Ramdas Pophale) SiO2 
 PCOD9402716
Probable space group: P M M A
;
_chemical_formula_sum "Si O2"
_cell_formula_units_Z 48
_cell_length_a 14.145544
_cell_length_b 8.659126
_cell_length_c 24.359822
_cell_angle_alpha 90.000000
_cell_angle_beta 90.000000
_cell_angle_gamma 90.000000
_cell_volume 2983.787042
_symmetry_space_group_name_H-M "P M M A"
_symmetry_group_IT_number 51
_symmetry_cell_setting 'orthorhombic'
loop_
_space_group_symop_operation_xyz
x,y,z
1/2-x,-y,z
1/2+x,-y,-z
-x,y,-z
-x,-y,-z
1/2+x,y,-z
1/2-x,y,z
x,-y,z
loop_
_atom_site_type_symbol
_atom_site_label
_atom_site_fract_x
_atom_site_fract_y
_atom_site_fract_z
Si Si1 0.355872 0.812106 0.975096
Si Si2 0.139302 0.815389 0.312931
Si Si3 0.860044 0.315642 0.806225
Si Si4 0.541186 0.813276 0.912722
Si Si5 0.640853 0.814501 0.475662
Si Si6 0.537487 0.316036 0.582047
O O1 0.250000 0.756840 0.964268
O O2 0.436060 0.765138 0.931736
O O3 0.355090 0.000000 0.974343
O O4 0.391204 0.769109 0.036087
O O5 0.250000 0.772983 0.321702
O O6 0.113576 0.760485 0.251808
O O7 0.075849 0.738079 0.359425
O O8 0.131740 0.000000 0.316839
O O9 0.750000 0.273682 0.817272
O O10 0.865712 0.500000 0.801104
O O11 0.922909 0.258079 0.856512
O O12 0.543302 0.000000 0.908442
O O13 0.750000 0.771429 0.466517
O O14 0.567242 0.745478 0.431993
O O15 0.604985 0.754315 0.534714
O O16 0.633504 0.000000 0.475194
O O17 0.538786 0.500000 0.577636
#
# Coordination Sequence:
#
# PCOD9402716 Si02
#       6
#     8   8   8   8   8   8
#     4   8  14  25  43  68  95 121 152 190 229 271
#     4  10  20  34  52  72  95 125 160 196 234 282
#     4  10  20  32  46  67  95 123 151 189 238 285
#     4   9  16  27  46  69  91 120 156 191 228 273
#     4  10  20  34  52  73  99 132 168 202 234 276
#     4  11  21  32  50  75 103 131 158 196 244 289
#
# _framework density 16.086938
#
# number of rings (size 3 to 8) (size 9 to 14) (size 15 to 20)
#    0.000    2.333    0.000    6.000    0.000    6.000 
#    0.000    1.667    0.000    2.500    0.000    2.333 
#    0.000    0.000    0.000    0.000    0.000    0.000 
#
# Total GULP energy -267794.217335 kJ/mol
# GULP energy per Si atom -5579.046194 kJ/mol
# Density = 1.605032 g / cm^3
# Si number density = 16.086938 Si / 1000 Ang^3
#
#
#
# Elastic Constant Matrix: (Units=GPa)
#
#
# Indices 1 2 3 4 5 6 
#
# 1 128.5412 36.1195 79.4255 0.0000 0.0000 0.0000
# 2 36.1195 49.0317 35.8066 0.0000 0.0000 0.0000
# 3 79.4255 35.8066 124.4696 0.0000 0.0000 0.0000
# 4 0.0000 0.0000 0.0000 99.3953 0.0000 0.0000
# 5 0.0000 0.0000 0.0000 0.0000 22.0466 0.0000
# 6 0.0000 0.0000 0.0000 0.0000 0.0000 8.7691
#
#
#
# Elastic Compliance Matrix: (Units=1/GPa)
#
#
# Indices 1 2 3 4 5 6 
#
# 1 0.013640 -0.004674 -0.007360 0.000000 0.000000 0.000000
# 2 -0.004674 0.027420 -0.004906 0.000000 0.000000 0.000000
# 3 -0.007360 -0.004906 0.014142 0.000000 0.000000 0.000000
# 4 0.000000 0.000000 0.000000 0.010061 0.000000 0.000000
# 5 0.000000 0.000000 0.000000 0.000000 0.045358 0.000000
# 6 0.000000 0.000000 0.000000 0.000000 0.000000 0.114037
#
#
# Mechanical properties :
#
#
# Convention : Reuss Voigt Hill
#
# Bulk Modulus (GPa) = 46.89500 67.19397 57.04449
# Shear Modulus (GPa) = 18.82212 36.08828 27.45520
#
# Velocity S-wave (km/s) = 3.42427 4.74152 4.13568
# Velocity P-wave (km/s) = 6.69690 8.47561 7.63821
#
# Compressibility (1/GPa) = 0.02132423
#
# Stress axis : x y z
#
# Youngs Moduli (GPa) = 73.31178 36.46915 70.71354
#
# Poissons Ratio (x) = 0.17045 0.52042
# Poissons Ratio (y) = 0.34264 0.34690
# Poissons Ratio (z) = 0.53954 0.17891
#
# Static dielectric constant tensor:
#      x y z
#    x 1.541940 0.000000 0.000000 
#    y 0.000000 1.537660 0.000000 
#    z 0.000000 0.000000 1.507600 
# 
# From -- ./inp_files/35490.got.cif
#   From: 2010.05.17/outbox.cif.g08.bks.cpg/sg51_18_cif.got.tgz:35490.got - 2010.06.03 11:52:47.
