data_PCOD9402360
_publ_section_title
;
Structure prediction by ZEFSAII (Michael W. Deem and Ramdas Pophale) SiO2 
 PCOD9402360
Probable space group: P M M A
;
_chemical_formula_sum "Si O2"
_cell_formula_units_Z 48
_cell_length_a 17.988565
_cell_length_b 15.958801
_cell_length_c 9.626800
_cell_angle_alpha 90.000000
_cell_angle_beta 90.000000
_cell_angle_gamma 90.000000
_cell_volume 2763.622554
_symmetry_space_group_name_H-M "P M M A"
_symmetry_group_IT_number 51
_symmetry_cell_setting 'orthorhombic'
loop_
_space_group_symop_operation_xyz
x,y,z
1/2-x,-y,z
1/2+x,-y,-z
-x,y,-z
-x,-y,-z
1/2+x,y,-z
1/2-x,y,z
x,-y,z
loop_
_atom_site_type_symbol
_atom_site_label
_atom_site_fract_x
_atom_site_fract_y
_atom_site_fract_z
Si Si1 0.339140 0.000000 0.567751
Si Si2 0.835050 0.827528 0.304187
Si Si3 0.054590 0.845446 0.133782
Si Si4 0.030158 0.730545 0.651975
Si Si5 0.334686 0.735425 0.979998
Si Si6 0.559007 0.596724 0.125730
Si Si7 0.657695 0.000000 0.765244
O O1 0.365954 0.916731 0.645816
O O2 0.250000 0.000000 0.585702
O O3 0.352438 0.000000 0.402637
O O4 0.750000 0.822357 0.349673
O O5 0.884029 0.754876 0.367635
O O6 0.836668 0.807343 0.140203
O O7 0.108282 0.768853 0.092607
O O8 0.111047 0.920633 0.174232
O O9 0.005702 0.808241 0.260671
O O10 0.000000 0.863096 0.000000
O O11 0.025036 0.648301 0.746056
O O12 0.000000 0.720358 0.500000
O O13 0.250000 0.726090 0.025821
O O14 0.368518 0.650152 0.918371
O O15 0.574855 0.500000 0.156533
O O16 0.500000 0.600277 0.000000
O O17 0.750000 0.000000 0.791586
#
# Coordination Sequence:
#
# PCOD9402360 Si02
#       7
#     4   8   8   8   8   8   4
#     4   9  18  35  51  74 112 147 183 226 275 334
#     4   9  18  33  54  78 109 148 192 234 275 332
#     4  12  21  40  56  81 114 149 191 243 282 330
#     4  11  21  36  59  85 114 151 191 228 284 343
#     4  10  19  35  59  85 110 144 191 235 283 335
#     4  10  19  37  61  85 116 146 181 230 282 339
#     4  11  25  37  53  81 113 153 192 235 292 332
#
# _framework density 17.368507000000001
#
# number of rings (size 3 to 8) (size 9 to 14) (size 15 to 20)
#    0.000    1.667    5.000    1.750    0.000    2.000 
#    0.000    4.167    0.000    0.000    0.000    0.000 
#    0.000    0.000    0.000    0.000    0.000    0.000 
#
# Total GULP energy -267279.094975 kJ/mol
# GULP energy per Si atom -5568.314479 kJ/mol
# Density = 1.732898 g / cm^3
# Si number density = 17.368507 Si / 1000 Ang^3
#
#
#
# Elastic Constant Matrix: (Units=GPa)
#
#
# Indices 1 2 3 4 5 6 
#
# 1 96.1914 42.0270 37.0939 0.0000 0.0000 0.0000
# 2 42.0270 127.3563 53.3806 0.0000 0.0000 0.0000
# 3 37.0939 53.3806 74.8235 0.0000 0.0000 0.0000
# 4 0.0000 0.0000 0.0000 5.5765 0.0000 0.0000
# 5 0.0000 0.0000 0.0000 0.0000 21.9486 0.0000
# 6 0.0000 0.0000 0.0000 0.0000 0.0000 16.9354
#
#
#
# Elastic Compliance Matrix: (Units=1/GPa)
#
#
# Indices 1 2 3 4 5 6 
#
# 1 0.013318 -0.002322 -0.004946 0.000000 0.000000 0.000000
# 2 -0.002322 0.011606 -0.007129 0.000000 0.000000 0.000000
# 3 -0.004946 -0.007129 0.020903 0.000000 0.000000 0.000000
# 4 0.000000 0.000000 0.000000 0.179323 0.000000 0.000000
# 5 0.000000 0.000000 0.000000 0.000000 0.045561 0.000000
# 6 0.000000 0.000000 0.000000 0.000000 0.000000 0.059048
#
#
# Mechanical properties :
#
#
# Convention : Reuss Voigt Hill
#
# Bulk Modulus (GPa) = 58.70894 62.59715 60.65305
# Shear Modulus (GPa) = 13.72760 19.95008 16.83884
#
# Velocity S-wave (km/s) = 2.81441 3.39283 3.11706
# Velocity P-wave (km/s) = 6.66607 7.17407 6.92473
#
# Compressibility (1/GPa) = 0.01703318
#
# Stress axis : x y z
#
# Youngs Moduli (GPa) = 75.08884 86.16018 47.84054
#
# Poissons Ratio (x) = 0.20004 0.23661
# Poissons Ratio (y) = 0.17434 0.34106
# Poissons Ratio (z) = 0.37138 0.61425
#
# Static dielectric constant tensor:
#      x y z
#    x 1.618260 0.000000 0.000000 
#    y 0.000000 1.602750 0.000000 
#    z 0.000000 0.000000 1.630300 
# 
# From -- ./inp_files/9696.got.cif
#   From: 2010.05.17/outbox.cif.g08.bks.cpg/sg51_5_cif.got.tgz:9696.got - 2010.06.03 11:52:47.
