data_PCOD9402141
_publ_section_title
;
Structure prediction by ZEFSAII (Michael W. Deem and Ramdas Pophale) SiO2 
 PCOD9402141
Probable space group: P M M A
;
_chemical_formula_sum "Si O2"
_cell_formula_units_Z 48
_cell_length_a 8.538988
_cell_length_b 32.288968
_cell_length_c 9.224209
_cell_angle_alpha 90.000000
_cell_angle_beta 90.000000
_cell_angle_gamma 90.000000
_cell_volume 2543.253802
_symmetry_space_group_name_H-M "P M M A"
_symmetry_group_IT_number 51
_symmetry_cell_setting 'orthorhombic'
loop_
_space_group_symop_operation_xyz
x,y,z
1/2-x,-y,z
1/2+x,-y,-z
-x,y,-z
-x,-y,-z
1/2+x,y,-z
1/2-x,y,z
x,-y,z
loop_
_atom_site_type_symbol
_atom_site_label
_atom_site_fract_x
_atom_site_fract_y
_atom_site_fract_z
Si Si1 0.938503 0.420758 0.836894
Si Si2 0.062959 0.500000 0.663305
Si Si3 0.938915 0.158201 0.665552
Si Si4 0.560658 0.339229 0.664709
Si Si5 0.936850 0.079217 0.163184
Si Si6 0.061383 0.750995 0.335331
Si Si7 0.436959 0.000000 0.336621
O O1 0.750000 0.422070 0.837062
O O2 0.990650 0.377866 0.761296
O O3 0.001750 0.459422 0.745887
O O4 0.000000 0.423044 0.000000
O O5 0.250000 0.500000 0.662375
O O6 0.000000 0.500000 0.500000
O O7 0.750000 0.155502 0.664026
O O8 0.986525 0.204029 0.724202
O O9 0.000000 0.154630 0.500000
O O10 0.007683 0.121446 0.760635
O O11 0.500000 0.343507 0.500000
O O12 0.750000 0.339801 0.659488
O O13 0.510871 0.293831 0.724754
O O14 0.750000 0.077266 0.162292
O O15 0.002817 0.040581 0.253631
O O16 0.000000 0.077304 0.000000
O O17 0.250000 0.751073 0.336662
O O18 0.000000 0.750838 0.500000
O O19 0.500000 0.000000 0.500000
O O20 0.250000 0.000000 0.338478
#
# Coordination Sequence:
#
# PCOD9402141 Si02
#       7
#     8   4   8   8   8   8   4
#     4  11  23  39  58  82 114 150 188 229 280 335
#     4  12  25  42  63  86 112 142 182 228 277 332
#     4  10  19  34  57  85 116 152 193 237 282 332
#     4   9  18  33  55  82 111 145 186 233 280 331
#     4  12  25  42  61  85 117 153 191 233 284 339
#     4   8  15  29  51  79 111 145 185 232 280 327
#     4  12  25  44  67  92 118 148 188 232 279 332
#
# _framework density 18.873462
#
# number of rings (size 3 to 8) (size 9 to 14) (size 15 to 20)
#    0.000    1.667    0.000    5.500    0.000    3.333 
#    0.000    0.833    0.000    2.000    0.000    0.000 
#    0.000    0.000    0.000    0.000    0.000    0.000 
#
# Total GULP energy -268034.005344 kJ/mol
# GULP energy per Si atom -5584.041778 kJ/mol
# Density = 1.883051 g / cm^3
# Si number density = 18.873462 Si / 1000 Ang^3
#
#
#
# Elastic Constant Matrix: (Units=GPa)
#
#
# Indices 1 2 3 4 5 6 
#
# 1 103.7689 66.3716 46.9720 0.0000 0.0000 0.0000
# 2 66.3716 240.3056 110.0529 0.0000 0.0000 0.0000
# 3 46.9720 110.0529 136.2668 0.0000 0.0000 0.0000
# 4 0.0000 0.0000 0.0000 -8.9908 0.0000 0.0000
# 5 0.0000 0.0000 0.0000 0.0000 32.1279 0.0000
# 6 0.0000 0.0000 0.0000 0.0000 0.0000 4.8868
#
#
#
# Elastic Compliance Matrix: (Units=1/GPa)
#
#
# Indices 1 2 3 4 5 6 
#
# 1 0.012160 -0.002283 -0.002347 0.000000 0.000000 0.000000
# 2 -0.002283 0.007033 -0.004893 0.000000 0.000000 0.000000
# 3 -0.002347 -0.004893 0.012099 0.000000 0.000000 0.000000
# 4 0.000000 0.000000 0.000000 -0.111225 0.000000 0.000000
# 5 0.000000 0.000000 0.000000 0.000000 0.031126 0.000000
# 6 0.000000 0.000000 0.000000 0.000000 0.000000 0.204632
#
#
# Mechanical properties :
#
#
# Convention : Reuss Voigt Hill
#
# Bulk Modulus (GPa) = 81.66815 103.01493 92.34154
# Shear Modulus (GPa) = 27.94011 22.73444 25.33727
#
# Velocity S-wave (km/s) = 3.85176 3.47446 3.66796
# Velocity P-wave (km/s) = 7.94649 8.41405 8.18361
#
# Compressibility (1/GPa) = 0.01224468
#
# Stress axis : x y z
#
# Youngs Moduli (GPa) = 82.23752 142.19101 82.64993
#
# Poissons Ratio (x) = 0.32469 0.19401
# Poissons Ratio (y) = 0.18779 0.40439
# Poissons Ratio (z) = 0.19304 0.69570
#
# Static dielectric constant tensor:
#      x y z
#    x 1.635670 0.000000 0.000000 
#    y 0.000000 1.687780 0.000000 
#    z 0.000000 0.000000 1.596030 
# 
# From -- ./inp_files/6152.got.cif
#   From: 2010.05.17/outbox.cif.g08.bks.cpg/sg51_4_cif.got.tgz:6152.got - 2010.06.03 11:52:47.
