data_PCOD9402618
_publ_section_title
;
Structure prediction by ZEFSAII (Michael W. Deem and Ramdas Pophale) SiO2 
 PCOD9402618
Probable space group: P M M A
;
_chemical_formula_sum "Si O2"
_cell_formula_units_Z 48
_cell_length_a 32.816401
_cell_length_b 8.573773
_cell_length_c 9.674115
_cell_angle_alpha 90.000000
_cell_angle_beta 90.000000
_cell_angle_gamma 90.000000
_cell_volume 2721.912603
_symmetry_space_group_name_H-M "P M M A"
_symmetry_group_IT_number 51
_symmetry_cell_setting 'orthorhombic'
loop_
_space_group_symop_operation_xyz
x,y,z
1/2-x,-y,z
1/2+x,-y,-z
-x,y,-z
-x,-y,-z
1/2+x,y,-z
1/2-x,y,z
x,-y,z
loop_
_atom_site_type_symbol
_atom_site_label
_atom_site_fract_x
_atom_site_fract_y
_atom_site_fract_z
Si Si1 0.705526 0.315667 0.834196
Si Si2 0.041585 0.312755 0.662561
Si Si3 0.793767 0.685343 0.168945
Si Si4 0.119714 0.814117 0.157199
Si Si5 0.045505 0.187212 0.352695
Si Si6 0.617876 0.311075 0.153393
O O1 0.750000 0.258433 0.784754
O O2 0.702872 0.500000 0.804290
O O3 0.664278 0.234077 0.786684
O O4 0.705936 0.300607 0.001662
O O5 0.038868 0.500000 0.666849
O O6 0.049002 0.259374 0.505277
O O7 0.079124 0.260653 0.757804
O O8 0.998080 0.242271 0.705799
O O9 0.750000 0.751276 0.217636
O O10 0.793116 0.500000 0.199999
O O11 0.838202 0.746437 0.211916
O O12 0.083168 0.763772 0.257171
O O13 0.118359 0.000000 0.143855
O O14 0.114371 0.741440 0.005185
O O15 0.045323 0.000000 0.364362
O O16 0.619166 0.500000 0.154934
#
# Coordination Sequence:
#
# PCOD9402618 Si02
#       6
#     8   8   8   8   8   8
#     4   8  14  26  45  68  95 127 159 193 235 278
#     4  10  20  34  53  73  91 120 163 204 243 288
#     4   7  10  20  40  64  90 119 147 177 220 273
#     4  10  20  31  47  73 100 128 161 195 235 283
#     4  10  21  36  51  68  94 128 162 196 240 292
#     4   9  18  31  48  73 100 123 154 199 245 283
#
# _framework density 17.634658000000002
#
# number of rings (size 3 to 8) (size 9 to 14) (size 15 to 20)
#    0.000    3.000    0.000    4.500    0.000    5.000 
#    0.000    3.333    0.000    1.000    0.000    2.333 
#    0.000    0.000    0.000    0.000    0.000    0.000 
#
# Total GULP energy -267216.464022 kJ/mol
# GULP energy per Si atom -5567.009667 kJ/mol
# Density = 1.759452 g / cm^3
# Si number density = 17.634658 Si / 1000 Ang^3
#
#
#
# Elastic Constant Matrix: (Units=GPa)
#
#
# Indices 1 2 3 4 5 6 
#
# 1 205.8753 19.5211 59.2842 0.0000 0.0000 0.0000
# 2 19.5211 10.1424 4.8276 0.0000 0.0000 0.0000
# 3 59.2842 4.8276 29.2493 0.0000 0.0000 0.0000
# 4 0.0000 0.0000 0.0000 16.0665 0.0000 0.0000
# 5 0.0000 0.0000 0.0000 0.0000 -13.4772 0.0000
# 6 0.0000 0.0000 0.0000 0.0000 0.0000 19.4526
#
#
#
# Elastic Compliance Matrix: (Units=1/GPa)
#
#
# Indices 1 2 3 4 5 6 
#
# 1 0.013232 -0.013786 -0.024545 0.000000 0.000000 0.000000
# 2 -0.013786 0.121365 0.007910 0.000000 0.000000 0.000000
# 3 -0.024545 0.007910 0.082632 0.000000 0.000000 0.000000
# 4 0.000000 0.000000 0.000000 0.062241 0.000000 0.000000
# 5 0.000000 0.000000 0.000000 0.000000 -0.074199 0.000000
# 6 0.000000 0.000000 0.000000 0.000000 0.000000 0.051407
#
#
# Mechanical properties :
#
#
# Convention : Reuss Voigt Hill
#
# Bulk Modulus (GPa) = 6.39435 45.83699 26.11567
# Shear Modulus (GPa) = 13.52634 15.18397 14.35516
#
# Velocity S-wave (km/s) = 2.77254 2.93752 2.85622
# Velocity P-wave (km/s) = 3.72601 6.12816 5.07137
#
# Compressibility (1/GPa) = 0.15638815
#
# Stress axis : x y z
#
# Youngs Moduli (GPa) = 75.57166 8.23964 12.10179
#
# Poissons Ratio (x) = 0.11359 0.29704
# Poissons Ratio (y) = 1.04180 -0.09572
# Poissons Ratio (z) = 1.85491 -0.06517
#
# Static dielectric constant tensor:
#      x y z
#    x 1.665920 0.000000 0.000000 
#    y 0.000000 1.598060 0.000000 
#    z 0.000000 0.000000 1.566460 
# 
# From -- ./inp_files/19286.got.cif
#   From: 2010.05.17/outbox.cif.g08.bks.cpg/sg51_10_cif.got.tgz:19286.got - 2010.06.03 11:52:47.
