data_PCOD9402522
_publ_section_title
;
Structure prediction by ZEFSAII (Michael W. Deem and Ramdas Pophale) SiO2 
 PCOD9402522
Probable space group: P M M A
;
_chemical_formula_sum "Si O2"
_cell_formula_units_Z 48
_cell_length_a 8.714369
_cell_length_b 15.499214
_cell_length_c 19.427781
_cell_angle_alpha 90.000000
_cell_angle_beta 90.000000
_cell_angle_gamma 90.000000
_cell_volume 2624.030143
_symmetry_space_group_name_H-M "P M M A"
_symmetry_group_IT_number 51
_symmetry_cell_setting 'orthorhombic'
loop_
_space_group_symop_operation_xyz
x,y,z
1/2-x,-y,z
1/2+x,-y,-z
-x,y,-z
-x,-y,-z
1/2+x,y,-z
1/2-x,y,z
x,-y,z
loop_
_atom_site_type_symbol
_atom_site_label
_atom_site_fract_x
_atom_site_fract_y
_atom_site_fract_z
Si Si1 0.432453 0.249442 0.423604
Si Si2 0.064715 0.851159 0.828330
Si Si3 0.935521 0.599682 0.330492
Si Si4 0.563421 0.345883 0.176069
Si Si5 0.065314 0.900681 0.670836
Si Si6 0.432452 0.000000 0.076430
Si Si7 0.935999 0.500000 0.076594
O O1 0.500000 0.245757 0.500000
O O2 0.250000 0.251150 0.426803
O O3 0.493026 0.334111 0.384108
O O4 0.487676 0.166957 0.379801
O O5 0.250000 0.856521 0.834850
O O6 0.016015 0.752044 0.838723
O O7 0.026712 0.878421 0.750053
O O8 0.990530 0.916706 0.881604
O O9 0.750000 0.607036 0.333585
O O10 0.976018 0.500000 0.343292
O O11 0.983236 0.625813 0.252895
O O12 0.750000 0.346608 0.176472
O O13 0.514173 0.415760 0.119832
O O14 0.250000 0.892054 0.664502
O O15 0.024074 0.000000 0.656570
O O16 0.250000 0.000000 0.073253
O O17 0.500000 0.000000 0.000000
O O18 0.750000 0.500000 0.074300
O O19 0.000000 0.500000 0.000000
#
# Coordination Sequence:
#
# PCOD9402522 Si02
#       7
#     8   8   8   8   8   4   4
#     4  12  26  42  61  88 126 163 200 250 304 359
#     4  10  19  37  64  91 119 156 199 245 298 361
#     4  10  19  37  66  93 117 155 205 252 301 362
#     4   9  17  33  62  90 116 153 199 240 288 355
#     4  10  20  38  66  94 121 156 199 245 300 365
#     4  12  26  42  60  86 123 160 203 254 306 360
#     4  10  20  36  56  86 121 158 195 238 291 344
#
# _framework density 18.292473000000001
#
# number of rings (size 3 to 8) (size 9 to 14) (size 15 to 20)
#    0.000    1.667    3.333    2.250    0.000    2.667 
#    0.000    3.333    0.000    0.000    0.000    0.000 
#    0.000    0.000    0.000    0.000    0.000    0.000 
#
# Total GULP energy -268186.869819 kJ/mol
# GULP energy per Si atom -5587.226455 kJ/mol
# Density = 1.825084 g / cm^3
# Si number density = 18.292473 Si / 1000 Ang^3
#
#
#
# Elastic Constant Matrix: (Units=GPa)
#
#
# Indices 1 2 3 4 5 6 
#
# 1 51.1794 69.4270 65.0835 0.0000 0.0000 0.0000
# 2 69.4270 217.7223 122.7334 0.0000 0.0000 0.0000
# 3 65.0835 122.7334 190.4776 0.0000 0.0000 0.0000
# 4 0.0000 0.0000 0.0000 31.3649 0.0000 0.0000
# 5 0.0000 0.0000 0.0000 0.0000 32.8505 0.0000
# 6 0.0000 0.0000 0.0000 0.0000 0.0000 20.7705
#
#
#
# Elastic Compliance Matrix: (Units=1/GPa)
#
#
# Indices 1 2 3 4 5 6 
#
# 1 0.042571 -0.008441 -0.009107 0.000000 0.000000 0.000000
# 2 -0.008441 0.008887 -0.002842 0.000000 0.000000 0.000000
# 3 -0.009107 -0.002842 0.010193 0.000000 0.000000 0.000000
# 4 0.000000 0.000000 0.000000 0.031883 0.000000 0.000000
# 5 0.000000 0.000000 0.000000 0.000000 0.030441 0.000000
# 6 0.000000 0.000000 0.000000 0.000000 0.000000 0.048145
#
#
# Mechanical properties :
#
#
# Convention : Reuss Voigt Hill
#
# Bulk Modulus (GPa) = 47.91440 108.20744 78.06092
# Shear Modulus (GPa) = 22.74214 30.47287 26.60750
#
# Velocity S-wave (km/s) = 3.52980 4.08593 3.81801
# Velocity P-wave (km/s) = 6.54699 9.03008 7.88687
#
# Compressibility (1/GPa) = 0.02087055
#
# Stress axis : x y z
#
# Youngs Moduli (GPa) = 23.49021 112.52665 98.10903
#
# Poissons Ratio (x) = 0.94988 0.89345
# Poissons Ratio (y) = 0.19829 0.27881
# Poissons Ratio (z) = 0.21392 0.31979
#
# Static dielectric constant tensor:
#      x y z
#    x 1.617230 0.000000 0.000000 
#    y 0.000000 1.619660 0.000000 
#    z 0.000000 0.000000 1.589350 
# 
# From -- ./inp_files/27694.got.cif
#   From: 2010.05.17/outbox.cif.g08.bks.cpg/sg51_14_cif.got.tgz:27694.got - 2010.06.03 11:52:47.
