data_PCOD9402119
_publ_section_title
;
Structure prediction by ZEFSAII (Michael W. Deem and Ramdas Pophale) SiO2 
 PCOD9402119
Probable space group: P M M A
;
_chemical_formula_sum "Si O2"
_cell_formula_units_Z 48
_cell_length_a 31.427361
_cell_length_b 8.604796
_cell_length_c 9.873852
_cell_angle_alpha 90.000000
_cell_angle_beta 90.000000
_cell_angle_gamma 90.000000
_cell_volume 2670.146599
_symmetry_space_group_name_H-M "P M M A"
_symmetry_group_IT_number 51
_symmetry_cell_setting 'orthorhombic'
loop_
_space_group_symop_operation_xyz
x,y,z
1/2-x,-y,z
1/2+x,-y,-z
-x,y,-z
-x,-y,-z
1/2+x,y,-z
1/2-x,y,z
x,-y,z
loop_
_atom_site_type_symbol
_atom_site_label
_atom_site_fract_x
_atom_site_fract_y
_atom_site_fract_z
Si Si1 0.389483 0.815413 0.198453
Si Si2 0.483429 0.685590 0.151688
Si Si3 0.701911 0.688652 0.308606
Si Si4 0.873171 0.686737 0.507849
Si Si5 0.434690 0.814566 0.714483
Si Si6 0.363536 0.686715 0.917516
O O1 0.438642 0.766678 0.178245
O O2 0.373815 0.743998 0.339263
O O3 0.385905 0.000000 0.201583
O O4 0.364597 0.748048 0.069259
O O5 0.477832 0.500000 0.160375
O O6 0.519463 0.741640 0.255555
O O7 0.500000 0.722468 0.000000
O O8 0.750000 0.747225 0.319881
O O9 0.703502 0.500000 0.312584
O O10 0.669657 0.736176 0.427945
O O11 0.678395 0.729583 0.168235
O O12 0.875916 0.500000 0.502237
O O13 0.912678 0.755991 0.423232
O O14 0.403256 0.756955 0.834352
O O15 0.437311 0.000000 0.715524
O O16 0.368057 0.500000 0.916434
#
# Coordination Sequence:
#
# PCOD9402119 Si02
#       6
#     8   8   8   8   8   8
#     4  12  24  37  55  81 115 150 189 234 283 331
#     4  11  22  36  57  81 110 148 195 239 278 325
#     4   8  16  34  62  90 110 136 182 233 275 328
#     4  10  21  38  59  82 114 151 188 230 283 338
#     4  11  21  35  56  82 113 148 190 232 276 327
#     4  10  19  34  57  83 112 146 185 227 276 329
#
# _framework density 17.976541000000001
#
# number of rings (size 3 to 8) (size 9 to 14) (size 15 to 20)
#    0.000    1.667    1.667    5.500    0.000    1.333 
#    0.000    4.167    0.000   23.000    0.000    0.000 
#    0.000    0.000    0.000    0.000    0.000    0.000 
#
# Total GULP energy -268158.128094 kJ/mol
# GULP energy per Si atom -5586.627669 kJ/mol
# Density = 1.793563 g / cm^3
# Si number density = 17.976541 Si / 1000 Ang^3
#
#
#
# Elastic Constant Matrix: (Units=GPa)
#
#
# Indices 1 2 3 4 5 6 
#
# 1 83.9272 5.5721 32.0659 0.0000 0.0000 0.0000
# 2 5.5721 57.2627 18.0080 0.0000 0.0000 0.0000
# 3 32.0659 18.0080 131.5794 0.0000 0.0000 0.0000
# 4 0.0000 0.0000 0.0000 23.3647 0.0000 0.0000
# 5 0.0000 0.0000 0.0000 0.0000 13.5028 0.0000
# 6 0.0000 0.0000 0.0000 0.0000 0.0000 -101.7466
#
#
#
# Elastic Compliance Matrix: (Units=1/GPa)
#
#
# Indices 1 2 3 4 5 6 
#
# 1 0.013143 -0.000284 -0.003164 0.000000 0.000000 0.000000
# 2 -0.000284 0.018255 -0.002429 0.000000 0.000000 0.000000
# 3 -0.003164 -0.002429 0.008704 0.000000 0.000000 0.000000
# 4 0.000000 0.000000 0.000000 0.042800 0.000000 0.000000
# 5 0.000000 0.000000 0.000000 0.000000 0.074058 0.000000
# 6 0.000000 0.000000 0.000000 0.000000 0.000000 -0.009828
#
#
# Mechanical properties :
#
#
# Convention : Reuss Voigt Hill
#
# Bulk Modulus (GPa) = 35.27707 42.67349 38.97528
# Shear Modulus (GPa) = 29.70280 1.49908 15.60094
#
# Velocity S-wave (km/s) = 4.06927 0.91418 2.94913
# Velocity P-wave (km/s) = 6.46105 4.99042 5.77276
#
# Compressibility (1/GPa) = 0.02834703
#
# Stress axis : x y z
#
# Youngs Moduli (GPa) = 76.08717 54.77968 114.89613
#
# Poissons Ratio (x) = 0.01555 0.36354
# Poissons Ratio (y) = 0.02160 0.27911
# Poissons Ratio (z) = 0.24074 0.13307
#
# Static dielectric constant tensor:
#      x y z
#    x 1.601700 0.000000 0.000000 
#    y 0.000000 1.597320 0.000000 
#    z 0.000000 0.000000 1.609210 
# 
# From -- ./inp_files/12772.got.cif
#   From: 2010.05.17/outbox.cif.g08.bks.cpg/sg51_7_cif.got.tgz:12772.got - 2010.06.03 11:52:47.
