data_PCOD9402370
_publ_section_title
;
Structure prediction by ZEFSAII (Michael W. Deem and Ramdas Pophale) SiO2 
 PCOD9402370
Probable space group: P M M A
;
_chemical_formula_sum "Si O2"
_cell_formula_units_Z 64
_cell_length_a 32.061196
_cell_length_b 7.571078
_cell_length_c 12.185426
_cell_angle_alpha 90.000000
_cell_angle_beta 90.000000
_cell_angle_gamma 90.000000
_cell_volume 2957.863690
_symmetry_space_group_name_H-M "P M M A"
_symmetry_group_IT_number 51
_symmetry_cell_setting 'orthorhombic'
loop_
_space_group_symop_operation_xyz
x,y,z
1/2-x,-y,z
1/2+x,-y,-z
-x,y,-z
-x,-y,-z
1/2+x,y,-z
1/2-x,y,z
x,-y,z
loop_
_atom_site_type_symbol
_atom_site_label
_atom_site_fract_x
_atom_site_fract_y
_atom_site_fract_z
Si Si1 0.623081 0.212770 0.633265
Si Si2 0.295231 0.794287 0.490764
Si Si3 0.295675 0.716021 0.978849
Si Si4 0.877463 0.290496 0.890305
Si Si5 0.588378 0.214872 0.255120
Si Si6 0.547162 0.215533 0.484883
Si Si7 0.044526 0.793398 0.964140
Si Si8 0.815002 0.703268 0.264181
O O1 0.663957 0.281538 0.568855
O O2 0.624889 0.254493 0.761327
O O3 0.580537 0.276033 0.575603
O O4 0.622813 0.000000 0.621260
O O5 0.250000 0.715120 0.463008
O O6 0.301097 0.788418 0.622068
O O7 0.293839 0.000000 0.458784
O O8 0.250000 0.767090 0.022818
O O9 0.297117 0.500000 0.977900
O O10 0.335900 0.776836 0.047335
O O11 0.299167 0.775240 0.852158
O O12 0.878873 0.500000 0.907722
O O13 0.919870 0.218035 0.943503
O O14 0.564657 0.264005 0.365841
O O15 0.635100 0.285509 0.257816
O O16 0.591560 0.000000 0.251947
O O17 0.564260 0.279835 0.147570
O O18 0.500000 0.277635 0.500000
O O19 0.546197 0.000000 0.489201
O O20 0.036845 0.000000 0.940169
O O21 0.000000 0.716582 0.000000
O O22 0.801615 0.500000 0.270921
#
# Coordination Sequence:
#
# PCOD9402370 Si02
#       8
#     8   8   8   8   8   8   8   8
#     4  10  21  38  58  80 111 148 188 233 282 334
#     4  10  21  38  59  84 115 150 189 236 287 335
#     4   9  19  36  56  79 110 149 188 227 277 335
#     4  11  23  39  58  82 115 152 191 237 289 340
#     4  10  19  35  59  86 115 145 186 233 281 334
#     4   9  18  33  58  85 108 141 184 230 277 328
#     4  10  22  38  61  89 116 149 192 238 283 340
#     4  11  20  34  58  86 118 149 184 228 283 341
#
# _framework density 21.637236999999999
#
# number of rings (size 3 to 8) (size 9 to 14) (size 15 to 20)
#    0.000    2.000    2.500    1.125    1.750    2.000 
#    0.000    0.000    0.000    4.125    0.000    0.000 
#    0.000    0.000    0.000    0.000    0.000    0.000 
#
# Total GULP energy -357563.444962 kJ/mol
# GULP energy per Si atom -5586.928828 kJ/mol
# Density = 2.158799 g / cm^3
# Si number density = 21.637237 Si / 1000 Ang^3
#
#
#
# Elastic Constant Matrix: (Units=GPa)
#
#
# Indices 1 2 3 4 5 6 
#
# 1 196.6980 -6.0806 65.8105 0.0000 0.0000 0.0000
# 2 -6.0806 48.2772 -14.5267 0.0000 0.0000 0.0000
# 3 65.8105 -14.5267 123.0355 0.0000 0.0000 0.0000
# 4 0.0000 0.0000 0.0000 95.7080 0.0000 0.0000
# 5 0.0000 0.0000 0.0000 0.0000 35.6553 0.0000
# 6 0.0000 0.0000 0.0000 0.0000 0.0000 -89.9343
#
#
#
# Elastic Compliance Matrix: (Units=1/GPa)
#
#
# Indices 1 2 3 4 5 6 
#
# 1 0.006194 -0.000225 -0.003340 0.000000 0.000000 0.000000
# 2 -0.000225 0.021485 0.002657 0.000000 0.000000 0.000000
# 3 -0.003340 0.002657 0.010228 0.000000 0.000000 0.000000
# 4 0.000000 0.000000 0.000000 0.010448 0.000000 0.000000
# 5 0.000000 0.000000 0.000000 0.000000 0.028046 0.000000
# 6 0.000000 0.000000 0.000000 0.000000 0.000000 -0.011119
#
#
# Mechanical properties :
#
#
# Convention : Reuss Voigt Hill
#
# Bulk Modulus (GPa) = 27.70714 50.93522 39.32118
# Shear Modulus (GPa) = 63.18810 29.80630 46.49720
#
# Velocity S-wave (km/s) = 5.40988 3.71556 4.64070
# Velocity P-wave (km/s) = 7.20108 6.48065 6.85034
#
# Compressibility (1/GPa) = 0.03609178
#
# Stress axis : x y z
#
# Youngs Moduli (GPa) = 161.43537 46.54435 97.77172
#
# Poissons Ratio (x) = 0.01046 0.32655
# Poissons Ratio (y) = 0.03629 -0.25977
# Poissons Ratio (z) = 0.53917 -0.12367
#
# Static dielectric constant tensor:
#      x y z
#    x 1.786020 0.000000 0.000000 
#    y 0.000000 1.853360 0.000000 
#    z 0.000000 0.000000 1.739100 
# 
# From -- ./inp_files/19545.got.cif
#   From: 2010.05.17/outbox.cif.g08.bks.cpg/sg51_10_cif.got.tgz:19545.got - 2010.06.03 11:52:47.
