data_PCOD9402793
_publ_section_title
;
Structure prediction by ZEFSAII (Michael W. Deem and Ramdas Pophale) SiO2 
 PCOD9402793
Probable space group: P M M A
;
_chemical_formula_sum "Si O2"
_cell_formula_units_Z 48
_cell_length_a 9.491427
_cell_length_b 7.525357
_cell_length_c 31.654007
_cell_angle_alpha 90.000000
_cell_angle_beta 90.000000
_cell_angle_gamma 90.000000
_cell_volume 2260.931025
_symmetry_space_group_name_H-M "P M M A"
_symmetry_group_IT_number 51
_symmetry_cell_setting 'orthorhombic'
loop_
_space_group_symop_operation_xyz
x,y,z
1/2-x,-y,z
1/2+x,-y,-z
-x,y,-z
-x,-y,-z
1/2+x,y,-z
1/2-x,y,z
x,-y,z
loop_
_atom_site_type_symbol
_atom_site_label
_atom_site_fract_x
_atom_site_fract_y
_atom_site_fract_z
Si Si1 0.089532 0.214118 0.214920
Si Si2 0.912933 0.716988 0.458720
Si Si3 0.591159 0.289305 0.296398
Si Si4 0.592422 0.711001 0.038548
Si Si5 0.912376 0.282525 0.623901
Si Si6 0.589870 0.785896 0.880064
O O1 0.250000 0.274700 0.224224
O O2 0.051985 0.274431 0.167409
O O3 0.982115 0.266321 0.251208
O O4 0.092726 0.000000 0.214126
O O5 0.750000 0.774797 0.459208
O O6 0.910887 0.500000 0.458922
O O7 0.000000 0.773088 0.500000
O O8 0.996233 0.771544 0.416666
O O9 0.750000 0.216259 0.297554
O O10 0.602026 0.500000 0.303924
O O11 0.490073 0.220525 0.333536
O O12 0.750000 0.785314 0.039267
O O13 0.604006 0.500000 0.031376
O O14 0.514563 0.733530 0.082995
O O15 0.500000 0.785156 0.000000
O O16 0.750000 0.224616 0.621690
O O17 0.909802 0.500000 0.624059
O O18 0.750000 0.725273 0.889136
O O19 0.592528 0.000000 0.879107
#
# Coordination Sequence:
#
# PCOD9402793 Si02
#       6
#     8   8   8   8   8   8
#     4   9  19  36  55  74  98 129 165 204 245 291
#     4   9  15  22  33  51  78 113 152 192 236 288
#     4  10  20  32  47  70  99 129 162 201 245 294
#     4  10  21  36  54  77 105 136 169 204 243 288
#     4   9  16  26  40  58  83 117 156 197 241 288
#     4   9  19  36  56  77 101 130 165 204 246 292
#
# _framework density 21.230191999999999
#
# number of rings (size 3 to 8) (size 9 to 14) (size 15 to 20)
#    0.000    2.667    0.000    3.000    0.000    8.333 
#    0.000    5.000    0.000    0.000    0.000    0.000 
#    0.000    0.667    0.000    2.500    0.000    5.500 
#
# Total GULP energy -268068.172376 kJ/mol
# GULP energy per Si atom -5584.753591 kJ/mol
# Density = 2.118187 g / cm^3
# Si number density = 21.230192 Si / 1000 Ang^3
#
#
#
# Elastic Constant Matrix: (Units=GPa)
#
#
# Indices 1 2 3 4 5 6 
#
# 1 232.5288 6.4777 150.8144 0.0000 0.0000 0.0000
# 2 6.4777 51.6901 -2.1302 0.0000 0.0000 0.0000
# 3 150.8144 -2.1302 185.1168 0.0000 0.0000 0.0000
# 4 0.0000 0.0000 0.0000 25.1633 0.0000 0.0000
# 5 0.0000 0.0000 0.0000 0.0000 33.5768 0.0000
# 6 0.0000 0.0000 0.0000 0.0000 0.0000 3.2905
#
#
#
# Elastic Compliance Matrix: (Units=1/GPa)
#
#
# Indices 1 2 3 4 5 6 
#
# 1 0.009229 -0.001467 -0.007536 0.000000 0.000000 0.000000
# 2 -0.001467 0.019588 0.001421 0.000000 0.000000 0.000000
# 3 -0.007536 0.001421 0.011558 0.000000 0.000000 0.000000
# 4 0.000000 0.000000 0.000000 0.039740 0.000000 0.000000
# 5 0.000000 0.000000 0.000000 0.000000 0.029782 0.000000
# 6 0.000000 0.000000 0.000000 0.000000 0.000000 0.303904
#
#
# Mechanical properties :
#
#
# Convention : Reuss Voigt Hill
#
# Bulk Modulus (GPa) = 39.66556 86.62884 63.14720
# Shear Modulus (GPa) = 11.43197 33.35105 22.39151
#
# Velocity S-wave (km/s) = 2.32303 3.96779 3.25114
# Velocity P-wave (km/s) = 5.09111 7.86666 6.62585
#
# Compressibility (1/GPa) = 0.02521079
#
# Stress axis : x y z
#
# Youngs Moduli (GPa) = 108.35482 51.05048 86.52272
#
# Poissons Ratio (x) = 0.07490 0.65201
# Poissons Ratio (y) = 0.15897 -0.12292
# Poissons Ratio (z) = 0.81653 -0.07252
#
# Static dielectric constant tensor:
#      x y z
#    x 1.737350 0.000000 0.000000 
#    y 0.000000 1.820660 0.000000 
#    z 0.000000 0.000000 1.724810 
# 
# From -- ./inp_files/36948.got.cif
#   From: 2010.05.17/outbox.cif.g08.bks.cpg/sg51_19_cif.got.tgz:36948.got - 2010.06.03 11:52:47.
