data_PCOD9402512
_publ_section_title
;
Structure prediction by ZEFSAII (Michael W. Deem and Ramdas Pophale) SiO2 
 PCOD9402512
Probable space group: P M M A
;
_chemical_formula_sum "Si O2"
_cell_formula_units_Z 48
_cell_length_a 14.995720
_cell_length_b 8.680399
_cell_length_c 20.221759
_cell_angle_alpha 90.000000
_cell_angle_beta 90.000000
_cell_angle_gamma 90.000000
_cell_volume 2632.242768
_symmetry_space_group_name_H-M "P M M A"
_symmetry_group_IT_number 51
_symmetry_cell_setting 'orthorhombic'
loop_
_space_group_symop_operation_xyz
x,y,z
1/2-x,-y,z
1/2+x,-y,-z
-x,y,-z
-x,-y,-z
1/2+x,y,-z
1/2-x,y,z
x,-y,z
loop_
_atom_site_type_symbol
_atom_site_label
_atom_site_fract_x
_atom_site_fract_y
_atom_site_fract_z
Si Si1 0.250000 0.814859 0.869691
Si Si2 0.065022 0.684897 0.816447
Si Si3 0.146850 0.815912 0.412128
Si Si4 0.250000 0.187321 0.023835
Si Si5 0.146429 0.314382 0.554567
Si Si6 0.510820 0.314043 0.330892
Si Si7 0.054828 0.186127 0.066806
O O1 0.161034 0.752736 0.835549
O O2 0.250000 0.766056 0.946863
O O3 0.250000 0.000000 0.868202
O O4 0.070315 0.500000 0.817507
O O5 0.036364 0.734812 0.742908
O O6 0.994212 0.741110 0.870771
O O7 0.250000 0.768251 0.402938
O O8 0.117920 0.754301 0.484189
O O9 0.082895 0.749444 0.356324
O O10 0.142727 0.000000 0.412214
O O11 0.250000 0.000000 0.024231
O O12 0.157508 0.236060 0.057545
O O13 0.250000 0.271596 0.565667
O O14 0.141763 0.500000 0.549783
O O15 0.084722 0.264528 0.615205
O O16 0.508079 0.500000 0.331772
O O17 0.052492 0.000000 0.073206
O O18 0.000000 0.224380 0.000000
#
# Coordination Sequence:
#
# PCOD9402512 Si02
#       7
#     4   8   8   4   8   8   8
#     4  11  21  39  63  87 115 152 191 226 281 351
#     4  11  24  39  57  87 122 151 186 239 290 334
#     4  10  21  37  57  82 112 143 184 240 289 328
#     4   9  18  35  61  87 109 146 195 240 279 329
#     4   9  18  34  58  83 108 145 188 225 272 340
#     4  10  22  38  57  80 113 154 190 226 277 340
#     4  10  19  37  62  85 114 152 196 237 279 343
#
# _framework density 18.235401
#
# number of rings (size 3 to 8) (size 9 to 14) (size 15 to 20)
#    0.000    2.000    1.667    1.750    1.167    5.333 
#    1.500    0.417    0.000    0.000    0.000    0.000 
#    0.000    0.000    0.000    0.000    0.000    0.000 
#
# Total GULP energy -268073.494944 kJ/mol
# GULP energy per Si atom -5584.864478 kJ/mol
# Density = 1.819390 g / cm^3
# Si number density = 18.235401 Si / 1000 Ang^3
#
#
#
# Elastic Constant Matrix: (Units=GPa)
#
#
# Indices 1 2 3 4 5 6 
#
# 1 162.5524 35.9155 110.7115 0.0000 0.0000 0.0000
# 2 35.9155 20.3949 39.7634 0.0000 0.0000 0.0000
# 3 110.7115 39.7634 170.7492 0.0000 0.0000 0.0000
# 4 0.0000 0.0000 0.0000 55.6816 0.0000 0.0000
# 5 0.0000 0.0000 0.0000 0.0000 11.7079 0.0000
# 6 0.0000 0.0000 0.0000 0.0000 0.0000 27.1535
#
#
#
# Elastic Compliance Matrix: (Units=1/GPa)
#
#
# Indices 1 2 3 4 5 6 
#
# 1 0.012263 -0.011160 -0.005352 0.000000 0.000000 0.000000
# 2 -0.011160 0.099964 -0.016043 0.000000 0.000000 0.000000
# 3 -0.005352 -0.016043 0.013063 0.000000 0.000000 0.000000
# 4 0.000000 0.000000 0.000000 0.017959 0.000000 0.000000
# 5 0.000000 0.000000 0.000000 0.000000 0.085412 0.000000
# 6 0.000000 0.000000 0.000000 0.000000 0.000000 0.036828
#
#
# Mechanical properties :
#
#
# Convention : Reuss Voigt Hill
#
# Bulk Modulus (GPa) = 16.61712 80.71970 48.66841
# Shear Modulus (GPa) = 14.25884 30.06233 22.16059
#
# Velocity S-wave (km/s) = 2.79934 4.06466 3.48983
# Velocity P-wave (km/s) = 4.42501 8.14801 6.55633
#
# Compressibility (1/GPa) = 0.06017890
#
# Stress axis : x y z
#
# Youngs Moduli (GPa) = 81.54652 10.00362 76.55243
#
# Poissons Ratio (x) = 0.11164 0.40973
# Poissons Ratio (y) = 0.91006 1.22815
# Poissons Ratio (z) = 0.43646 0.16049
#
# Static dielectric constant tensor:
#      x y z
#    x 1.623180 0.000000 0.000000 
#    y 0.000000 1.617400 0.000000 
#    z 0.000000 0.000000 1.597120 
# 
# From -- ./inp_files/29505.got.cif
#   From: 2010.05.17/outbox.cif.g08.bks.cpg/sg51_15_cif.got.tgz:29505.got - 2010.06.03 11:52:47.
