data_PCOD9402494
_publ_section_title
;
Structure prediction by ZEFSAII (Michael W. Deem and Ramdas Pophale) SiO2 
 PCOD9402494
Probable space group: P M M A
;
_chemical_formula_sum "Si O2"
_cell_formula_units_Z 48
_cell_length_a 15.155777
_cell_length_b 17.259676
_cell_length_c 9.877238
_cell_angle_alpha 90.000000
_cell_angle_beta 90.000000
_cell_angle_gamma 90.000000
_cell_volume 2583.725455
_symmetry_space_group_name_H-M "P M M A"
_symmetry_group_IT_number 51
_symmetry_cell_setting 'orthorhombic'
loop_
_space_group_symop_operation_xyz
x,y,z
1/2-x,-y,z
1/2+x,-y,-z
-x,y,-z
-x,-y,-z
1/2+x,y,-z
1/2-x,y,z
x,-y,z
loop_
_atom_site_type_symbol
_atom_site_label
_atom_site_fract_x
_atom_site_fract_y
_atom_site_fract_z
Si Si1 0.146903 0.268885 0.793887
Si Si2 0.847790 0.340054 0.739748
Si Si3 0.603590 0.227899 0.504574
Si Si4 0.020402 0.587292 0.839777
Si Si5 0.646098 0.807019 0.939046
Si Si6 0.857052 0.911936 0.700191
O O1 0.250000 0.285599 0.822971
O O2 0.139219 0.230774 0.647020
O O3 0.089827 0.347044 0.798350
O O4 0.110617 0.212458 0.912478
O O5 0.750000 0.374152 0.755925
O O6 0.853672 0.294159 0.598315
O O7 0.928828 0.397196 0.761518
O O8 0.859214 0.272348 0.852535
O O9 0.500000 0.244046 0.500000
O O10 0.617834 0.146379 0.580043
O O11 0.052269 0.500000 0.814483
O O12 0.000000 0.594657 0.000000
O O13 0.750000 0.825323 0.957106
O O14 0.609646 0.873668 0.840982
O O15 0.750000 0.911780 0.705105
O O16 0.887040 0.000000 0.682422
#
# Coordination Sequence:
#
# PCOD9402494 Si02
#       6
#     8   8   8   8   8   8
#     4  11  21  37  58  85 116 150 195 241 288 343
#     4  10  19  37  58  81 111 151 199 236 277 342
#     4  11  21  35  59  85 115 152 195 242 288 344
#     4  11  23  37  58  89 118 147 188 241 299 344
#     4   8  16  31  56  80 104 146 193 232 275 333
#     4   9  18  35  57  83 116 154 194 235 284 343
#
# _framework density 18.577826000000002
#
# number of rings (size 3 to 8) (size 9 to 14) (size 15 to 20)
#    0.000    2.000    3.333    2.500    0.000    1.000 
#    0.000    4.167    0.000    6.000    0.000    0.000 
#    0.000    0.000    0.000    0.000    0.000    0.000 
#
# Total GULP energy -267758.016013 kJ/mol
# GULP energy per Si atom -5578.292000 kJ/mol
# Density = 1.853554 g / cm^3
# Si number density = 18.577826 Si / 1000 Ang^3
#
#
#
# Elastic Constant Matrix: (Units=GPa)
#
#
# Indices 1 2 3 4 5 6 
#
# 1 70.0707 25.2817 9.9623 0.0000 0.0000 0.0000
# 2 25.2817 102.1163 53.9728 0.0000 0.0000 0.0000
# 3 9.9623 53.9728 143.9100 0.0000 0.0000 0.0000
# 4 0.0000 0.0000 0.0000 14.7737 0.0000 0.0000
# 5 0.0000 0.0000 0.0000 0.0000 21.8330 0.0000
# 6 0.0000 0.0000 0.0000 0.0000 0.0000 19.0778
#
#
#
# Elastic Compliance Matrix: (Units=1/GPa)
#
#
# Indices 1 2 3 4 5 6 
#
# 1 0.015696 -0.004130 0.000463 0.000000 0.000000 0.000000
# 2 -0.004130 0.013301 -0.004702 0.000000 0.000000 0.000000
# 3 0.000463 -0.004702 0.008680 0.000000 0.000000 0.000000
# 4 0.000000 0.000000 0.000000 0.067688 0.000000 0.000000
# 5 0.000000 0.000000 0.000000 0.000000 0.045802 0.000000
# 6 0.000000 0.000000 0.000000 0.000000 0.000000 0.052417
#
#
# Mechanical properties :
#
#
# Convention : Reuss Voigt Hill
#
# Bulk Modulus (GPa) = 47.76385 54.94783 51.35584
# Shear Modulus (GPa) = 21.99703 26.26225 24.12964
#
# Velocity S-wave (km/s) = 3.44473 3.76391 3.60785
# Velocity P-wave (km/s) = 6.44884 6.96640 6.71261
#
# Compressibility (1/GPa) = 0.02093634
#
# Stress axis : x y z
#
# Youngs Moduli (GPa) = 63.71136 75.18348 115.20194
#
# Poissons Ratio (x) = 0.31054 -0.05328
# Poissons Ratio (y) = 0.26315 0.54173
# Poissons Ratio (z) = -0.02947 0.35355
#
# Static dielectric constant tensor:
#      x y z
#    x 1.669520 0.000000 0.000000 
#    y 0.000000 1.615540 0.000000 
#    z 0.000000 0.000000 1.663130 
# 
# From -- ./inp_files/8202.got.cif
#   From: 2010.05.17/outbox.cif.g08.bks.cpg/sg51_5_cif.got.tgz:8202.got - 2010.06.03 11:52:47.
