data_PCOD9402307
_publ_section_title
;
Structure prediction by ZEFSAII (Michael W. Deem and Ramdas Pophale) SiO2 
 PCOD9402307
Probable space group: P M M A
;
_chemical_formula_sum "Si O2"
_cell_formula_units_Z 40
_cell_length_a 8.525775
_cell_length_b 14.544938
_cell_length_c 16.062517
_cell_angle_alpha 90.000000
_cell_angle_beta 90.000000
_cell_angle_gamma 90.000000
_cell_volume 1991.862438
_symmetry_space_group_name_H-M "P M M A"
_symmetry_group_IT_number 51
_symmetry_cell_setting 'orthorhombic'
loop_
_space_group_symop_operation_xyz
x,y,z
1/2-x,-y,z
1/2+x,-y,-z
-x,y,-z
-x,-y,-z
1/2+x,y,-z
1/2-x,y,z
x,-y,z
loop_
_atom_site_type_symbol
_atom_site_label
_atom_site_fract_x
_atom_site_fract_y
_atom_site_fract_z
Si Si1 0.068049 0.399659 0.111348
Si Si2 0.438502 0.191442 0.087072
Si Si3 0.429680 0.659319 0.299013
Si Si4 0.566567 0.146657 0.264873
Si Si5 0.560028 0.000000 0.403743
Si Si6 0.563788 0.500000 0.408458
O O1 0.250000 0.400397 0.082303
O O2 0.996960 0.500000 0.089310
O O3 0.000580 0.298774 0.088821
O O4 0.070278 0.392968 0.210954
O O5 0.250000 0.195015 0.087316
O O6 0.489406 0.140881 0.172552
O O7 0.500000 0.150951 0.000000
O O8 0.250000 0.687250 0.315720
O O9 0.535070 0.748830 0.290763
O O10 0.495215 0.589791 0.365169
O O11 0.750000 0.127064 0.253823
O O12 0.511212 0.084860 0.343080
O O13 0.500000 0.000000 0.500000
O O14 0.750000 0.000000 0.409908
O O15 0.750000 0.500000 0.403477
O O16 0.500000 0.500000 0.500000
#
# Coordination Sequence:
#
# PCOD9402307 Si02
#       6
#     8   8   8   8   4   4
#     4   8  14  27  49  74 105 148 194 239 285 336
#     4  10  20  34  55  84 119 162 206 251 304 359
#     4  10  19  35  57  81 113 154 195 241 297 355
#     4  10  21  40  63  90 122 157 199 248 304 367
#     4  10  24  44  69  96 123 152 189 248 310 370
#     4  12  24  36  52  78 111 152 199 248 298 358
#
# _framework density 20.081707999999999
#
# number of rings (size 3 to 8) (size 9 to 14) (size 15 to 20)
#    0.000    2.200    1.000    3.900    0.000    2.800 
#    0.000    2.500    0.000    0.000    0.000    0.000 
#    0.000    0.000    0.000    0.000    0.000    0.000 
#
# Total GULP energy -222859.802254 kJ/mol
# GULP energy per Si atom -5571.495056 kJ/mol
# Density = 2.003600 g / cm^3
# Si number density = 20.081708 Si / 1000 Ang^3
#
#
#
# Elastic Constant Matrix: (Units=GPa)
#
#
# Indices 1 2 3 4 5 6 
#
# 1 37.7867 4.2881 37.3558 0.0000 0.0000 0.0000
# 2 4.2881 66.0713 52.2735 0.0000 0.0000 0.0000
# 3 37.3558 52.2735 190.2878 0.0000 0.0000 0.0000
# 4 0.0000 0.0000 0.0000 33.5434 0.0000 0.0000
# 5 0.0000 0.0000 0.0000 0.0000 31.0125 0.0000
# 6 0.0000 0.0000 0.0000 0.0000 0.0000 14.9203
#
#
#
# Elastic Compliance Matrix: (Units=1/GPa)
#
#
# Indices 1 2 3 4 5 6 
#
# 1 0.033598 0.003881 -0.007662 0.000000 0.000000 0.000000
# 2 0.003881 0.019786 -0.006197 0.000000 0.000000 0.000000
# 3 -0.007662 -0.006197 0.008462 0.000000 0.000000 0.000000
# 4 0.000000 0.000000 0.000000 0.029812 0.000000 0.000000
# 5 0.000000 0.000000 0.000000 0.000000 0.032245 0.000000
# 6 0.000000 0.000000 0.000000 0.000000 0.000000 0.067023
#
#
# Mechanical properties :
#
#
# Convention : Reuss Voigt Hill
#
# Bulk Modulus (GPa) = 23.87174 53.55342 38.71258
# Shear Modulus (GPa) = 22.23740 29.24381 25.74061
#
# Velocity S-wave (km/s) = 3.33129 3.82021 3.58410
# Velocity P-wave (km/s) = 5.16815 6.79591 6.03714
#
# Compressibility (1/GPa) = 0.04189054
#
# Stress axis : x y z
#
# Youngs Moduli (GPa) = 29.76324 50.53957 118.17771
#
# Poissons Ratio (x) = -0.19616 0.90548
# Poissons Ratio (y) = -0.11552 0.73240
# Poissons Ratio (z) = 0.22805 0.31322
#
# Static dielectric constant tensor:
#      x y z
#    x 1.730560 0.000000 0.000000 
#    y 0.000000 1.743710 0.000000 
#    z 0.000000 0.000000 1.704630 
# 
# From -- ./inp_files/20527.got.cif
#   From: 2010.05.17/outbox.cif.g08.bks.cpg/sg51_11_cif.got.tgz:20527.got - 2010.06.03 11:52:47.
