data_PCOD9402080
_publ_section_title
;
Structure prediction by ZEFSAII (Michael W. Deem and Ramdas Pophale) SiO2 
 PCOD9402080
Probable space group: P M M A
;
_chemical_formula_sum "Si O2"
_cell_formula_units_Z 64
_cell_length_a 8.896012
_cell_length_b 25.788411
_cell_length_c 14.843226
_cell_angle_alpha 90.000000
_cell_angle_beta 90.000000
_cell_angle_gamma 90.000000
_cell_volume 3405.244053
_symmetry_space_group_name_H-M "P M M A"
_symmetry_group_IT_number 51
_symmetry_cell_setting 'orthorhombic'
loop_
_space_group_symop_operation_xyz
x,y,z
1/2-x,-y,z
1/2+x,-y,-z
-x,y,-z
-x,-y,-z
1/2+x,y,-z
1/2-x,y,z
x,-y,z
loop_
_atom_site_type_symbol
_atom_site_label
_atom_site_fract_x
_atom_site_fract_y
_atom_site_fract_z
Si Si1 0.930706 0.846009 0.598477
Si Si2 0.922206 0.936760 0.091872
Si Si3 0.930044 0.441863 0.722647
Si Si4 0.431611 0.247771 0.709812
Si Si5 0.068642 0.343983 0.400220
Si Si6 0.070390 0.720179 0.907084
Si Si7 0.429656 0.597847 0.905853
Si Si8 0.930366 0.940764 0.720769
O O1 0.750000 0.841010 0.594941
O O2 0.970393 0.901730 0.641275
O O3 0.000000 0.840133 0.500000
O O4 0.999819 0.802436 0.662863
O O5 0.750000 0.920069 0.094035
O O6 0.004125 0.921873 0.183933
O O7 0.925623 0.000000 0.089866
O O8 0.000000 0.918705 0.000000
O O9 0.750000 0.439109 0.735657
O O10 0.968618 0.500000 0.692132
O O11 0.969867 0.397623 0.650724
O O12 0.007209 0.430310 0.818120
O O13 0.250000 0.248163 0.703288
O O14 0.498174 0.297491 0.658034
O O15 0.474371 0.251571 0.815139
O O16 0.250000 0.338697 0.404099
O O17 0.000000 0.342853 0.500000
O O18 0.250000 0.722868 0.914744
O O19 0.030137 0.659110 0.897135
O O20 0.000000 0.739717 0.000000
O O21 0.250000 0.593429 0.909423
O O22 0.500000 0.579102 0.000000
O O23 0.750000 0.941479 0.728610
O O24 0.981764 0.000000 0.705031
#
# Coordination Sequence:
#
# PCOD9402080 Si02
#       8
#     8   8   8   8   8   8   8   8
#     4  11  24  41  61  87 116 150 191 238 292 343
#     4   9  16  27  48  79 113 149 190 234 279 329
#     4  10  22  39  57  81 114 151 192 238 287 340
#     4  11  22  40  63  88 118 150 189 236 283 337
#     4  11  23  39  61  85 111 146 189 239 292 346
#     4   9  19  34  57  87 117 148 184 227 276 334
#     4  10  19  34  56  84 115 150 191 233 282 337
#     4   9  19  37  59  83 115 154 195 238 285 340
#
# _framework density 18.794542
#
# number of rings (size 3 to 8) (size 9 to 14) (size 15 to 20)
#    0.000    2.000    1.250    2.250    0.000    5.500 
#    0.000    0.625    0.000    1.500    0.000    0.000 
#    0.000    0.000    0.000    0.000    0.000    0.000 
#
# Total GULP energy -357406.254989 kJ/mol
# GULP energy per Si atom -5584.472734 kJ/mol
# Density = 1.875176 g / cm^3
# Si number density = 18.794542 Si / 1000 Ang^3
#
#
#
# Elastic Constant Matrix: (Units=GPa)
#
#
# Indices 1 2 3 4 5 6 
#
# 1 41.8027 39.6845 44.4813 0.0000 0.0000 0.0000
# 2 39.6845 89.8271 69.1626 0.0000 0.0000 0.0000
# 3 44.4813 69.1626 151.0693 0.0000 0.0000 0.0000
# 4 0.0000 0.0000 0.0000 -9.4966 0.0000 0.0000
# 5 0.0000 0.0000 0.0000 0.0000 34.6402 0.0000
# 6 0.0000 0.0000 0.0000 0.0000 0.0000 8.5841
#
#
#
# Elastic Compliance Matrix: (Units=1/GPa)
#
#
# Indices 1 2 3 4 5 6 
#
# 1 0.044867 -0.014904 -0.006388 0.000000 0.000000 0.000000
# 2 -0.014904 0.022144 -0.005750 0.000000 0.000000 0.000000
# 3 -0.006388 -0.005750 0.011133 0.000000 0.000000 0.000000
# 4 0.000000 0.000000 0.000000 -0.105301 0.000000 0.000000
# 5 0.000000 0.000000 0.000000 0.000000 0.028868 0.000000
# 6 0.000000 0.000000 0.000000 0.000000 0.000000 0.116494
#
#
# Mechanical properties :
#
#
# Convention : Reuss Voigt Hill
#
# Bulk Modulus (GPa) = 41.55961 65.48399 53.52180
# Shear Modulus (GPa) = 27.73045 15.37025 21.55035
#
# Velocity S-wave (km/s) = 3.84533 2.86283 3.38986
# Velocity P-wave (km/s) = 6.47117 6.77092 6.62274
#
# Compressibility (1/GPa) = 0.02406182
#
# Stress axis : x y z
#
# Youngs Moduli (GPa) = 22.28788 45.15974 89.82665
#
# Poissons Ratio (x) = 0.67304 0.57379
# Poissons Ratio (y) = 0.33217 0.51646
# Poissons Ratio (z) = 0.14237 0.25965
#
# Static dielectric constant tensor:
#      x y z
#    x 1.624300 0.000000 0.000000 
#    y 0.000000 1.663980 0.000000 
#    z 0.000000 0.000000 1.619260 
# 
# From -- ./inp_files/22324.got.cif
#   From: 2010.05.17/outbox.cif.g08.bks.cpg/sg51_12_cif.got.tgz:22324.got - 2010.06.03 11:52:47.
