data_PCOD9402021
_publ_section_title
;
Structure prediction by ZEFSAII (Michael W. Deem and Ramdas Pophale) SiO2 
 PCOD9402021
Probable space group: P M M A
;
_chemical_formula_sum "Si O2"
_cell_formula_units_Z 48
_cell_length_a 16.289310
_cell_length_b 7.614117
_cell_length_c 17.489445
_cell_angle_alpha 90.000000
_cell_angle_beta 90.000000
_cell_angle_gamma 90.000000
_cell_volume 2169.193340
_symmetry_space_group_name_H-M "P M M A"
_symmetry_group_IT_number 51
_symmetry_cell_setting 'orthorhombic'
loop_
_space_group_symop_operation_xyz
x,y,z
1/2-x,-y,z
1/2+x,-y,-z
-x,y,-z
-x,-y,-z
1/2+x,y,-z
1/2-x,y,z
x,-y,z
loop_
_atom_site_type_symbol
_atom_site_label
_atom_site_fract_x
_atom_site_fract_y
_atom_site_fract_z
Si Si1 0.339476 0.784771 0.177528
Si Si2 0.841940 0.289011 0.189466
Si Si3 0.562603 0.703727 0.337203
Si Si4 0.379346 0.800263 0.343172
Si Si5 0.500344 0.210714 0.086728
Si Si6 0.344010 0.211673 0.511694
O O1 0.250000 0.737041 0.144852
O O2 0.344299 0.722247 0.265360
O O3 0.420217 0.723734 0.132631
O O4 0.343040 0.000000 0.179362
O O5 0.750000 0.221885 0.172223
O O6 0.836510 0.500000 0.191791
O O7 0.873417 0.230802 0.273387
O O8 0.914382 0.246051 0.130214
O O9 0.544954 0.500000 0.320230
O O10 0.477006 0.802610 0.332350
O O11 0.598342 0.717746 0.422017
O O12 0.361412 0.720553 0.426106
O O13 0.347560 0.000000 0.347456
O O14 0.492030 0.000000 0.083477
O O15 0.500000 0.278011 0.000000
O O16 0.250000 0.251149 0.531237
O O17 0.355130 0.000000 0.511001
#
# Coordination Sequence:
#
# PCOD9402021 Si02
#       6
#     8   8   8   8   8   8
#     4   9  17  32  56  83 113 149 186 227 280 338
#     4  10  22  40  60  82 113 156 199 234 277 337
#     4  11  22  36  55  79 111 150 192 234 283 334
#     4  10  19  34  56  79 106 145 193 235 280 337
#     4  10  21  37  60  91 120 146 183 234 289 344
#     4  10  21  35  52  78 109 143 189 239 282 332
#
# _framework density 22.128039999999999
#
# number of rings (size 3 to 8) (size 9 to 14) (size 15 to 20)
#    0.000    2.000    1.667    2.000    0.000    7.667 
#    0.000    1.667    0.000    3.000    0.000    0.000 
#    0.000    0.000    0.000    0.000    0.000    0.000 
#
# Total GULP energy -268143.419812 kJ/mol
# GULP energy per Si atom -5586.321246 kJ/mol
# Density = 2.207768 g / cm^3
# Si number density = 22.128040 Si / 1000 Ang^3
#
#
#
# Elastic Constant Matrix: (Units=GPa)
#
#
# Indices 1 2 3 4 5 6 
#
# 1 180.9923 6.5148 72.0994 0.0000 0.0000 0.0000
# 2 6.5148 47.4924 -1.1482 0.0000 0.0000 0.0000
# 3 72.0994 -1.1482 133.1252 0.0000 0.0000 0.0000
# 4 0.0000 0.0000 0.0000 15.0562 0.0000 0.0000
# 5 0.0000 0.0000 0.0000 0.0000 6.1665 0.0000
# 6 0.0000 0.0000 0.0000 0.0000 0.0000 -58.3348
#
#
#
# Elastic Compliance Matrix: (Units=1/GPa)
#
#
# Indices 1 2 3 4 5 6 
#
# 1 0.007099 -0.001067 -0.003854 0.000000 0.000000 0.000000
# 2 -0.001067 0.021221 0.000761 0.000000 0.000000 0.000000
# 3 -0.003854 0.000761 0.009605 0.000000 0.000000 0.000000
# 4 0.000000 0.000000 0.000000 0.066418 0.000000 0.000000
# 5 0.000000 0.000000 0.000000 0.000000 0.162166 0.000000
# 6 0.000000 0.000000 0.000000 0.000000 0.000000 -0.017142
#
#
# Mechanical properties :
#
#
# Convention : Reuss Voigt Hill
#
# Bulk Modulus (GPa) = 33.77787 57.39356 45.58572
# Shear Modulus (GPa) = 18.68778 11.52052 15.10415
#
# Velocity S-wave (km/s) = 2.90923 2.28421 2.61546
# Velocity P-wave (km/s) = 5.15584 5.74022 5.45586
#
# Compressibility (1/GPa) = 0.02960518
#
# Stress axis : x y z
#
# Youngs Moduli (GPa) = 140.87123 47.12372 104.10743
#
# Poissons Ratio (x) = 0.05028 0.40121
# Poissons Ratio (y) = 0.15030 -0.07921
# Poissons Ratio (z) = 0.54289 -0.03586
#
# Static dielectric constant tensor:
#      x y z
#    x 1.794630 0.000000 0.000000 
#    y 0.000000 1.846970 0.000000 
#    z 0.000000 0.000000 1.798640 
# 
# From -- ./inp_files/29385.got.cif
#   From: 2010.05.17/outbox.cif.g08.bks.cpg/sg51_15_cif.got.tgz:29385.got - 2010.06.03 11:52:47.
