data_PCOD9402185
_publ_section_title
;
Structure prediction by ZEFSAII (Michael W. Deem and Ramdas Pophale) SiO2 
 PCOD9402185
Probable space group: P M M A
;
_chemical_formula_sum "Si O2"
_cell_formula_units_Z 44
_cell_length_a 17.244724
_cell_length_b 8.011839
_cell_length_c 14.384872
_cell_angle_alpha 90.000000
_cell_angle_beta 90.000000
_cell_angle_gamma 90.000000
_cell_volume 1987.441999
_symmetry_space_group_name_H-M "P M M A"
_symmetry_group_IT_number 51
_symmetry_cell_setting 'orthorhombic'
loop_
_space_group_symop_operation_xyz
x,y,z
1/2-x,-y,z
1/2+x,-y,-z
-x,y,-z
-x,-y,-z
1/2+x,y,-z
1/2-x,y,z
x,-y,z
loop_
_atom_site_type_symbol
_atom_site_label
_atom_site_fract_x
_atom_site_fract_y
_atom_site_fract_z
Si Si1 0.041194 0.312542 0.314481
Si Si2 0.841089 0.192539 0.823145
Si Si3 0.500000 0.245757 0.500000
Si Si4 0.880339 0.307637 0.219482
Si Si5 0.411211 0.798772 0.983994
Si Si6 0.662381 0.803652 0.418568
O O1 0.034492 0.500000 0.356287
O O2 0.119322 0.291678 0.259284
O O3 0.028849 0.186930 0.399142
O O4 0.972255 0.292415 0.240965
O O5 0.750000 0.193411 0.814505
O O6 0.864948 0.255786 0.924737
O O7 0.869497 0.000000 0.816034
O O8 0.411463 0.295734 0.538376
O O9 0.857247 0.500000 0.229051
O O10 0.842121 0.212872 0.306115
O O11 0.872544 0.254894 0.112892
O O12 0.412510 0.000000 0.981530
O O13 0.500000 0.740834 0.000000
O O14 0.750000 0.753523 0.447607
O O15 0.651218 0.000000 0.442235
#
# Coordination Sequence:
#
# PCOD9402185 Si02
#       6
#     8   8   4   8   8   8
#     4  10  21  38  59  83 114 151 192 237 294 361
#     4  10  22  38  56  83 119 155 195 245 296 349
#     4  10  22  40  64  92 118 154 196 254 308 360
#     4  10  21  36  58  87 119 154 194 244 297 353
#     4  10  19  34  58  86 116 157 203 243 291 352
#     4  10  22  40  62  89 120 157 203 252 304 365
#
# _framework density 22.139009999999999
#
# number of rings (size 3 to 8) (size 9 to 14) (size 15 to 20)
#    0.000    2.000    1.818    1.091    0.000    7.636 
#    0.000    3.636    0.000    0.000    0.000    0.000 
#    0.000    0.000    0.000    0.000    0.000    0.000 
#
# Total GULP energy -244936.017506 kJ/mol
# GULP energy per Si atom -5566.727671 kJ/mol
# Density = 2.208862 g / cm^3
# Si number density = 22.139010 Si / 1000 Ang^3
#
#
#
# Elastic Constant Matrix: (Units=GPa)
#
#
# Indices 1 2 3 4 5 6 
#
# 1 113.7495 23.7212 37.1814 0.0000 0.0000 0.0000
# 2 23.7212 55.8009 17.9645 0.0000 0.0000 0.0000
# 3 37.1814 17.9645 125.5914 0.0000 0.0000 0.0000
# 4 0.0000 0.0000 0.0000 -3.1860 0.0000 0.0000
# 5 0.0000 0.0000 0.0000 0.0000 29.6740 0.0000
# 6 0.0000 0.0000 0.0000 0.0000 0.0000 15.0878
#
#
#
# Elastic Compliance Matrix: (Units=1/GPa)
#
#
# Indices 1 2 3 4 5 6 
#
# 1 0.010376 -0.003587 -0.002559 0.000000 0.000000 0.000000
# 2 -0.003587 0.020026 -0.001803 0.000000 0.000000 0.000000
# 3 -0.002559 -0.001803 0.008978 0.000000 0.000000 0.000000
# 4 0.000000 0.000000 0.000000 -0.313875 0.000000 0.000000
# 5 0.000000 0.000000 0.000000 0.000000 0.033700 0.000000
# 6 0.000000 0.000000 0.000000 0.000000 0.000000 0.066279
#
#
# Mechanical properties :
#
#
# Convention : Reuss Voigt Hill
#
# Bulk Modulus (GPa) = 42.58418 50.31956 46.45187
# Shear Modulus (GPa) = -33.15798 22.73347 -5.21226
#
# Velocity S-wave (km/s) = -3.87423 3.20793 -1.53605
# Velocity P-wave (km/s) = 0.85805 6.04147 4.22866
#
# Compressibility (1/GPa) = 0.02348290
#
# Stress axis : x y z
#
# Youngs Moduli (GPa) = 96.37987 49.93500 111.38776
#
# Poissons Ratio (x) = 0.17912 0.28500
# Poissons Ratio (y) = 0.34571 0.20079
# Poissons Ratio (z) = 0.24660 0.09001
#
# Static dielectric constant tensor:
#      x y z
#    x 1.822940 0.000000 0.000000 
#    y 0.000000 1.999330 0.000000 
#    z 0.000000 0.000000 1.771010 
# 
# From -- ./inp_files/24600.got.cif
#   From: 2010.05.17/outbox.cif.g08.bks.cpg/sg51_13_cif.got.tgz:24600.got - 2010.06.03 11:52:47.
