data_PCOD9402088
_publ_section_title
;
Structure prediction by ZEFSAII (Michael W. Deem and Ramdas Pophale) SiO2 
 PCOD9402088
Probable space group: P M M A
;
_chemical_formula_sum "Si O2"
_cell_formula_units_Z 64
_cell_length_a 14.671735
_cell_length_b 22.329341
_cell_length_c 9.663925
_cell_angle_alpha 90.000000
_cell_angle_beta 90.000000
_cell_angle_gamma 90.000000
_cell_volume 3166.000150
_symmetry_space_group_name_H-M "P M M A"
_symmetry_group_IT_number 51
_symmetry_cell_setting 'orthorhombic'
loop_
_space_group_symop_operation_xyz
x,y,z
1/2-x,-y,z
1/2+x,-y,-z
-x,y,-z
-x,-y,-z
1/2+x,y,-z
1/2-x,y,z
x,-y,z
loop_
_atom_site_type_symbol
_atom_site_label
_atom_site_fract_x
_atom_site_fract_y
_atom_site_fract_z
Si Si1 0.141626 0.566968 0.322212
Si Si2 0.593287 0.646391 0.934068
Si Si3 0.859897 0.851816 0.145478
Si Si4 0.354868 0.283340 0.805754
Si Si5 0.143058 0.114765 0.167310
Si Si6 0.860167 0.327409 0.482677
Si Si7 0.481444 0.931132 0.658794
Si Si8 0.142290 0.748784 0.258964
O O1 0.250000 0.562717 0.344928
O O2 0.102777 0.500000 0.328817
O O3 0.130476 0.597428 0.171716
O O4 0.105605 0.613631 0.437083
O O5 0.584169 0.706402 0.841108
O O6 0.500000 0.624576 0.000000
O O7 0.646173 0.670641 0.067474
O O8 0.750000 0.854316 0.158749
O O9 0.890792 0.782167 0.151567
O O10 0.909481 0.888413 0.265308
O O11 0.880858 0.879731 0.994966
O O12 0.250000 0.270785 0.768358
O O13 0.397331 0.313059 0.668965
O O14 0.250000 0.098413 0.179827
O O15 0.131532 0.181899 0.228187
O O16 0.074476 0.074102 0.252917
O O17 0.750000 0.334935 0.473642
O O18 0.876134 0.271374 0.584723
O O19 0.500000 0.913414 0.500000
O O20 0.449590 0.000000 0.659085
O O21 0.250000 0.733705 0.230179
#
# Coordination Sequence:
#
# PCOD9402088 Si02
#       8
#     8   8   8   8   8   8   8   8
#     4   9  18  36  58  76 104 153 202 237 277 341
#     4  11  21  31  51  82 117 152 185 232 288 345
#     4  10  22  39  64  94 122 159 201 253 316 374
#     4  10  19  34  56  86 118 143 180 242 302 351
#     4  10  21  38  65  94 121 159 205 252 305 368
#     4   8  16  30  53  81 107 138 182 234 288 338
#     4  11  27  46  62  87 124 165 206 253 303 365
#     4   9  17  33  54  79 110 146 184 230 286 348
#
# _framework density 20.214780000000001
#
# number of rings (size 3 to 8) (size 9 to 14) (size 15 to 20)
#    0.000    2.250    1.250    2.250    3.500    2.250 
#    0.000    5.625    0.000    3.000    0.000    0.000 
#    0.000    0.000    0.000    0.000    0.000    0.000 
#
# Total GULP energy -357109.799958 kJ/mol
# GULP energy per Si atom -5579.840624 kJ/mol
# Density = 2.016877 g / cm^3
# Si number density = 20.214780 Si / 1000 Ang^3
#
#
#
# Elastic Constant Matrix: (Units=GPa)
#
#
# Indices 1 2 3 4 5 6 
#
# 1 46.6836 15.6836 27.8431 0.0000 0.0000 0.0000
# 2 15.6836 60.9915 48.1333 0.0000 0.0000 0.0000
# 3 27.8431 48.1333 158.5402 0.0000 0.0000 0.0000
# 4 0.0000 0.0000 0.0000 7.1640 0.0000 0.0000
# 5 0.0000 0.0000 0.0000 0.0000 24.8152 0.0000
# 6 0.0000 0.0000 0.0000 0.0000 0.0000 13.6972
#
#
#
# Elastic Compliance Matrix: (Units=1/GPa)
#
#
# Indices 1 2 3 4 5 6 
#
# 1 0.024590 -0.003834 -0.003155 0.000000 0.000000 0.000000
# 2 -0.003834 0.022160 -0.006054 0.000000 0.000000 0.000000
# 3 -0.003155 -0.006054 0.008700 0.000000 0.000000 0.000000
# 4 0.000000 0.000000 0.000000 0.139586 0.000000 0.000000
# 5 0.000000 0.000000 0.000000 0.000000 0.040298 0.000000
# 6 0.000000 0.000000 0.000000 0.000000 0.000000 0.073008
#
#
# Mechanical properties :
#
#
# Convention : Reuss Voigt Hill
#
# Bulk Modulus (GPa) = 34.05526 49.94836 42.00181
# Shear Modulus (GPa) = 14.52582 20.77231 17.64907
#
# Velocity S-wave (km/s) = 2.68353 3.20907 2.95799
# Velocity P-wave (km/s) = 5.14637 6.20430 5.69993
#
# Compressibility (1/GPa) = 0.02936404
#
# Stress axis : x y z
#
# Youngs Moduli (GPa) = 40.66658 45.12728 114.94616
#
# Poissons Ratio (x) = 0.17300 0.36262
# Poissons Ratio (y) = 0.15590 0.69593
# Poissons Ratio (z) = 0.12829 0.27322
#
# Static dielectric constant tensor:
#      x y z
#    x 1.783740 0.000000 0.000000 
#    y 0.000000 1.701590 0.000000 
#    z 0.000000 0.000000 1.701430 
# 
# From -- ./inp_files/8751.got.cif
#   From: 2010.05.17/outbox.cif.g08.bks.cpg/sg51_5_cif.got.tgz:8751.got - 2010.06.03 11:52:47.
