data_PCOD9402956
_publ_section_title
;
Structure prediction by ZEFSAII (Michael W. Deem and Ramdas Pophale) SiO2 
 PCOD9402956
Probable space group: P M M A
;
_chemical_formula_sum "Si O2"
_cell_formula_units_Z 48
_cell_length_a 16.497208
_cell_length_b 7.434680
_cell_length_c 18.758290
_cell_angle_alpha 90.000000
_cell_angle_beta 90.000000
_cell_angle_gamma 90.000000
_cell_volume 2300.731700
_symmetry_space_group_name_H-M "P M M A"
_symmetry_group_IT_number 51
_symmetry_cell_setting 'orthorhombic'
loop_
_space_group_symop_operation_xyz
x,y,z
1/2-x,-y,z
1/2+x,-y,-z
-x,y,-z
-x,-y,-z
1/2+x,y,-z
1/2-x,y,z
x,-y,z
loop_
_atom_site_type_symbol
_atom_site_label
_atom_site_fract_x
_atom_site_fract_y
_atom_site_fract_z
Si Si1 0.750000 0.214568 0.952662
Si Si2 0.840546 0.218549 0.337646
Si Si3 0.081463 0.789151 0.806605
Si Si4 0.250000 0.284795 0.215559
Si Si5 0.080217 0.718224 0.277626
Si Si6 0.500125 0.707658 0.421244
Si Si7 0.913111 0.220552 0.032276
O O1 0.750000 0.248923 0.868526
O O2 0.750000 0.000000 0.963328
O O3 0.833760 0.280302 0.988462
O O4 0.750000 0.272201 0.356599
O O5 0.863971 0.282506 0.258068
O O6 0.909009 0.286047 0.390816
O O7 0.844893 0.000000 0.337864
O O8 0.092259 0.716933 0.885793
O O9 0.989521 0.771131 0.778425
O O10 0.101076 0.000000 0.811764
O O11 0.250000 0.500000 0.224749
O O12 0.332439 0.217807 0.251802
O O13 0.079733 0.500000 0.279501
O O14 0.053743 0.783778 0.356271
O O15 0.500000 0.789845 0.500000
O O16 0.473636 0.500000 0.429248
O O17 0.913604 0.000000 0.031495
O O18 0.000000 0.275931 0.000000
#
# Coordination Sequence:
#
# PCOD9402956 Si02
#       7
#     4   8   8   4   8   8   8
#     4  10  20  32  50  72  97 128 162 208 249 282
#     4   9  18  31  49  74 101 132 164 195 239 294
#     4   9  17  30  50  71  97 129 164 201 240 289
#     4  10  20  34  50  68  95 130 164 200 241 292
#     4   9  18  33  51  71  96 128 163 198 243 291
#     4   9  18  34  53  75 100 126 161 203 244 289
#     4   9  17  28  44  70  98 123 157 202 248 284
#
# _framework density 20.862929000000001
#
# number of rings (size 3 to 8) (size 9 to 14) (size 15 to 20)
#    0.000    2.833    0.000    1.000    1.167    2.667 
#    1.500    0.833    0.000    3.000    0.000    0.000 
#    0.000    0.000    0.000    0.000    0.000    0.000 
#
# Total GULP energy -267851.332592 kJ/mol
# GULP energy per Si atom -5580.236096 kJ/mol
# Density = 2.081544 g / cm^3
# Si number density = 20.862929 Si / 1000 Ang^3
#
#
#
# Elastic Constant Matrix: (Units=GPa)
#
#
# Indices 1 2 3 4 5 6 
#
# 1 137.0732 -12.4526 91.1033 0.0000 0.0000 0.0000
# 2 -12.4526 63.2675 -3.5078 0.0000 0.0000 0.0000
# 3 91.1033 -3.5078 192.8340 0.0000 0.0000 0.0000
# 4 0.0000 0.0000 0.0000 -26.7094 0.0000 0.0000
# 5 0.0000 0.0000 0.0000 0.0000 10.8298 0.0000
# 6 0.0000 0.0000 0.0000 0.0000 0.0000 11.4866
#
#
#
# Elastic Compliance Matrix: (Units=1/GPa)
#
#
# Indices 1 2 3 4 5 6 
#
# 1 0.010847 0.001853 -0.005091 0.000000 0.000000 0.000000
# 2 0.001853 0.016138 -0.000582 0.000000 0.000000 0.000000
# 3 -0.005091 -0.000582 0.007580 0.000000 0.000000 0.000000
# 4 0.000000 0.000000 0.000000 -0.037440 0.000000 0.000000
# 5 0.000000 0.000000 0.000000 0.000000 0.092338 0.000000
# 6 0.000000 0.000000 0.000000 0.000000 0.000000 0.087058
#
#
# Mechanical properties :
#
#
# Convention : Reuss Voigt Hill
#
# Bulk Modulus (GPa) = 37.13878 60.38449 48.76163
# Shear Modulus (GPa) = 25.88830 20.32352 23.10591
#
# Velocity S-wave (km/s) = 3.52643 3.12452 3.33154
# Velocity P-wave (km/s) = 5.86693 6.48252 6.18239
#
# Compressibility (1/GPa) = 0.02692604
#
# Stress axis : x y z
#
# Youngs Moduli (GPa) = 92.18809 61.96428 131.91781
#
# Poissons Ratio (x) = -0.11481 0.67160
# Poissons Ratio (y) = -0.17080 0.07674
# Poissons Ratio (z) = 0.46934 0.03605
#
# Static dielectric constant tensor:
#      x y z
#    x 1.713350 0.000000 0.000000 
#    y 0.000000 1.799330 0.000000 
#    z 0.000000 0.000000 1.728460 
# 
# From -- ./inp_files/29598.got.cif
#   From: 2010.05.17/outbox.cif.g08.bks.cpg/sg51_15_cif.got.tgz:29598.got - 2010.06.03 11:52:47.
