data_PCOD9402284
_publ_section_title
;
Structure prediction by ZEFSAII (Michael W. Deem and Ramdas Pophale) SiO2 
 PCOD9402284
Probable space group: P M M A
;
_chemical_formula_sum "Si O2"
_cell_formula_units_Z 48
_cell_length_a 18.616008
_cell_length_b 15.534921
_cell_length_c 9.182227
_cell_angle_alpha 90.000000
_cell_angle_beta 90.000000
_cell_angle_gamma 90.000000
_cell_volume 2655.483645
_symmetry_space_group_name_H-M "P M M A"
_symmetry_group_IT_number 51
_symmetry_cell_setting 'orthorhombic'
loop_
_space_group_symop_operation_xyz
x,y,z
1/2-x,-y,z
1/2+x,-y,-z
-x,y,-z
-x,-y,-z
1/2+x,y,-z
1/2-x,y,z
x,-y,z
loop_
_atom_site_type_symbol
_atom_site_label
_atom_site_fract_x
_atom_site_fract_y
_atom_site_fract_z
Si Si1 0.335785 0.500000 0.652873
Si Si2 0.050873 0.900508 0.141862
Si Si3 0.831941 0.695243 0.271982
Si Si4 0.332700 0.242246 0.060383
Si Si5 0.967883 0.781634 0.342784
Si Si6 0.540739 0.641529 0.853313
Si Si7 0.564229 0.500000 0.613163
O O1 0.250000 0.500000 0.659269
O O2 0.357602 0.406260 0.722739
O O3 0.365664 0.500000 0.488174
O O4 0.120183 0.840311 0.109965
O O5 0.002503 0.869023 0.279199
O O6 0.071429 0.000000 0.158713
O O7 0.000000 0.892136 0.000000
O O8 0.750000 0.694325 0.326928
O O9 0.884191 0.759004 0.358946
O O10 0.830976 0.738102 0.112139
O O11 0.250000 0.238441 0.110770
O O12 0.380589 0.321634 0.114431
O O13 0.000000 0.762678 0.500000
O O14 0.992417 0.717301 0.213704
O O15 0.553108 0.578107 0.721491
O O16 0.500000 0.610744 0.000000
O O17 0.500000 0.500000 0.500000
#
# Coordination Sequence:
#
# PCOD9402284 Si02
#       7
#     4   8   8   8   8   8   4
#     4  10  22  36  51  75 114 153 189 239 296 337
#     4  10  20  38  61  87 119 148 184 234 285 345
#     4  10  19  35  56  81 113 151 197 241 286 345
#     4  10  20  36  60  85 111 148 192 239 294 344
#     4  11  20  36  59  85 116 153 192 233 288 350
#     4  11  21  37  55  81 115 147 194 246 287 337
#     4  12  25  36  55  82 112 156 199 244 286 335
#
# _framework density 18.075801999999999
#
# number of rings (size 3 to 8) (size 9 to 14) (size 15 to 20)
#    0.000    1.500    3.333    3.750    0.000    2.000 
#    0.000    5.833    0.000    0.500    0.000    0.000 
#    0.000    0.000    0.000    0.000    0.000    0.000 
#
# Total GULP energy -267211.732616 kJ/mol
# GULP energy per Si atom -5566.911096 kJ/mol
# Density = 1.803466 g / cm^3
# Si number density = 18.075802 Si / 1000 Ang^3
#
#
#
# Elastic Constant Matrix: (Units=GPa)
#
#
# Indices 1 2 3 4 5 6 
#
# 1 125.7598 50.6300 33.1860 0.0000 0.0000 0.0000
# 2 50.6300 93.1571 28.4373 0.0000 0.0000 0.0000
# 3 33.1860 28.4373 76.0213 0.0000 0.0000 0.0000
# 4 0.0000 0.0000 0.0000 25.1349 0.0000 0.0000
# 5 0.0000 0.0000 0.0000 0.0000 25.1153 0.0000
# 6 0.0000 0.0000 0.0000 0.0000 0.0000 15.8162
#
#
#
# Elastic Compliance Matrix: (Units=1/GPa)
#
#
# Indices 1 2 3 4 5 6 
#
# 1 0.010687 -0.004949 -0.002814 0.000000 0.000000 0.000000
# 2 -0.004949 0.014410 -0.003230 0.000000 0.000000 0.000000
# 3 -0.002814 -0.003230 0.015591 0.000000 0.000000 0.000000
# 4 0.000000 0.000000 0.000000 0.039785 0.000000 0.000000
# 5 0.000000 0.000000 0.000000 0.000000 0.039816 0.000000
# 6 0.000000 0.000000 0.000000 0.000000 0.000000 0.063226
#
#
# Mechanical properties :
#
#
# Convention : Reuss Voigt Hill
#
# Bulk Modulus (GPa) = 53.47044 57.71609 55.59326
# Shear Modulus (GPa) = 23.61435 25.39228 24.50331
#
# Velocity S-wave (km/s) = 3.61835 3.75209 3.68582
# Velocity P-wave (km/s) = 6.86309 7.12532 6.99544
#
# Compressibility (1/GPa) = 0.01870192
#
# Stress axis : x y z
#
# Youngs Moduli (GPa) = 93.57441 69.39446 64.14051
#
# Poissons Ratio (x) = 0.34344 0.18048
# Poissons Ratio (y) = 0.46312 0.20717
# Poissons Ratio (z) = 0.26330 0.22414
#
# Static dielectric constant tensor:
#      x y z
#    x 1.672750 0.000000 0.000000 
#    y 0.000000 1.633650 0.000000 
#    z 0.000000 0.000000 1.634010 
# 
# From -- ./inp_files/9694.got.cif
#   From: 2010.05.17/outbox.cif.g08.bks.cpg/sg51_5_cif.got.tgz:9694.got - 2010.06.03 11:52:47.
