data_PCOD9402051
_publ_section_title
;
Structure prediction by ZEFSAII (Michael W. Deem and Ramdas Pophale) SiO2 
 PCOD9402051
Probable space group: P M M A
;
_chemical_formula_sum "Si O2"
_cell_formula_units_Z 48
_cell_length_a 8.584830
_cell_length_b 31.626133
_cell_length_c 9.458072
_cell_angle_alpha 90.000000
_cell_angle_beta 90.000000
_cell_angle_gamma 90.000000
_cell_volume 2567.913605
_symmetry_space_group_name_H-M "P M M A"
_symmetry_group_IT_number 51
_symmetry_cell_setting 'orthorhombic'
loop_
_space_group_symop_operation_xyz
x,y,z
1/2-x,-y,z
1/2+x,-y,-z
-x,y,-z
-x,-y,-z
1/2+x,y,-z
1/2-x,y,z
x,-y,z
loop_
_atom_site_type_symbol
_atom_site_label
_atom_site_fract_x
_atom_site_fract_y
_atom_site_fract_z
Si Si1 0.062332 0.345782 0.342368
Si Si2 0.937380 0.000000 0.340064
Si Si3 0.562487 0.092511 0.339522
Si Si4 0.563805 0.578376 0.158997
Si Si5 0.063102 0.829854 0.157716
Si Si6 0.063570 0.500000 0.340342
Si Si7 0.062517 0.751281 0.344431
O O1 0.250000 0.349075 0.341933
O O2 0.016773 0.297064 0.311179
O O3 0.000000 0.355767 0.500000
O O4 0.991294 0.377964 0.230230
O O5 0.984808 0.045825 0.280765
O O6 0.000000 0.000000 0.500000
O O7 0.750000 0.000000 0.343548
O O8 0.500000 0.095893 0.500000
O O9 0.750000 0.094870 0.342324
O O10 0.495877 0.130309 0.247203
O O11 0.750000 0.575985 0.157140
O O12 0.496695 0.540878 0.255929
O O13 0.500000 0.574594 0.000000
O O14 0.250000 0.830156 0.156129
O O15 0.009769 0.786523 0.233852
O O16 0.000000 0.831966 0.000000
O O17 0.250000 0.500000 0.343569
O O18 0.000000 0.500000 0.500000
O O19 0.250000 0.752084 0.349546
O O20 0.000000 0.761770 0.500000
#
# Coordination Sequence:
#
# PCOD9402051 Si02
#       7
#     8   4   8   8   8   4   8
#     4  10  20  38  61  88 118 152 191 234 280 334
#     4   8  16  30  51  78 107 136 174 220 270 322
#     4  10  19  34  56  82 109 141 179 224 272 328
#     4  12  25  42  62  89 122 158 195 238 288 341
#     4  11  23  38  54  78 110 147 186 230 280 334
#     4  12  25  44  67  92 120 156 198 242 287 338
#     4   9  20  37  59  84 112 145 187 232 279 331
#
# _framework density 18.692216999999999
#
# number of rings (size 3 to 8) (size 9 to 14) (size 15 to 20)
#    0.000    1.667    0.000    5.000    0.000    4.667 
#    0.000    2.083    0.000    0.000    0.000    0.000 
#    0.000    0.000    0.000    0.000    0.000    0.000 
#
# Total GULP energy -268145.402884 kJ/mol
# GULP energy per Si atom -5586.362560 kJ/mol
# Density = 1.864967 g / cm^3
# Si number density = 18.692217 Si / 1000 Ang^3
#
#
#
# Elastic Constant Matrix: (Units=GPa)
#
#
# Indices 1 2 3 4 5 6 
#
# 1 97.2899 53.6439 54.0144 0.0000 0.0000 0.0000
# 2 53.6439 147.2527 111.8394 0.0000 0.0000 0.0000
# 3 54.0144 111.8394 151.8804 0.0000 0.0000 0.0000
# 4 0.0000 0.0000 0.0000 -23.4410 0.0000 0.0000
# 5 0.0000 0.0000 0.0000 0.0000 34.5212 0.0000
# 6 0.0000 0.0000 0.0000 0.0000 0.0000 14.7248
#
#
#
# Elastic Compliance Matrix: (Units=1/GPa)
#
#
# Indices 1 2 3 4 5 6 
#
# 1 0.013313 -0.002845 -0.002639 0.000000 0.000000 0.000000
# 2 -0.002845 0.016017 -0.010782 0.000000 0.000000 0.000000
# 3 -0.002639 -0.010782 0.015463 0.000000 0.000000 0.000000
# 4 0.000000 0.000000 0.000000 -0.042660 0.000000 0.000000
# 5 0.000000 0.000000 0.000000 0.000000 0.028968 0.000000
# 6 0.000000 0.000000 0.000000 0.000000 0.000000 0.067913
#
#
# Mechanical properties :
#
#
# Convention : Reuss Voigt Hill
#
# Bulk Modulus (GPa) = 81.57811 92.82425 87.20118
# Shear Modulus (GPa) = 36.86445 16.95604 26.91025
#
# Velocity S-wave (km/s) = 4.44574 3.01511 3.79839
# Velocity P-wave (km/s) = 8.37200 7.86691 8.12338
#
# Compressibility (1/GPa) = 0.01225819
#
# Stress axis : x y z
#
# Youngs Moduli (GPa) = 75.11630 62.43452 64.67231
#
# Poissons Ratio (x) = 0.17763 0.17070
# Poissons Ratio (y) = 0.21371 0.69732
# Poissons Ratio (z) = 0.19827 0.67319
#
# Static dielectric constant tensor:
#      x y z
#    x 1.632020 0.000000 0.000000 
#    y 0.000000 1.669960 0.000000 
#    z 0.000000 0.000000 1.594900 
# 
# From -- ./inp_files/6127.got.cif
#   From: 2010.05.17/outbox.cif.g08.bks.cpg/sg51_4_cif.got.tgz:6127.got - 2010.06.03 11:52:47.
