data_PCOD9402792
_publ_section_title
;
Structure prediction by ZEFSAII (Michael W. Deem and Ramdas Pophale) SiO2 
 PCOD9402792
Probable space group: P M M A
;
_chemical_formula_sum "Si O2"
_cell_formula_units_Z 48
_cell_length_a 9.625867
_cell_length_b 14.170960
_cell_length_c 20.973603
_cell_angle_alpha 90.000000
_cell_angle_beta 90.000000
_cell_angle_gamma 90.000000
_cell_volume 2860.962545
_symmetry_space_group_name_H-M "P M M A"
_symmetry_group_IT_number 51
_symmetry_cell_setting 'orthorhombic'
loop_
_space_group_symop_operation_xyz
x,y,z
1/2-x,-y,z
1/2+x,-y,-z
-x,y,-z
-x,-y,-z
1/2+x,y,-z
1/2-x,y,z
x,-y,z
loop_
_atom_site_type_symbol
_atom_site_label
_atom_site_fract_x
_atom_site_fract_y
_atom_site_fract_z
Si Si1 0.096782 0.611816 0.445444
Si Si2 0.592120 0.604447 0.322662
Si Si3 0.587284 0.112432 0.436545
Si Si4 0.911269 0.884999 0.062083
Si Si5 0.412060 0.811649 0.702868
Si Si6 0.408970 0.886938 0.183468
O O1 0.250000 0.653939 0.443326
O O2 0.111815 0.500000 0.460162
O O3 0.000000 0.653628 0.500000
O O4 0.017904 0.614174 0.378909
O O5 0.750000 0.606776 0.349828
O O6 0.575160 0.500000 0.292926
O O7 0.579646 0.699658 0.282752
O O8 0.500000 0.133210 0.500000
O O9 0.750000 0.130343 0.449218
O O10 0.551406 0.167518 0.371247
O O11 0.570666 0.000000 0.423241
O O12 0.750000 0.854248 0.060552
O O13 0.994173 0.853406 0.125090
O O14 0.908466 0.000000 0.062598
O O15 0.000000 0.856957 0.000000
O O16 0.250000 0.841418 0.711009
O O17 0.514814 0.862994 0.750698
O O18 0.250000 0.851211 0.180637
O O19 0.401883 0.000000 0.177737
#
# Coordination Sequence:
#
# PCOD9402792 Si02
#       6
#     8   8   8   8   8   8
#     4   9  16  26  41  59  78 102 133 171 219 275
#     4   9  18  32  47  63  85 112 144 186 236 288
#     4   9  18  32  48  64  83 110 147 191 237 284
#     4   9  16  27  45  69  99 134 166 193 223 264
#     4  10  20  33  49  68  90 119 155 195 241 289
#     4  10  20  32  47  70  99 129 161 196 232 271
#
# _framework density 16.777570000000001
#
# number of rings (size 3 to 8) (size 9 to 14) (size 15 to 20)
#    0.000    2.667    0.000    2.000    0.000    7.667 
#    0.000    3.333    0.000    0.000    0.000    0.000 
#    0.000    0.667    0.000    1.833    0.000    2.667 
#
# Total GULP energy -267396.899302 kJ/mol
# GULP energy per Si atom -5570.768735 kJ/mol
# Density = 1.673938 g / cm^3
# Si number density = 16.777570 Si / 1000 Ang^3
#
#
#
# Elastic Constant Matrix: (Units=GPa)
#
#
# Indices 1 2 3 4 5 6 
#
# 1 119.4107 15.6070 55.9386 0.0000 0.0000 0.0000
# 2 15.6070 43.1768 11.0410 0.0000 0.0000 0.0000
# 3 55.9386 11.0410 86.7136 0.0000 0.0000 0.0000
# 4 0.0000 0.0000 0.0000 0.1942 0.0000 0.0000
# 5 0.0000 0.0000 0.0000 0.0000 21.6371 0.0000
# 6 0.0000 0.0000 0.0000 0.0000 0.0000 9.0696
#
#
#
# Elastic Compliance Matrix: (Units=1/GPa)
#
#
# Indices 1 2 3 4 5 6 
#
# 1 0.012255 -0.002489 -0.007588 0.000000 0.000000 0.000000
# 2 -0.002489 0.024446 -0.001507 0.000000 0.000000 0.000000
# 3 -0.007588 -0.001507 0.016619 0.000000 0.000000 0.000000
# 4 0.000000 0.000000 0.000000 5.150469 0.000000 0.000000
# 5 0.000000 0.000000 0.000000 0.000000 0.046217 0.000000
# 6 0.000000 0.000000 0.000000 0.000000 0.000000 0.110259
#
#
# Mechanical properties :
#
#
# Convention : Reuss Voigt Hill
#
# Bulk Modulus (GPa) = 33.16674 46.05269 39.60972
# Shear Modulus (GPa) = 0.92704 17.29448 9.11076
#
# Velocity S-wave (km/s) = 0.74414 3.21411 2.33283
# Velocity P-wave (km/s) = 4.53318 6.42515 5.56023
#
# Compressibility (1/GPa) = 0.03015069
#
# Stress axis : x y z
#
# Youngs Moduli (GPa) = 81.60158 40.90708 60.17071
#
# Poissons Ratio (x) = 0.10182 0.45661
# Poissons Ratio (y) = 0.20312 0.09067
# Poissons Ratio (z) = 0.61923 0.06164
#
# Static dielectric constant tensor:
#      x y z
#    x 1.588020 0.000000 0.000000 
#    y 0.000000 1.598590 0.000000 
#    z 0.000000 0.000000 1.540630 
# 
# From -- ./inp_files/27595.got.cif
#   From: 2010.05.17/outbox.cif.g08.bks.cpg/sg51_14_cif.got.tgz:27595.got - 2010.06.03 11:52:47.
