data_PCOD9402563
_publ_section_title
;
Structure prediction by ZEFSAII (Michael W. Deem and Ramdas Pophale) SiO2 
 PCOD9402563
Probable space group: P M M A
;
_chemical_formula_sum "Si O2"
_cell_formula_units_Z 64
_cell_length_a 9.375178
_cell_length_b 19.738558
_cell_length_c 18.805501
_cell_angle_alpha 90.000000
_cell_angle_beta 90.000000
_cell_angle_gamma 90.000000
_cell_volume 3480.004874
_symmetry_space_group_name_H-M "P M M A"
_symmetry_group_IT_number 51
_symmetry_cell_setting 'orthorhombic'
loop_
_space_group_symop_operation_xyz
x,y,z
1/2-x,-y,z
1/2+x,-y,-z
-x,y,-z
-x,-y,-z
1/2+x,y,-z
1/2-x,y,z
x,-y,z
loop_
_atom_site_type_symbol
_atom_site_label
_atom_site_fract_x
_atom_site_fract_y
_atom_site_fract_z
Si Si1 0.577321 0.224593 0.638192
Si Si2 0.578965 0.646654 0.427438
Si Si3 0.086147 0.422998 0.305906
Si Si4 0.907228 0.122946 0.064350
Si Si5 0.584797 0.291169 0.788607
Si Si6 0.410567 0.078535 0.192138
Si Si7 0.077757 0.925860 0.359093
Si Si8 0.090311 0.283519 0.933685
O O1 0.750000 0.232872 0.628237
O O2 0.488373 0.281025 0.596486
O O3 0.551896 0.239880 0.722687
O O4 0.534009 0.148593 0.614493
O O5 0.500000 0.627523 0.500000
O O6 0.750000 0.649602 0.433881
O O7 0.526583 0.595026 0.366733
O O8 0.250000 0.415509 0.333772
O O9 0.069761 0.500000 0.280928
O O10 0.071543 0.365789 0.245983
O O11 0.750000 0.092769 0.065576
O O12 0.895388 0.203185 0.052040
O O13 0.984002 0.114699 0.139379
O O14 0.000000 0.093768 0.000000
O O15 0.750000 0.279782 0.808506
O O16 0.488249 0.288053 0.858030
O O17 0.250000 0.106798 0.186679
O O18 0.451934 0.077893 0.274661
O O19 0.406059 0.000000 0.169991
O O20 0.250000 0.927543 0.366148
O O21 0.024601 0.000000 0.385466
O O22 0.250000 0.312358 0.930508
O O23 0.000000 0.312062 0.000000
#
# Coordination Sequence:
#
# PCOD9402563 Si02
#       8
#     8   8   8   8   8   8   8   8
#     4   9  17  31  52  77 105 137 173 213 259 310
#     4  11  22  36  55  80 111 144 178 213 249 293
#     4   9  19  37  59  83 112 144 175 205 242 293
#     4  10  20  31  42  57  79 110 149 193 244 298
#     4   9  17  30  51  77 103 134 169 207 253 303
#     4   9  17  29  44  61  82 111 148 189 236 294
#     4   8  14  26  47  73  97 124 161 205 253 305
#     4  10  20  32  47  68  94 125 163 210 259 305
#
# _framework density 18.390778999999998
#
# number of rings (size 3 to 8) (size 9 to 14) (size 15 to 20)
#    0.000    2.625    0.000    4.125    0.000    5.500 
#    0.000    0.625    0.000    1.875    0.000    0.000 
#    0.000    0.000    0.000    0.000    0.000    0.000 
#
# Total GULP energy -356550.477019 kJ/mol
# GULP energy per Si atom -5571.101203 kJ/mol
# Density = 1.834892 g / cm^3
# Si number density = 18.390779 Si / 1000 Ang^3
#
#
#
# Elastic Constant Matrix: (Units=GPa)
#
#
# Indices 1 2 3 4 5 6 
#
# 1 83.9894 3.2826 27.1214 0.0000 0.0000 0.0000
# 2 3.2826 86.4336 -11.4157 0.0000 0.0000 0.0000
# 3 27.1214 -11.4157 27.2212 0.0000 0.0000 0.0000
# 4 0.0000 0.0000 0.0000 7.8377 0.0000 0.0000
# 5 0.0000 0.0000 0.0000 0.0000 20.7160 0.0000
# 6 0.0000 0.0000 0.0000 0.0000 0.0000 16.6662
#
#
#
# Elastic Compliance Matrix: (Units=1/GPa)
#
#
# Indices 1 2 3 4 5 6 
#
# 1 0.018404 -0.003304 -0.019722 0.000000 0.000000 0.000000
# 2 -0.003304 0.012841 0.008677 0.000000 0.000000 0.000000
# 3 -0.019722 0.008677 0.060024 0.000000 0.000000 0.000000
# 4 0.000000 0.000000 0.000000 0.127588 0.000000 0.000000
# 5 0.000000 0.000000 0.000000 0.000000 0.048272 0.000000
# 6 0.000000 0.000000 0.000000 0.000000 0.000000 0.060002
#
#
# Mechanical properties :
#
#
# Convention : Reuss Voigt Hill
#
# Bulk Modulus (GPa) = 15.98171 26.18009 21.08090
# Shear Modulus (GPa) = 13.27365 20.95437 17.11401
#
# Velocity S-wave (km/s) = 2.68947 3.37915 3.05384
# Velocity P-wave (km/s) = 4.28407 5.43059 4.89104
#
# Compressibility (1/GPa) = 0.06257153
#
# Stress axis : x y z
#
# Youngs Moduli (GPa) = 54.33633 77.87545 16.65987
#
# Poissons Ratio (x) = 0.25728 0.32856
# Poissons Ratio (y) = 0.17951 -0.14455
# Poissons Ratio (z) = 1.07162 -0.67570
#
# Static dielectric constant tensor:
#      x y z
#    x 1.640570 0.000000 0.000000 
#    y 0.000000 1.671910 0.000000 
#    z 0.000000 0.000000 1.616710 
# 
# From -- ./inp_files/28494.got.cif
#   From: 2010.05.17/outbox.cif.g08.bks.cpg/sg51_15_cif.got.tgz:28494.got - 2010.06.03 11:52:47.
