data_PCOD9402689
_publ_section_title
;
Structure prediction by ZEFSAII (Michael W. Deem and Ramdas Pophale) SiO2 
 PCOD9402689
Probable space group: P M M A
;
_chemical_formula_sum "Si O2"
_cell_formula_units_Z 64
_cell_length_a 7.640336
_cell_length_b 14.364355
_cell_length_c 25.096692
_cell_angle_alpha 90.000000
_cell_angle_beta 90.000000
_cell_angle_gamma 90.000000
_cell_volume 2754.324267
_symmetry_space_group_name_H-M "P M M A"
_symmetry_group_IT_number 51
_symmetry_cell_setting 'orthorhombic'
loop_
_space_group_symop_operation_xyz
x,y,z
1/2-x,-y,z
1/2+x,-y,-z
-x,y,-z
-x,-y,-z
1/2+x,y,-z
1/2-x,y,z
x,-y,z
loop_
_atom_site_type_symbol
_atom_site_label
_atom_site_fract_x
_atom_site_fract_y
_atom_site_fract_z
Si Si1 0.451788 0.394465 0.898356
Si Si2 0.035248 0.895067 0.396838
Si Si3 0.540630 0.291169 0.557784
Si Si4 0.464240 0.890826 0.163927
Si Si5 0.053966 0.204908 0.059495
Si Si6 0.048083 0.113687 0.278761
Si Si7 0.451848 0.386758 0.220619
Si Si8 0.035738 0.391908 0.335681
O O1 0.250000 0.394994 0.914919
O O2 0.521784 0.500000 0.903190
O O3 0.545886 0.315720 0.932022
O O4 0.460480 0.367273 0.835778
O O5 0.250000 0.897020 0.395187
O O6 0.978654 0.815524 0.437253
O O7 0.974628 0.866199 0.337189
O O8 0.977623 0.000000 0.408588
O O9 0.500000 0.331663 0.500000
O O10 0.750000 0.291077 0.562265
O O11 0.474987 0.343024 0.610520
O O12 0.250000 0.883109 0.167224
O O13 0.534706 0.838863 0.111809
O O14 0.528225 0.855918 0.221933
O O15 0.504563 0.000000 0.158819
O O16 0.250000 0.170365 0.063401
O O17 0.000000 0.181070 0.000000
O O18 0.250000 0.146295 0.280573
O O19 0.051240 0.000000 0.276368
O O20 0.250000 0.356572 0.214800
O O21 0.452922 0.500000 0.225206
O O22 0.521393 0.352937 0.277861
O O23 0.250000 0.388026 0.333923
O O24 0.986180 0.500000 0.338831
#
# Coordination Sequence:
#
# PCOD9402689 Si02
#       8
#     8   8   8   8   8   8   8   8
#     4  10  21  37  56  78 106 137 167 206 257 308
#     4   8  14  25  42  65  92 120 151 192 241 288
#     4  10  20  32  46  65  91 125 166 206 242 285
#     4   8  15  29  50  77 106 132 160 201 254 306
#     4  11  23  37  54  76 104 139 179 218 252 294
#     4   7  10  20  41  69  97 120 148 191 239 288
#     4   8  14  28  52  79 102 124 156 198 245 301
#     4   8  15  29  49  72  97 124 156 198 245 292
#
# _framework density 23.236189
#
# number of rings (size 3 to 8) (size 9 to 14) (size 15 to 20)
#    0.000    3.250    0.000    3.000    0.000    2.750 
#    0.000    4.375    0.000    1.875    0.000    0.000 
#    0.000    6.000    0.000    0.000    0.000    0.000 
#
# Total GULP energy -356990.531954 kJ/mol
# GULP energy per Si atom -5577.977062 kJ/mol
# Density = 2.318330 g / cm^3
# Si number density = 23.236189 Si / 1000 Ang^3
#
#
#
# Elastic Constant Matrix: (Units=GPa)
#
#
# Indices 1 2 3 4 5 6 
#
# 1 37.4641 -5.4049 0.4243 0.0000 0.0000 0.0000
# 2 -5.4049 46.6742 22.1373 0.0000 0.0000 0.0000
# 3 0.4243 22.1373 86.9756 0.0000 0.0000 0.0000
# 4 0.0000 0.0000 0.0000 24.6007 0.0000 0.0000
# 5 0.0000 0.0000 0.0000 0.0000 18.0421 0.0000
# 6 0.0000 0.0000 0.0000 0.0000 0.0000 -4.4175
#
#
#
# Elastic Compliance Matrix: (Units=1/GPa)
#
#
# Indices 1 2 3 4 5 6 
#
# 1 0.027232 0.003658 -0.001064 0.000000 0.000000 0.000000
# 2 0.003658 0.024858 -0.006345 0.000000 0.000000 0.000000
# 3 -0.001064 -0.006345 0.013118 0.000000 0.000000 0.000000
# 4 0.000000 0.000000 0.000000 0.040649 0.000000 0.000000
# 5 0.000000 0.000000 0.000000 0.000000 0.055426 0.000000
# 6 0.000000 0.000000 0.000000 0.000000 0.000000 -0.226373
#
#
# Mechanical properties :
#
#
# Convention : Reuss Voigt Hill
#
# Bulk Modulus (GPa) = 17.32912 22.82526 20.07719
# Shear Modulus (GPa) = -130.36663 17.90889 -56.22887
#
# Velocity S-wave (km/s) = -7.49845 2.77922 -4.92457
# Velocity P-wave (km/s) = 8.21554 4.48812 4.86579
#
# Compressibility (1/GPa) = 0.05770632
#
# Stress axis : x y z
#
# Youngs Moduli (GPa) = 36.72152 40.22851 76.23368
#
# Poissons Ratio (x) = -0.14716 0.08111
# Poissons Ratio (y) = -0.13433 0.48369
# Poissons Ratio (z) = 0.03907 0.25524
#
# Static dielectric constant tensor:
#      x y z
#    x 1.925470 0.000000 0.000000 
#    y 0.000000 1.888750 0.000000 
#    z 0.000000 0.000000 1.903350 
# 
# From -- ./inp_files/35031.got.cif
#   From: 2010.05.17/outbox.cif.g08.bks.cpg/sg51_18_cif.got.tgz:35031.got - 2010.06.03 11:52:47.
