data_PCOD9402893
_publ_section_title
;
Structure prediction by ZEFSAII (Michael W. Deem and Ramdas Pophale) SiO2 
 PCOD9402893
Probable space group: P M M A
;
_chemical_formula_sum "Si O2"
_cell_formula_units_Z 48
_cell_length_a 8.060263
_cell_length_b 9.720137
_cell_length_c 32.371932
_cell_angle_alpha 90.000000
_cell_angle_beta 90.000000
_cell_angle_gamma 90.000000
_cell_volume 2536.239244
_symmetry_space_group_name_H-M "P M M A"
_symmetry_group_IT_number 51
_symmetry_cell_setting 'orthorhombic'
loop_
_space_group_symop_operation_xyz
x,y,z
1/2-x,-y,z
1/2+x,-y,-z
-x,y,-z
-x,-y,-z
1/2+x,y,-z
1/2-x,y,z
x,-y,z
loop_
_atom_site_type_symbol
_atom_site_label
_atom_site_fract_x
_atom_site_fract_y
_atom_site_fract_z
Si Si1 0.941991 0.167460 0.210832
Si Si2 0.546339 0.159371 0.301254
Si Si3 0.050614 0.656252 0.622359
Si Si4 0.948230 0.156600 0.546451
Si Si5 0.947778 0.656757 0.954937
Si Si6 0.450226 0.842735 0.878568
O O1 0.750000 0.214164 0.211291
O O2 0.013543 0.204637 0.255587
O O3 0.014695 0.208123 0.166363
O O4 0.940186 0.000000 0.210285
O O5 0.750000 0.160578 0.300157
O O6 0.489782 0.257079 0.338121
O O7 0.498500 0.000000 0.308391
O O8 0.250000 0.650042 0.625980
O O9 0.986924 0.500000 0.621437
O O10 0.010971 0.739185 0.580868
O O11 0.750000 0.153889 0.548257
O O12 0.000000 0.195079 0.500000
O O13 0.010530 0.000000 0.554167
O O14 0.750000 0.651572 0.954068
O O15 0.013619 0.500000 0.951414
O O16 0.005534 0.748260 0.916894
O O17 0.000000 0.710871 0.000000
O O18 0.250000 0.847201 0.875230
O O19 0.507934 0.000000 0.885107
#
# Coordination Sequence:
#
# PCOD9402893 Si02
#       6
#     8   8   8   8   8   8
#     4   7  11  22  42  69  98 126 158 197 239 281
#     4   8  13  24  45  70  96 129 167 204 239 276
#     4  10  20  32  48  74 107 138 166 199 242 290
#     4  10  21  37  57  78  98 124 162 206 249 294
#     4  10  21  36  52  69  92 125 164 203 243 290
#     4   9  17  30  50  76 103 128 157 197 244 292
#
# _framework density 18.925657999999999
#
# number of rings (size 3 to 8) (size 9 to 14) (size 15 to 20)
#    0.000    3.000    0.000    3.500    0.000    4.000 
#    0.000    0.833    0.000    4.000    0.000    2.333 
#    0.000    0.000    0.000    0.000    0.000    0.000 
#
# Total GULP energy -267467.625861 kJ/mol
# GULP energy per Si atom -5572.242205 kJ/mol
# Density = 1.888258 g / cm^3
# Si number density = 18.925658 Si / 1000 Ang^3
#
#
#
# Elastic Constant Matrix: (Units=GPa)
#
#
# Indices 1 2 3 4 5 6 
#
# 1 14.5444 9.5850 9.3314 0.0000 0.0000 0.0000
# 2 9.5850 94.7423 114.1603 0.0000 0.0000 0.0000
# 3 9.3314 114.1603 220.1584 0.0000 0.0000 0.0000
# 4 0.0000 0.0000 0.0000 -10.8538 0.0000 0.0000
# 5 0.0000 0.0000 0.0000 0.0000 17.4989 0.0000
# 6 0.0000 0.0000 0.0000 0.0000 0.0000 15.3568
#
#
#
# Elastic Compliance Matrix: (Units=1/GPa)
#
#
# Indices 1 2 3 4 5 6 
#
# 1 0.073991 -0.009880 0.001987 0.000000 0.000000 0.000000
# 2 -0.009880 0.029452 -0.014853 0.000000 0.000000 0.000000
# 3 0.001987 -0.014853 0.012160 0.000000 0.000000 0.000000
# 4 0.000000 0.000000 0.000000 -0.092133 0.000000 0.000000
# 5 0.000000 0.000000 0.000000 0.000000 0.057146 0.000000
# 6 0.000000 0.000000 0.000000 0.000000 0.000000 0.065118
#
#
# Mechanical properties :
#
#
# Convention : Reuss Voigt Hill
#
# Bulk Modulus (GPa) = 14.26313 66.17762 40.22038
# Shear Modulus (GPa) = 23.29964 17.49160 20.39562
#
# Velocity S-wave (km/s) = 3.51253 3.04341 3.28635
# Velocity P-wave (km/s) = 4.89931 6.88424 5.97478
#
# Compressibility (1/GPa) = 0.07011082
#
# Stress axis : x y z
#
# Youngs Moduli (GPa) = 13.51516 33.95377 82.23777
#
# Poissons Ratio (x) = 0.33545 -0.16340
# Poissons Ratio (y) = 0.13353 1.22149
# Poissons Ratio (z) = -0.02685 0.50432
#
# Static dielectric constant tensor:
#      x y z
#    x 1.690830 0.000000 0.000000 
#    y 0.000000 1.645140 0.000000 
#    z 0.000000 0.000000 1.674370 
# 
# From -- ./inp_files/36118.got.cif
#   From: 2010.05.17/outbox.cif.g08.bks.cpg/sg51_19_cif.got.tgz:36118.got - 2010.06.03 11:52:47.
