data_PCOD9402229
_publ_section_title
;
Structure prediction by ZEFSAII (Michael W. Deem and Ramdas Pophale) SiO2 
 PCOD9402229
Probable space group: P M M A
;
_chemical_formula_sum "Si O2"
_cell_formula_units_Z 48
_cell_length_a 29.140468
_cell_length_b 8.084578
_cell_length_c 10.515436
_cell_angle_alpha 90.000000
_cell_angle_beta 90.000000
_cell_angle_gamma 90.000000
_cell_volume 2477.314601
_symmetry_space_group_name_H-M "P M M A"
_symmetry_group_IT_number 51
_symmetry_cell_setting 'orthorhombic'
loop_
_space_group_symop_operation_xyz
x,y,z
1/2-x,-y,z
1/2+x,-y,-z
-x,y,-z
-x,-y,-z
1/2+x,y,-z
1/2-x,y,z
x,-y,z
loop_
_atom_site_type_symbol
_atom_site_label
_atom_site_fract_x
_atom_site_fract_y
_atom_site_fract_z
Si Si1 0.250000 0.702608 0.413710
Si Si2 0.995260 0.202158 0.148420
Si Si3 0.153321 0.801179 0.014221
Si Si4 0.750000 0.697263 0.880770
Si Si5 0.907893 0.199908 0.749198
Si Si6 0.649670 0.303099 0.503201
Si Si7 0.604520 0.800315 0.239104
O O1 0.250000 0.500000 0.415699
O O2 0.250000 0.756193 0.265856
O O3 0.202104 0.759363 0.476686
O O4 0.039751 0.254869 0.228694
O O5 0.947447 0.256943 0.210604
O O6 0.994934 0.000000 0.146845
O O7 0.000000 0.252451 0.000000
O O8 0.204847 0.755715 0.047523
O O9 0.121107 0.740702 0.128937
O O10 0.149343 0.000000 0.012751
O O11 0.135616 0.740271 0.878463
O O12 0.750000 0.500000 0.876183
O O13 0.882129 0.252657 0.621887
O O14 0.908111 0.000000 0.750663
O O15 0.652564 0.500000 0.502742
O O16 0.626145 0.248272 0.372817
O O17 0.603372 0.000000 0.235500
#
# Coordination Sequence:
#
# PCOD9402229 Si02
#       7
#     4   8   8   4   8   8   8
#     4   9  20  38  57  76 104 150 195 229 270 331
#     4   9  16  32  60  88 113 147 188 232 283 340
#     4  10  20  35  58  88 116 140 182 242 288 325
#     4  11  21  36  59  84 112 150 193 231 280 343
#     4  10  19  34  60  89 112 144 189 234 284 335
#     4  11  23  40  58  80 116 155 194 234 281 340
#     4  10  21  38  59  86 118 148 186 234 285 338
#
# _framework density 19.375819
#
# number of rings (size 3 to 8) (size 9 to 14) (size 15 to 20)
#    0.000    2.000    3.333    0.750    0.000    2.000 
#    0.000    7.500    0.000    1.000    0.000    0.000 
#    0.000    0.000    0.000    0.000    0.000    0.000 
#
# Total GULP energy -267968.857143 kJ/mol
# GULP energy per Si atom -5582.684524 kJ/mol
# Density = 1.933172 g / cm^3
# Si number density = 19.375819 Si / 1000 Ang^3
#
#
#
# Elastic Constant Matrix: (Units=GPa)
#
#
# Indices 1 2 3 4 5 6 
#
# 1 224.3512 16.2145 125.3099 0.0000 0.0000 0.0000
# 2 16.2145 11.8977 16.2182 0.0000 0.0000 0.0000
# 3 125.3099 16.2182 189.8973 0.0000 0.0000 0.0000
# 4 0.0000 0.0000 0.0000 -6.2899 0.0000 0.0000
# 5 0.0000 0.0000 0.0000 0.0000 29.7580 0.0000
# 6 0.0000 0.0000 0.0000 0.0000 0.0000 0.6404
#
#
#
# Elastic Compliance Matrix: (Units=1/GPa)
#
#
# Indices 1 2 3 4 5 6 
#
# 1 0.007206 -0.003779 -0.004432 0.000000 0.000000 0.000000
# 2 -0.003779 0.097105 -0.005800 0.000000 0.000000 0.000000
# 3 -0.004432 -0.005800 0.008686 0.000000 0.000000 0.000000
# 4 0.000000 0.000000 0.000000 -0.158984 0.000000 0.000000
# 5 0.000000 0.000000 0.000000 0.000000 0.033604 0.000000
# 6 0.000000 0.000000 0.000000 0.000000 0.000000 1.561420
#
#
# Mechanical properties :
#
#
# Convention : Reuss Voigt Hill
#
# Bulk Modulus (GPa) = 11.76806 82.40347 47.08577
# Shear Modulus (GPa) = 3.11452 22.71527 12.91489
#
# Velocity S-wave (km/s) = 1.26922 3.42768 2.58456
# Velocity P-wave (km/s) = 2.86961 7.63457 5.76720
#
# Compressibility (1/GPa) = 0.08497578
#
# Stress axis : x y z
#
# Youngs Moduli (GPa) = 138.77092 10.29810 115.12430
#
# Poissons Ratio (x) = 0.03891 0.51029
# Poissons Ratio (y) = 0.52436 0.66771
# Poissons Ratio (z) = 0.61510 0.05973
#
# Static dielectric constant tensor:
#      x y z
#    x 1.671280 0.000000 0.000000 
#    y 0.000000 1.697210 0.000000 
#    z 0.000000 0.000000 1.647050 
# 
# From -- ./inp_files/12985.got.cif
#   From: 2010.05.17/outbox.cif.g08.bks.cpg/sg51_7_cif.got.tgz:12985.got - 2010.06.03 11:52:47.
