data_PCOD9402301
_publ_section_title
;
Structure prediction by ZEFSAII (Michael W. Deem and Ramdas Pophale) SiO2 
 PCOD9402301
Probable space group: P M M A
;
_chemical_formula_sum "Si O2"
_cell_formula_units_Z 48
_cell_length_a 8.612829
_cell_length_b 21.077194
_cell_length_c 14.920778
_cell_angle_alpha 90.000000
_cell_angle_beta 90.000000
_cell_angle_gamma 90.000000
_cell_volume 2708.632508
_symmetry_space_group_name_H-M "P M M A"
_symmetry_group_IT_number 51
_symmetry_cell_setting 'orthorhombic'
loop_
_space_group_symop_operation_xyz
x,y,z
1/2-x,-y,z
1/2+x,-y,-z
-x,y,-z
-x,-y,-z
1/2+x,y,-z
1/2-x,y,z
x,-y,z
loop_
_atom_site_type_symbol
_atom_site_label
_atom_site_fract_x
_atom_site_fract_y
_atom_site_fract_z
Si Si1 0.562218 0.071004 0.709567
Si Si2 0.061762 0.691548 0.286064
Si Si3 0.565037 0.190087 0.399466
Si Si4 0.063267 0.737999 0.094478
Si Si5 0.436456 0.886243 0.094552
Si Si6 0.437506 0.427871 0.401010
O O1 0.750000 0.077718 0.706022
O O2 0.488777 0.126115 0.650433
O O3 0.515597 0.079729 0.813860
O O4 0.521663 0.000000 0.679471
O O5 0.250000 0.694030 0.287616
O O6 0.011696 0.701193 0.183247
O O7 0.011906 0.625524 0.330866
O O8 0.000444 0.750172 0.344260
O O9 0.500000 0.191354 0.500000
O O10 0.750000 0.193276 0.401763
O O11 0.250000 0.736982 0.091604
O O12 0.015671 0.812115 0.103078
O O13 0.000000 0.713719 0.000000
O O14 0.250000 0.888612 0.090251
O O15 0.500000 0.910973 0.000000
O O16 0.500000 0.412528 0.500000
O O17 0.250000 0.427063 0.404219
O O18 0.486679 0.500000 0.378982
#
# Coordination Sequence:
#
# PCOD9402301 Si02
#       6
#     8   8   8   8   8   8
#     4  10  21  39  59  77 103 139 176 217 267 318
#     4  10  19  35  57  80 109 141 177 219 263 309
#     4  12  25  39  57  79 105 135 175 221 266 315
#     4   9  17  30  50  75 105 137 171 215 261 308
#     4   9  17  31  51  76 105 135 170 211 261 313
#     4   9  18  32  52  79 110 143 177 214 260 313
#
# _framework density 17.721119000000002
#
# number of rings (size 3 to 8) (size 9 to 14) (size 15 to 20)
#    0.000    2.167    1.667    2.000    0.000    4.333 
#    0.000    0.000    0.000    0.500    0.000    0.000 
#    0.000    0.000    0.000    0.000    0.000    0.000 
#
# Total GULP energy -267888.761494 kJ/mol
# GULP energy per Si atom -5581.015864 kJ/mol
# Density = 1.768079 g / cm^3
# Si number density = 17.721119 Si / 1000 Ang^3
#
#
#
# Elastic Constant Matrix: (Units=GPa)
#
#
# Indices 1 2 3 4 5 6 
#
# 1 14.9099 24.1877 26.3192 0.0000 0.0000 0.0000
# 2 24.1877 107.7936 78.0556 0.0000 0.0000 0.0000
# 3 26.3192 78.0556 151.9304 0.0000 0.0000 0.0000
# 4 0.0000 0.0000 0.0000 12.2030 0.0000 0.0000
# 5 0.0000 0.0000 0.0000 0.0000 31.2723 0.0000
# 6 0.0000 0.0000 0.0000 0.0000 0.0000 38.3908
#
#
#
# Elastic Compliance Matrix: (Units=1/GPa)
#
#
# Indices 1 2 3 4 5 6 
#
# 1 0.115340 -0.018174 -0.010644 0.000000 0.000000 0.000000
# 2 -0.018174 0.017636 -0.005913 0.000000 0.000000 0.000000
# 3 -0.010644 -0.005913 0.011463 0.000000 0.000000 0.000000
# 4 0.000000 0.000000 0.000000 0.081947 0.000000 0.000000
# 5 0.000000 0.000000 0.000000 0.000000 0.031977 0.000000
# 6 0.000000 0.000000 0.000000 0.000000 0.000000 0.026048
#
#
# Mechanical properties :
#
#
# Convention : Reuss Voigt Hill
#
# Bulk Modulus (GPa) = 13.33689 59.08433 36.21061
# Shear Modulus (GPa) = 13.19728 26.11132 19.65430
#
# Velocity S-wave (km/s) = 2.73192 3.84273 3.33391
# Velocity P-wave (km/s) = 4.18252 7.28713 5.94120
#
# Compressibility (1/GPa) = 0.07497998
#
# Stress axis : x y z
#
# Youngs Moduli (GPa) = 8.67000 56.70082 87.23399
#
# Poissons Ratio (x) = 1.03047 0.92849
# Poissons Ratio (y) = 0.15757 0.51578
# Poissons Ratio (z) = 0.09228 0.33525
#
# Static dielectric constant tensor:
#      x y z
#    x 1.601820 0.000000 0.000000 
#    y 0.000000 1.601390 0.000000 
#    z 0.000000 0.000000 1.595170 
# 
# From -- ./inp_files/14443.got.cif
#   From: 2010.05.17/outbox.cif.g08.bks.cpg/sg51_8_cif.got.tgz:14443.got - 2010.06.03 11:52:47.
