data_PCOD9402468
_publ_section_title
;
Structure prediction by ZEFSAII (Michael W. Deem and Ramdas Pophale) SiO2 
 PCOD9402468
Probable space group: P M M A
;
_chemical_formula_sum "Si O2"
_cell_formula_units_Z 48
_cell_length_a 7.787959
_cell_length_b 15.678140
_cell_length_c 19.547254
_cell_angle_alpha 90.000000
_cell_angle_beta 90.000000
_cell_angle_gamma 90.000000
_cell_volume 2386.733622
_symmetry_space_group_name_H-M "P M M A"
_symmetry_group_IT_number 51
_symmetry_cell_setting 'orthorhombic'
loop_
_space_group_symop_operation_xyz
x,y,z
1/2-x,-y,z
1/2+x,-y,-z
-x,y,-z
-x,-y,-z
1/2+x,y,-z
1/2-x,y,z
x,-y,z
loop_
_atom_site_type_symbol
_atom_site_label
_atom_site_fract_x
_atom_site_fract_y
_atom_site_fract_z
Si Si1 0.543310 0.000000 0.920562
Si Si2 0.459984 0.902960 0.325059
Si Si3 0.456589 0.500000 0.920471
Si Si4 0.956926 0.250169 0.579486
Si Si5 0.957260 0.845462 0.826701
Si Si6 0.046363 0.595657 0.328376
Si Si7 0.046099 0.348748 0.823732
O O1 0.480724 0.084441 0.880980
O O2 0.750000 0.000000 0.914645
O O3 0.500000 0.000000 0.000000
O O4 0.250000 0.903361 0.325006
O O5 0.518093 0.834666 0.381187
O O6 0.514187 0.872092 0.249590
O O7 0.515876 0.000000 0.337432
O O8 0.250000 0.500000 0.916380
O O9 0.519422 0.583656 0.879689
O O10 0.500000 0.500000 0.000000
O O11 0.750000 0.250459 0.585876
O O12 0.023794 0.333794 0.619334
O O13 0.000000 0.250554 0.500000
O O14 0.750000 0.848059 0.826123
O O15 0.008644 0.748870 0.841944
O O16 0.250000 0.589828 0.341464
O O17 0.973554 0.500000 0.334433
O O18 0.025875 0.628988 0.251048
O O19 0.250000 0.359338 0.818578
#
# Coordination Sequence:
#
# PCOD9402468 Si02
#       7
#     4   8   4   8   8   8   8
#     4  10  22  38  60  86 119 154 190 237 292 343
#     4   9  16  31  57  82 105 140 189 234 270 323
#     4  10  24  42  58  82 117 152 187 230 285 338
#     4  10  21  36  54  81 115 147 184 231 280 333
#     4  10  19  36  61  86 109 149 199 234 275 340
#     4  10  20  36  60  85 108 145 195 234 272 338
#     4  11  22  37  58  87 119 148 184 238 292 336
#
# _framework density 20.111167999999999
#
# number of rings (size 3 to 8) (size 9 to 14) (size 15 to 20)
#    0.000    2.000    3.333    0.500    0.000    4.000 
#    0.000    3.333    0.000    1.000    0.000    0.000 
#    0.000    0.000    0.000    0.000    0.000    0.000 
#
# Total GULP energy -268077.305608 kJ/mol
# GULP energy per Si atom -5584.943867 kJ/mol
# Density = 2.006539 g / cm^3
# Si number density = 20.111168 Si / 1000 Ang^3
#
#
#
# Elastic Constant Matrix: (Units=GPa)
#
#
# Indices 1 2 3 4 5 6 
#
# 1 24.4515 5.1999 -3.3907 0.0000 0.0000 0.0000
# 2 5.1999 232.8851 118.1213 0.0000 0.0000 0.0000
# 3 -3.3907 118.1213 182.7126 0.0000 0.0000 0.0000
# 4 0.0000 0.0000 0.0000 35.7339 0.0000 0.0000
# 5 0.0000 0.0000 0.0000 0.0000 26.6372 0.0000
# 6 0.0000 0.0000 0.0000 0.0000 0.0000 4.8707
#
#
#
# Elastic Compliance Matrix: (Units=1/GPa)
#
#
# Indices 1 2 3 4 5 6 
#
# 1 0.041598 -0.001965 0.002042 0.000000 0.000000 0.000000
# 2 -0.001965 0.006482 -0.004227 0.000000 0.000000 0.000000
# 3 0.002042 -0.004227 0.008244 0.000000 0.000000 0.000000
# 4 0.000000 0.000000 0.000000 0.027985 0.000000 0.000000
# 5 0.000000 0.000000 0.000000 0.000000 0.037542 0.000000
# 6 0.000000 0.000000 0.000000 0.000000 0.000000 0.205307
#
#
# Mechanical properties :
#
#
# Convention : Reuss Voigt Hill
#
# Bulk Modulus (GPa) = 20.82254 75.54557 48.18406
# Shear Modulus (GPa) = 14.22621 34.78960 24.50790
#
# Velocity S-wave (km/s) = 2.66254 4.16368 3.49466
# Velocity P-wave (km/s) = 4.45291 7.79490 6.34779
#
# Compressibility (1/GPa) = 0.04802488
#
# Stress axis : x y z
#
# Youngs Moduli (GPa) = 24.03946 154.28073 121.30717
#
# Poissons Ratio (x) = 0.30309 -0.24771
# Poissons Ratio (y) = 0.04723 0.51274
# Poissons Ratio (z) = -0.04909 0.65211
#
# Static dielectric constant tensor:
#      x y z
#    x 1.746250 0.000000 0.000000 
#    y 0.000000 1.717020 0.000000 
#    z 0.000000 0.000000 1.660680 
# 
# From -- ./inp_files/27604.got.cif
#   From: 2010.05.17/outbox.cif.g08.bks.cpg/sg51_14_cif.got.tgz:27604.got - 2010.06.03 11:52:47.
