data_PCOD9402190
_publ_section_title
;
Structure prediction by ZEFSAII (Michael W. Deem and Ramdas Pophale) SiO2 
 PCOD9402190
Probable space group: P M M A
;
_chemical_formula_sum "Si O2"
_cell_formula_units_Z 58
_cell_length_a 14.615194
_cell_length_b 14.699988
_cell_length_c 11.800573
_cell_angle_alpha 90.000000
_cell_angle_beta 90.000000
_cell_angle_gamma 90.000000
_cell_volume 2535.272587
_symmetry_space_group_name_H-M "P M M A"
_symmetry_group_IT_number 51
_symmetry_cell_setting 'orthorhombic'
loop_
_space_group_symop_operation_xyz
x,y,z
1/2-x,-y,z
1/2+x,-y,-z
-x,y,-z
-x,-y,-z
1/2+x,y,-z
1/2-x,y,z
x,-y,z
loop_
_atom_site_type_symbol
_atom_site_label
_atom_site_fract_x
_atom_site_fract_y
_atom_site_fract_z
Si Si1 0.097643 0.726577 0.546114
Si Si2 0.105369 0.636081 0.216116
Si Si3 0.898014 0.900306 0.050453
Si Si4 0.043621 0.097919 0.689291
Si Si5 0.851522 0.823024 0.681117
Si Si6 0.610268 0.395276 0.249370
Si Si7 0.388569 0.699153 0.984855
Si Si8 0.250000 0.500000 0.306703
O O1 0.148400 0.768507 0.438432
O O2 0.137976 0.653668 0.633324
O O3 0.000000 0.690020 0.500000
O O4 0.075593 0.815577 0.620064
O O5 0.117646 0.743237 0.234686
O O6 0.170602 0.578838 0.295796
O O7 0.000921 0.609969 0.239662
O O8 0.136488 0.628901 0.085055
O O9 0.856423 0.804364 0.010355
O O10 0.914190 0.894967 0.185653
O O11 0.856170 0.000000 0.024257
O O12 0.000000 0.902894 0.000000
O O13 0.933361 0.105329 0.688296
O O14 0.070861 0.000000 0.640230
O O15 0.750000 0.857309 0.704763
O O16 0.638237 0.500000 0.246843
O O17 0.638749 0.340890 0.136778
O O18 0.500000 0.703071 0.000000
#
# Coordination Sequence:
#
# PCOD9402190 Si02
#       8
#     8   8   8   8   8   8   8   2
#     4  10  20  36  55  80 111 145 190 239 286 337
#     4  11  21  36  55  81 111 147 184 235 280 342
#     4   9  15  27  52  85 113 139 171 220 281 335
#     4  10  19  34  58  87 115 142 185 239 289 339
#     4  11  22  38  55  76 115 151 186 233 287 346
#     4  11  20  34  57  84 107 140 188 245 289 324
#     4   9  18  31  54  81 113 136 172 227 281 329
#     4  12  24  36  54  82 120 156 200 212 290 358
#
# _framework density 22.877223999999998
#
# number of rings (size 3 to 8) (size 9 to 14) (size 15 to 20)
#    0.000    1.793    5.517    1.655    0.966    3.862 
#    1.241    0.000    1.517    0.000    0.000    0.000 
#    0.000    0.000    0.000    0.000    0.000    0.000 
#
# Total GULP energy -323257.727917 kJ/mol
# GULP energy per Si atom -5573.409102 kJ/mol
# Density = 2.282515 g / cm^3
# Si number density = 22.877224 Si / 1000 Ang^3
#
#
#
# Elastic Constant Matrix: (Units=GPa)
#
#
# Indices 1 2 3 4 5 6 
#
# 1 72.3939 -5.2708 -21.5101 0.0000 0.0000 0.0000
# 2 -5.2708 137.3702 15.5700 0.0000 0.0000 0.0000
# 3 -21.5101 15.5700 62.0181 0.0000 0.0000 0.0000
# 4 0.0000 0.0000 0.0000 2.7765 0.0000 0.0000
# 5 0.0000 0.0000 0.0000 0.0000 -14.7463 0.0000
# 6 0.0000 0.0000 0.0000 0.0000 0.0000 93.9799
#
#
#
# Elastic Compliance Matrix: (Units=1/GPa)
#
#
# Indices 1 2 3 4 5 6 
#
# 1 0.015400 -0.000015 0.005345 0.000000 0.000000 0.000000
# 2 -0.000015 0.007493 -0.001886 0.000000 0.000000 0.000000
# 3 0.005345 -0.001886 0.018452 0.000000 0.000000 0.000000
# 4 0.000000 0.000000 0.000000 0.360160 0.000000 0.000000
# 5 0.000000 0.000000 0.000000 0.000000 -0.067814 0.000000
# 6 0.000000 0.000000 0.000000 0.000000 0.000000 0.010641
#
#
# Mechanical properties :
#
#
# Convention : Reuss Voigt Hill
#
# Bulk Modulus (GPa) = 20.73274 27.70671 24.21973
# Shear Modulus (GPa) = 14.14339 35.26824 24.70582
#
# Velocity S-wave (km/s) = 2.48912 3.93062 3.28980
# Velocity P-wave (km/s) = 4.16452 5.72163 5.00401
#
# Compressibility (1/GPa) = 0.04823289
#
# Stress axis : x y z
#
# Youngs Moduli (GPa) = 64.93331 133.46101 54.19532
#
# Poissons Ratio (x) = 0.00199 -0.28968
# Poissons Ratio (y) = 0.00097 0.10223
# Poissons Ratio (z) = -0.34708 0.25175
#
# Static dielectric constant tensor:
#      x y z
#    x 1.825210 0.000000 0.000000 
#    y 0.000000 1.854880 0.000000 
#    z 0.000000 0.000000 1.949090 
# 
# From -- ./inp_files/17483.got.cif
#   From: 2010.05.17/outbox.cif.g08.bks.cpg/sg51_9_cif.got.tgz:17483.got - 2010.06.03 11:52:47.
