data_PCOD9402872
_publ_section_title
;
Structure prediction by ZEFSAII (Michael W. Deem and Ramdas Pophale) SiO2 
 PCOD9402872
Probable space group: P M M A
;
_chemical_formula_sum "Si O2"
_cell_formula_units_Z 48
_cell_length_a 18.599170
_cell_length_b 9.150910
_cell_length_c 16.784886
_cell_angle_alpha 90.000000
_cell_angle_beta 90.000000
_cell_angle_gamma 90.000000
_cell_volume 2856.776364
_symmetry_space_group_name_H-M "P M M A"
_symmetry_group_IT_number 51
_symmetry_cell_setting 'orthorhombic'
loop_
_space_group_symop_operation_xyz
x,y,z
1/2-x,-y,z
1/2+x,-y,-z
-x,y,-z
-x,-y,-z
1/2+x,y,-z
1/2-x,y,z
x,-y,z
loop_
_atom_site_type_symbol
_atom_site_label
_atom_site_fract_x
_atom_site_fract_y
_atom_site_fract_z
Si Si1 0.667214 0.676014 0.155486
Si Si2 0.046688 0.172458 0.745270
Si Si3 0.033813 0.175862 0.414743
Si Si4 0.607913 0.172842 0.820125
Si Si5 0.163386 0.328908 0.025116
Si Si6 0.167438 0.674724 0.335777
O O1 0.750000 0.721817 0.168237
O O2 0.665670 0.500000 0.157757
O O3 0.613187 0.741047 0.219290
O O4 0.645393 0.718247 0.065077
O O5 0.021266 0.214514 0.656505
O O6 0.975953 0.195688 0.799568
O O7 0.062925 0.000000 0.745130
O O8 0.108685 0.254635 0.394485
O O9 0.000000 0.211933 0.500000
O O10 0.045071 0.000000 0.410573
O O11 0.627881 0.234452 0.906084
O O12 0.651620 0.257082 0.751264
O O13 0.622744 0.000000 0.814434
O O14 0.250000 0.319748 0.032252
O O15 0.143838 0.500000 0.034731
O O16 0.250000 0.705856 0.358339
O O17 0.157971 0.500000 0.332328
#
# Coordination Sequence:
#
# PCOD9402872 Si02
#       6
#     8   8   8   8   8   8
#     4   9  19  35  52  70  95 130 170 208 246 291
#     4   9  19  34  51  73  98 125 160 202 247 295
#     4   9  19  37  58  78 102 132 166 204 248 301
#     4  10  20  32  48  73 103 133 167 206 248 296
#     4   9  18  32  48  68  97 132 170 209 246 287
#     4  10  20  33  51  77 107 136 167 204 247 297
#
# _framework density 16.802154000000002
#
# number of rings (size 3 to 8) (size 9 to 14) (size 15 to 20)
#    0.000    2.667    0.000    3.500    0.000    9.000 
#    0.000    5.833    0.000    5.000    0.000    0.000 
#    0.000    0.000    0.000    0.000    0.000    0.000 
#
# Total GULP energy -267700.904597 kJ/mol
# GULP energy per Si atom -5577.102179 kJ/mol
# Density = 1.676391 g / cm^3
# Si number density = 16.802154 Si / 1000 Ang^3
#
#
#
# Elastic Constant Matrix: (Units=GPa)
#
#
# Indices 1 2 3 4 5 6 
#
# 1 101.9813 59.3323 93.4847 0.0000 0.0000 0.0000
# 2 59.3323 49.6088 55.1413 0.0000 0.0000 0.0000
# 3 93.4847 55.1413 130.3603 0.0000 0.0000 0.0000
# 4 0.0000 0.0000 0.0000 26.1740 0.0000 0.0000
# 5 0.0000 0.0000 0.0000 0.0000 18.7419 0.0000
# 6 0.0000 0.0000 0.0000 0.0000 0.0000 36.2833
#
#
#
# Elastic Compliance Matrix: (Units=1/GPa)
#
#
# Indices 1 2 3 4 5 6 
#
# 1 0.049894 -0.037565 -0.019891 0.000000 0.000000 0.000000
# 2 -0.037565 0.066327 -0.001117 0.000000 0.000000 0.000000
# 3 -0.019891 -0.001117 0.022408 0.000000 0.000000 0.000000
# 4 0.000000 0.000000 0.000000 0.038206 0.000000 0.000000
# 5 0.000000 0.000000 0.000000 0.000000 0.053356 0.000000
# 6 0.000000 0.000000 0.000000 0.000000 0.000000 0.027561
#
#
# Mechanical properties :
#
#
# Convention : Reuss Voigt Hill
#
# Bulk Modulus (GPa) = 46.54705 77.54078 62.04391
# Shear Modulus (GPa) = 13.08697 21.17266 17.12981
#
# Velocity S-wave (km/s) = 2.79388 3.55366 3.19643
# Velocity P-wave (km/s) = 6.17826 7.94276 7.11542
#
# Compressibility (1/GPa) = 0.02148364
#
# Stress axis : x y z
#
# Youngs Moduli (GPa) = 20.04231 15.07684 44.62684
#
# Poissons Ratio (x) = 0.56635 0.88768
# Poissons Ratio (y) = 0.75288 0.04986
# Poissons Ratio (z) = 0.39866 0.01684
#
# Static dielectric constant tensor:
#      x y z
#    x 1.552180 0.000000 0.000000 
#    y 0.000000 1.560460 0.000000 
#    z 0.000000 0.000000 1.551830 
# 
# From -- ./inp_files/24780.got.cif
#   From: 2010.05.17/outbox.cif.g08.bks.cpg/sg51_13_cif.got.tgz:24780.got - 2010.06.03 11:52:47.
