data_PCOD9402057
_publ_section_title
;
Structure prediction by ZEFSAII (Michael W. Deem and Ramdas Pophale) SiO2 
 PCOD9402057
Probable space group: P M M A
;
_chemical_formula_sum "Si O2"
_cell_formula_units_Z 44
_cell_length_a 8.553287
_cell_length_b 29.615361
_cell_length_c 9.483676
_cell_angle_alpha 90.000000
_cell_angle_beta 90.000000
_cell_angle_gamma 90.000000
_cell_volume 2402.297470
_symmetry_space_group_name_H-M "P M M A"
_symmetry_group_IT_number 51
_symmetry_cell_setting 'orthorhombic'
loop_
_space_group_symop_operation_xyz
x,y,z
1/2-x,-y,z
1/2+x,-y,-z
-x,y,-z
-x,-y,-z
1/2+x,y,-z
1/2-x,y,z
x,-y,z
loop_
_atom_site_type_symbol
_atom_site_label
_atom_site_fract_x
_atom_site_fract_y
_atom_site_fract_z
Si Si1 0.936308 0.000000 0.841287
Si Si2 0.062444 0.364371 0.157903
Si Si3 0.438758 0.448936 0.342952
Si Si4 0.438180 0.281292 0.660417
Si Si5 0.438377 0.083393 0.660774
Si Si6 0.061923 0.817518 0.659698
O O1 0.995843 0.956142 0.757114
O O2 0.750000 0.000000 0.843731
O O3 0.000000 0.000000 0.000000
O O4 0.250000 0.364196 0.156323
O O5 0.008629 0.410213 0.236194
O O6 0.004013 0.321490 0.246138
O O7 0.000000 0.362688 0.000000
O O8 0.500000 0.439353 0.500000
O O9 0.250000 0.448386 0.346866
O O10 0.488717 0.500000 0.304489
O O11 0.500000 0.285278 0.500000
O O12 0.250000 0.283598 0.657640
O O13 0.486324 0.231420 0.718402
O O14 0.500000 0.078845 0.500000
O O15 0.250000 0.080797 0.657564
O O16 0.486155 0.133427 0.717286
O O17 0.250000 0.817541 0.657534
O O18 0.000000 0.817415 0.500000
#
# Coordination Sequence:
#
# PCOD9402057 Si02
#       6
#     4   8   8   8   8   8
#     4  12  25  40  55  76 106 142 180 220 267 318
#     4  11  23  37  53  76 107 143 181 221 266 316
#     4   9  19  36  57  80 105 134 172 217 264 315
#     4  10  19  34  56  82 110 141 177 218 263 312
#     4  10  19  35  58  84 110 139 176 218 262 311
#     4   8  16  30  52  80 108 136 171 215 261 308
#
# _framework density 18.315801
#
# number of rings (size 3 to 8) (size 9 to 14) (size 15 to 20)
#    0.000    2.182    0.000    3.273    0.000    4.727 
#    0.000    0.909    0.000    0.000    0.000    0.000 
#    0.000    0.000    0.000    0.000    0.000    0.000 
#
# Total GULP energy -245409.769159 kJ/mol
# GULP energy per Si atom -5577.494754 kJ/mol
# Density = 1.827411 g / cm^3
# Si number density = 18.315801 Si / 1000 Ang^3
#
#
#
# Elastic Constant Matrix: (Units=GPa)
#
#
# Indices 1 2 3 4 5 6 
#
# 1 54.9817 51.1785 33.1030 0.0000 0.0000 0.0000
# 2 51.1785 215.0597 110.2894 0.0000 0.0000 0.0000
# 3 33.1030 110.2894 105.3670 0.0000 0.0000 0.0000
# 4 0.0000 0.0000 0.0000 -8.1305 0.0000 0.0000
# 5 0.0000 0.0000 0.0000 0.0000 29.6608 0.0000
# 6 0.0000 0.0000 0.0000 0.0000 0.0000 21.3497
#
#
#
# Elastic Compliance Matrix: (Units=1/GPa)
#
#
# Indices 1 2 3 4 5 6 
#
# 1 0.023901 -0.003966 -0.003358 0.000000 0.000000 0.000000
# 2 -0.003966 0.010696 -0.009950 0.000000 0.000000 0.000000
# 3 -0.003358 -0.009950 0.020961 0.000000 0.000000 0.000000
# 4 0.000000 0.000000 0.000000 -0.122994 0.000000 0.000000
# 5 0.000000 0.000000 0.000000 0.000000 0.033715 0.000000
# 6 0.000000 0.000000 0.000000 0.000000 0.000000 0.046839
#
#
# Mechanical properties :
#
#
# Convention : Reuss Voigt Hill
#
# Bulk Modulus (GPa) = 47.59569 84.95002 66.27285
# Shear Modulus (GPa) = 91.45941 20.63183 56.04562
#
# Velocity S-wave (km/s) = 7.07412 3.35990 5.53769
# Velocity P-wave (km/s) = 9.63155 7.84432 8.78351
#
# Compressibility (1/GPa) = 0.02101031
#
# Stress axis : x y z
#
# Youngs Moduli (GPa) = 41.83919 93.48965 47.70856
#
# Poissons Ratio (x) = 0.37076 0.16020
# Poissons Ratio (y) = 0.16592 0.47471
# Poissons Ratio (z) = 0.14049 0.93024
#
# Static dielectric constant tensor:
#      x y z
#    x 1.629390 0.000000 0.000000 
#    y 0.000000 1.678970 0.000000 
#    z 0.000000 0.000000 1.571040 
# 
# From -- ./inp_files/5883.got.cif
#   From: 2010.05.17/outbox.cif.g08.bks.cpg/sg51_3_cif.got.tgz:5883.got - 2010.06.03 11:52:47.
