data_PCOD9402240
_publ_section_title
;
Structure prediction by ZEFSAII (Michael W. Deem and Ramdas Pophale) SiO2 
 PCOD9402240
Probable space group: P M M A
;
_chemical_formula_sum "Si O2"
_cell_formula_units_Z 38
_cell_length_a 7.577503
_cell_length_b 26.073646
_cell_length_c 9.116652
_cell_angle_alpha 90.000000
_cell_angle_beta 90.000000
_cell_angle_gamma 90.000000
_cell_volume 1801.205478
_symmetry_space_group_name_H-M "P M M A"
_symmetry_group_IT_number 51
_symmetry_cell_setting 'orthorhombic'
loop_
_space_group_symop_operation_xyz
x,y,z
1/2-x,-y,z
1/2+x,-y,-z
-x,y,-z
-x,-y,-z
1/2+x,y,-z
1/2-x,y,z
x,-y,z
loop_
_atom_site_type_symbol
_atom_site_label
_atom_site_fract_x
_atom_site_fract_y
_atom_site_fract_z
Si Si1 0.538112 0.000000 0.671927
Si Si2 0.039295 0.307102 0.170554
Si Si3 0.951487 0.576612 0.173502
Si Si4 0.250000 0.500000 0.274828
Si Si5 0.538119 0.897076 0.828267
Si Si6 0.461674 0.205423 0.329015
O O1 0.500000 0.000000 0.500000
O O2 0.469934 0.948125 0.747886
O O3 0.750000 0.000000 0.690680
O O4 0.250000 0.311593 0.187511
O O5 0.971778 0.259430 0.265379
O O6 0.962582 0.362859 0.206428
O O7 0.000000 0.296379 0.000000
O O8 0.750000 0.559706 0.194534
O O9 0.094287 0.544443 0.262055
O O10 0.000000 0.570079 0.000000
O O11 0.750000 0.896701 0.809250
O O12 0.469828 0.844371 0.757225
O O13 0.500000 0.899075 0.000000
O O14 0.500000 0.200363 0.500000
O O15 0.250000 0.206548 0.308862
#
# Coordination Sequence:
#
# PCOD9402240 Si02
#       6
#     4   8   8   2   8   8
#     4  10  21  36  56  82 120 156 203 248 292 346
#     4  10  19  35  52  77 112 146 185 238 292 352
#     4  11  20  30  48  75 111 154 188 234 295 351
#     4  12  20  32  46  78 118 148 194 238 288 348
#     4  10  21  37  56  85 115 154 195 245 297 354
#     4  10  22  37  57  81 112 145 192 241 293 349
#
# _framework density 21.096982000000001
#
# number of rings (size 3 to 8) (size 9 to 14) (size 15 to 20)
#    0.000    1.684    2.105    4.105    0.000    3.368 
#    0.000    0.000    0.000    0.000    0.000    0.737 
#    0.000    0.000    0.000    0.000    0.000    0.000 
#
# Total GULP energy -211895.199359 kJ/mol
# GULP energy per Si atom -5576.189457 kJ/mol
# Density = 2.104896 g / cm^3
# Si number density = 21.096982 Si / 1000 Ang^3
#
#
#
# Elastic Constant Matrix: (Units=GPa)
#
#
# Indices 1 2 3 4 5 6 
#
# 1 121.3628 31.0956 -3.8255 0.0000 0.0000 0.0000
# 2 31.0956 191.8800 87.3794 0.0000 0.0000 0.0000
# 3 -3.8255 87.3794 102.0672 0.0000 0.0000 0.0000
# 4 0.0000 0.0000 0.0000 5.0729 0.0000 0.0000
# 5 0.0000 0.0000 0.0000 0.0000 21.7756 0.0000
# 6 0.0000 0.0000 0.0000 0.0000 0.0000 68.3861
#
#
#
# Elastic Compliance Matrix: (Units=1/GPa)
#
#
# Indices 1 2 3 4 5 6 
#
# 1 0.008999 -0.002642 0.002599 0.000000 0.000000 0.000000
# 2 -0.002642 0.009317 -0.008075 0.000000 0.000000 0.000000
# 3 0.002599 -0.008075 0.016808 0.000000 0.000000 0.000000
# 4 0.000000 0.000000 0.000000 0.197127 0.000000 0.000000
# 5 0.000000 0.000000 0.000000 0.000000 0.045923 0.000000
# 6 0.000000 0.000000 0.000000 0.000000 0.000000 0.014623
#
#
# Mechanical properties :
#
#
# Convention : Reuss Voigt Hill
#
# Bulk Modulus (GPa) = 52.94556 71.62322 62.28439
# Shear Modulus (GPa) = 15.85645 39.09094 27.47370
#
# Velocity S-wave (km/s) = 2.74450 4.30922 3.61260
# Velocity P-wave (km/s) = 5.93244 7.66697 6.85479
#
# Compressibility (1/GPa) = 0.01888733
#
# Stress axis : x y z
#
# Youngs Moduli (GPa) = 111.12896 107.32921 59.49482
#
# Poissons Ratio (x) = 0.28354 -0.15462
# Poissons Ratio (y) = 0.29358 0.48044
# Poissons Ratio (z) = -0.28881 0.86672
#
# Static dielectric constant tensor:
#      x y z
#    x 1.768510 0.000000 0.000000 
#    y 0.000000 1.763940 0.000000 
#    z 0.000000 0.000000 1.708180 
# 
# From -- ./inp_files/5327.got.cif
#   From: 2010.05.17/outbox.cif.g08.bks.cpg/sg51_3_cif.got.tgz:5327.got - 2010.06.03 11:52:47.
