data_PCOD9402708
_publ_section_title
;
Structure prediction by ZEFSAII (Michael W. Deem and Ramdas Pophale) SiO2 
 PCOD9402708
Probable space group: P M M A
;
_chemical_formula_sum "Si O2"
_cell_formula_units_Z 56
_cell_length_a 20.113313
_cell_length_b 7.632235
_cell_length_c 17.664929
_cell_angle_alpha 90.000000
_cell_angle_beta 90.000000
_cell_angle_gamma 90.000000
_cell_volume 2711.734974
_symmetry_space_group_name_H-M "P M M A"
_symmetry_group_IT_number 51
_symmetry_cell_setting 'orthorhombic'
loop_
_space_group_symop_operation_xyz
x,y,z
1/2-x,-y,z
1/2+x,-y,-z
-x,y,-z
-x,-y,-z
1/2+x,y,-z
1/2-x,y,z
x,-y,z
loop_
_atom_site_type_symbol
_atom_site_label
_atom_site_fract_x
_atom_site_fract_y
_atom_site_fract_z
Si Si1 0.826533 0.209140 0.656893
Si Si2 0.324331 0.789777 0.901231
Si Si3 0.822228 0.297059 0.272375
Si Si4 0.466568 0.285725 0.704318
Si Si5 0.584119 0.291886 0.803055
Si Si6 0.927582 0.209853 0.976361
Si Si7 0.052090 0.202120 0.439478
O O1 0.750000 0.275110 0.655925
O O2 0.862841 0.234548 0.738670
O O3 0.876703 0.277037 0.590258
O O4 0.823662 0.000000 0.645870
O O5 0.250000 0.758776 0.929796
O O6 0.329630 0.708081 0.818410
O O7 0.332211 0.000000 0.890790
O O8 0.375920 0.722286 0.962004
O O9 0.750000 0.217523 0.291000
O O10 0.820229 0.500000 0.296538
O O11 0.891297 0.220374 0.301005
O O12 0.465761 0.500000 0.700690
O O13 0.509537 0.234272 0.778035
O O14 0.509192 0.210086 0.636521
O O15 0.585078 0.500000 0.799007
O O16 0.593920 0.242257 0.890042
O O17 0.929119 0.000000 0.984681
O O18 0.000000 0.278062 0.000000
O O19 0.000000 0.283139 0.500000
O O20 0.064052 0.000000 0.463549
#
# Coordination Sequence:
#
# PCOD9402708 Si02
#       7
#     8   8   8   8   8   8   8
#     4   9  18  34  55  75  98 132 168 200 241 294
#     4   9  18  31  45  62  86 117 153 193 237 283
#     4   9  17  30  48  68  91 121 157 195 233 277
#     4   9  18  32  49  70  96 125 156 190 232 282
#     4  10  20  32  48  71  97 125 161 207 252 293
#     4  10  20  32  46  66  93 126 165 207 250 297
#     4   9  18  33  53  77 102 127 158 195 233 278
#
# _framework density 20.650984000000001
#
# number of rings (size 3 to 8) (size 9 to 14) (size 15 to 20)
#    0.000    2.714    0.000    1.286    0.000    3.143 
#    0.000    2.143    0.000    0.857    0.000    0.000 
#    0.000    0.000    0.000    0.000    0.000    0.000 
#
# Total GULP energy -311878.029089 kJ/mol
# GULP energy per Si atom -5569.250519 kJ/mol
# Density = 2.060398 g / cm^3
# Si number density = 20.650984 Si / 1000 Ang^3
#
#
#
# Elastic Constant Matrix: (Units=GPa)
#
#
# Indices 1 2 3 4 5 6 
#
# 1 150.5016 10.9529 13.6315 0.0000 0.0000 0.0000
# 2 10.9529 40.1671 -9.5778 0.0000 0.0000 0.0000
# 3 13.6315 -9.5778 25.0546 0.0000 0.0000 0.0000
# 4 0.0000 0.0000 0.0000 1.8593 0.0000 0.0000
# 5 0.0000 0.0000 0.0000 0.0000 29.5366 0.0000
# 6 0.0000 0.0000 0.0000 0.0000 0.0000 26.5376
#
#
#
# Elastic Compliance Matrix: (Units=1/GPa)
#
#
# Indices 1 2 3 4 5 6 
#
# 1 0.007357 -0.003257 -0.005248 0.000000 0.000000 0.000000
# 2 -0.003257 0.028835 0.012795 0.000000 0.000000 0.000000
# 3 -0.005248 0.012795 0.047659 0.000000 0.000000 0.000000
# 4 0.000000 0.000000 0.000000 0.537827 0.000000 0.000000
# 5 0.000000 0.000000 0.000000 0.000000 0.033856 0.000000
# 6 0.000000 0.000000 0.000000 0.000000 0.000000 0.037682
#
#
# Mechanical properties :
#
#
# Convention : Reuss Voigt Hill
#
# Bulk Modulus (GPa) = 10.81881 27.30405 19.06143
# Shear Modulus (GPa) = 6.98863 24.96782 15.97822
#
# Velocity S-wave (km/s) = 1.84160 3.48089 2.78461
# Velocity P-wave (km/s) = 3.12606 5.42272 4.42595
#
# Compressibility (1/GPa) = 0.09243157
#
# Stress axis : x y z
#
# Youngs Moduli (GPa) = 135.92815 34.67977 20.98220
#
# Poissons Ratio (x) = 0.11297 0.11011
# Poissons Ratio (y) = 0.44278 -0.26847
# Poissons Ratio (z) = 0.71333 -0.44374
#
# Static dielectric constant tensor:
#      x y z
#    x 1.772640 0.000000 0.000000 
#    y 0.000000 1.770680 0.000000 
#    z 0.000000 0.000000 1.727750 
# 
# From -- ./inp_files/25734.got.cif
#   From: 2010.05.17/outbox.cif.g08.bks.cpg/sg51_13_cif.got.tgz:25734.got - 2010.06.03 11:52:47.
