data_PCOD9402016
_publ_section_title
;
Structure prediction by ZEFSAII (Michael W. Deem and Ramdas Pophale) SiO2 
 PCOD9402016
Probable space group: P M M A
;
_chemical_formula_sum "Si O2"
_cell_formula_units_Z 64
_cell_length_a 17.908533
_cell_length_b 9.048477
_cell_length_c 22.638807
_cell_angle_alpha 90.000000
_cell_angle_beta 90.000000
_cell_angle_gamma 90.000000
_cell_volume 3668.504325
_symmetry_space_group_name_H-M "P M M A"
_symmetry_group_IT_number 51
_symmetry_cell_setting 'orthorhombic'
loop_
_space_group_symop_operation_xyz
x,y,z
1/2-x,-y,z
1/2+x,-y,-z
-x,y,-z
-x,-y,-z
1/2+x,y,-z
1/2-x,y,z
x,-y,z
loop_
_atom_site_type_symbol
_atom_site_label
_atom_site_fract_x
_atom_site_fract_y
_atom_site_fract_z
Si Si1 0.930780 0.831099 0.546199
Si Si2 0.665944 0.676680 0.790548
Si Si3 0.335828 0.676751 0.549427
Si Si4 0.530893 0.676519 0.360842
Si Si5 0.013902 0.176254 0.241560
Si Si6 0.038052 0.326267 0.878498
Si Si7 0.164229 0.826481 0.954514
Si Si8 0.625872 0.327683 0.925731
O O1 0.863701 0.758977 0.509451
O O2 0.000000 0.833239 0.500000
O O3 0.961144 0.734812 0.600356
O O4 0.915229 0.000000 0.563847
O O5 0.750000 0.712404 0.770952
O O6 0.653577 0.500000 0.783123
O O7 0.599240 0.764127 0.759737
O O8 0.659241 0.705241 0.861067
O O9 0.250000 0.712645 0.563452
O O10 0.341622 0.500000 0.539902
O O11 0.393998 0.712866 0.601978
O O12 0.526944 0.500000 0.354044
O O13 0.527130 0.756277 0.298224
O O14 0.976696 0.237941 0.181714
O O15 0.012717 0.000000 0.242573
O O16 0.045611 0.500000 0.865075
O O17 0.107955 0.265300 0.914163
O O18 0.963202 0.310224 0.917934
O O19 0.250000 0.803902 0.936522
O O20 0.146578 0.000000 0.950335
O O21 0.155085 0.772740 0.021883
O O22 0.641977 0.500000 0.939161
#
# Coordination Sequence:
#
# PCOD9402016 Si02
#       8
#     8   8   8   8   8   8   8   8
#     4   9  17  30  50  77 107 136 166 203 250 300
#     4   9  18  34  55  78 105 136 171 213 260 313
#     4   9  18  33  54  81 110 139 174 216 259 303
#     4  10  19  34  56  78 104 141 182 218 253 304
#     4  11  22  36  55  78 106 139 176 220 266 312
#     4  10  21  38  57  75  98 134 179 220 260 313
#     4  11  23  35  49  75 108 136 166 211 267 321
#     4   9  18  33  54  78 101 129 168 210 255 315
#
# _framework density 17.445802
#
# number of rings (size 3 to 8) (size 9 to 14) (size 15 to 20)
#    0.000    2.250    0.000    4.125    0.000    8.000 
#    0.000    1.250    0.000    6.000    0.000    0.000 
#    0.000    0.000    0.000    0.000    0.000    0.000 
#
# Total GULP energy -357186.717561 kJ/mol
# GULP energy per Si atom -5581.042462 kJ/mol
# Density = 1.740609 g / cm^3
# Si number density = 17.445802 Si / 1000 Ang^3
#
#
#
# Elastic Constant Matrix: (Units=GPa)
#
#
# Indices 1 2 3 4 5 6 
#
# 1 90.0518 51.3807 31.2746 0.0000 0.0000 0.0000
# 2 51.3807 80.8950 32.2861 0.0000 0.0000 0.0000
# 3 31.2746 32.2861 46.4002 0.0000 0.0000 0.0000
# 4 0.0000 0.0000 0.0000 16.8796 0.0000 0.0000
# 5 0.0000 0.0000 0.0000 0.0000 14.9622 0.0000
# 6 0.0000 0.0000 0.0000 0.0000 0.0000 21.0852
#
#
#
# Elastic Compliance Matrix: (Units=1/GPa)
#
#
# Indices 1 2 3 4 5 6 
#
# 1 0.018533 -0.009395 -0.005955 0.000000 0.000000 0.000000
# 2 -0.009395 0.021877 -0.008890 0.000000 0.000000 0.000000
# 3 -0.005955 -0.008890 0.031751 0.000000 0.000000 0.000000
# 4 0.000000 0.000000 0.000000 0.059243 0.000000 0.000000
# 5 0.000000 0.000000 0.000000 0.000000 0.066835 0.000000
# 6 0.000000 0.000000 0.000000 0.000000 0.000000 0.047427
#
#
# Mechanical properties :
#
#
# Convention : Reuss Voigt Hill
#
# Bulk Modulus (GPa) = 42.22596 49.69219 45.95908
# Shear Modulus (GPa) = 16.55415 17.41244 16.98330
#
# Velocity S-wave (km/s) = 3.08375 3.16268 3.12346
# Velocity P-wave (km/s) = 6.07750 6.47165 6.27767
#
# Compressibility (1/GPa) = 0.02368211
#
# Stress axis : x y z
#
# Youngs Moduli (GPa) = 53.95751 45.71010 31.49500
#
# Poissons Ratio (x) = 0.42944 0.18754
# Poissons Ratio (y) = 0.50692 0.28000
# Poissons Ratio (z) = 0.32129 0.40637
#
# Static dielectric constant tensor:
#      x y z
#    x 1.595230 0.000000 0.000000 
#    y 0.000000 1.581630 0.000000 
#    z 0.000000 0.000000 1.573180 
# 
# From -- ./inp_files/33818.got.cif
#   From: 2010.05.17/outbox.cif.g08.bks.cpg/sg51_17_cif.got.tgz:33818.got - 2010.06.03 11:52:47.
