data_PCOD9402949
_publ_section_title
;
Structure prediction by ZEFSAII (Michael W. Deem and Ramdas Pophale) SiO2 
 PCOD9402949
Probable space group: P M M A
;
_chemical_formula_sum "Si O2"
_cell_formula_units_Z 64
_cell_length_a 14.106938
_cell_length_b 9.404569
_cell_length_c 26.680238
_cell_angle_alpha 90.000000
_cell_angle_beta 90.000000
_cell_angle_gamma 90.000000
_cell_volume 3539.658419
_symmetry_space_group_name_H-M "P M M A"
_symmetry_group_IT_number 51
_symmetry_cell_setting 'orthorhombic'
loop_
_space_group_symop_operation_xyz
x,y,z
1/2-x,-y,z
1/2+x,-y,-z
-x,y,-z
-x,-y,-z
1/2+x,y,-z
1/2-x,y,z
x,-y,z
loop_
_atom_site_type_symbol
_atom_site_label
_atom_site_fract_x
_atom_site_fract_y
_atom_site_fract_z
Si Si1 0.364216 0.836072 0.969879
Si Si2 0.859233 0.169737 0.625556
Si Si3 0.861610 0.329198 0.228294
Si Si4 0.859233 0.332005 0.929504
Si Si5 0.044680 0.169854 0.679053
Si Si6 0.453626 0.669152 0.877339
Si Si7 0.865567 0.337493 0.524972
Si Si8 0.864513 0.164202 0.427944
O O1 0.250000 0.833210 0.967167
O O2 0.403809 0.752636 0.922295
O O3 0.395184 0.000000 0.969977
O O4 0.389056 0.757939 0.021868
O O5 0.750000 0.206635 0.637075
O O6 0.888900 0.248413 0.574559
O O7 0.934146 0.202973 0.668986
O O8 0.863766 0.000000 0.616634
O O9 0.750000 0.294053 0.225655
O O10 0.869751 0.500000 0.233625
O O11 0.909734 0.253102 0.275253
O O12 0.912974 0.287955 0.176442
O O13 0.750000 0.298104 0.916974
O O14 0.863537 0.500000 0.942460
O O15 0.934114 0.307526 0.885272
O O16 0.096201 0.204858 0.626419
O O17 0.054934 0.000000 0.686780
O O18 0.435332 0.500000 0.883261
O O19 0.750000 0.338061 0.523179
O O20 0.897363 0.500000 0.528719
O O21 0.897015 0.262731 0.473643
O O22 0.750000 0.169186 0.426053
O O23 0.892262 0.000000 0.437708
#
# Coordination Sequence:
#
# PCOD9402949 Si02
#       8
#     8   8   8   8   8   8   8   8
#     4  10  20  32  49  78 113 144 175 215 262 307
#     4   9  18  34  54  74 100 134 169 207 253 304
#     4  10  22  39  57  78 105 134 165 209 263 310
#     4   9  18  33  53  77 107 143 179 213 251 300
#     4  10  21  36  55  77  99 130 174 217 255 302
#     4  10  20  35  55  77 103 139 180 216 254 305
#     4   9  17  29  47  73 103 133 165 203 249 302
#     4   9  17  30  48  70  98 131 165 203 250 304
#
# _framework density 18.080839999999998
#
# number of rings (size 3 to 8) (size 9 to 14) (size 15 to 20)
#    0.000    2.500    0.000    1.875    0.000    7.500 
#    0.000    4.375    0.000    0.750    0.000    0.000 
#    0.000    0.000    0.000    0.000    0.000    0.000 
#
# Total GULP energy -357247.270604 kJ/mol
# GULP energy per Si atom -5581.988603 kJ/mol
# Density = 1.803969 g / cm^3
# Si number density = 18.080840 Si / 1000 Ang^3
#
#
#
# Elastic Constant Matrix: (Units=GPa)
#
#
# Indices 1 2 3 4 5 6 
#
# 1 100.0785 48.7777 84.9280 0.0000 0.0000 0.0000
# 2 48.7777 50.0163 64.8298 0.0000 0.0000 0.0000
# 3 84.9280 64.8298 145.7974 0.0000 0.0000 0.0000
# 4 0.0000 0.0000 0.0000 50.7369 0.0000 0.0000
# 5 0.0000 0.0000 0.0000 0.0000 33.9954 0.0000
# 6 0.0000 0.0000 0.0000 0.0000 0.0000 18.9388
#
#
#
# Elastic Compliance Matrix: (Units=1/GPa)
#
#
# Indices 1 2 3 4 5 6 
#
# 1 0.022280 -0.011581 -0.007829 0.000000 0.000000 0.000000
# 2 -0.011581 0.053213 -0.016916 0.000000 0.000000 0.000000
# 3 -0.007829 -0.016916 0.018941 0.000000 0.000000 0.000000
# 4 0.000000 0.000000 0.000000 0.019710 0.000000 0.000000
# 5 0.000000 0.000000 0.000000 0.000000 0.029416 0.000000
# 6 0.000000 0.000000 0.000000 0.000000 0.000000 0.052802
#
#
# Mechanical properties :
#
#
# Convention : Reuss Voigt Hill
#
# Bulk Modulus (GPa) = 45.90641 76.99591 61.45116
# Shear Modulus (GPa) = 18.09801 27.22468 22.66135
#
# Velocity S-wave (km/s) = 3.16721 3.88457 3.54409
# Velocity P-wave (km/s) = 6.23054 7.92443 7.12798
#
# Compressibility (1/GPa) = 0.02178345
#
# Stress axis : x y z
#
# Youngs Moduli (GPa) = 44.88252 18.79234 52.79581
#
# Poissons Ratio (x) = 0.21763 0.41334
# Poissons Ratio (y) = 0.51978 0.89307
# Poissons Ratio (z) = 0.35138 0.31788
#
# Static dielectric constant tensor:
#      x y z
#    x 1.669450 0.000000 0.000000 
#    y 0.000000 1.610320 0.000000 
#    z 0.000000 0.000000 1.564950 
# 
# From -- ./inp_files/35597.got.cif
#   From: 2010.05.17/outbox.cif.g08.bks.cpg/sg51_18_cif.got.tgz:35597.got - 2010.06.03 11:52:47.
