data_PCOD9402809
_publ_section_title
;
Structure prediction by ZEFSAII (Michael W. Deem and Ramdas Pophale) SiO2 
 PCOD9402809
Probable space group: P M M A
;
_chemical_formula_sum "Si O2"
_cell_formula_units_Z 64
_cell_length_a 14.601992
_cell_length_b 8.922963
_cell_length_c 28.818109
_cell_angle_alpha 90.000000
_cell_angle_beta 90.000000
_cell_angle_gamma 90.000000
_cell_volume 3754.798866
_symmetry_space_group_name_H-M "P M M A"
_symmetry_group_IT_number 51
_symmetry_cell_setting 'orthorhombic'
loop_
_space_group_symop_operation_xyz
x,y,z
1/2-x,-y,z
1/2+x,-y,-z
-x,y,-z
-x,-y,-z
1/2+x,y,-z
1/2-x,y,z
x,-y,z
loop_
_atom_site_type_symbol
_atom_site_label
_atom_site_fract_x
_atom_site_fract_y
_atom_site_fract_z
Si Si1 0.855406 0.679364 0.932859
Si Si2 0.039043 0.819713 0.612211
Si Si3 0.143135 0.179015 0.798367
Si Si4 0.350817 0.678063 0.421393
Si Si5 0.140156 0.174878 0.968166
Si Si6 0.535645 0.321539 0.117071
Si Si7 0.893430 0.170079 0.485369
Si Si8 0.357675 0.678756 0.698371
O O1 0.750000 0.716495 0.921166
O O2 0.860283 0.500000 0.941242
O O3 0.929565 0.715531 0.893626
O O4 0.880349 0.762569 0.980629
O O5 0.102678 0.776922 0.567758
O O6 0.081272 0.753196 0.658701
O O7 0.936742 0.759517 0.602329
O O8 0.036905 0.000000 0.613203
O O9 0.250000 0.214439 0.809466
O O10 0.078760 0.240368 0.838790
O O11 0.121510 0.253985 0.748989
O O12 0.135380 0.000000 0.794739
O O13 0.250000 0.718359 0.402424
O O14 0.363177 0.500000 0.417567
O O15 0.351294 0.725148 0.475609
O O16 0.250000 0.186807 0.961903
O O17 0.090376 0.268668 0.928556
O O18 0.114843 0.000000 0.964607
O O19 0.544338 0.500000 0.122707
O O20 0.000000 0.161112 0.500000
O O21 0.856835 0.000000 0.487907
O O22 0.250000 0.710184 0.689188
O O23 0.370406 0.500000 0.698768
#
# Coordination Sequence:
#
# PCOD9402809 Si02
#       8
#     8   8   8   8   8   8   8   8
#     4   9  19  35  51  69  98 135 172 208 246 290
#     4  10  20  34  53  76 103 137 175 213 254 304
#     4  10  21  37  56  78 104 131 160 199 249 304
#     4  10  20  32  48  73 105 140 177 217 259 301
#     4  10  20  32  47  71 103 136 169 206 248 294
#     4  11  21  32  51  76 100 131 169 207 250 298
#     4   8  16  30  46  67  96 131 170 209 250 296
#     4  10  21  37  57  80 105 132 163 204 255 307
#
# _framework density 17.044853
#
# number of rings (size 3 to 8) (size 9 to 14) (size 15 to 20)
#    0.000    2.250    0.000    3.750    0.000   10.500 
#    0.000    2.500    0.000    0.750    0.000    1.750 
#    0.000    0.000    0.000    0.000    0.000    0.000 
#
# Total GULP energy -357125.440335 kJ/mol
# GULP energy per Si atom -5580.085005 kJ/mol
# Density = 1.700606 g / cm^3
# Si number density = 17.044853 Si / 1000 Ang^3
#
#
#
# Elastic Constant Matrix: (Units=GPa)
#
#
# Indices 1 2 3 4 5 6 
#
# 1 89.6326 46.8824 73.4966 0.0000 0.0000 0.0000
# 2 46.8824 58.2312 48.4874 0.0000 0.0000 0.0000
# 3 73.4966 48.4874 119.5042 0.0000 0.0000 0.0000
# 4 0.0000 0.0000 0.0000 32.5652 0.0000 0.0000
# 5 0.0000 0.0000 0.0000 0.0000 25.4697 0.0000
# 6 0.0000 0.0000 0.0000 0.0000 0.0000 62.5845
#
#
#
# Elastic Compliance Matrix: (Units=1/GPa)
#
#
# Indices 1 2 3 4 5 6 
#
# 1 0.027114 -0.011998 -0.011807 0.000000 0.000000 0.000000
# 2 -0.011998 0.031244 -0.005298 0.000000 0.000000 0.000000
# 3 -0.011807 -0.005298 0.017779 0.000000 0.000000 0.000000
# 4 0.000000 0.000000 0.000000 0.030708 0.000000 0.000000
# 5 0.000000 0.000000 0.000000 0.000000 0.039262 0.000000
# 6 0.000000 0.000000 0.000000 0.000000 0.000000 0.015978
#
#
# Mechanical properties :
#
#
# Convention : Reuss Voigt Hill
#
# Bulk Modulus (GPa) = 55.77090 67.23341 61.50215
# Shear Modulus (GPa) = 22.09755 30.69066 26.39411
#
# Velocity S-wave (km/s) = 3.60451 4.24793 3.93938
# Velocity P-wave (km/s) = 7.07916 7.97437 7.54006
#
# Compressibility (1/GPa) = 0.01793050
#
# Stress axis : x y z
#
# Youngs Moduli (GPa) = 36.88123 32.00601 56.24552
#
# Poissons Ratio (x) = 0.38401 0.66411
# Poissons Ratio (y) = 0.44250 0.29799
# Poissons Ratio (z) = 0.43547 0.16957
#
# Static dielectric constant tensor:
#      x y z
#    x 1.598650 0.000000 0.000000 
#    y 0.000000 1.567610 0.000000 
#    z 0.000000 0.000000 1.547980 
# 
# From -- ./inp_files/35703.got.cif
#   From: 2010.05.17/outbox.cif.g08.bks.cpg/sg51_18_cif.got.tgz:35703.got - 2010.06.03 11:52:47.
