data_PCOD9402262
_publ_section_title
;
Structure prediction by ZEFSAII (Michael W. Deem and Ramdas Pophale) SiO2 
 PCOD9402262
Probable space group: P M M A
;
_chemical_formula_sum "Si O2"
_cell_formula_units_Z 48
_cell_length_a 9.248570
_cell_length_b 14.970480
_cell_length_c 20.177539
_cell_angle_alpha 90.000000
_cell_angle_beta 90.000000
_cell_angle_gamma 90.000000
_cell_volume 2793.691901
_symmetry_space_group_name_H-M "P M M A"
_symmetry_group_IT_number 51
_symmetry_cell_setting 'orthorhombic'
loop_
_space_group_symop_operation_xyz
x,y,z
1/2-x,-y,z
1/2+x,-y,-z
-x,y,-z
-x,-y,-z
1/2+x,y,-z
1/2-x,y,z
x,-y,z
loop_
_atom_site_type_symbol
_atom_site_label
_atom_site_fract_x
_atom_site_fract_y
_atom_site_fract_z
Si Si1 0.918710 0.500000 0.931720
Si Si2 0.583755 0.397314 0.298786
Si Si3 0.422384 0.000000 0.072161
Si Si4 0.919899 0.892908 0.431730
Si Si5 0.078324 0.173728 0.162404
Si Si6 0.921426 0.786046 0.683376
Si Si7 0.586399 0.647987 0.143269
O O1 0.750000 0.500000 0.940297
O O2 0.973497 0.414081 0.892983
O O3 0.000000 0.500000 0.000000
O O4 0.750000 0.385749 0.322678
O O5 0.538722 0.500000 0.313559
O O6 0.483045 0.315298 0.320898
O O7 0.588561 0.384513 0.219344
O O8 0.453520 0.085782 0.119154
O O9 0.250000 0.000000 0.059489
O O10 0.500000 0.000000 0.000000
O O11 0.750000 0.870864 0.435189
O O12 0.000000 0.868159 0.500000
O O13 0.995237 0.844585 0.370376
O O14 0.933077 0.000000 0.424014
O O15 0.250000 0.194726 0.153245
O O16 0.056143 0.172904 0.242445
O O17 0.972872 0.252179 0.139110
O O18 0.750000 0.785958 0.671230
O O19 0.750000 0.639145 0.117206
#
# Coordination Sequence:
#
# PCOD9402262 Si02
#       7
#     4   8   4   8   8   8   8
#     4  12  24  36  52  74 102 136 175 218 271 336
#     4   9  17  32  54  78 109 144 178 221 270 320
#     4  10  22  40  58  76 105 142 185 230 279 334
#     4  10  21  37  57  83 116 153 189 227 274 330
#     4   9  20  37  56  80 108 144 185 229 278 328
#     4  10  20  33  55  85 114 146 186 230 276 326
#     4  10  19  35  55  77 105 135 172 221 274 326
#
# _framework density 17.181566
#
# number of rings (size 3 to 8) (size 9 to 14) (size 15 to 20)
#    0.000    2.167    0.833    2.250    1.167    4.000 
#    0.000    1.667    0.000    0.500    0.000    0.000 
#    0.000    0.000    0.000    0.000    0.000    0.000 
#
# Total GULP energy -267583.586394 kJ/mol
# GULP energy per Si atom -5574.658050 kJ/mol
# Density = 1.714246 g / cm^3
# Si number density = 17.181566 Si / 1000 Ang^3
#
#
#
# Elastic Constant Matrix: (Units=GPa)
#
#
# Indices 1 2 3 4 5 6 
#
# 1 137.6724 68.4149 68.0518 0.0000 0.0000 0.0000
# 2 68.4149 100.0444 57.2905 0.0000 0.0000 0.0000
# 3 68.0518 57.2905 75.3211 0.0000 0.0000 0.0000
# 4 0.0000 0.0000 0.0000 26.5596 0.0000 0.0000
# 5 0.0000 0.0000 0.0000 0.0000 31.7877 0.0000
# 6 0.0000 0.0000 0.0000 0.0000 0.0000 30.7158
#
#
#
# Elastic Compliance Matrix: (Units=1/GPa)
#
#
# Indices 1 2 3 4 5 6 
#
# 1 0.014030 -0.004138 -0.009529 0.000000 0.000000 0.000000
# 2 -0.004138 0.018929 -0.010660 0.000000 0.000000 0.000000
# 3 -0.009529 -0.010660 0.029993 0.000000 0.000000 0.000000
# 4 0.000000 0.000000 0.000000 0.037651 0.000000 0.000000
# 5 0.000000 0.000000 0.000000 0.000000 0.031459 0.000000
# 6 0.000000 0.000000 0.000000 0.000000 0.000000 0.032557
#
#
# Mechanical properties :
#
#
# Convention : Reuss Voigt Hill
#
# Bulk Modulus (GPa) = 69.92656 77.83917 73.88286
# Shear Modulus (GPa) = 22.93178 25.76464 24.34821
#
# Velocity S-wave (km/s) = 3.65728 3.87660 3.76854
# Velocity P-wave (km/s) = 7.65645 8.08948 7.87594
#
# Compressibility (1/GPa) = 0.01430072
#
# Stress axis : x y z
#
# Youngs Moduli (GPa) = 71.27682 52.82797 33.34059
#
# Poissons Ratio (x) = 0.21858 0.31769
# Poissons Ratio (y) = 0.29492 0.35540
# Poissons Ratio (z) = 0.67917 0.56313
#
# Static dielectric constant tensor:
#      x y z
#    x 1.593180 0.000000 0.000000 
#    y 0.000000 1.587300 0.000000 
#    z 0.000000 0.000000 1.364500 
# 
# From -- ./inp_files/27649.got.cif
#   From: 2010.05.17/outbox.cif.g08.bks.cpg/sg51_14_cif.got.tgz:27649.got - 2010.06.03 11:52:47.
