data_PCOD9402347
_publ_section_title
;
Structure prediction by ZEFSAII (Michael W. Deem and Ramdas Pophale) SiO2 
 PCOD9402347
Probable space group: P M M A
;
_chemical_formula_sum "Si O2"
_cell_formula_units_Z 44
_cell_length_a 8.857477
_cell_length_b 14.037223
_cell_length_c 19.492793
_cell_angle_alpha 90.000000
_cell_angle_beta 90.000000
_cell_angle_gamma 90.000000
_cell_volume 2423.624330
_symmetry_space_group_name_H-M "P M M A"
_symmetry_group_IT_number 51
_symmetry_cell_setting 'orthorhombic'
loop_
_space_group_symop_operation_xyz
x,y,z
1/2-x,-y,z
1/2+x,-y,-z
-x,y,-z
-x,-y,-z
1/2+x,y,-z
1/2-x,y,z
x,-y,z
loop_
_atom_site_type_symbol
_atom_site_label
_atom_site_fract_x
_atom_site_fract_y
_atom_site_fract_z
Si Si1 0.925374 0.611687 0.307414
Si Si2 0.428120 0.720752 0.425366
Si Si3 0.433134 0.894553 0.821097
Si Si4 0.066005 0.687465 0.839318
Si Si5 0.566603 0.500000 0.075782
Si Si6 0.069516 0.107810 0.658745
O O1 0.750000 0.638770 0.319495
O O2 0.929703 0.500000 0.292276
O O3 0.978614 0.665607 0.239216
O O4 0.018677 0.637667 0.374212
O O5 0.500000 0.711707 0.500000
O O6 0.250000 0.722286 0.431868
O O7 0.486046 0.815761 0.387265
O O8 0.250000 0.896391 0.825980
O O9 0.483900 0.795648 0.856438
O O10 0.467961 0.885542 0.739785
O O11 0.486926 0.000000 0.844239
O O12 0.250000 0.686812 0.840358
O O13 0.018352 0.597476 0.885343
O O14 0.750000 0.500000 0.074236
O O15 0.500000 0.500000 0.000000
O O16 0.250000 0.122329 0.653397
O O17 0.035375 0.000000 0.636743
#
# Coordination Sequence:
#
# PCOD9402347 Si02
#       6
#     8   8   8   8   4   8
#     4  10  19  35  59  81 100 128 172 226 276 326
#     4  12  25  38  52  71 102 142 181 225 274 331
#     4   8  13  23  47  81 107 128 165 220 267 310
#     4   9  15  28  54  81 106 137 177 214 259 317
#     4  10  20  34  54  84 115 148 177 212 255 306
#     4   9  17  32  55  79 103 132 172 224 277 326
#
# _framework density 18.154627999999999
#
# number of rings (size 3 to 8) (size 9 to 14) (size 15 to 20)
#    0.000    2.364    2.727    2.727    0.000    1.455 
#    0.000    0.909    0.000    0.545    0.000    0.000 
#    0.000    0.000    0.000    0.000    0.000    0.000 
#
# Total GULP energy -245234.236683 kJ/mol
# GULP energy per Si atom -5573.505379 kJ/mol
# Density = 1.811331 g / cm^3
# Si number density = 18.154628 Si / 1000 Ang^3
#
#
#
# Elastic Constant Matrix: (Units=GPa)
#
#
# Indices 1 2 3 4 5 6 
#
# 1 28.2247 11.8199 13.1177 0.0000 0.0000 0.0000
# 2 11.8199 152.5988 45.2840 0.0000 0.0000 0.0000
# 3 13.1177 45.2840 49.9937 0.0000 0.0000 0.0000
# 4 0.0000 0.0000 0.0000 16.9630 0.0000 0.0000
# 5 0.0000 0.0000 0.0000 0.0000 20.4197 0.0000
# 6 0.0000 0.0000 0.0000 0.0000 0.0000 16.5884
#
#
#
# Elastic Compliance Matrix: (Units=1/GPa)
#
#
# Indices 1 2 3 4 5 6 
#
# 1 0.040351 0.000022 -0.010608 0.000000 0.000000 0.000000
# 2 0.000022 0.008962 -0.008124 0.000000 0.000000 0.000000
# 3 -0.010608 -0.008124 0.030144 0.000000 0.000000 0.000000
# 4 0.000000 0.000000 0.000000 0.058952 0.000000 0.000000
# 5 0.000000 0.000000 0.000000 0.000000 0.048972 0.000000
# 6 0.000000 0.000000 0.000000 0.000000 0.000000 0.060283
#
#
# Mechanical properties :
#
#
# Convention : Reuss Voigt Hill
#
# Bulk Modulus (GPa) = 23.78750 41.25114 32.51932
# Shear Modulus (GPa) = 16.71709 21.50062 19.10885
#
# Velocity S-wave (km/s) = 3.03779 3.44511 3.24784
# Velocity P-wave (km/s) = 5.04335 6.21260 5.65826
#
# Compressibility (1/GPa) = 0.04203888
#
# Stress axis : x y z
#
# Youngs Moduli (GPa) = 24.78276 111.58074 33.17382
#
# Poissons Ratio (x) = -0.00250 0.35190
# Poissons Ratio (y) = -0.00056 0.26949
# Poissons Ratio (z) = 0.26289 0.90645
#
# Static dielectric constant tensor:
#      x y z
#    x 1.602920 0.000000 0.000000 
#    y 0.000000 1.682260 0.000000 
#    z 0.000000 0.000000 1.585760 
# 
# From -- ./inp_files/27406.got.cif
#   From: 2010.05.17/outbox.cif.g08.bks.cpg/sg51_14_cif.got.tgz:27406.got - 2010.06.03 11:52:47.
