data_PCOD9402330
_publ_section_title
;
Structure prediction by ZEFSAII (Michael W. Deem and Ramdas Pophale) SiO2 
 PCOD9402330
Probable space group: P M M A
;
_chemical_formula_sum "Si O2"
_cell_formula_units_Z 48
_cell_length_a 28.107416
_cell_length_b 7.471664
_cell_length_c 9.969843
_cell_angle_alpha 90.000000
_cell_angle_beta 90.000000
_cell_angle_gamma 90.000000
_cell_volume 2093.758436
_symmetry_space_group_name_H-M "P M M A"
_symmetry_group_IT_number 51
_symmetry_cell_setting 'orthorhombic'
loop_
_space_group_symop_operation_xyz
x,y,z
1/2-x,-y,z
1/2+x,-y,-z
-x,y,-z
-x,-y,-z
1/2+x,y,-z
1/2-x,y,z
x,-y,z
loop_
_atom_site_type_symbol
_atom_site_label
_atom_site_fract_x
_atom_site_fract_y
_atom_site_fract_z
Si Si1 0.173057 0.295144 0.656025
Si Si2 0.434110 0.783471 0.608579
Si Si3 0.803490 0.717269 0.641790
Si Si4 0.879950 0.204809 0.864448
Si Si5 0.463910 0.781418 0.307752
Si Si6 0.801243 0.206878 0.051601
O O1 0.189275 0.500000 0.660870
O O2 0.115936 0.286864 0.658545
O O3 0.188765 0.222549 0.511562
O O4 0.192909 0.206850 0.789033
O O5 0.442992 0.729711 0.453601
O O6 0.480901 0.728120 0.691382
O O7 0.431885 0.000000 0.611400
O O8 0.750000 0.764856 0.684827
O O9 0.807696 0.500000 0.644647
O O10 0.844038 0.792793 0.737632
O O11 0.929204 0.283811 0.809427
O O12 0.891151 0.000000 0.904437
O O13 0.847761 0.288515 0.981490
O O14 0.462913 0.000000 0.305833
O O15 0.750000 0.288427 0.016195
O O16 0.800075 0.000000 0.006439
#
# Coordination Sequence:
#
# PCOD9402330 Si02
#       6
#     8   8   8   8   8   8
#     4  11  22  36  54  78 108 145 184 222 266 316
#     4   9  16  31  55  82 110 141 176 218 267 322
#     4  10  21  35  51  75 106 137 174 220 268 320
#     4  10  19  35  58  83 107 135 176 224 271 319
#     4   8  15  29  54  84 111 138 171 216 272 324
#     4  10  22  38  55  77 106 141 181 223 268 321
#
# _framework density 22.925281999999999
#
# number of rings (size 3 to 8) (size 9 to 14) (size 15 to 20)
#    0.000    2.333    1.667    2.500    0.000    3.333 
#    0.000    3.333    0.000    5.000    0.000    0.000 
#    0.000    0.000    0.000    0.000    0.000    0.000 
#
# Total GULP energy -268117.449466 kJ/mol
# GULP energy per Si atom -5585.780197 kJ/mol
# Density = 2.287310 g / cm^3
# Si number density = 22.925282 Si / 1000 Ang^3
#
#
#
# Elastic Constant Matrix: (Units=GPa)
#
#
# Indices 1 2 3 4 5 6 
#
# 1 105.7544 -6.2358 -3.1482 0.0000 0.0000 0.0000
# 2 -6.2358 70.1713 -5.7549 0.0000 0.0000 0.0000
# 3 -3.1482 -5.7549 59.5916 0.0000 0.0000 0.0000
# 4 0.0000 0.0000 0.0000 40.0601 0.0000 0.0000
# 5 0.0000 0.0000 0.0000 0.0000 -19.9294 0.0000
# 6 0.0000 0.0000 0.0000 0.0000 0.0000 72.4077
#
#
#
# Elastic Compliance Matrix: (Units=1/GPa)
#
#
# Indices 1 2 3 4 5 6 
#
# 1 0.009526 0.000895 0.000590 0.000000 0.000000 0.000000
# 2 0.000895 0.014449 0.001443 0.000000 0.000000 0.000000
# 3 0.000590 0.001443 0.016951 0.000000 0.000000 0.000000
# 4 0.000000 0.000000 0.000000 0.024963 0.000000 0.000000
# 5 0.000000 0.000000 0.000000 0.000000 -0.050177 0.000000
# 6 0.000000 0.000000 0.000000 0.000000 0.000000 0.013811
#
#
# Mechanical properties :
#
#
# Convention : Reuss Voigt Hill
#
# Bulk Modulus (GPa) = 21.37636 22.80440 22.09038
# Shear Modulus (GPa) = 127.35167 35.21809 81.28488
#
# Velocity S-wave (km/s) = 7.46132 3.92371 5.96099
# Velocity P-wave (km/s) = 9.14183 5.52233 7.55213
#
# Compressibility (1/GPa) = 0.04678065
#
# Stress axis : x y z
#
# Youngs Moduli (GPa) = 104.97375 69.21052 58.99230
#
# Poissons Ratio (x) = -0.06194 -0.03479
# Poissons Ratio (y) = -0.09394 -0.08510
# Poissons Ratio (z) = -0.06190 -0.09984
#
# Static dielectric constant tensor:
#      x y z
#    x 2.074050 0.000000 0.000000 
#    y 0.000000 1.754030 0.000000 
#    z 0.000000 0.000000 1.830370 
# 
# From -- ./inp_files/12767.got.cif
#   From: 2010.05.17/outbox.cif.g08.bks.cpg/sg51_7_cif.got.tgz:12767.got - 2010.06.03 11:52:47.
