data_PCOD9402852
_publ_section_title
;
Structure prediction by ZEFSAII (Michael W. Deem and Ramdas Pophale) SiO2 
 PCOD9402852
Probable space group: P M M A
;
_chemical_formula_sum "Si O2"
_cell_formula_units_Z 64
_cell_length_a 25.263767
_cell_length_b 7.859110
_cell_length_c 15.652071
_cell_angle_alpha 90.000000
_cell_angle_beta 90.000000
_cell_angle_gamma 90.000000
_cell_volume 3107.730027
_symmetry_space_group_name_H-M "P M M A"
_symmetry_group_IT_number 51
_symmetry_cell_setting 'orthorhombic'
loop_
_space_group_symop_operation_xyz
x,y,z
1/2-x,-y,z
1/2+x,-y,-z
-x,y,-z
-x,-y,-z
1/2+x,y,-z
1/2-x,y,z
x,-y,z
loop_
_atom_site_type_symbol
_atom_site_label
_atom_site_fract_x
_atom_site_fract_y
_atom_site_fract_z
Si Si1 0.346085 0.306367 0.600240
Si Si2 0.311103 0.701542 0.136455
Si Si3 0.117859 0.205011 0.788452
Si Si4 0.692014 0.200773 0.578597
Si Si5 0.531548 0.697231 0.418275
Si Si6 0.888537 0.802514 0.717587
Si Si7 0.810850 0.794045 0.054279
Si Si8 0.002150 0.190971 0.759829
O O1 0.327151 0.500000 0.604215
O O2 0.353151 0.244394 0.698079
O O3 0.314644 0.217779 0.523696
O O4 0.406313 0.300466 0.566824
O O5 0.250000 0.758830 0.142308
O O6 0.313077 0.500000 0.153025
O O7 0.346811 0.792764 0.205845
O O8 0.328725 0.735174 0.039223
O O9 0.152724 0.264997 0.867910
O O10 0.057027 0.271739 0.794937
O O11 0.113659 0.000000 0.791686
O O12 0.750000 0.272483 0.603090
O O13 0.642624 0.271102 0.634681
O O14 0.692900 0.000000 0.598516
O O15 0.500000 0.752863 0.500000
O O16 0.517015 0.500000 0.398250
O O17 0.517768 0.813788 0.339474
O O18 0.943812 0.726435 0.753847
O O19 0.901794 0.000000 0.697651
O O20 0.750000 0.737465 0.066097
O O21 0.811139 0.000000 0.054766
O O22 0.996867 0.000000 0.796983
#
# Coordination Sequence:
#
# PCOD9402852 Si02
#       8
#     8   8   8   8   8   8   8   8
#     4  10  20  32  48  72 101 134 170 207 251 302
#     4  10  21  36  55  80 106 131 164 210 262 312
#     4   9  18  34  54  77 107 139 172 213 257 303
#     4  10  21  35  50  70  98 133 173 216 259 305
#     4   9  17  29  45  66  94 129 167 206 248 294
#     4  10  20  35  55  77 102 136 176 215 258 307
#     4   9  18  34  57  80 100 129 169 209 252 305
#     4   9  18  31  49  74 101 131 170 213 254 298
#
# _framework density 20.593807999999999
#
# number of rings (size 3 to 8) (size 9 to 14) (size 15 to 20)
#    0.000    2.500    0.000    1.875    0.000    4.250 
#    0.000    1.875    0.000    3.750    0.000    0.000 
#    0.000    0.000    0.000    0.000    0.000    0.000 
#
# Total GULP energy -356522.419557 kJ/mol
# GULP energy per Si atom -5570.662806 kJ/mol
# Density = 2.054694 g / cm^3
# Si number density = 20.593808 Si / 1000 Ang^3
#
#
#
# Elastic Constant Matrix: (Units=GPa)
#
#
# Indices 1 2 3 4 5 6 
#
# 1 86.0208 6.1480 49.5782 0.0000 0.0000 0.0000
# 2 6.1480 24.1805 -4.4265 0.0000 0.0000 0.0000
# 3 49.5782 -4.4265 77.3994 0.0000 0.0000 0.0000
# 4 0.0000 0.0000 0.0000 -120.2959 0.0000 0.0000
# 5 0.0000 0.0000 0.0000 0.0000 33.9445 0.0000
# 6 0.0000 0.0000 0.0000 0.0000 0.0000 4.8322
#
#
#
# Elastic Compliance Matrix: (Units=1/GPa)
#
#
# Indices 1 2 3 4 5 6 
#
# 1 0.019650 -0.007378 -0.013009 0.000000 0.000000 0.000000
# 2 -0.007378 0.044563 0.007274 0.000000 0.000000 0.000000
# 3 -0.013009 0.007274 0.021669 0.000000 0.000000 0.000000
# 4 0.000000 0.000000 0.000000 -0.008313 0.000000 0.000000
# 5 0.000000 0.000000 0.000000 0.000000 0.029460 0.000000
# 6 0.000000 0.000000 0.000000 0.000000 0.000000 0.206947
#
#
# Mechanical properties :
#
#
# Convention : Reuss Voigt Hill
#
# Bulk Modulus (GPa) = 16.76225 32.24445 24.50335
# Shear Modulus (GPa) = 13.88559 -7.21711 3.33424
#
# Velocity S-wave (km/s) = 2.59947 -1.87406 1.27380
# Velocity P-wave (km/s) = 4.14328 3.31791 3.75335
#
# Compressibility (1/GPa) = 0.05965786
#
# Stress axis : x y z
#
# Youngs Moduli (GPa) = 50.89062 22.44009 46.14936
#
# Poissons Ratio (x) = 0.16555 0.60034
# Poissons Ratio (y) = 0.37545 -0.33570
# Poissons Ratio (z) = 0.66202 -0.16324
#
# Static dielectric constant tensor:
#      x y z
#    x 1.774140 0.000000 0.000000 
#    y 0.000000 1.780490 0.000000 
#    z 0.000000 0.000000 1.696170 
# 
# From -- ./inp_files/26362.got.cif
#   From: 2010.05.17/outbox.cif.g08.bks.cpg/sg51_14_cif.got.tgz:26362.got - 2010.06.03 11:52:47.
