data_PCOD9402820
_publ_section_title
;
Structure prediction by ZEFSAII (Michael W. Deem and Ramdas Pophale) SiO2 
 PCOD9402820
Probable space group: P M M A
;
_chemical_formula_sum "Si O2"
_cell_formula_units_Z 64
_cell_length_a 17.577541
_cell_length_b 14.196249
_cell_length_c 13.354546
_cell_angle_alpha 90.000000
_cell_angle_beta 90.000000
_cell_angle_gamma 90.000000
_cell_volume 3332.428624
_symmetry_space_group_name_H-M "P M M A"
_symmetry_group_IT_number 51
_symmetry_cell_setting 'orthorhombic'
loop_
_space_group_symop_operation_xyz
x,y,z
1/2-x,-y,z
1/2+x,-y,-z
-x,y,-z
-x,-y,-z
1/2+x,y,-z
1/2-x,y,z
x,-y,z
loop_
_atom_site_type_symbol
_atom_site_label
_atom_site_fract_x
_atom_site_fract_y
_atom_site_fract_z
Si Si1 0.161324 0.254511 0.932709
Si Si2 0.840036 0.388077 0.258456
Si Si3 0.159281 0.101845 0.239658
Si Si4 0.556159 0.169848 0.917817
Si Si5 0.161515 0.889295 0.598304
Si Si6 0.919292 0.111888 0.192560
Si Si7 0.159155 0.765959 0.412519
Si Si8 0.586426 0.387896 0.470243
O O1 0.250000 0.264310 0.962676
O O2 0.145137 0.329067 0.843141
O O3 0.144924 0.152675 0.882179
O O4 0.100043 0.254387 0.024196
O O5 0.750000 0.375248 0.281567
O O6 0.852854 0.500000 0.241220
O O7 0.886984 0.358944 0.357883
O O8 0.250000 0.105766 0.231730
O O9 0.122514 0.110322 0.131244
O O10 0.132846 0.187636 0.309335
O O11 0.138691 0.000000 0.284722
O O12 0.493610 0.175802 0.829493
O O13 0.500000 0.124568 0.000000
O O14 0.250000 0.862875 0.618842
O O15 0.112140 0.874206 0.696509
O O16 0.132481 0.831342 0.504075
O O17 0.161081 0.000000 0.574196
O O18 0.934503 0.000000 0.179558
O O19 0.250000 0.772505 0.410533
O O20 0.135710 0.662535 0.444637
O O21 0.500000 0.365014 0.500000
O O22 0.596194 0.500000 0.473426
#
# Coordination Sequence:
#
# PCOD9402820 Si02
#       8
#     8   8   8   8   8   8   8   8
#     4  10  20  34  55  80 102 130 174 225 275 323
#     4   9  18  35  60  87 111 135 170 222 279 330
#     4  10  21  37  55  76 106 145 186 225 266 317
#     4  10  22  37  52  71 102 139 180 226 271 315
#     4   9  17  31  52  79 110 141 175 218 267 319
#     4  10  20  32  47  72 107 142 175 214 261 313
#     4  10  20  34  55  81 109 143 182 221 264 317
#     4  10  21  35  53  81 116 150 181 215 262 322
#
# _framework density 19.205214000000002
#
# number of rings (size 3 to 8) (size 9 to 14) (size 15 to 20)
#    0.000    2.250    0.000    2.625    0.000   12.500 
#    0.000    0.000    0.000    7.125    0.000    1.750 
#    0.000    0.000    0.000    0.000    0.000    0.000 
#
# Total GULP energy -356385.463531 kJ/mol
# GULP energy per Si atom -5568.522868 kJ/mol
# Density = 1.916150 g / cm^3
# Si number density = 19.205214 Si / 1000 Ang^3
#
#
#
# Elastic Constant Matrix: (Units=GPa)
#
#
# Indices 1 2 3 4 5 6 
#
# 1 67.4427 34.9302 52.6842 0.0000 0.0000 0.0000
# 2 34.9302 41.6869 30.4910 0.0000 0.0000 0.0000
# 3 52.6842 30.4910 74.2301 0.0000 0.0000 0.0000
# 4 0.0000 0.0000 0.0000 27.5436 0.0000 0.0000
# 5 0.0000 0.0000 0.0000 0.0000 32.2260 0.0000
# 6 0.0000 0.0000 0.0000 0.0000 0.0000 10.3139
#
#
#
# Elastic Compliance Matrix: (Units=1/GPa)
#
#
# Indices 1 2 3 4 5 6 
#
# 1 0.041676 -0.018992 -0.021778 0.000000 0.000000 0.000000
# 2 -0.018992 0.042946 -0.004161 0.000000 0.000000 0.000000
# 3 -0.021778 -0.004161 0.030638 0.000000 0.000000 0.000000
# 4 0.000000 0.000000 0.000000 0.036306 0.000000 0.000000
# 5 0.000000 0.000000 0.000000 0.000000 0.031031 0.000000
# 6 0.000000 0.000000 0.000000 0.000000 0.000000 0.096956
#
#
# Mechanical properties :
#
#
# Convention : Reuss Voigt Hill
#
# Bulk Modulus (GPa) = 39.37459 46.61895 42.99677
# Shear Modulus (GPa) = 13.23167 18.36698 15.79932
#
# Velocity S-wave (km/s) = 2.62766 3.09585 2.87131
# Velocity P-wave (km/s) = 5.45460 6.09146 5.78180
#
# Compressibility (1/GPa) = 0.02539709
#
# Stress axis : x y z
#
# Youngs Moduli (GPa) = 23.99446 23.28520 32.63955
#
# Poissons Ratio (x) = 0.44224 0.71083
# Poissons Ratio (y) = 0.45571 0.13581
# Poissons Ratio (z) = 0.52255 0.09689
#
# Static dielectric constant tensor:
#      x y z
#    x 1.711550 0.000000 0.000000 
#    y 0.000000 1.685950 0.000000 
#    z 0.000000 0.000000 1.703560 
# 
# From -- ./inp_files/17580.got.cif
#   From: 2010.05.17/outbox.cif.g08.bks.cpg/sg51_9_cif.got.tgz:17580.got - 2010.06.03 11:52:47.
