data_PCOD9402647
_publ_section_title
;
Structure prediction by ZEFSAII (Michael W. Deem and Ramdas Pophale) SiO2 
 PCOD9402647
Probable space group: P M M A
;
_chemical_formula_sum "Si O2"
_cell_formula_units_Z 52
_cell_length_a 8.895187
_cell_length_b 15.970664
_cell_length_c 20.999815
_cell_angle_alpha 90.000000
_cell_angle_beta 90.000000
_cell_angle_gamma 90.000000
_cell_volume 2983.276617
_symmetry_space_group_name_H-M "P M M A"
_symmetry_group_IT_number 51
_symmetry_cell_setting 'orthorhombic'
loop_
_space_group_symop_operation_xyz
x,y,z
1/2-x,-y,z
1/2+x,-y,-z
-x,y,-z
-x,-y,-z
1/2+x,y,-z
1/2-x,y,z
x,-y,z
loop_
_atom_site_type_symbol
_atom_site_label
_atom_site_fract_x
_atom_site_fract_y
_atom_site_fract_z
Si Si1 0.568766 0.782163 0.675444
Si Si2 0.075623 0.624765 0.825551
Si Si3 0.570140 0.902654 0.430225
Si Si4 0.575804 0.179446 0.189154
Si Si5 0.422803 0.100904 0.066148
Si Si6 0.929266 0.500000 0.068009
Si Si7 0.070082 0.591885 0.307712
O O1 0.750000 0.784022 0.675369
O O2 0.502515 0.839432 0.619889
O O3 0.509453 0.818568 0.743016
O O4 0.519036 0.683944 0.667390
O O5 0.250000 0.601517 0.812137
O O6 0.070500 0.723818 0.832014
O O7 0.027044 0.579526 0.889537
O O8 0.976527 0.596509 0.766170
O O9 0.500000 0.889111 0.500000
O O10 0.750000 0.891603 0.432478
O O11 0.539731 0.000000 0.412562
O O12 0.750000 0.154876 0.198961
O O13 0.503961 0.128411 0.131157
O O14 0.250000 0.129648 0.067460
O O15 0.424024 0.000000 0.064485
O O16 0.500000 0.129935 0.000000
O O17 0.750000 0.500000 0.061499
O O18 0.000000 0.500000 0.000000
O O19 0.250000 0.591614 0.314080
O O20 0.015856 0.500000 0.332520
#
# Coordination Sequence:
#
# PCOD9402647 Si02
#       7
#     8   8   8   8   8   4   8
#     4  10  20  34  54  83 115 145 181 225 269 318
#     4   9  18  32  48  67  93 126 164 207 255 308
#     4  10  21  38  60  85 114 149 185 221 266 321
#     4  10  20  34  53  77 104 134 172 219 268 315
#     4  10  21  37  55  73  95 128 170 215 267 326
#     4  10  20  32  44  62  90 124 163 206 253 306
#     4   9  17  30  51  77 104 136 174 215 262 311
#
# _framework density 17.430499000000001
#
# number of rings (size 3 to 8) (size 9 to 14) (size 15 to 20)
#    0.000    2.308    0.769    1.846    0.000    4.923 
#    0.000    1.538    0.000    0.462    0.000    0.000 
#    0.000    0.000    0.000    0.000    0.000    0.000 
#
# Total GULP energy -289760.787841 kJ/mol
# GULP energy per Si atom -5572.322843 kJ/mol
# Density = 1.739083 g / cm^3
# Si number density = 17.430499 Si / 1000 Ang^3
#
#
#
# Elastic Constant Matrix: (Units=GPa)
#
#
# Indices 1 2 3 4 5 6 
#
# 1 70.0145 44.3405 47.0955 0.0000 0.0000 0.0000
# 2 44.3405 85.6851 74.8742 0.0000 0.0000 0.0000
# 3 47.0955 74.8742 113.7167 0.0000 0.0000 0.0000
# 4 0.0000 0.0000 0.0000 -88.7084 0.0000 0.0000
# 5 0.0000 0.0000 0.0000 0.0000 33.4263 0.0000
# 6 0.0000 0.0000 0.0000 0.0000 0.0000 17.3593
#
#
#
# Elastic Compliance Matrix: (Units=1/GPa)
#
#
# Indices 1 2 3 4 5 6 
#
# 1 0.021918 -0.008030 -0.003790 0.000000 0.000000 0.000000
# 2 -0.008030 0.030426 -0.016707 0.000000 0.000000 0.000000
# 3 -0.003790 -0.016707 0.021364 0.000000 0.000000 0.000000
# 4 0.000000 0.000000 0.000000 -0.011273 0.000000 0.000000
# 5 0.000000 0.000000 0.000000 0.000000 0.029917 0.000000
# 6 0.000000 0.000000 0.000000 0.000000 0.000000 0.057606
#
#
# Mechanical properties :
#
#
# Convention : Reuss Voigt Hill
#
# Bulk Modulus (GPa) = 60.05198 66.89295 63.47247
# Shear Modulus (GPa) = 23.52257 -0.71081 11.40588
#
# Velocity S-wave (km/s) = 3.67755 -0.63928 2.56083
# Velocity P-wave (km/s) = 7.24979 6.15754 6.72588
#
# Compressibility (1/GPa) = 0.01665224
#
# Stress axis : x y z
#
# Youngs Moduli (GPa) = 45.62545 32.86713 46.80834
#
# Poissons Ratio (x) = 0.26394 0.17739
# Poissons Ratio (y) = 0.36639 0.78204
# Poissons Ratio (z) = 0.17290 0.54912
#
# Static dielectric constant tensor:
#      x y z
#    x 1.600740 0.000000 0.000000 
#    y 0.000000 1.632210 0.000000 
#    z 0.000000 0.000000 1.548230 
# 
# From -- ./inp_files/31700.got.cif
#   From: 2010.05.17/outbox.cif.g08.bks.cpg/sg51_16_cif.got.tgz:31700.got - 2010.06.03 11:52:47.
