data_PCOD9402940
_publ_section_title
;
Structure prediction by ZEFSAII (Michael W. Deem and Ramdas Pophale) SiO2 
 PCOD9402940
Probable space group: P M M A
;
_chemical_formula_sum "Si O2"
_cell_formula_units_Z 64
_cell_length_a 14.948213
_cell_length_b 7.773678
_cell_length_c 24.110720
_cell_angle_alpha 90.000000
_cell_angle_beta 90.000000
_cell_angle_gamma 90.000000
_cell_volume 2801.728220
_symmetry_space_group_name_H-M "P M M A"
_symmetry_group_IT_number 51
_symmetry_cell_setting 'orthorhombic'
loop_
_space_group_symop_operation_xyz
x,y,z
1/2-x,-y,z
1/2+x,-y,-z
-x,y,-z
-x,-y,-z
1/2+x,y,-z
1/2-x,y,z
x,-y,z
loop_
_atom_site_type_symbol
_atom_site_label
_atom_site_fract_x
_atom_site_fract_y
_atom_site_fract_z
Si Si1 0.145161 0.709124 0.359177
Si Si2 0.605040 0.697743 0.984053
Si Si3 0.145954 0.306980 0.597872
Si Si4 0.957074 0.700802 0.749157
Si Si5 0.653367 0.801573 0.102427
Si Si6 0.852615 0.198277 0.281691
Si Si7 0.897595 0.303290 0.517947
Si Si8 0.452073 0.295344 0.131227
O O1 0.250000 0.747529 0.351705
O O2 0.134931 0.500000 0.360919
O O3 0.087412 0.773390 0.306916
O O4 0.115758 0.770240 0.420789
O O5 0.637663 0.500000 0.983295
O O6 0.602025 0.773657 0.922064
O O7 0.500000 0.691777 0.000000
O O8 0.650553 0.791079 0.035352
O O9 0.250000 0.332274 0.606161
O O10 0.102311 0.500000 0.597487
O O11 0.119459 0.209616 0.653205
O O12 0.140109 0.219718 0.537887
O O13 0.931704 0.500000 0.749775
O O14 0.928272 0.776680 0.808361
O O15 0.064946 0.710243 0.747545
O O16 0.750000 0.727645 0.120955
O O17 0.559285 0.723494 0.121950
O O18 0.651329 0.000000 0.119663
O O19 0.750000 0.263252 0.274455
O O20 0.852254 0.000000 0.264698
O O21 0.860163 0.500000 0.519493
O O22 0.000000 0.312925 0.500000
O O23 0.434972 0.500000 0.130994
#
# Coordination Sequence:
#
# PCOD9402940 Si02
#       8
#     8   8   8   8   8   8   8   8
#     4   9  17  30  50  77 107 136 169 216 269 312
#     4   8  15  30  50  71  97 128 161 198 243 294
#     4   9  16  27  45  68  93 122 158 200 247 303
#     4  10  20  35  55  77 102 136 179 221 258 304
#     4  10  20  32  49  77 108 134 164 203 248 302
#     4  10  21  35  50  71 102 138 174 215 266 321
#     4   9  15  23  41  72 103 126 155 202 259 314
#     4   9  19  34  51  73 100 131 170 211 250 297
#
# _framework density 22.843043000000002
#
# number of rings (size 3 to 8) (size 9 to 14) (size 15 to 20)
#    0.000    2.750    0.000    2.625    0.000    8.500 
#    0.000    3.125    0.000    6.000    0.000    0.000 
#    0.000    0.000    0.000    0.000    0.000    0.000 
#
# Total GULP energy -356501.647382 kJ/mol
# GULP energy per Si atom -5570.338240 kJ/mol
# Density = 2.279105 g / cm^3
# Si number density = 22.843043 Si / 1000 Ang^3
#
#
#
# Elastic Constant Matrix: (Units=GPa)
#
#
# Indices 1 2 3 4 5 6 
#
# 1 58.5081 -4.4314 19.1014 0.0000 0.0000 0.0000
# 2 -4.4314 32.8461 2.5518 0.0000 0.0000 0.0000
# 3 19.1014 2.5518 158.6899 0.0000 0.0000 0.0000
# 4 0.0000 0.0000 0.0000 7.9967 0.0000 0.0000
# 5 0.0000 0.0000 0.0000 0.0000 5.4448 0.0000
# 6 0.0000 0.0000 0.0000 0.0000 0.0000 -1.3843
#
#
#
# Elastic Compliance Matrix: (Units=1/GPa)
#
#
# Indices 1 2 3 4 5 6 
#
# 1 0.018010 0.002601 -0.002210 0.000000 0.000000 0.000000
# 2 0.002601 0.030859 -0.000809 0.000000 0.000000 0.000000
# 3 -0.002210 -0.000809 0.006581 0.000000 0.000000 0.000000
# 4 0.000000 0.000000 0.000000 0.125052 0.000000 0.000000
# 5 0.000000 0.000000 0.000000 0.000000 0.183662 0.000000
# 6 0.000000 0.000000 0.000000 0.000000 0.000000 -0.722374
#
#
# Mechanical properties :
#
#
# Convention : Reuss Voigt Hill
#
# Bulk Modulus (GPa) = 18.31019 31.60975 24.95997
# Shear Modulus (GPa) = -14.74188 17.93291 1.59552
#
# Velocity S-wave (km/s) = -2.54314 2.80491 0.83665
# Velocity P-wave (km/s) = 0.76835 4.93537 3.44728
#
# Compressibility (1/GPa) = 0.05461440
#
# Stress axis : x y z
#
# Youngs Moduli (GPa) = 55.52446 32.40558 151.96199
#
# Poissons Ratio (x) = -0.08430 0.33579
# Poissons Ratio (y) = -0.14445 0.12299
# Poissons Ratio (z) = 0.12269 0.02623
#
# Static dielectric constant tensor:
#      x y z
#    x 1.752500 0.000000 0.000000 
#    y 0.000000 1.872160 0.000000 
#    z 0.000000 0.000000 1.949580 
# 
# From -- ./inp_files/35775.got.cif
#   From: 2010.05.17/outbox.cif.g08.bks.cpg/sg51_18_cif.got.tgz:35775.got - 2010.06.03 11:52:47.
