data_PCOD9402944
_publ_section_title
;
Structure prediction by ZEFSAII (Michael W. Deem and Ramdas Pophale) SiO2 
 PCOD9402944
Probable space group: P M M A
;
_chemical_formula_sum "Si O2"
_cell_formula_units_Z 56
_cell_length_a 23.662181
_cell_length_b 8.778107
_cell_length_c 14.512838
_cell_angle_alpha 90.000000
_cell_angle_beta 90.000000
_cell_angle_gamma 90.000000
_cell_volume 3014.449342
_symmetry_space_group_name_H-M "P M M A"
_symmetry_group_IT_number 51
_symmetry_cell_setting 'orthorhombic'
loop_
_space_group_symop_operation_xyz
x,y,z
1/2-x,-y,z
1/2+x,-y,-z
-x,y,-z
-x,-y,-z
1/2+x,y,-z
1/2-x,y,z
x,-y,z
loop_
_atom_site_type_symbol
_atom_site_label
_atom_site_fract_x
_atom_site_fract_y
_atom_site_fract_z
Si Si1 0.642901 0.681212 0.957476
Si Si2 0.750000 0.180870 0.853982
Si Si3 0.361154 0.683693 0.461420
Si Si4 0.250000 0.315115 0.351229
Si Si5 0.465314 0.177740 0.138562
Si Si6 0.531694 0.177666 0.640812
Si Si7 0.909443 0.683516 0.351910
Si Si8 0.087695 0.316341 0.857699
O O1 0.651327 0.500000 0.949755
O O2 0.694646 0.764450 0.908846
O O3 0.584447 0.728152 0.908460
O O4 0.633645 0.721610 0.064890
O O5 0.750000 0.252841 0.752099
O O6 0.750000 0.000000 0.845631
O O7 0.361209 0.500000 0.458909
O O8 0.305669 0.735229 0.406968
O O9 0.417113 0.742555 0.411026
O O10 0.365907 0.730794 0.568547
O O11 0.250000 0.500000 0.347153
O O12 0.458836 0.189673 0.249166
O O13 0.527571 0.241616 0.117046
O O14 0.461317 0.000000 0.112647
O O15 0.471214 0.253673 0.621953
O O16 0.529536 0.000000 0.616139
O O17 0.912153 0.500000 0.351802
O O18 0.897257 0.731396 0.246690
O O19 0.080369 0.500000 0.858734
#
# Coordination Sequence:
#
# PCOD9402944 Si02
#       8
#     8   4   8   4   8   8   8   8
#     4  11  22  37  57  80 107 142 182 222 267 316
#     4  12  26  42  59  80 106 138 177 220 267 318
#     4  10  20  34  54  78 104 138 177 217 262 310
#     4  10  22  40  59  80 106 136 173 216 261 312
#     4  10  20  33  52  81 114 146 179 219 268 318
#     4  10  20  32  49  77 110 142 176 215 262 314
#     4   9  18  34  54  78 108 139 173 214 260 311
#     4   9  19  35  55  80 110 143 178 218 265 318
#
# _framework density 18.577190999999999
#
# number of rings (size 3 to 8) (size 9 to 14) (size 15 to 20)
#    0.000    2.000    0.000    3.643    0.000    9.714 
#    0.000    0.714    0.000    3.429    0.000    1.000 
#    0.000    0.000    0.000    0.000    0.000    0.000 
#
# Total GULP energy -312747.406632 kJ/mol
# GULP energy per Si atom -5584.775118 kJ/mol
# Density = 1.853491 g / cm^3
# Si number density = 18.577191 Si / 1000 Ang^3
#
#
#
# Elastic Constant Matrix: (Units=GPa)
#
#
# Indices 1 2 3 4 5 6 
#
# 1 94.6638 25.7709 94.1511 0.0000 0.0000 0.0000
# 2 25.7709 28.1326 35.2937 0.0000 0.0000 0.0000
# 3 94.1511 35.2937 124.9092 0.0000 0.0000 0.0000
# 4 0.0000 0.0000 0.0000 12.8952 0.0000 0.0000
# 5 0.0000 0.0000 0.0000 0.0000 32.1338 0.0000
# 6 0.0000 0.0000 0.0000 0.0000 0.0000 -15.2012
#
#
#
# Elastic Compliance Matrix: (Units=1/GPa)
#
#
# Indices 1 2 3 4 5 6 
#
# 1 0.042268 0.001936 -0.032407 0.000000 0.000000 0.000000
# 2 0.001936 0.055154 -0.017043 0.000000 0.000000 0.000000
# 3 -0.032407 -0.017043 0.037248 0.000000 0.000000 0.000000
# 4 0.000000 0.000000 0.000000 0.077548 0.000000 0.000000
# 5 0.000000 0.000000 0.000000 0.000000 0.031120 0.000000
# 6 0.000000 0.000000 0.000000 0.000000 0.000000 -0.065784
#
#
# Mechanical properties :
#
#
# Convention : Reuss Voigt Hill
#
# Bulk Modulus (GPa) = 25.22562 62.01521 43.62042
# Shear Modulus (GPa) = 17.49503 12.13157 14.81330
#
# Velocity S-wave (km/s) = 3.07212 2.55823 2.82688
# Velocity P-wave (km/s) = 5.11783 6.49469 5.84693
#
# Compressibility (1/GPa) = 0.03964223
#
# Stress axis : x y z
#
# Youngs Moduli (GPa) = 23.65874 18.13104 26.84695
#
# Poissons Ratio (x) = -0.03511 0.87002
# Poissons Ratio (y) = -0.04581 0.45756
# Poissons Ratio (z) = 0.76670 0.30902
#
# Static dielectric constant tensor:
#      x y z
#    x 1.596090 0.000000 0.000000 
#    y 0.000000 1.618700 0.000000 
#    z 0.000000 0.000000 1.679280 
# 
# From -- ./inp_files/25854.got.cif
#   From: 2010.05.17/outbox.cif.g08.bks.cpg/sg51_13_cif.got.tgz:25854.got - 2010.06.03 11:52:47.
