data_PCOD9402464
_publ_section_title
;
Structure prediction by ZEFSAII (Michael W. Deem and Ramdas Pophale) SiO2 
 PCOD9402464
Probable space group: P M M A
;
_chemical_formula_sum "Si O2"
_cell_formula_units_Z 64
_cell_length_a 23.615003
_cell_length_b 15.367604
_cell_length_c 8.107729
_cell_angle_alpha 90.000000
_cell_angle_beta 90.000000
_cell_angle_gamma 90.000000
_cell_volume 2942.343619
_symmetry_space_group_name_H-M "P M M A"
_symmetry_group_IT_number 51
_symmetry_cell_setting 'orthorhombic'
loop_
_space_group_symop_operation_xyz
x,y,z
1/2-x,-y,z
1/2+x,-y,-z
-x,y,-z
-x,-y,-z
1/2+x,y,-z
1/2-x,y,z
x,-y,z
loop_
_atom_site_type_symbol
_atom_site_label
_atom_site_fract_x
_atom_site_fract_y
_atom_site_fract_z
Si Si1 0.549785 0.906089 0.218359
Si Si2 0.987369 0.405920 0.806659
Si Si3 0.315480 0.600503 0.802072
Si Si4 0.081153 0.134669 0.142377
Si Si5 0.686350 0.903704 0.620992
Si Si6 0.449563 0.257323 0.605785
Si Si7 0.872184 0.329442 0.865209
Si Si8 0.334750 0.289057 0.470865
O O1 0.482341 0.884335 0.208579
O O2 0.577552 0.823010 0.300874
O O3 0.556993 0.000000 0.299191
O O4 0.576297 0.907323 0.036964
O O5 0.004790 0.500000 0.740199
O O6 0.919879 0.395984 0.803541
O O7 0.022792 0.331054 0.717484
O O8 0.000000 0.400923 0.000000
O O9 0.250000 0.598599 0.853507
O O10 0.334571 0.500000 0.776944
O O11 0.316961 0.653838 0.628861
O O12 0.349488 0.643495 0.954402
O O13 0.132894 0.101556 0.254497
O O14 0.094669 0.237063 0.121048
O O15 0.750000 0.901818 0.698331
O O16 0.683194 0.812540 0.521014
O O17 0.682448 0.000000 0.538364
O O18 0.500000 0.218953 0.500000
O O19 0.402536 0.293215 0.486336
O O20 0.825320 0.319992 0.718664
#
# Coordination Sequence:
#
# PCOD9402464 Si02
#       8
#     8   8   8   8   8   8   8   8
#     4  11  21  34  60  92 131 177 218 264 330 396
#     4  11  22  38  61  89 124 167 215 266 324 389
#     4  11  26  46  68  98 131 166 220 284 339 397
#     4  10  19  36  60  93 134 169 215 275 328 393
#     4  10  21  39  65  96 130 172 223 274 329 394
#     4  12  23  40  57  91 132 167 216 265 317 387
#     4  11  22  42  67  93 129 176 218 268 326 406
#     4  11  24  43  68  96 134 176 217 273 336 398
#
# _framework density 21.751369
#
# number of rings (size 3 to 8) (size 9 to 14) (size 15 to 20)
#    0.000    1.125    2.500    5.250    0.000    6.000 
#    0.000    1.250    0.000    0.750    0.000    8.750 
#    0.000    0.000    0.000    0.000    0.000    0.000 
#
# Total GULP energy -356914.263437 kJ/mol
# GULP energy per Si atom -5576.785366 kJ/mol
# Density = 2.170186 g / cm^3
# Si number density = 21.751369 Si / 1000 Ang^3
#
#
#
# Elastic Constant Matrix: (Units=GPa)
#
#
# Indices 1 2 3 4 5 6 
#
# 1 80.3103 13.0091 24.7883 0.0000 0.0000 0.0000
# 2 13.0091 178.4294 68.3725 0.0000 0.0000 0.0000
# 3 24.7883 68.3725 97.7975 0.0000 0.0000 0.0000
# 4 0.0000 0.0000 0.0000 29.8820 0.0000 0.0000
# 5 0.0000 0.0000 0.0000 0.0000 18.4247 0.0000
# 6 0.0000 0.0000 0.0000 0.0000 0.0000 16.8796
#
#
#
# Elastic Compliance Matrix: (Units=1/GPa)
#
#
# Indices 1 2 3 4 5 6 
#
# 1 0.013535 0.000448 -0.003744 0.000000 0.000000 0.000000
# 2 0.000448 0.007670 -0.005476 0.000000 0.000000 0.000000
# 3 -0.003744 -0.005476 0.015002 0.000000 0.000000 0.000000
# 4 0.000000 0.000000 0.000000 0.033465 0.000000 0.000000
# 5 0.000000 0.000000 0.000000 0.000000 0.054275 0.000000
# 6 0.000000 0.000000 0.000000 0.000000 0.000000 0.059243
#
#
# Mechanical properties :
#
#
# Convention : Reuss Voigt Hill
#
# Bulk Modulus (GPa) = 53.57985 63.20856 58.39420
# Shear Modulus (GPa) = 24.15987 29.72842 26.94414
#
# Velocity S-wave (km/s) = 3.33638 3.70095 3.52338
# Velocity P-wave (km/s) = 6.28715 6.88370 6.59218
#
# Compressibility (1/GPa) = 0.01866373
#
# Stress axis : x y z
#
# Youngs Moduli (GPa) = 73.88439 130.37637 66.65617
#
# Poissons Ratio (x) = -0.05837 0.24953
# Poissons Ratio (y) = -0.03308 0.36500
# Poissons Ratio (z) = 0.27659 0.71392
#
# Static dielectric constant tensor:
#      x y z
#    x 1.860710 0.000000 0.000000 
#    y 0.000000 1.854010 0.000000 
#    z 0.000000 0.000000 1.844620 
# 
# From -- ./inp_files/11871.got.cif
#   From: 2010.05.17/outbox.cif.g08.bks.cpg/sg51_6_cif.got.tgz:11871.got - 2010.06.03 11:52:47.
