data_PCOD9402930
_publ_section_title
;
Structure prediction by ZEFSAII (Michael W. Deem and Ramdas Pophale) SiO2 
 PCOD9402930
Probable space group: P M M A
;
_chemical_formula_sum "Si O2"
_cell_formula_units_Z 40
_cell_length_a 7.597424
_cell_length_b 9.996609
_cell_length_c 26.086150
_cell_angle_alpha 90.000000
_cell_angle_beta 90.000000
_cell_angle_gamma 90.000000
_cell_volume 1981.203367
_symmetry_space_group_name_H-M "P M M A"
_symmetry_group_IT_number 51
_symmetry_cell_setting 'orthorhombic'
loop_
_space_group_symop_operation_xyz
x,y,z
1/2-x,-y,z
1/2+x,-y,-z
-x,y,-z
-x,-y,-z
1/2+x,y,-z
1/2-x,y,z
x,-y,z
loop_
_atom_site_type_symbol
_atom_site_label
_atom_site_fract_x
_atom_site_fract_y
_atom_site_fract_z
Si Si1 0.961292 0.347680 0.557342
Si Si2 0.541938 0.349251 0.850965
Si Si3 0.040866 0.850529 0.940419
Si Si4 0.535146 0.847102 0.646369
Si Si5 0.465112 0.153093 0.237143
O O1 0.750000 0.353299 0.562221
O O2 0.029076 0.500000 0.561159
O O3 0.027768 0.253344 0.602674
O O4 0.000000 0.297507 0.500000
O O5 0.750000 0.361374 0.841145
O O6 0.469564 0.500000 0.854155
O O7 0.523740 0.264663 0.902939
O O8 0.469718 0.258141 0.804745
O O9 0.250000 0.855172 0.934862
O O10 0.970339 0.000000 0.927544
O O11 0.000000 0.825073 0.000000
O O12 0.750000 0.845214 0.645874
O O13 0.482343 0.812994 0.704588
O O14 0.481645 0.000000 0.636080
O O15 0.250000 0.152741 0.236080
O O16 0.519645 0.000000 0.225818
#
# Coordination Sequence:
#
# PCOD9402930 Si02
#       5
#     8   8   8   8   8
#     4   9  17  28  42  61  86 116 149 186 229 277
#     4  10  20  32  49  76 106 133 161 195 238 287
#     4  10  21  37  57  78  99 128 166 204 242 285
#     4   8  14  25  42  65  90 116 150 192 234 272
#     4   8  14  26  45  68  94 123 155 194 237 278
#
# _framework density 20.189748999999999
#
# number of rings (size 3 to 8) (size 9 to 14) (size 15 to 20)
#    0.000    3.000    0.000    2.400    0.000    4.000 
#    0.000    4.000    0.000    1.200    0.000    5.600 
#    0.000    0.000    0.000    0.000    0.000    0.000 
#
# Total GULP energy -223138.842569 kJ/mol
# GULP energy per Si atom -5578.471064 kJ/mol
# Density = 2.014380 g / cm^3
# Si number density = 20.189749 Si / 1000 Ang^3
#
#
#
# Elastic Constant Matrix: (Units=GPa)
#
#
# Indices 1 2 3 4 5 6 
#
# 1 43.6159 5.5035 -3.8128 0.0000 0.0000 0.0000
# 2 5.5035 168.3739 137.2044 0.0000 0.0000 0.0000
# 3 -3.8128 137.2044 157.5001 0.0000 0.0000 0.0000
# 4 0.0000 0.0000 0.0000 -29.3943 0.0000 0.0000
# 5 0.0000 0.0000 0.0000 0.0000 12.7104 0.0000
# 6 0.0000 0.0000 0.0000 0.0000 0.0000 6.5112
#
#
#
# Elastic Compliance Matrix: (Units=1/GPa)
#
#
# Indices 1 2 3 4 5 6 
#
# 1 0.023850 -0.004309 0.004331 0.000000 0.000000 0.000000
# 2 -0.004309 0.021249 -0.018615 0.000000 0.000000 0.000000
# 3 0.004331 -0.018615 0.022671 0.000000 0.000000 0.000000
# 4 0.000000 0.000000 0.000000 -0.034020 0.000000 0.000000
# 5 0.000000 0.000000 0.000000 0.000000 0.078676 0.000000
# 6 0.000000 0.000000 0.000000 0.000000 0.000000 0.153582
#
#
# Mechanical properties :
#
#
# Convention : Reuss Voigt Hill
#
# Bulk Modulus (GPa) = 32.69781 71.92001 52.30891
# Shear Modulus (GPa) = 15.95467 13.33843 14.64655
#
# Velocity S-wave (km/s) = 2.81416 2.57311 2.69633
# Velocity P-wave (km/s) = 5.17588 6.67287 5.97147
#
# Compressibility (1/GPa) = 0.03058309
#
# Stress axis : x y z
#
# Youngs Moduli (GPa) = 41.92936 47.06037 44.10992
#
# Poissons Ratio (x) = 0.20276 -0.19103
# Poissons Ratio (y) = 0.18066 0.82112
# Poissons Ratio (z) = -0.18158 0.87605
#
# Static dielectric constant tensor:
#      x y z
#    x 1.780770 0.000000 0.000000 
#    y 0.000000 1.713370 0.000000 
#    z 0.000000 0.000000 1.694680 
# 
# From -- ./inp_files/35973.got.cif
#   From: 2010.05.17/outbox.cif.g08.bks.cpg/sg51_18_cif.got.tgz:35973.got - 2010.06.03 11:52:47.
