data_PCOD9402423
_publ_section_title
;
Structure prediction by ZEFSAII (Michael W. Deem and Ramdas Pophale) SiO2 
 PCOD9402423
Probable space group: P M M A
;
_chemical_formula_sum "Si O2"
_cell_formula_units_Z 48
_cell_length_a 14.396241
_cell_length_b 17.580496
_cell_length_c 10.356213
_cell_angle_alpha 90.000000
_cell_angle_beta 90.000000
_cell_angle_gamma 90.000000
_cell_volume 2621.085610
_symmetry_space_group_name_H-M "P M M A"
_symmetry_group_IT_number 51
_symmetry_cell_setting 'orthorhombic'
loop_
_space_group_symop_operation_xyz
x,y,z
1/2-x,-y,z
1/2+x,-y,-z
-x,y,-z
-x,-y,-z
1/2+x,y,-z
1/2-x,y,z
x,-y,z
loop_
_atom_site_type_symbol
_atom_site_label
_atom_site_fract_x
_atom_site_fract_y
_atom_site_fract_z
Si Si1 0.073040 0.175425 0.618002
Si Si2 0.750000 0.909692 0.480514
Si Si3 0.439556 0.174257 0.131468
Si Si4 0.552616 0.651297 0.867312
Si Si5 0.750000 0.907933 0.784913
Si Si6 0.357142 0.500000 0.519053
Si Si7 0.072582 0.343717 0.617224
Si Si8 0.859237 0.500000 0.768586
O O1 0.157565 0.119096 0.591331
O O2 0.118011 0.260404 0.616202
O O3 0.000000 0.169421 0.500000
O O4 0.011693 0.164602 0.748066
O O5 0.750000 0.884719 0.632134
O O6 0.750000 0.000000 0.482348
O O7 0.406734 0.263141 0.130835
O O8 0.346089 0.124494 0.152560
O O9 0.500000 0.160837 0.000000
O O10 0.479527 0.651948 0.751625
O O11 0.614462 0.578050 0.838973
O O12 0.500000 0.639819 0.000000
O O13 0.750000 0.000000 0.792985
O O14 0.250000 0.500000 0.491288
O O15 0.375619 0.577755 0.593793
O O16 0.404453 0.500000 0.376453
O O17 0.000000 0.340240 0.500000
O O18 0.750000 0.500000 0.759757
#
# Coordination Sequence:
#
# PCOD9402423 Si02
#       8
#     8   4   8   8   4   4   8   4
#     4  10  21  39  63  93 120 163 208 252 304 367
#     4  11  24  39  65  98 130 163 202 259 314 368
#     4  10  23  43  66  93 127 167 207 256 311 370
#     4  10  21  39  59  82 114 159 198 241 300 355
#     4  11  24  41  67  98 126 163 204 255 318 374
#     4  11  22  32  51  87 116 151 193 254 300 341
#     4  10  19  36  57  79 113 151 196 242 296 348
#     4  11  22  33  53  88 114 147 201 248 292 353
#
# _framework density 18.313023999999999
#
# number of rings (size 3 to 8) (size 9 to 14) (size 15 to 20)
#    0.000    1.667    3.333    1.000    2.333    2.000 
#    0.000    2.500    0.000    0.000    0.000    0.000 
#    0.000    0.000    0.000    0.000    0.000    0.000 
#
# Total GULP energy -267405.987801 kJ/mol
# GULP energy per Si atom -5570.958079 kJ/mol
# Density = 1.827134 g / cm^3
# Si number density = 18.313024 Si / 1000 Ang^3
#
#
#
# Elastic Constant Matrix: (Units=GPa)
#
#
# Indices 1 2 3 4 5 6 
#
# 1 90.2333 67.1266 41.9903 0.0000 0.0000 0.0000
# 2 67.1266 123.4193 42.6398 0.0000 0.0000 0.0000
# 3 41.9903 42.6398 135.3196 0.0000 0.0000 0.0000
# 4 0.0000 0.0000 0.0000 41.7650 0.0000 0.0000
# 5 0.0000 0.0000 0.0000 0.0000 15.2408 0.0000
# 6 0.0000 0.0000 0.0000 0.0000 0.0000 49.4796
#
#
#
# Elastic Compliance Matrix: (Units=1/GPa)
#
#
# Indices 1 2 3 4 5 6 
#
# 1 0.019688 -0.009648 -0.003069 0.000000 0.000000 0.000000
# 2 -0.009648 0.013820 -0.001361 0.000000 0.000000 0.000000
# 3 -0.003069 -0.001361 0.008771 0.000000 0.000000 0.000000
# 4 0.000000 0.000000 0.000000 0.023944 0.000000 0.000000
# 5 0.000000 0.000000 0.000000 0.000000 0.065613 0.000000
# 6 0.000000 0.000000 0.000000 0.000000 0.000000 0.020210
#
#
# Mechanical properties :
#
#
# Convention : Reuss Voigt Hill
#
# Bulk Modulus (GPa) = 70.80563 72.49840 71.65202
# Shear Modulus (GPa) = 27.04029 34.44478 30.74253
#
# Velocity S-wave (km/s) = 3.84677 4.34163 4.10167
# Velocity P-wave (km/s) = 7.64711 8.05030 7.85129
#
# Compressibility (1/GPa) = 0.01412317
#
# Stress axis : x y z
#
# Youngs Moduli (GPa) = 50.79307 72.35933 114.00994
#
# Poissons Ratio (x) = 0.69809 0.34992
# Poissons Ratio (y) = 0.49003 0.15517
# Poissons Ratio (z) = 0.15589 0.09848
#
# Static dielectric constant tensor:
#      x y z
#    x 1.602740 0.000000 0.000000 
#    y 0.000000 1.679860 0.000000 
#    z 0.000000 0.000000 1.629920 
# 
# From -- ./inp_files/8399.got.cif
#   From: 2010.05.17/outbox.cif.g08.bks.cpg/sg51_5_cif.got.tgz:8399.got - 2010.06.03 11:52:47.
