data_PCOD9402312
_publ_section_title
;
Structure prediction by ZEFSAII (Michael W. Deem and Ramdas Pophale) SiO2 
 PCOD9402312
Probable space group: P M M A
;
_chemical_formula_sum "Si O2"
_cell_formula_units_Z 48
_cell_length_a 35.337007
_cell_length_b 7.937833
_cell_length_c 8.979147
_cell_angle_alpha 90.000000
_cell_angle_beta 90.000000
_cell_angle_gamma 90.000000
_cell_volume 2518.644091
_symmetry_space_group_name_H-M "P M M A"
_symmetry_group_IT_number 51
_symmetry_cell_setting 'orthorhombic'
loop_
_space_group_symop_operation_xyz
x,y,z
1/2-x,-y,z
1/2+x,-y,-z
-x,y,-z
-x,-y,-z
1/2+x,y,-z
1/2-x,y,z
x,-y,z
loop_
_atom_site_type_symbol
_atom_site_label
_atom_site_fract_x
_atom_site_fract_y
_atom_site_fract_z
Si Si1 0.250000 0.297718 0.821356
Si Si2 0.456923 0.500000 0.817738
Si Si3 0.750000 0.705843 0.835483
Si Si4 0.902695 0.804291 0.181303
Si Si5 0.172337 0.304855 0.313780
Si Si6 0.043498 0.500000 0.180624
Si Si7 0.325436 0.801438 0.647515
Si Si8 0.904733 0.187654 0.823866
O O1 0.250000 0.500000 0.819287
O O2 0.212374 0.236657 0.739033
O O3 0.250000 0.241784 0.992897
O O4 0.434074 0.332146 0.772662
O O5 0.500283 0.500000 0.766460
O O6 0.457562 0.500000 0.999237
O O7 0.750000 0.500000 0.829086
O O8 0.711591 0.761424 0.754849
O O9 0.862751 0.760375 0.256962
O O10 0.912045 0.000000 0.217397
O O11 0.898800 0.794430 0.002024
O O12 0.167986 0.500000 0.267184
O O13 0.174679 0.293644 0.491243
O O14 0.135578 0.209641 0.254766
O O15 0.066764 0.334075 0.225659
O O16 0.326731 0.000000 0.614232
O O17 0.919811 0.000000 0.795711
#
# Coordination Sequence:
#
# PCOD9402312 Si02
#       8
#     4   4   4   8   8   4   8   8
#     4  11  22  37  58  82 108 147 190 233 283 327
#     4   9  18  32  59  82 119 144 185 227 290 333
#     4   9  21  37  56  82 112 144 187 238 279 327
#     4   9  20  35  56  84 114 149 190 233 281 338
#     4  11  21  36  57  83 113 149 192 233 279 334
#     4   9  18  34  53  90 113 148 181 233 278 349
#     4  11  23  38  54  80 115 149 188 234 281 332
#     4  10  19  35  57  83 115 150 187 233 284 333
#
# _framework density 19.057873000000001
#
# number of rings (size 3 to 8) (size 9 to 14) (size 15 to 20)
#    0.000    2.000    0.833    2.750    2.333    1.333 
#    0.000    7.083    0.000    2.000    0.000    3.500 
#    0.000    0.000    0.000    0.000    0.000    0.000 
#
# Total GULP energy -268068.042480 kJ/mol
# GULP energy per Si atom -5584.750885 kJ/mol
# Density = 1.901450 g / cm^3
# Si number density = 19.057873 Si / 1000 Ang^3
#
#
#
# Elastic Constant Matrix: (Units=GPa)
#
#
# Indices 1 2 3 4 5 6 
#
# 1 178.2532 74.0112 45.5014 0.0000 0.0000 0.0000
# 2 74.0112 94.1090 31.9630 0.0000 0.0000 0.0000
# 3 45.5014 31.9630 47.8839 0.0000 0.0000 0.0000
# 4 0.0000 0.0000 0.0000 18.6899 0.0000 0.0000
# 5 0.0000 0.0000 0.0000 0.0000 -20.2187 0.0000
# 6 0.0000 0.0000 0.0000 0.0000 0.0000 14.0991
#
#
#
# Elastic Compliance Matrix: (Units=1/GPa)
#
#
# Indices 1 2 3 4 5 6 
#
# 1 0.009187 -0.005509 -0.005053 0.000000 0.000000 0.000000
# 2 -0.005509 0.017045 -0.006143 0.000000 0.000000 0.000000
# 3 -0.005053 -0.006143 0.029785 0.000000 0.000000 0.000000
# 4 0.000000 0.000000 0.000000 0.053505 0.000000 0.000000
# 5 0.000000 0.000000 0.000000 0.000000 -0.049459 0.000000
# 6 0.000000 0.000000 0.000000 0.000000 0.000000 0.070927
#
#
# Mechanical properties :
#
#
# Convention : Reuss Voigt Hill
#
# Bulk Modulus (GPa) = 44.23091 69.24414 56.73753
# Shear Modulus (GPa) = 29.08083 13.76542 21.42313
#
# Velocity S-wave (km/s) = 3.91054 2.69047 3.35641
# Velocity P-wave (km/s) = 6.60673 6.78705 6.69750
#
# Compressibility (1/GPa) = 0.02260862
#
# Stress axis : x y z
#
# Youngs Moduli (GPa) = 108.84789 58.66892 33.57347
#
# Poissons Ratio (x) = 0.32321 0.16964
# Poissons Ratio (y) = 0.59965 0.20623
# Poissons Ratio (z) = 0.54997 0.36038
#
# Static dielectric constant tensor:
#      x y z
#    x 1.624610 0.000000 0.000000 
#    y 0.000000 1.684670 0.000000 
#    z 0.000000 0.000000 1.632030 
# 
# From -- ./inp_files/13001.got.cif
#   From: 2010.05.17/outbox.cif.g08.bks.cpg/sg51_7_cif.got.tgz:13001.got - 2010.06.03 11:52:47.
