data_PCOD9402418
_publ_section_title
;
Structure prediction by ZEFSAII (Michael W. Deem and Ramdas Pophale) SiO2 
 PCOD9402418
Probable space group: P M M A
;
_chemical_formula_sum "Si O2"
_cell_formula_units_Z 48
_cell_length_a 8.507298
_cell_length_b 10.601860
_cell_length_c 29.168940
_cell_angle_alpha 90.000000
_cell_angle_beta 90.000000
_cell_angle_gamma 90.000000
_cell_volume 2630.839525
_symmetry_space_group_name_H-M "P M M A"
_symmetry_group_IT_number 51
_symmetry_cell_setting 'orthorhombic'
loop_
_space_group_symop_operation_xyz
x,y,z
1/2-x,-y,z
1/2+x,-y,-z
-x,y,-z
-x,-y,-z
1/2+x,y,-z
1/2-x,y,z
x,-y,z
loop_
_atom_site_type_symbol
_atom_site_label
_atom_site_fract_x
_atom_site_fract_y
_atom_site_fract_z
Si Si1 0.939245 0.146724 0.049123
Si Si2 0.938780 0.000000 0.798638
Si Si3 0.061531 0.742520 0.355987
Si Si4 0.940481 0.242620 0.146582
Si Si5 0.561214 0.500000 0.301203
Si Si6 0.441757 0.500000 0.804899
Si Si7 0.561849 0.352702 0.450232
Si Si8 0.941608 0.000000 0.692622
O O1 0.750000 0.147584 0.048078
O O2 0.991198 0.223420 0.093834
O O3 0.989809 0.000000 0.054654
O O4 0.000000 0.192287 0.000000
O O5 0.000587 0.876083 0.824287
O O6 0.750000 0.000000 0.799710
O O7 0.991332 0.000000 0.745632
O O8 0.250000 0.739585 0.355133
O O9 0.998748 0.624096 0.327054
O O10 0.004609 0.725978 0.408009
O O11 0.007038 0.873176 0.333148
O O12 0.750000 0.240517 0.147147
O O13 0.993391 0.373412 0.169187
O O14 0.750000 0.500000 0.302627
O O15 0.509034 0.500000 0.248181
O O16 0.250000 0.500000 0.805145
O O17 0.500000 0.312500 0.500000
O O18 0.750000 0.348244 0.449769
O O19 0.513566 0.500000 0.443762
O O20 0.750000 0.000000 0.692426
#
# Coordination Sequence:
#
# PCOD9402418 Si02
#       8
#     8   4   8   8   4   4   8   4
#     4   9  17  30  50  75 102 133 172 219 267 318
#     4  11  21  35  56  81 108 143 184 227 270 313
#     4  11  21  37  59  81 110 149 185 222 271 319
#     4  10  19  36  56  79 107 140 181 222 268 322
#     4  11  21  35  54  83 112 140 184 228 266 317
#     4   9  20  35  56  79 107 144 180 222 269 319
#     4  10  20  35  57  85 115 141 179 228 270 319
#     4   9  22  39  54  79 114 147 184 225 268 323
#
# _framework density 18.245128000000001
#
# number of rings (size 3 to 8) (size 9 to 14) (size 15 to 20)
#    0.000    2.000    1.667    2.500    0.000    1.333 
#    0.000    6.250    0.000    0.000    0.000    0.000 
#    0.000    0.000    0.000    0.000    0.000    0.000 
#
# Total GULP energy -268022.805451 kJ/mol
# GULP energy per Si atom -5583.808447 kJ/mol
# Density = 1.820360 g / cm^3
# Si number density = 18.245128 Si / 1000 Ang^3
#
#
#
# Elastic Constant Matrix: (Units=GPa)
#
#
# Indices 1 2 3 4 5 6 
#
# 1 25.6684 23.5187 32.4551 0.0000 0.0000 0.0000
# 2 23.5187 150.6909 105.0247 0.0000 0.0000 0.0000
# 3 32.4551 105.0247 212.7748 0.0000 0.0000 0.0000
# 4 0.0000 0.0000 0.0000 7.9158 0.0000 0.0000
# 5 0.0000 0.0000 0.0000 0.0000 28.6781 0.0000
# 6 0.0000 0.0000 0.0000 0.0000 0.0000 -0.4174
#
#
#
# Elastic Compliance Matrix: (Units=1/GPa)
#
#
# Indices 1 2 3 4 5 6 
#
# 1 0.049630 -0.003765 -0.005712 0.000000 0.000000 0.000000
# 2 -0.003765 0.010402 -0.004560 0.000000 0.000000 0.000000
# 3 -0.005712 -0.004560 0.007822 0.000000 0.000000 0.000000
# 4 0.000000 0.000000 0.000000 0.126330 0.000000 0.000000
# 5 0.000000 0.000000 0.000000 0.000000 0.034870 0.000000
# 6 0.000000 0.000000 0.000000 0.000000 0.000000 -2.395580
#
#
# Mechanical properties :
#
#
# Convention : Reuss Voigt Hill
#
# Bulk Modulus (GPa) = 25.13821 79.01455 52.07638
# Shear Modulus (GPa) = -2.35273 22.44433 10.04580
#
# Velocity S-wave (km/s) = -1.13680 3.51116 2.34904
# Velocity P-wave (km/s) = 3.47633 7.73556 5.99682
#
# Compressibility (1/GPa) = 0.03978007
#
# Stress axis : x y z
#
# Youngs Moduli (GPa) = 20.14907 96.13680 127.84716
#
# Poissons Ratio (x) = 0.36196 0.73024
# Poissons Ratio (y) = 0.07586 0.58298
# Poissons Ratio (z) = 0.11509 0.43838
#
# Static dielectric constant tensor:
#      x y z
#    x 1.624490 0.000000 0.000000 
#    y 0.000000 1.599780 0.000000 
#    z 0.000000 0.000000 1.619150 
# 
# From -- ./inp_files/37277.got.cif
#   From: 2010.05.17/outbox.cif.g08.bks.cpg/sg51_19_cif.got.tgz:37277.got - 2010.06.03 11:52:47.
