data_PCOD9402541
_publ_section_title
;
Structure prediction by ZEFSAII (Michael W. Deem and Ramdas Pophale) SiO2 
 PCOD9402541
Probable space group: P M M A
;
_chemical_formula_sum "Si O2"
_cell_formula_units_Z 48
_cell_length_a 15.095880
_cell_length_b 13.825976
_cell_length_c 11.872122
_cell_angle_alpha 90.000000
_cell_angle_beta 90.000000
_cell_angle_gamma 90.000000
_cell_volume 2477.893203
_symmetry_space_group_name_H-M "P M M A"
_symmetry_group_IT_number 51
_symmetry_cell_setting 'orthorhombic'
loop_
_space_group_symop_operation_xyz
x,y,z
1/2-x,-y,z
1/2+x,-y,-z
-x,y,-z
-x,-y,-z
1/2+x,y,-z
1/2-x,y,z
x,-y,z
loop_
_atom_site_type_symbol
_atom_site_label
_atom_site_fract_x
_atom_site_fract_y
_atom_site_fract_z
Si Si1 0.858446 0.609846 0.403654
Si Si2 0.355545 0.784210 0.758446
Si Si3 0.348691 0.733032 0.397656
Si Si4 0.853165 0.891618 0.764561
Si Si5 0.895547 0.891524 0.022193
Si Si6 0.596652 0.893949 0.443913
O O1 0.750000 0.611844 0.409519
O O2 0.885908 0.500000 0.382655
O O3 0.883196 0.683581 0.302428
O O4 0.890418 0.647418 0.527354
O O5 0.250000 0.792989 0.742872
O O6 0.373765 0.808644 0.888156
O O7 0.403965 0.867133 0.686356
O O8 0.250000 0.702121 0.361460
O O9 0.391643 0.796211 0.297167
O O10 0.344978 0.814639 0.494546
O O11 0.750000 0.894754 0.728955
O O12 0.891299 0.000000 0.739208
O O13 0.855148 0.878498 0.898361
O O14 0.868933 0.000000 0.062797
O O15 0.000000 0.892404 0.000000
O O16 0.500000 0.888021 0.500000
O O17 0.632548 0.000000 0.462045
#
# Coordination Sequence:
#
# PCOD9402541 Si02
#       6
#     8   8   8   8   8   8
#     4   8  15  30  53  78  99 122 160 212 262 303
#     4  10  20  34  53  75  99 134 175 212 252 302
#     4   9  17  29  47  70  95 126 161 197 245 303
#     4   9  17  29  46  68  96 130 166 203 241 291
#     4  10  21  33  48  71 101 137 175 208 245 292
#     4  10  20  29  43  69 101 131 160 199 247 296
#
# _framework density 19.371296000000001
#
# number of rings (size 3 to 8) (size 9 to 14) (size 15 to 20)
#    0.000    2.667    0.000    3.000    2.333    3.667 
#    0.000    0.000    0.000    9.500    0.000    4.667 
#    0.000    0.000    0.000    0.000    0.000    0.000 
#
# Total GULP energy -267291.610388 kJ/mol
# GULP energy per Si atom -5568.575216 kJ/mol
# Density = 1.932721 g / cm^3
# Si number density = 19.371296 Si / 1000 Ang^3
#
#
#
# Elastic Constant Matrix: (Units=GPa)
#
#
# Indices 1 2 3 4 5 6 
#
# 1 39.4149 5.1023 -0.1054 0.0000 0.0000 0.0000
# 2 5.1023 112.4018 57.3127 0.0000 0.0000 0.0000
# 3 -0.1054 57.3127 111.1673 0.0000 0.0000 0.0000
# 4 0.0000 0.0000 0.0000 26.5004 0.0000 0.0000
# 5 0.0000 0.0000 0.0000 0.0000 16.9048 0.0000
# 6 0.0000 0.0000 0.0000 0.0000 0.0000 10.0231
#
#
#
# Elastic Compliance Matrix: (Units=1/GPa)
#
#
# Indices 1 2 3 4 5 6 
#
# 1 0.025579 -0.001592 0.000845 0.000000 0.000000 0.000000
# 2 -0.001592 0.012168 -0.006275 0.000000 0.000000 0.000000
# 3 0.000845 -0.006275 0.012231 0.000000 0.000000 0.000000
# 4 0.000000 0.000000 0.000000 0.037735 0.000000 0.000000
# 5 0.000000 0.000000 0.000000 0.000000 0.059155 0.000000
# 6 0.000000 0.000000 0.000000 0.000000 0.000000 0.099770
#
#
# Mechanical properties :
#
#
# Convention : Reuss Voigt Hill
#
# Bulk Modulus (GPa) = 27.82778 43.06702 35.44740
# Shear Modulus (GPa) = 18.33774 24.06394 21.20084
#
# Velocity S-wave (km/s) = 3.08010 3.52838 3.31183
# Velocity P-wave (km/s) = 5.20058 6.23538 5.74134
#
# Compressibility (1/GPa) = 0.03593531
#
# Stress axis : x y z
#
# Youngs Moduli (GPa) = 39.09383 82.17940 81.75701
#
# Poissons Ratio (x) = 0.13083 -0.06909
# Poissons Ratio (y) = 0.06224 0.51303
# Poissons Ratio (z) = -0.03303 0.51568
#
# Static dielectric constant tensor:
#      x y z
#    x 1.714880 0.000000 0.000000 
#    y 0.000000 1.705800 0.000000 
#    z 0.000000 0.000000 1.717210 
# 
# From -- ./inp_files/16407.got.cif
#   From: 2010.05.17/outbox.cif.g08.bks.cpg/sg51_9_cif.got.tgz:16407.got - 2010.06.03 11:52:47.
