data_PCOD9402552
_publ_section_title
;
Structure prediction by ZEFSAII (Michael W. Deem and Ramdas Pophale) SiO2 
 PCOD9402552
Probable space group: P M M A
;
_chemical_formula_sum "Si O2"
_cell_formula_units_Z 40
_cell_length_a 14.917317
_cell_length_b 7.414522
_cell_length_c 17.706058
_cell_angle_alpha 90.000000
_cell_angle_beta 90.000000
_cell_angle_gamma 90.000000
_cell_volume 1958.374563
_symmetry_space_group_name_H-M "P M M A"
_symmetry_group_IT_number 51
_symmetry_cell_setting 'orthorhombic'
loop_
_space_group_symop_operation_xyz
x,y,z
1/2-x,-y,z
1/2+x,-y,-z
-x,y,-z
-x,-y,-z
1/2+x,y,-z
1/2-x,y,z
x,-y,z
loop_
_atom_site_type_symbol
_atom_site_label
_atom_site_fract_x
_atom_site_fract_y
_atom_site_fract_z
Si Si1 0.250000 0.211597 0.464765
Si Si2 0.250000 0.718946 0.642983
Si Si3 0.014630 0.279952 0.881118
Si Si4 0.556115 0.782544 0.572645
Si Si5 0.934331 0.286539 0.284202
Si Si6 0.352925 0.719703 0.014870
O O1 0.250000 0.226444 0.555487
O O2 0.157236 0.287421 0.433399
O O3 0.250000 0.000000 0.445520
O O4 0.250000 0.500000 0.643196
O O5 0.339621 0.784058 0.684645
O O6 0.012912 0.500000 0.880917
O O7 0.033600 0.215537 0.796614
O O8 0.919663 0.223810 0.917506
O O9 0.094673 0.227820 0.938272
O O10 0.500000 0.717600 0.500000
O O11 0.506641 0.737794 0.649939
O O12 0.558802 0.000000 0.567038
O O13 0.921020 0.500000 0.273379
O O14 0.250000 0.781192 0.019163
O O15 0.350704 0.500000 0.015471
#
# Coordination Sequence:
#
# PCOD9402552 Si02
#       6
#     4   4   8   8   8   8
#     4  10  20  36  54  70  89 122 166 204 237 282
#     4  10  20  30  46  72  99 126 156 196 247 290
#     4   8  15  26  39  62  93 123 154 189 232 279
#     4  10  20  35  54  71  92 125 163 200 238 283
#     4  10  20  32  47  72 103 128 155 198 245 287
#     4   8  13  23  41  61  86 122 158 189 225 274
#
# _framework density 20.425103
#
# number of rings (size 3 to 8) (size 9 to 14) (size 15 to 20)
#    0.000    2.800    2.000    1.200    1.400    1.200 
#    1.800    0.000    0.000    0.000    0.000    2.800 
#    0.000    1.600    0.000    0.000    0.000    0.000 
#
# Total GULP energy -223251.649217 kJ/mol
# GULP energy per Si atom -5581.291230 kJ/mol
# Density = 2.037861 g / cm^3
# Si number density = 20.425103 Si / 1000 Ang^3
#
#
#
# Elastic Constant Matrix: (Units=GPa)
#
#
# Indices 1 2 3 4 5 6 
#
# 1 236.0103 0.0147 121.1163 0.0000 0.0000 0.0000
# 2 0.0147 62.5976 -12.5751 0.0000 0.0000 0.0000
# 3 121.1163 -12.5751 176.2256 0.0000 0.0000 0.0000
# 4 0.0000 0.0000 0.0000 75.1708 0.0000 0.0000
# 5 0.0000 0.0000 0.0000 0.0000 5.5681 0.0000
# 6 0.0000 0.0000 0.0000 0.0000 0.0000 -23.6101
#
#
#
# Elastic Compliance Matrix: (Units=1/GPa)
#
#
# Indices 1 2 3 4 5 6 
#
# 1 0.006598 -0.000926 -0.004601 0.000000 0.000000 0.000000
# 2 -0.000926 0.016337 0.001802 0.000000 0.000000 0.000000
# 3 -0.004601 0.001802 0.008965 0.000000 0.000000 0.000000
# 4 0.000000 0.000000 0.000000 0.013303 0.000000 0.000000
# 5 0.000000 0.000000 0.000000 0.000000 0.179594 0.000000
# 6 0.000000 0.000000 0.000000 0.000000 0.000000 -0.042355
#
#
# Mechanical properties :
#
#
# Convention : Reuss Voigt Hill
#
# Bulk Modulus (GPa) = 40.89729 76.88284 58.89006
# Shear Modulus (GPa) = 25.24711 35.84428 30.54569
#
# Velocity S-wave (km/s) = 3.51961 4.19371 3.87136
# Velocity P-wave (km/s) = 6.04842 7.82130 6.99128
#
# Compressibility (1/GPa) = 0.02445150
#
# Stress axis : x y z
#
# Youngs Moduli (GPa) = 151.55470 61.20970 111.54164
#
# Poissons Ratio (x) = 0.05667 0.51320
# Poissons Ratio (y) = 0.14031 -0.20101
# Poissons Ratio (z) = 0.69729 -0.11031
#
# Static dielectric constant tensor:
#      x y z
#    x 1.717560 0.000000 0.000000 
#    y 0.000000 1.769950 0.000000 
#    z 0.000000 0.000000 1.680220 
# 
# From -- ./inp_files/23815.got.cif
#   From: 2010.05.17/outbox.cif.g08.bks.cpg/sg51_12_cif.got.tgz:23815.got - 2010.06.03 11:52:47.
