data_PCOD9402131
_publ_section_title
;
Structure prediction by ZEFSAII (Michael W. Deem and Ramdas Pophale) SiO2 
 PCOD9402131
Probable space group: P M M A
;
_chemical_formula_sum "Si O2"
_cell_formula_units_Z 64
_cell_length_a 15.306202
_cell_length_b 24.113383
_cell_length_c 8.721981
_cell_angle_alpha 90.000000
_cell_angle_beta 90.000000
_cell_angle_gamma 90.000000
_cell_volume 3219.146349
_symmetry_space_group_name_H-M "P M M A"
_symmetry_group_IT_number 51
_symmetry_cell_setting 'orthorhombic'
loop_
_space_group_symop_operation_xyz
x,y,z
1/2-x,-y,z
1/2+x,-y,-z
-x,y,-z
-x,-y,-z
1/2+x,y,-z
1/2-x,y,z
x,-y,z
loop_
_atom_site_type_symbol
_atom_site_label
_atom_site_fract_x
_atom_site_fract_y
_atom_site_fract_z
Si Si1 0.847543 0.118946 0.803275
Si Si2 0.143861 0.764669 0.341102
Si Si3 0.854922 0.745373 0.312397
Si Si4 0.487923 0.563630 0.317341
Si Si5 0.852147 0.374452 0.177885
Si Si6 0.853457 0.650979 0.817855
Si Si7 0.510464 0.936915 0.319067
Si Si8 0.414836 0.154753 0.892315
O O1 0.750000 0.106703 0.748248
O O2 0.881560 0.175565 0.722803
O O3 0.916266 0.071880 0.760908
O O4 0.846040 0.133183 0.983040
O O5 0.250000 0.764441 0.340046
O O6 0.113914 0.757219 0.515382
O O7 0.117612 0.712442 0.236277
O O8 0.750000 0.752963 0.308641
O O9 0.871683 0.681772 0.270886
O O10 0.893546 0.787713 0.189341
O O11 0.500000 0.568226 0.500000
O O12 0.465493 0.500000 0.280116
O O13 0.577786 0.580761 0.232697
O O14 0.412370 0.605498 0.265215
O O15 0.750000 0.389913 0.202799
O O16 0.862542 0.358686 0.999332
O O17 0.750000 0.645307 0.779871
O O18 0.500000 0.926648 0.500000
O O19 0.570852 0.891696 0.237028
O O20 0.540827 0.000000 0.296935
O O21 0.500000 0.159605 0.000000
#
# Coordination Sequence:
#
# PCOD9402131 Si02
#       8
#     8   8   8   8   8   8   8   8
#     4  10  20  35  57  84 113 145 184 229 277 331
#     4   9  18  33  56  85 115 146 179 222 278 336
#     4  10  19  34  57  84 115 147 183 228 278 334
#     4  11  25  42  60  84 114 151 196 241 283 335
#     4  10  22  39  61  88 117 151 189 234 287 340
#     4  10  21  39  62  87 118 152 188 234 287 341
#     4  10  22  40  58  77 107 147 190 234 279 330
#     4  10  21  34  54  82 112 146 183 227 280 335
#
# _framework density 19.881046000000001
#
# number of rings (size 3 to 8) (size 9 to 14) (size 15 to 20)
#    0.000    2.000    0.000    3.000    0.000   10.500 
#    0.000    6.875    0.000    2.625    0.000    0.000 
#    0.000    0.000    0.000    0.000    0.000    0.000 
#
# Total GULP energy -357529.079144 kJ/mol
# GULP energy per Si atom -5586.391862 kJ/mol
# Density = 1.983580 g / cm^3
# Si number density = 19.881046 Si / 1000 Ang^3
#
#
#
# Elastic Constant Matrix: (Units=GPa)
#
#
# Indices 1 2 3 4 5 6 
#
# 1 35.6007 1.0220 -0.2581 0.0000 0.0000 0.0000
# 2 1.0220 53.0699 6.3445 0.0000 0.0000 0.0000
# 3 -0.2581 6.3445 63.9904 0.0000 0.0000 0.0000
# 4 0.0000 0.0000 0.0000 13.6787 0.0000 0.0000
# 5 0.0000 0.0000 0.0000 0.0000 23.3816 0.0000
# 6 0.0000 0.0000 0.0000 0.0000 0.0000 306.6186
#
#
#
# Elastic Compliance Matrix: (Units=1/GPa)
#
#
# Indices 1 2 3 4 5 6 
#
# 1 0.028107 -0.000561 0.000169 0.000000 0.000000 0.000000
# 2 -0.000561 0.019080 -0.001894 0.000000 0.000000 0.000000
# 3 0.000169 -0.001894 0.015816 0.000000 0.000000 0.000000
# 4 0.000000 0.000000 0.000000 0.073106 0.000000 0.000000
# 5 0.000000 0.000000 0.000000 0.000000 0.042769 0.000000
# 6 0.000000 0.000000 0.000000 0.000000 0.000000 0.003261
#
#
# Mechanical properties :
#
#
# Convention : Reuss Voigt Hill
#
# Bulk Modulus (GPa) = 17.11455 18.54199 17.82827
# Shear Modulus (GPa) = 24.24962 78.43929 51.34446
#
# Velocity S-wave (km/s) = 3.49626 6.28808 5.08743
# Velocity P-wave (km/s) = 4.99256 7.87824 6.59516
#
# Compressibility (1/GPa) = 0.05842983
#
# Stress axis : x y z
#
# Youngs Moduli (GPa) = 35.57870 52.41007 63.22789
#
# Poissons Ratio (x) = 0.02943 -0.01069
# Poissons Ratio (y) = 0.01998 0.11976
# Poissons Ratio (z) = -0.00601 0.09927
#
# Static dielectric constant tensor:
#      x y z
#    x 1.739810 0.000000 0.000000 
#    y 0.000000 1.655750 0.000000 
#    z 0.000000 0.000000 1.693520 
# 
# From -- ./inp_files/8758.got.cif
#   From: 2010.05.17/outbox.cif.g08.bks.cpg/sg51_5_cif.got.tgz:8758.got - 2010.06.03 11:52:47.
