data_PCOD9402300
_publ_section_title
;
Structure prediction by ZEFSAII (Michael W. Deem and Ramdas Pophale) SiO2 
 PCOD9402300
Probable space group: P M M A
;
_chemical_formula_sum "Si O2"
_cell_formula_units_Z 64
_cell_length_a 19.956459
_cell_length_b 9.243300
_cell_length_c 21.029833
_cell_angle_alpha 90.000000
_cell_angle_beta 90.000000
_cell_angle_gamma 90.000000
_cell_volume 3879.237388
_symmetry_space_group_name_H-M "P M M A"
_symmetry_group_IT_number 51
_symmetry_cell_setting 'orthorhombic'
loop_
_space_group_symop_operation_xyz
x,y,z
1/2-x,-y,z
1/2+x,-y,-z
-x,y,-z
-x,-y,-z
1/2+x,y,-z
1/2-x,y,z
x,-y,z
loop_
_atom_site_type_symbol
_atom_site_label
_atom_site_fract_x
_atom_site_fract_y
_atom_site_fract_z
Si Si1 0.462495 0.672263 0.688130
Si Si2 0.453812 0.672963 0.439224
Si Si3 0.826396 0.827521 0.512861
Si Si4 0.042980 0.827000 0.815675
Si Si5 0.325725 0.672475 0.016476
Si Si6 0.044345 0.826242 0.061246
Si Si7 0.173364 0.327743 0.864649
Si Si8 0.825431 0.671573 0.377227
O O1 0.466582 0.500000 0.700425
O O2 0.506513 0.703922 0.625651
O O3 0.482796 0.760781 0.749885
O O4 0.385364 0.707219 0.670216
O O5 0.500000 0.712386 0.500000
O O6 0.442585 0.500000 0.442818
O O7 0.383821 0.755376 0.445013
O O8 0.750000 0.796123 0.534030
O O9 0.833200 0.760148 0.442263
O O10 0.834746 0.000000 0.510175
O O11 0.116103 0.760517 0.829555
O O12 0.995168 0.786593 0.874803
O O13 0.046784 0.000000 0.812663
O O14 0.250000 0.716239 0.034103
O O15 0.331559 0.500000 0.025588
O O16 0.333262 0.698596 0.940581
O O17 0.383581 0.753832 0.053835
O O18 0.051274 0.000000 0.059605
O O19 0.000000 0.782800 0.000000
O O20 0.250000 0.291251 0.846556
O O21 0.164361 0.500000 0.853846
O O22 0.750000 0.695471 0.352293
O O23 0.831950 0.500000 0.392394
#
# Coordination Sequence:
#
# PCOD9402300 Si02
#       8
#     8   8   8   8   8   8   8   8
#     4  10  21  36  53  76 106 139 177 218 260 310
#     4  10  19  35  57  80 104 134 176 220 260 308
#     4  10  20  32  50  80 112 138 169 213 263 310
#     4  11  23  36  51  75 108 142 177 217 260 311
#     4   9  18  32  53  82 108 131 169 221 268 308
#     4  10  20  35  53  76 106 140 177 215 258 312
#     4   9  18  33  52  75 105 140 177 214 256 309
#     4   9  17  32  53  74 101 140 179 212 250 301
#
# _framework density 16.498087999999999
#
# number of rings (size 3 to 8) (size 9 to 14) (size 15 to 20)
#    0.000    2.250    2.500    1.500    0.000    4.250 
#    0.000    2.500    0.000    0.750    0.000    0.000 
#    0.000    0.000    0.000    0.000    0.000    0.000 
#
# Total GULP energy -357073.144566 kJ/mol
# GULP energy per Si atom -5579.267884 kJ/mol
# Density = 1.646054 g / cm^3
# Si number density = 16.498088 Si / 1000 Ang^3
#
#
#
# Elastic Constant Matrix: (Units=GPa)
#
#
# Indices 1 2 3 4 5 6 
#
# 1 114.1251 48.7947 62.3206 0.0000 0.0000 0.0000
# 2 48.7947 34.0828 45.9449 0.0000 0.0000 0.0000
# 3 62.3206 45.9449 103.1130 0.0000 0.0000 0.0000
# 4 0.0000 0.0000 0.0000 24.2968 0.0000 0.0000
# 5 0.0000 0.0000 0.0000 0.0000 16.2179 0.0000
# 6 0.0000 0.0000 0.0000 0.0000 0.0000 50.1858
#
#
#
# Elastic Compliance Matrix: (Units=1/GPa)
#
#
# Indices 1 2 3 4 5 6 
#
# 1 0.022739 -0.035127 0.001909 0.000000 0.000000 0.000000
# 2 -0.035127 0.127736 -0.035686 0.000000 0.000000 0.000000
# 3 0.001909 -0.035686 0.024445 0.000000 0.000000 0.000000
# 4 0.000000 0.000000 0.000000 0.041158 0.000000 0.000000
# 5 0.000000 0.000000 0.000000 0.000000 0.061660 0.000000
# 6 0.000000 0.000000 0.000000 0.000000 0.000000 0.019926
#
#
# Mechanical properties :
#
#
# Convention : Reuss Voigt Hill
#
# Bulk Modulus (GPa) = 26.94566 62.82679 44.88623
# Shear Modulus (GPa) = 11.16463 24.42413 17.79438
#
# Velocity S-wave (km/s) = 2.60421 3.85180 3.28773
# Velocity P-wave (km/s) = 5.04089 7.61221 6.45586
#
# Compressibility (1/GPa) = 0.03711172
#
# Stress axis : x y z
#
# Youngs Moduli (GPa) = 43.97783 7.82865 40.90762
#
# Poissons Ratio (x) = 0.27500 -0.07808
# Poissons Ratio (y) = 1.54481 1.45982
# Poissons Ratio (z) = -0.08394 0.27937
#
# Static dielectric constant tensor:
#      x y z
#    x 1.556400 0.000000 0.000000 
#    y 0.000000 1.544970 0.000000 
#    z 0.000000 0.000000 1.544210 
# 
# From -- ./inp_files/33770.got.cif
#   From: 2010.05.17/outbox.cif.g08.bks.cpg/sg51_17_cif.got.tgz:33770.got - 2010.06.03 11:52:47.
