data_PCOD9402432
_publ_section_title
;
Structure prediction by ZEFSAII (Michael W. Deem and Ramdas Pophale) SiO2 
 PCOD9402432
Probable space group: P M M A
;
_chemical_formula_sum "Si O2"
_cell_formula_units_Z 48
_cell_length_a 15.352712
_cell_length_b 14.617885
_cell_length_c 10.341853
_cell_angle_alpha 90.000000
_cell_angle_beta 90.000000
_cell_angle_gamma 90.000000
_cell_volume 2320.961863
_symmetry_space_group_name_H-M "P M M A"
_symmetry_group_IT_number 51
_symmetry_cell_setting 'orthorhombic'
loop_
_space_group_symop_operation_xyz
x,y,z
1/2-x,-y,z
1/2+x,-y,-z
-x,y,-z
-x,-y,-z
1/2+x,y,-z
1/2-x,y,z
x,-y,z
loop_
_atom_site_type_symbol
_atom_site_label
_atom_site_fract_x
_atom_site_fract_y
_atom_site_fract_z
Si Si1 0.897848 0.000000 0.350789
Si Si2 0.888922 0.000000 0.652354
Si Si3 0.853162 0.500000 0.914684
Si Si4 0.895601 0.700348 0.011148
Si Si5 0.616667 0.192450 0.760978
Si Si6 0.857105 0.500000 0.616778
Si Si7 0.091468 0.198124 0.734272
Si Si8 0.350298 0.309232 0.491509
O O1 0.866412 0.000000 0.499887
O O2 0.871782 0.095450 0.283785
O O3 0.004417 0.000000 0.349751
O O4 0.856662 0.089795 0.726096
O O5 0.750000 0.500000 0.901855
O O6 0.876971 0.593509 0.987710
O O7 0.888241 0.500000 0.766311
O O8 0.856333 0.761048 0.894929
O O9 0.869241 0.742933 0.148575
O O10 0.000000 0.708638 0.000000
O O11 0.511457 0.189745 0.760371
O O12 0.646292 0.255578 0.643244
O O13 0.750000 0.500000 0.619914
O O14 0.885101 0.590368 0.541030
O O15 0.100919 0.252297 0.600352
O O16 0.250000 0.317008 0.534046
#
# Coordination Sequence:
#
# PCOD9402432 Si02
#       8
#     4   4   4   8   8   4   8   8
#     4   9  16  31  55  81 114 148 181 226 279 335
#     4   9  16  29  57  85 108 146 191 224 267 335
#     4  11  21  38  61  79 108 155 191 223 280 337
#     4  10  22  37  58  85 117 146 186 236 277 329
#     4  10  19  36  58  82 112 148 188 227 272 332
#     4   9  20  36  56  80 105 140 185 231 272 325
#     4  10  21  36  56  84 115 148 180 229 286 327
#     4  11  21  36  57  81 109 143 189 233 275 332
#
# _framework density 20.681080999999999
#
# number of rings (size 3 to 8) (size 9 to 14) (size 15 to 20)
#    0.000    2.000    3.333    0.750    0.000    2.000 
#    0.000    8.333    0.000    0.000    0.000    3.500 
#    0.000    0.000    0.000    0.000    0.000    0.000 
#
# Total GULP energy -268030.175570 kJ/mol
# GULP energy per Si atom -5583.961991 kJ/mol
# Density = 2.063401 g / cm^3
# Si number density = 20.681081 Si / 1000 Ang^3
#
#
#
# Elastic Constant Matrix: (Units=GPa)
#
#
# Indices 1 2 3 4 5 6 
#
# 1 31.4094 9.7884 7.1743 0.0000 0.0000 0.0000
# 2 9.7884 202.4493 68.5124 0.0000 0.0000 0.0000
# 3 7.1743 68.5124 119.4947 0.0000 0.0000 0.0000
# 4 0.0000 0.0000 0.0000 48.7578 0.0000 0.0000
# 5 0.0000 0.0000 0.0000 0.0000 1.3256 0.0000
# 6 0.0000 0.0000 0.0000 0.0000 0.0000 660.7342
#
#
#
# Elastic Compliance Matrix: (Units=1/GPa)
#
#
# Indices 1 2 3 4 5 6 
#
# 1 0.032487 -0.001130 -0.001303 0.000000 0.000000 0.000000
# 2 -0.001130 0.006168 -0.003469 0.000000 0.000000 0.000000
# 3 -0.001303 -0.003469 0.010435 0.000000 0.000000 0.000000
# 4 0.000000 0.000000 0.000000 0.020510 0.000000 0.000000
# 5 0.000000 0.000000 0.000000 0.000000 0.754393 0.000000
# 6 0.000000 0.000000 0.000000 0.000000 0.000000 0.001513
#
#
# Mechanical properties :
#
#
# Convention : Reuss Voigt Hill
#
# Bulk Modulus (GPa) = 26.81797 58.25596 42.53696
# Shear Modulus (GPa) = 5.88417 160.02206 82.95311
#
# Velocity S-wave (km/s) = 1.68860 8.80591 6.34017
# Velocity P-wave (km/s) = 4.09846 11.47266 8.61450
#
# Compressibility (1/GPa) = 0.03728844
#
# Stress axis : x y z
#
# Youngs Moduli (GPa) = 30.78131 162.12796 95.82688
#
# Poissons Ratio (x) = 0.18319 0.12483
# Poissons Ratio (y) = 0.03478 0.33238
# Poissons Ratio (z) = 0.04010 0.56235
#
# Static dielectric constant tensor:
#      x y z
#    x 1.882940 0.000000 0.000000 
#    y 0.000000 1.743590 0.000000 
#    z 0.000000 0.000000 1.706290 
# 
# From -- ./inp_files/9739.got.cif
#   From: 2010.05.17/outbox.cif.g08.bks.cpg/sg51_5_cif.got.tgz:9739.got - 2010.06.03 11:52:47.
