data_PCOD9402250
_publ_section_title
;
Structure prediction by ZEFSAII (Michael W. Deem and Ramdas Pophale) SiO2 
 PCOD9402250
Probable space group: P M M A
;
_chemical_formula_sum "Si O2"
_cell_formula_units_Z 56
_cell_length_a 21.727652
_cell_length_b 16.098226
_cell_length_c 9.080431
_cell_angle_alpha 90.000000
_cell_angle_beta 90.000000
_cell_angle_gamma 90.000000
_cell_volume 3176.122757
_symmetry_space_group_name_H-M "P M M A"
_symmetry_group_IT_number 51
_symmetry_cell_setting 'orthorhombic'
loop_
_space_group_symop_operation_xyz
x,y,z
1/2-x,-y,z
1/2+x,-y,-z
-x,y,-z
-x,-y,-z
1/2+x,y,-z
1/2-x,y,z
x,-y,z
loop_
_atom_site_type_symbol
_atom_site_label
_atom_site_fract_x
_atom_site_fract_y
_atom_site_fract_z
Si Si1 0.596285 0.841603 0.674529
Si Si2 0.322200 0.255118 0.093046
Si Si3 0.820236 0.403328 0.679226
Si Si4 0.621851 0.771220 0.223329
Si Si5 0.429056 0.674483 0.505538
Si Si6 0.520325 0.909424 0.168832
Si Si7 0.680942 0.906497 0.421774
O O1 0.639452 0.810525 0.808405
O O2 0.571837 0.759305 0.591038
O O3 0.539467 0.893197 0.734010
O O4 0.634310 0.892531 0.554907
O O5 0.250000 0.232841 0.086503
O O6 0.327240 0.341908 0.181853
O O7 0.350045 0.260051 0.929655
O O8 0.750000 0.387824 0.620088
O O9 0.823589 0.500000 0.719675
O O10 0.875674 0.381799 0.567575
O O11 0.595079 0.701188 0.332764
O O12 0.566539 0.834555 0.191683
O O13 0.669555 0.831113 0.309125
O O14 0.500000 0.643144 0.500000
O O15 0.547086 0.000000 0.204333
O O16 0.500000 0.909415 0.000000
O O17 0.750000 0.898845 0.480421
O O18 0.674846 0.000000 0.359797
#
# Coordination Sequence:
#
# PCOD9402250 Si02
#       7
#     8   8   8   8   8   8   8
#     4  10  19  35  54  76 103 144 191 230 267 327
#     4  10  20  35  58  82 105 140 182 225 274 329
#     4   9  20  40  63  86 114 147 182 220 270 338
#     4  11  21  35  54  80 111 143 183 229 280 330
#     4  10  20  34  58  86 114 149 182 225 276 326
#     4  11  21  33  52  77 108 147 189 237 280 318
#     4  10  21  35  50  72 107 145 183 233 283 327
#
# _framework density 17.63156
#
# number of rings (size 3 to 8) (size 9 to 14) (size 15 to 20)
#    0.000    1.857    2.857    1.714    0.000    4.286 
#    0.000    2.857    0.000    6.000    0.000    0.000 
#    0.000    0.000    0.000    0.000    0.000    0.000 
#
# Total GULP energy -312308.088900 kJ/mol
# GULP energy per Si atom -5576.930159 kJ/mol
# Density = 1.759143 g / cm^3
# Si number density = 17.631560 Si / 1000 Ang^3
#
#
#
# Elastic Constant Matrix: (Units=GPa)
#
#
# Indices 1 2 3 4 5 6 
#
# 1 115.1609 22.0067 33.3345 0.0000 0.0000 0.0000
# 2 22.0067 52.0403 8.1223 0.0000 0.0000 0.0000
# 3 33.3345 8.1223 77.3987 0.0000 0.0000 0.0000
# 4 0.0000 0.0000 0.0000 14.2456 0.0000 0.0000
# 5 0.0000 0.0000 0.0000 0.0000 31.0620 0.0000
# 6 0.0000 0.0000 0.0000 0.0000 0.0000 27.2117
#
#
#
# Elastic Compliance Matrix: (Units=1/GPa)
#
#
# Indices 1 2 3 4 5 6 
#
# 1 0.010626 -0.003842 -0.004173 0.000000 0.000000 0.000000
# 2 -0.003842 0.020925 -0.000541 0.000000 0.000000 0.000000
# 3 -0.004173 -0.000541 0.014774 0.000000 0.000000 0.000000
# 4 0.000000 0.000000 0.000000 0.070197 0.000000 0.000000
# 5 0.000000 0.000000 0.000000 0.000000 0.032194 0.000000
# 6 0.000000 0.000000 0.000000 0.000000 0.000000 0.036749
#
#
# Mechanical properties :
#
#
# Convention : Reuss Voigt Hill
#
# Bulk Modulus (GPa) = 34.23226 41.28079 37.75653
# Shear Modulus (GPa) = 23.54992 26.57961 25.06476
#
# Velocity S-wave (km/s) = 3.65864 3.88687 3.77448
# Velocity P-wave (km/s) = 6.10779 6.60360 6.36052
#
# Compressibility (1/GPa) = 0.02921221
#
# Stress axis : x y z
#
# Youngs Moduli (GPa) = 94.11188 47.78959 67.68551
#
# Poissons Ratio (x) = 0.18361 0.28246
# Poissons Ratio (y) = 0.36158 0.03663
# Poissons Ratio (z) = 0.39274 0.02586
#
# Static dielectric constant tensor:
#      x y z
#    x 1.599640 0.000000 0.000000 
#    y 0.000000 1.581260 0.000000 
#    z 0.000000 0.000000 1.583560 
# 
# From -- ./inp_files/10962.got.cif
#   From: 2010.05.17/outbox.cif.g08.bks.cpg/sg51_6_cif.got.tgz:10962.got - 2010.06.03 11:52:47.
