data_PCOD9402279
_publ_section_title
;
Structure prediction by ZEFSAII (Michael W. Deem and Ramdas Pophale) SiO2 
 PCOD9402279
Probable space group: P M M A
;
_chemical_formula_sum "Si O2"
_cell_formula_units_Z 64
_cell_length_a 19.058659
_cell_length_b 11.268698
_cell_length_c 14.954807
_cell_angle_alpha 90.000000
_cell_angle_beta 90.000000
_cell_angle_gamma 90.000000
_cell_volume 3211.788156
_symmetry_space_group_name_H-M "P M M A"
_symmetry_group_IT_number 51
_symmetry_cell_setting 'orthorhombic'
loop_
_space_group_symop_operation_xyz
x,y,z
1/2-x,-y,z
1/2+x,-y,-z
-x,y,-z
-x,-y,-z
1/2+x,y,-z
1/2-x,y,z
x,-y,z
loop_
_atom_site_type_symbol
_atom_site_label
_atom_site_fract_x
_atom_site_fract_y
_atom_site_fract_z
Si Si1 0.557875 0.245256 0.744209
Si Si2 0.174524 0.640561 0.783218
Si Si3 0.526588 0.135874 0.093848
Si Si4 0.829274 0.222464 0.041880
Si Si5 0.169217 0.635991 0.481976
Si Si6 0.939663 0.359856 0.356763
Si Si7 0.169096 0.364790 0.138700
Si Si8 0.171107 0.129990 0.358741
O O1 0.506036 0.205252 0.823300
O O2 0.511899 0.291620 0.660783
O O3 0.611644 0.341122 0.785530
O O4 0.609658 0.141452 0.713012
O O5 0.250000 0.690362 0.754284
O O6 0.175783 0.500000 0.770308
O O7 0.167389 0.669296 0.887331
O O8 0.112035 0.683966 0.721940
O O9 0.610290 0.139451 0.080728
O O10 0.502467 0.000000 0.100289
O O11 0.500000 0.188935 0.000000
O O12 0.750000 0.173763 0.044441
O O13 0.841962 0.273015 0.942792
O O14 0.250000 0.638260 0.519441
O O15 0.161553 0.500000 0.444509
O O16 0.107179 0.651108 0.554311
O O17 0.165306 0.750168 0.417614
O O18 0.954593 0.500000 0.345852
O O19 0.250000 0.350930 0.170411
O O20 0.162432 0.500000 0.105701
O O21 0.250000 0.132694 0.319889
O O22 0.164671 0.000000 0.404815
#
# Coordination Sequence:
#
# PCOD9402279 Si02
#       8
#     8   8   8   8   8   8   8   8
#     4  12  22  38  58  86 118 158 193 241 297 358
#     4   9  16  28  50  80 115 152 189 231 281 341
#     4  11  23  40  57  77 110 153 201 253 300 346
#     4  10  19  35  56  80 110 151 198 243 291 344
#     4   9  19  39  67  94 122 158 198 243 298 359
#     4  10  20  33  55  90 124 155 192 234 289 360
#     4  10  21  36  55  82 116 152 194 244 295 351
#     4  10  23  44  68  91 116 151 200 252 300 359
#
# _framework density 19.926594999999999
#
# number of rings (size 3 to 8) (size 9 to 14) (size 15 to 20)
#    0.000    1.875    2.500    1.875    0.000    4.750 
#    0.000    5.000    0.000    0.000    0.000    0.000 
#    0.000    0.000    0.000    0.000    0.000    0.000 
#
# Total GULP energy -356456.086334 kJ/mol
# GULP energy per Si atom -5569.626349 kJ/mol
# Density = 1.988124 g / cm^3
# Si number density = 19.926595 Si / 1000 Ang^3
#
#
#
# Elastic Constant Matrix: (Units=GPa)
#
#
# Indices 1 2 3 4 5 6 
#
# 1 122.5449 35.2811 33.2949 0.0000 0.0000 0.0000
# 2 35.2811 76.8361 29.5583 0.0000 0.0000 0.0000
# 3 33.2949 29.5583 44.1129 0.0000 0.0000 0.0000
# 4 0.0000 0.0000 0.0000 17.9048 0.0000 0.0000
# 5 0.0000 0.0000 0.0000 0.0000 28.8483 0.0000
# 6 0.0000 0.0000 0.0000 0.0000 0.0000 -8.3742
#
#
#
# Elastic Compliance Matrix: (Units=1/GPa)
#
#
# Indices 1 2 3 4 5 6 
#
# 1 0.010586 -0.002408 -0.006377 0.000000 0.000000 0.000000
# 2 -0.002408 0.018082 -0.010299 0.000000 0.000000 0.000000
# 3 -0.006377 -0.010299 0.034383 0.000000 0.000000 0.000000
# 4 0.000000 0.000000 0.000000 0.055851 0.000000 0.000000
# 5 0.000000 0.000000 0.000000 0.000000 0.034664 0.000000
# 6 0.000000 0.000000 0.000000 0.000000 0.000000 -0.119415
#
#
# Mechanical properties :
#
#
# Convention : Reuss Voigt Hill
#
# Bulk Modulus (GPa) = 40.18560 48.86252 44.52406
# Shear Modulus (GPa) = 62.02488 17.36642 39.69565
#
# Velocity S-wave (km/s) = 5.58518 2.95535 4.46813
# Velocity P-wave (km/s) = 7.86148 6.01830 7.00082
#
# Compressibility (1/GPa) = 0.02488454
#
# Stress axis : x y z
#
# Youngs Moduli (GPa) = 94.46466 55.30303 29.08433
#
# Poissons Ratio (x) = 0.13316 0.18546
# Poissons Ratio (y) = 0.22745 0.29954
# Poissons Ratio (z) = 0.60236 0.56956
#
# Static dielectric constant tensor:
#      x y z
#    x 1.763690 0.000000 0.000000 
#    y 0.000000 1.693700 0.000000 
#    z 0.000000 0.000000 1.710330 
# 
# From -- ./inp_files/25231.got.cif
#   From: 2010.05.17/outbox.cif.g08.bks.cpg/sg51_13_cif.got.tgz:25231.got - 2010.06.03 11:52:47.
