data_PCOD9402725
_publ_section_title
;
Structure prediction by ZEFSAII (Michael W. Deem and Ramdas Pophale) SiO2 
 PCOD9402725
Probable space group: P M M A
;
_chemical_formula_sum "Si O2"
_cell_formula_units_Z 64
_cell_length_a 29.442879
_cell_length_b 8.852050
_cell_length_c 15.936921
_cell_angle_alpha 90.000000
_cell_angle_beta 90.000000
_cell_angle_gamma 90.000000
_cell_volume 4153.637123
_symmetry_space_group_name_H-M "P M M A"
_symmetry_group_IT_number 51
_symmetry_cell_setting 'orthorhombic'
loop_
_space_group_symop_operation_xyz
x,y,z
1/2-x,-y,z
1/2+x,-y,-z
-x,y,-z
-x,-y,-z
1/2+x,y,-z
1/2-x,y,z
x,-y,z
loop_
_atom_site_type_symbol
_atom_site_label
_atom_site_fract_x
_atom_site_fract_y
_atom_site_fract_z
Si Si1 0.646035 0.681428 0.336106
Si Si2 0.449328 0.316952 0.595630
Si Si3 0.696809 0.181785 0.496056
Si Si4 0.303020 0.317136 0.182005
Si Si5 0.694908 0.674064 0.004501
Si Si6 0.803284 0.179844 0.178582
Si Si7 0.641822 0.819089 0.664321
Si Si8 0.551103 0.317309 0.600509
O O1 0.647037 0.500000 0.335231
O O2 0.593972 0.732939 0.351178
O O3 0.674839 0.740322 0.415334
O O4 0.667552 0.743903 0.251159
O O5 0.449874 0.500000 0.596603
O O6 0.499717 0.269672 0.623576
O O7 0.442755 0.274908 0.497834
O O8 0.750000 0.219847 0.503499
O O9 0.669955 0.225031 0.580453
O O10 0.693262 0.000000 0.486258
O O11 0.250000 0.273129 0.193130
O O12 0.304667 0.500000 0.184458
O O13 0.333228 0.248398 0.254998
O O14 0.318761 0.271296 0.088178
O O15 0.750000 0.673755 0.001810
O O16 0.680362 0.500000 0.015449
O O17 0.681670 0.769058 0.085711
O O18 0.750000 0.223882 0.188536
O O19 0.805908 0.000000 0.186126
O O20 0.591079 0.756654 0.653156
O O21 0.641578 0.000000 0.669039
O O22 0.554163 0.500000 0.606035
#
# Coordination Sequence:
#
# PCOD9402725 Si02
#       8
#     8   8   8   8   8   8   8   8
#     4  11  20  31  48  70  91 118 159 199 234 275
#     4   8  16  30  50  70  88 115 154 201 246 279
#     4  10  21  34  43  57  91 133 163 188 223 268
#     4   9  18  32  50  71  95 125 161 198 234 274
#     4   8  15  30  50  70  91 117 155 201 237 266
#     4  10  20  32  46  67  97 130 158 186 229 282
#     4  11  21  31  45  69  98 128 159 193 234 280
#     4   9  16  32  52  67  88 119 156 199 241 282
#
# _framework density 15.408182
#
# number of rings (size 3 to 8) (size 9 to 14) (size 15 to 20)
#    0.000    2.500    1.250    3.375    0.000    4.250 
#    0.000    3.750    0.000    0.000    0.000    0.875 
#    0.000    7.000    0.000    0.000    0.000    0.000 
#
# Total GULP energy -356784.595209 kJ/mol
# GULP energy per Si atom -5574.759300 kJ/mol
# Density = 1.537311 g / cm^3
# Si number density = 15.408182 Si / 1000 Ang^3
#
#
#
# Elastic Constant Matrix: (Units=GPa)
#
#
# Indices 1 2 3 4 5 6 
#
# 1 113.9416 33.0802 71.0226 0.0000 0.0000 0.0000
# 2 33.0802 25.8265 38.4197 0.0000 0.0000 0.0000
# 3 71.0226 38.4197 129.9113 0.0000 0.0000 0.0000
# 4 0.0000 0.0000 0.0000 23.0117 0.0000 0.0000
# 5 0.0000 0.0000 0.0000 0.0000 6.6883 0.0000
# 6 0.0000 0.0000 0.0000 0.0000 0.0000 14.9174
#
#
#
# Elastic Compliance Matrix: (Units=1/GPa)
#
#
# Indices 1 2 3 4 5 6 
#
# 1 0.015377 -0.012838 -0.004610 0.000000 0.000000 0.000000
# 2 -0.012838 0.079854 -0.016597 0.000000 0.000000 0.000000
# 3 -0.004610 -0.016597 0.015126 0.000000 0.000000 0.000000
# 4 0.000000 0.000000 0.000000 0.043456 0.000000 0.000000
# 5 0.000000 0.000000 0.000000 0.000000 0.149514 0.000000
# 6 0.000000 0.000000 0.000000 0.000000 0.000000 0.067036
#
#
# Mechanical properties :
#
#
# Convention : Reuss Voigt Hill
#
# Bulk Modulus (GPa) = 23.65922 61.63604 42.64763
# Shear Modulus (GPa) = 11.04866 17.40061 14.22463
#
# Velocity S-wave (km/s) = 2.68071 3.36417 3.04170
# Velocity P-wave (km/s) = 4.99699 7.42827 6.33044
#
# Compressibility (1/GPa) = 0.04226682
#
# Stress axis : x y z
#
# Youngs Moduli (GPa) = 65.03122 12.52278 66.11010
#
# Poissons Ratio (x) = 0.16077 0.30476
# Poissons Ratio (y) = 0.83489 1.09725
# Poissons Ratio (z) = 0.29979 0.20784
#
# Static dielectric constant tensor:
#      x y z
#    x 1.509080 0.000000 0.000000 
#    y 0.000000 1.516160 0.000000 
#    z 0.000000 0.000000 1.498470 
# 
# From -- ./inp_files/26713.got.cif
#   From: 2010.05.17/outbox.cif.g08.bks.cpg/sg51_14_cif.got.tgz:26713.got - 2010.06.03 11:52:47.
