data_PCOD9402772
_publ_section_title
;
Structure prediction by ZEFSAII (Michael W. Deem and Ramdas Pophale) SiO2 
 PCOD9402772
Probable space group: P M M A
;
_chemical_formula_sum "Si O2"
_cell_formula_units_Z 64
_cell_length_a 7.538017
_cell_length_b 15.579995
_cell_length_c 24.636621
_cell_angle_alpha 90.000000
_cell_angle_beta 90.000000
_cell_angle_gamma 90.000000
_cell_volume 2893.380626
_symmetry_space_group_name_H-M "P M M A"
_symmetry_group_IT_number 51
_symmetry_cell_setting 'orthorhombic'
loop_
_space_group_symop_operation_xyz
x,y,z
1/2-x,-y,z
1/2+x,-y,-z
-x,y,-z
-x,-y,-z
1/2+x,y,-z
1/2-x,y,z
x,-y,z
loop_
_atom_site_type_symbol
_atom_site_label
_atom_site_fract_x
_atom_site_fract_y
_atom_site_fract_z
Si Si1 0.035111 0.597868 0.653401
Si Si2 0.038165 0.590015 0.063577
Si Si3 0.033461 0.904106 0.602075
Si Si4 0.462207 0.783434 0.062166
Si Si5 0.541151 0.403177 0.778341
Si Si6 0.962978 0.904407 0.273168
Si Si7 0.462306 0.725642 0.560200
Si Si8 0.038331 0.224773 0.176820
O O1 0.250000 0.599904 0.654016
O O2 0.980263 0.500000 0.641139
O O3 0.971002 0.664182 0.608116
O O4 0.975526 0.618006 0.714474
O O5 0.250000 0.592365 0.073295
O O6 0.972348 0.500000 0.089073
O O7 0.970685 0.685828 0.071935
O O8 0.000000 0.581508 0.000000
O O9 0.250000 0.905532 0.600689
O O10 0.979821 0.887886 0.664831
O O11 0.971010 0.823151 0.567460
O O12 0.974352 0.000000 0.586136
O O13 0.250000 0.783536 0.062002
O O14 0.522024 0.821319 0.120451
O O15 0.500000 0.811678 0.000000
O O16 0.750000 0.408884 0.791651
O O17 0.466867 0.500000 0.785520
O O18 0.467400 0.321326 0.810979
O O19 0.750000 0.906717 0.275288
O O20 0.009658 0.833899 0.229094
O O21 0.026300 0.000000 0.257793
O O22 0.500000 0.693096 0.500000
O O23 0.250000 0.728616 0.566426
O O24 0.250000 0.235365 0.171733
#
# Coordination Sequence:
#
# PCOD9402772 Si02
#       8
#     8   8   8   8   8   8   8   8
#     4   9  18  33  51  69  92 126 168 212 254 291
#     4   8  13  22  37  55  76 107 148 189 223 257
#     4   8  15  30  51  72  95 124 156 191 235 288
#     4   9  18  31  45  64  92 127 164 197 234 284
#     4   9  18  32  50  74 103 134 168 205 248 300
#     4   9  18  34  57  81 100 123 161 205 248 299
#     4  10  20  32  47  69  97 129 164 201 240 284
#     4  10  20  32  49  75 105 133 160 199 252 300
#
# _framework density 22.119454999999999
#
# number of rings (size 3 to 8) (size 9 to 14) (size 15 to 20)
#    0.000    3.000    0.000    1.500    0.000    3.750 
#    0.000    3.125    0.000    1.125    0.000    5.250 
#    0.000    0.000    0.000    0.000    0.000    0.000 
#
# Total GULP energy -356503.080165 kJ/mol
# GULP energy per Si atom -5570.360628 kJ/mol
# Density = 2.206911 g / cm^3
# Si number density = 22.119455 Si / 1000 Ang^3
#
#
#
# Elastic Constant Matrix: (Units=GPa)
#
#
# Indices 1 2 3 4 5 6 
#
# 1 53.7475 3.6135 -0.3249 0.0000 0.0000 0.0000
# 2 3.6135 55.3069 44.4776 0.0000 0.0000 0.0000
# 3 -0.3249 44.4776 122.9399 0.0000 0.0000 0.0000
# 4 0.0000 0.0000 0.0000 -1.0707 0.0000 0.0000
# 5 0.0000 0.0000 0.0000 0.0000 -0.0460 0.0000
# 6 0.0000 0.0000 0.0000 0.0000 0.0000 8.7108
#
#
#
# Elastic Compliance Matrix: (Units=1/GPa)
#
#
# Indices 1 2 3 4 5 6 
#
# 1 0.018730 -0.001782 0.000694 0.000000 0.000000 0.000000
# 2 -0.001782 0.025670 -0.009292 0.000000 0.000000 0.000000
# 3 0.000694 -0.009292 0.011497 0.000000 0.000000 0.000000
# 4 0.000000 0.000000 0.000000 -0.933945 0.000000 0.000000
# 5 0.000000 0.000000 0.000000 0.000000-21.744550 0.000000
# 6 0.000000 0.000000 0.000000 0.000000 0.000000 0.114800
#
#
# Mechanical properties :
#
#
# Convention : Reuss Voigt Hill
#
# Bulk Modulus (GPa) = 28.45931 36.39185 32.42558
# Shear Modulus (GPa) = -0.22247 13.80069 6.78911
#
# Velocity S-wave (km/s) = -0.31748 2.50054 1.75384
# Velocity P-wave (km/s) = 3.57208 4.98248 4.33502
#
# Compressibility (1/GPa) = 0.03513788
#
# Stress axis : x y z
#
# Youngs Moduli (GPa) = 53.39166 38.95665 86.97609
#
# Poissons Ratio (x) = 0.06942 -0.06038
# Poissons Ratio (y) = 0.09514 0.80814
# Poissons Ratio (z) = -0.03706 0.36197
#
# Static dielectric constant tensor:
#      x y z
#    x 1.834460 0.000000 0.000000 
#    y 0.000000 1.934050 0.000000 
#    z 0.000000 0.000000 1.823450 
# 
# From -- ./inp_files/34988.got.cif
#   From: 2010.05.17/outbox.cif.g08.bks.cpg/sg51_18_cif.got.tgz:34988.got - 2010.06.03 11:52:47.
