data_PCOD9402966
_publ_section_title
;
Structure prediction by ZEFSAII (Michael W. Deem and Ramdas Pophale) SiO2 
 PCOD9402966
Probable space group: P M M A
;
_chemical_formula_sum "Si O2"
_cell_formula_units_Z 40
_cell_length_a 7.578887
_cell_length_b 13.186595
_cell_length_c 19.530441
_cell_angle_alpha 90.000000
_cell_angle_beta 90.000000
_cell_angle_gamma 90.000000
_cell_volume 1951.866677
_symmetry_space_group_name_H-M "P M M A"
_symmetry_group_IT_number 51
_symmetry_cell_setting 'orthorhombic'
loop_
_space_group_symop_operation_xyz
x,y,z
1/2-x,-y,z
1/2+x,-y,-z
-x,y,-z
-x,-y,-z
1/2+x,y,-z
1/2-x,y,z
x,-y,z
loop_
_atom_site_type_symbol
_atom_site_label
_atom_site_fract_x
_atom_site_fract_y
_atom_site_fract_z
Si Si1 0.962877 0.695108 0.337115
Si Si2 0.461195 0.000000 0.081188
Si Si3 0.038569 0.500000 0.579921
Si Si4 0.038123 0.885559 0.578720
Si Si5 0.037670 0.778884 0.080599
Si Si6 0.460879 0.615350 0.187147
O O1 0.750000 0.697003 0.342047
O O2 0.028637 0.600969 0.382841
O O3 0.028431 0.800718 0.368880
O O4 0.007693 0.671000 0.259053
O O5 0.528559 0.109862 0.105244
O O6 0.250000 0.000000 0.091158
O O7 0.500000 0.000000 0.000000
O O8 0.250000 0.500000 0.588212
O O9 0.000000 0.500000 0.500000
O O10 0.250000 0.889833 0.585418
O O11 0.000000 0.856119 0.500000
O O12 0.969432 0.000000 0.589469
O O13 0.250000 0.781055 0.087424
O O14 0.969600 0.686285 0.126114
O O15 0.000000 0.767061 0.000000
O O16 0.250000 0.607680 0.178232
O O17 0.531082 0.500000 0.188776
#
# Coordination Sequence:
#
# PCOD9402966 Si02
#       6
#     8   4   4   8   8   8
#     4  10  20  35  52  72 102 136 170 208 250 300
#     4   8  14  28  50  72  98 126 155 198 245 290
#     4  10  20  32  50  76  99 126 167 210 249 292
#     4   9  18  33  53  76 103 133 166 207 253 301
#     4   9  18  33  53  77 102 130 166 206 249 297
#     4  10  21  36  52  72 102 137 171 210 254 299
#
# _framework density 20.493202
#
# number of rings (size 3 to 8) (size 9 to 14) (size 15 to 20)
#    0.000    2.600    1.000    0.600    0.000    2.800 
#    1.800    0.000    0.000    0.000    0.000    0.000 
#    0.000    0.000    0.000    0.000    0.000    0.000 
#
# Total GULP energy -223134.479305 kJ/mol
# GULP energy per Si atom -5578.361983 kJ/mol
# Density = 2.044656 g / cm^3
# Si number density = 20.493202 Si / 1000 Ang^3
#
#
#
# Elastic Constant Matrix: (Units=GPa)
#
#
# Indices 1 2 3 4 5 6 
#
# 1 47.4730 10.8283 -5.7409 0.0000 0.0000 0.0000
# 2 10.8283 199.7926 109.9840 0.0000 0.0000 0.0000
# 3 -5.7409 109.9840 127.7107 0.0000 0.0000 0.0000
# 4 0.0000 0.0000 0.0000 5.7166 0.0000 0.0000
# 5 0.0000 0.0000 0.0000 0.0000 23.4099 0.0000
# 6 0.0000 0.0000 0.0000 0.0000 0.0000 -3.7841
#
#
#
# Elastic Compliance Matrix: (Units=1/GPa)
#
#
# Indices 1 2 3 4 5 6 
#
# 1 0.022298 -0.003347 0.003885 0.000000 0.000000 0.000000
# 2 -0.003347 0.010019 -0.008779 0.000000 0.000000 0.000000
# 3 0.003885 -0.008779 0.015565 0.000000 0.000000 0.000000
# 4 0.000000 0.000000 0.000000 0.174929 0.000000 0.000000
# 5 0.000000 0.000000 0.000000 0.000000 0.042717 0.000000
# 6 0.000000 0.000000 0.000000 0.000000 0.000000 -0.264267
#
#
# Mechanical properties :
#
#
# Convention : Reuss Voigt Hill
#
# Bulk Modulus (GPa) = 31.84725 67.23546 49.54135
# Shear Modulus (GPa) = 177.23326 22.39547 99.81436
#
# Velocity S-wave (km/s) = 9.30976 3.30938 6.98655
# Velocity P-wave (km/s) = 11.45148 6.89076 9.45037
#
# Compressibility (1/GPa) = 0.03139989
#
# Stress axis : x y z
#
# Youngs Moduli (GPa) = 44.84739 99.80585 64.24492
#
# Poissons Ratio (x) = 0.33405 -0.24958
# Poissons Ratio (y) = 0.15011 0.56402
# Poissons Ratio (z) = -0.17422 0.87621
#
# Static dielectric constant tensor:
#      x y z
#    x 1.789040 0.000000 0.000000 
#    y 0.000000 1.777440 0.000000 
#    z 0.000000 0.000000 1.670650 
# 
# From -- ./inp_files/31406.got.cif
#   From: 2010.05.17/outbox.cif.g08.bks.cpg/sg51_16_cif.got.tgz:31406.got - 2010.06.03 11:52:47.
