data_PCOD9402834
_publ_section_title
;
Structure prediction by ZEFSAII (Michael W. Deem and Ramdas Pophale) SiO2 
 PCOD9402834
Probable space group: P M M A
;
_chemical_formula_sum "Si O2"
_cell_formula_units_Z 44
_cell_length_a 10.292441
_cell_length_b 27.420510
_cell_length_c 9.218582
_cell_angle_alpha 90.000000
_cell_angle_beta 90.000000
_cell_angle_gamma 90.000000
_cell_volume 2601.704915
_symmetry_space_group_name_H-M "P M M A"
_symmetry_group_IT_number 51
_symmetry_cell_setting 'orthorhombic'
loop_
_space_group_symop_operation_xyz
x,y,z
1/2-x,-y,z
1/2+x,-y,-z
-x,y,-z
-x,-y,-z
1/2+x,y,-z
1/2-x,y,z
x,-y,z
loop_
_atom_site_type_symbol
_atom_site_label
_atom_site_fract_x
_atom_site_fract_y
_atom_site_fract_z
Si Si1 0.598343 0.000000 0.132503
Si Si2 0.599173 0.082183 0.370470
Si Si3 0.250000 0.442721 0.183484
Si Si4 0.601754 0.804056 0.374544
Si Si5 0.750000 0.555281 0.170723
Si Si6 0.904904 0.720771 0.137223
Si Si7 0.996006 0.383262 0.176974
O O1 0.577275 0.047015 0.234767
O O2 0.750000 0.000000 0.086219
O O3 0.500000 0.000000 0.000000
O O4 0.500000 0.070622 0.500000
O O5 0.750000 0.075330 0.416645
O O6 0.582076 0.139267 0.332064
O O7 0.250000 0.500000 0.229535
O O8 0.374636 0.410656 0.226966
O O9 0.250000 0.444506 0.006317
O O10 0.500000 0.792255 0.500000
O O11 0.750000 0.799843 0.429455
O O12 0.588357 0.767302 0.241165
O O13 0.750000 0.500000 0.218953
O O14 0.623690 0.583399 0.220989
O O15 0.750000 0.712195 0.100325
O O16 0.962597 0.672418 0.215388
O O17 0.000000 0.728483 0.000000
O O18 0.000000 0.382533 0.000000
#
# Coordination Sequence:
#
# PCOD9402834 Si02
#       7
#     4   8   4   8   4   8   8
#     4  10  21  34  50  78 112 144 173 210 252 298
#     4   9  18  34  55  76 102 134 173 215 256 297
#     4   9  16  24  36  56  85 121 157 194 235 288
#     4   9  19  36  54  75 101 131 169 215 255 297
#     4   9  14  22  36  54  81 119 155 188 231 288
#     4  10  20  32  48  70  99 131 164 202 250 303
#     4   9  16  25  37  57  87 120 155 193 239 290
#
# _framework density 16.911988000000001
#
# number of rings (size 3 to 8) (size 9 to 14) (size 15 to 20)
#    0.000    2.727    0.909    0.818    3.818    4.364 
#    0.000    0.000    0.000    0.000    0.000    0.000 
#    0.000    4.364    0.000    0.000    0.000    0.000 
#
# Total GULP energy -245017.603572 kJ/mol
# GULP energy per Si atom -5568.581899 kJ/mol
# Density = 1.687350 g / cm^3
# Si number density = 16.911988 Si / 1000 Ang^3
#
#
#
# Elastic Constant Matrix: (Units=GPa)
#
#
# Indices 1 2 3 4 5 6 
#
# 1 157.5437 81.9866 61.3636 0.0000 0.0000 0.0000
# 2 81.9866 103.1210 52.7649 0.0000 0.0000 0.0000
# 3 61.3636 52.7649 46.9393 0.0000 0.0000 0.0000
# 4 0.0000 0.0000 0.0000 -40.1929 0.0000 0.0000
# 5 0.0000 0.0000 0.0000 0.0000 13.4615 0.0000
# 6 0.0000 0.0000 0.0000 0.0000 0.0000 28.6223
#
#
#
# Elastic Compliance Matrix: (Units=1/GPa)
#
#
# Indices 1 2 3 4 5 6 
#
# 1 0.013613 -0.004042 -0.013252 0.000000 0.000000 0.000000
# 2 -0.004042 0.024027 -0.021725 0.000000 0.000000 0.000000
# 3 -0.013252 -0.021725 0.063050 0.000000 0.000000 0.000000
# 4 0.000000 0.000000 0.000000 -0.024880 0.000000 0.000000
# 5 0.000000 0.000000 0.000000 0.000000 0.074286 0.000000
# 6 0.000000 0.000000 0.000000 0.000000 0.000000 0.034938
#
#
# Mechanical properties :
#
#
# Convention : Reuss Voigt Hill
#
# Bulk Modulus (GPa) = 44.14754 77.75935 60.95345
# Shear Modulus (GPa) = 18.47591 7.81078 13.14334
#
# Velocity S-wave (km/s) = 3.30885 2.15140 2.79079
# Velocity P-wave (km/s) = 6.38427 7.22842 6.81942
#
# Compressibility (1/GPa) = 0.02265132
#
# Stress axis : x y z
#
# Youngs Moduli (GPa) = 73.46130 41.61956 15.86040
#
# Poissons Ratio (x) = 0.16822 0.21019
# Poissons Ratio (y) = 0.29692 0.34457
# Poissons Ratio (z) = 0.97353 0.90419
#
# Static dielectric constant tensor:
#      x y z
#    x 1.589240 0.000000 0.000000 
#    y 0.000000 1.582120 0.000000 
#    z 0.000000 0.000000 1.533630 
# 
# From -- ./inp_files/5913.got.cif
#   From: 2010.05.17/outbox.cif.g08.bks.cpg/sg51_3_cif.got.tgz:5913.got - 2010.06.03 11:52:47.
