data_PCOD9402189
_publ_section_title
;
Structure prediction by ZEFSAII (Michael W. Deem and Ramdas Pophale) SiO2 
 PCOD9402189
Probable space group: P M M A
;
_chemical_formula_sum "Si O2"
_cell_formula_units_Z 32
_cell_length_a 16.084505
_cell_length_b 7.542175
_cell_length_c 12.021224
_cell_angle_alpha 90.000000
_cell_angle_beta 90.000000
_cell_angle_gamma 90.000000
_cell_volume 1458.320547
_symmetry_space_group_name_H-M "P M M A"
_symmetry_group_IT_number 51
_symmetry_cell_setting 'orthorhombic'
loop_
_space_group_symop_operation_xyz
x,y,z
1/2-x,-y,z
1/2+x,-y,-z
-x,y,-z
-x,-y,-z
1/2+x,y,-z
1/2-x,y,z
x,-y,z
loop_
_atom_site_type_symbol
_atom_site_label
_atom_site_fract_x
_atom_site_fract_y
_atom_site_fract_z
Si Si1 0.750000 0.799283 0.160088
Si Si2 0.398988 0.214674 0.250549
Si Si3 0.082803 0.783138 0.727960
Si Si4 0.345358 0.215707 0.496443
Si Si5 0.250000 0.300330 0.085306
O O1 0.836430 0.720746 0.204372
O O2 0.750000 0.000000 0.207212
O O3 0.750000 0.808942 0.027594
O O4 0.493097 0.274994 0.228333
O O5 0.373324 0.274789 0.374527
O O6 0.330532 0.270143 0.161576
O O7 0.397758 0.000000 0.251621
O O8 0.097107 0.731209 0.599397
O O9 0.080763 0.000000 0.731919
O O10 0.250000 0.269430 0.517698
O O11 0.346596 0.000000 0.494486
O O12 0.250000 0.500000 0.044537
#
# Coordination Sequence:
#
# PCOD9402189 Si02
#       5
#     4   8   8   8   4
#     4  10  20  37  58  80 108 143 183 228 269 316
#     4  10  19  34  58  87 113 142 177 218 267 326
#     4   9  17  30  55  89 118 139 171 219 271 322
#     4   9  14  25  51  88 121 142 164 208 267 322
#     4  12  26  41  54  72 104 147 191 236 275 316
#
# _framework density 21.943051000000001
#
# number of rings (size 3 to 8) (size 9 to 14) (size 15 to 20)
#    0.000    2.250    2.500    1.875    0.000    4.000 
#    0.000    6.250    0.000    6.000    0.000    0.000 
#    0.000    0.000    0.000    0.000    0.000    0.000 
#
# Total GULP energy -178743.816823 kJ/mol
# GULP energy per Si atom -5585.744276 kJ/mol
# Density = 2.189311 g / cm^3
# Si number density = 21.943051 Si / 1000 Ang^3
#
#
#
# Elastic Constant Matrix: (Units=GPa)
#
#
# Indices 1 2 3 4 5 6 
#
# 1 140.9664 2.8379 35.7021 0.0000 0.0000 0.0000
# 2 2.8379 57.1545 -7.6139 0.0000 0.0000 0.0000
# 3 35.7021 -7.6139 97.7311 0.0000 0.0000 0.0000
# 4 0.0000 0.0000 0.0000 -67.7086 0.0000 0.0000
# 5 0.0000 0.0000 0.0000 0.0000 5.7756 0.0000
# 6 0.0000 0.0000 0.0000 0.0000 0.0000 -25.8323
#
#
#
# Elastic Compliance Matrix: (Units=1/GPa)
#
#
# Indices 1 2 3 4 5 6 
#
# 1 0.007851 -0.000780 -0.002929 0.000000 0.000000 0.000000
# 2 -0.000780 0.017757 0.001668 0.000000 0.000000 0.000000
# 3 -0.002929 0.001668 0.011432 0.000000 0.000000 0.000000
# 4 0.000000 0.000000 0.000000 -0.014769 0.000000 0.000000
# 5 0.000000 0.000000 0.000000 0.000000 0.173143 0.000000
# 6 0.000000 0.000000 0.000000 0.000000 0.000000 -0.038711
#
#
# Mechanical properties :
#
#
# Convention : Reuss Voigt Hill
#
# Bulk Modulus (GPa) = 30.34009 39.74493 35.04251
# Shear Modulus (GPa) = 29.10837 0.10865 14.60851
#
# Velocity S-wave (km/s) = 3.64612 0.22276 2.58301
# Velocity P-wave (km/s) = 5.61982 4.26828 4.99002
#
# Compressibility (1/GPa) = 0.03295969
#
# Stress axis : x y z
#
# Youngs Moduli (GPa) = 127.36580 56.31448 87.47283
#
# Poissons Ratio (x) = 0.04393 0.25621
# Poissons Ratio (y) = 0.09935 -0.14594
# Poissons Ratio (z) = 0.37305 -0.09395
#
# Static dielectric constant tensor:
#      x y z
#    x 1.792860 0.000000 0.000000 
#    y 0.000000 1.873770 0.000000 
#    z 0.000000 0.000000 1.750010 
# 
# From -- ./inp_files/15907.got.cif
#   From: 2010.05.17/outbox.cif.g08.bks.cpg/sg51_8_cif.got.tgz:15907.got - 2010.06.03 11:52:47.
