data_PCOD9402693
_publ_section_title
;
Structure prediction by ZEFSAII (Michael W. Deem and Ramdas Pophale) SiO2 
 PCOD9402693
Probable space group: P M M A
;
_chemical_formula_sum "Si O2"
_cell_formula_units_Z 64
_cell_length_a 19.523629
_cell_length_b 7.384032
_cell_length_c 21.567063
_cell_angle_alpha 90.000000
_cell_angle_beta 90.000000
_cell_angle_gamma 90.000000
_cell_volume 3109.174688
_symmetry_space_group_name_H-M "P M M A"
_symmetry_group_IT_number 51
_symmetry_cell_setting 'orthorhombic'
loop_
_space_group_symop_operation_xyz
x,y,z
1/2-x,-y,z
1/2+x,-y,-z
-x,y,-z
-x,-y,-z
1/2+x,y,-z
1/2-x,y,z
x,-y,z
loop_
_atom_site_type_symbol
_atom_site_label
_atom_site_fract_x
_atom_site_fract_y
_atom_site_fract_z
Si Si1 0.826134 0.788534 0.246011
Si Si2 0.826654 0.779180 0.877226
Si Si3 0.107260 0.217788 0.252258
Si Si4 0.578459 0.278276 0.501821
Si Si5 0.326882 0.281531 0.610009
Si Si6 0.533995 0.779381 0.936358
Si Si7 0.672501 0.286577 0.614553
Si Si8 0.967704 0.221182 0.193465
O O1 0.750000 0.710677 0.234527
O O2 0.838977 0.778439 0.319734
O O3 0.892793 0.712226 0.212204
O O4 0.822574 0.000000 0.228870
O O5 0.750000 0.718861 0.892209
O O6 0.848559 0.723380 0.807574
O O7 0.887718 0.722742 0.923092
O O8 0.826370 0.000000 0.877391
O O9 0.139909 0.269443 0.317370
O O10 0.029062 0.278067 0.239711
O O11 0.106744 0.000000 0.250628
O O12 0.500000 0.219111 0.500000
O O13 0.577731 0.500000 0.502630
O O14 0.618288 0.220789 0.440009
O O15 0.621185 0.215868 0.561836
O O16 0.250000 0.224559 0.591826
O O17 0.327752 0.500000 0.610628
O O18 0.490826 0.726833 0.875573
O O19 0.534258 0.000000 0.937658
O O20 0.500000 0.716935 0.000000
O O21 0.750000 0.211761 0.612847
O O22 0.678472 0.500000 0.601675
O O23 0.966589 0.000000 0.195337
#
# Coordination Sequence:
#
# PCOD9402693 Si02
#       8
#     8   8   8   8   8   8   8   8
#     4   9  17  29  45  64  88 117 144 174 219 267
#     4   8  13  22  37  57  80 107 141 177 210 247
#     4   9  17  29  46  65  86 116 148 176 211 258
#     4   9  18  31  46  63  84 113 144 174 214 263
#     4   9  17  30  48  66  83 108 144 182 215 252
#     4   8  13  22  36  55  82 115 145 172 207 250
#     4  10  20  32  46  66  91 114 138 176 223 262
#     4   8  15  27  42  61  87 117 146 177 214 256
#
# _framework density 20.584240999999999
#
# number of rings (size 3 to 8) (size 9 to 14) (size 15 to 20)
#    0.000    3.250    0.000    2.250    1.750    2.250 
#    0.000    1.250    0.000    6.000    0.000    0.000 
#    0.000   12.500    0.000   14.750    0.000   13.000 
#
# Total GULP energy -357046.915691 kJ/mol
# GULP energy per Si atom -5578.858058 kJ/mol
# Density = 2.053739 g / cm^3
# Si number density = 20.584241 Si / 1000 Ang^3
#
#
#
# Elastic Constant Matrix: (Units=GPa)
#
#
# Indices 1 2 3 4 5 6 
#
# 1 245.4871 9.5604 122.9885 0.0000 0.0000 0.0000
# 2 9.5604 70.1366 -0.9730 0.0000 0.0000 0.0000
# 3 122.9885 -0.9730 100.3608 0.0000 0.0000 0.0000
# 4 0.0000 0.0000 0.0000 15.2747 0.0000 0.0000
# 5 0.0000 0.0000 0.0000 0.0000 28.0532 0.0000
# 6 0.0000 0.0000 0.0000 0.0000 0.0000 2.8917
#
#
#
# Elastic Compliance Matrix: (Units=1/GPa)
#
#
# Indices 1 2 3 4 5 6 
#
# 1 0.010739 -0.001647 -0.013176 0.000000 0.000000 0.000000
# 2 -0.001647 0.014512 0.002159 0.000000 0.000000 0.000000
# 3 -0.013176 0.002159 0.026132 0.000000 0.000000 0.000000
# 4 0.000000 0.000000 0.000000 0.065468 0.000000 0.000000
# 5 0.000000 0.000000 0.000000 0.000000 0.035647 0.000000
# 6 0.000000 0.000000 0.000000 0.000000 0.000000 0.345819
#
#
# Mechanical properties :
#
#
# Convention : Reuss Voigt Hill
#
# Bulk Modulus (GPa) = 38.38079 75.45958 56.92018
# Shear Modulus (GPa) = 9.39269 28.20449 18.79859
#
# Velocity S-wave (km/s) = 2.13845 3.70563 3.02528
# Velocity P-wave (km/s) = 4.97830 7.41940 6.31787
#
# Compressibility (1/GPa) = 0.02605470
#
# Stress axis : x y z
#
# Youngs Moduli (GPa) = 93.12040 68.90711 38.26780
#
# Poissons Ratio (x) = 0.11346 0.50421
# Poissons Ratio (y) = 0.15333 -0.08260
# Poissons Ratio (z) = 1.22695 -0.14874
#
# Static dielectric constant tensor:
#      x y z
#    x 1.738150 0.000000 0.000000 
#    y 0.000000 1.810010 0.000000 
#    z 0.000000 0.000000 1.678180 
# 
# From -- ./inp_files/33998.got.cif
#   From: 2010.05.17/outbox.cif.g08.bks.cpg/sg51_17_cif.got.tgz:33998.got - 2010.06.03 11:52:47.
