data_PCOD9402139
_publ_section_title
;
Structure prediction by ZEFSAII (Michael W. Deem and Ramdas Pophale) SiO2 
 PCOD9402139
Probable space group: P M M A
;
_chemical_formula_sum "Si O2"
_cell_formula_units_Z 52
_cell_length_a 8.849238
_cell_length_b 23.225936
_cell_length_c 14.599004
_cell_angle_alpha 90.000000
_cell_angle_beta 90.000000
_cell_angle_gamma 90.000000
_cell_volume 3000.560088
_symmetry_space_group_name_H-M "P M M A"
_symmetry_group_IT_number 51
_symmetry_cell_setting 'orthorhombic'
loop_
_space_group_symop_operation_xyz
x,y,z
1/2-x,-y,z
1/2+x,-y,-z
-x,y,-z
-x,-y,-z
1/2+x,y,-z
1/2-x,y,z
x,-y,z
loop_
_atom_site_type_symbol
_atom_site_label
_atom_site_fract_x
_atom_site_fract_y
_atom_site_fract_z
Si Si1 0.069288 0.774545 0.600719
Si Si2 0.569579 0.432660 0.401066
Si Si3 0.931532 0.849251 0.095847
Si Si4 0.430622 0.332053 0.288398
Si Si5 0.069468 0.106731 0.707606
Si Si6 0.569070 0.278338 0.904809
Si Si7 0.929249 0.000000 0.601189
O O1 0.250000 0.767443 0.595142
O O2 0.037664 0.832370 0.658409
O O3 0.000000 0.780066 0.500000
O O4 0.998001 0.719931 0.651527
O O5 0.500000 0.417005 0.500000
O O6 0.750000 0.426000 0.405017
O O7 0.534596 0.500000 0.384413
O O8 0.500810 0.390953 0.325210
O O9 0.750000 0.845404 0.089214
O O10 0.969934 0.886482 0.185272
O O11 0.997652 0.784999 0.110042
O O12 0.000000 0.870772 0.000000
O O13 0.250000 0.333233 0.299232
O O14 0.465412 0.317598 0.182692
O O15 0.250000 0.096585 0.701028
O O16 0.984359 0.055974 0.656321
O O17 0.750000 0.272361 0.912988
O O18 0.500000 0.300419 0.000000
O O19 0.000000 0.000000 0.500000
O O20 0.750000 0.000000 0.592827
#
# Coordination Sequence:
#
# PCOD9402139 Si02
#       7
#     8   8   8   8   8   8   4
#     4  11  22  36  54  79 111 145 181 226 278 328
#     4  10  21  37  57  80 109 148 190 231 275 327
#     4  10  19  34  57  85 114 146 181 224 276 330
#     4  11  22  35  54  82 113 146 183 227 277 329
#     4  10  22  40  60  82 111 147 187 229 276 328
#     4  10  20  33  53  81 113 147 183 224 273 330
#     4  12  26  42  63  84 109 146 189 232 278 334
#
# _framework density 17.330098
#
# number of rings (size 3 to 8) (size 9 to 14) (size 15 to 20)
#    0.000    1.538    1.538    4.846    0.000    6.462 
#    0.000    0.385    0.000    0.462    0.000    0.000 
#    0.000    0.000    0.000    0.000    0.000    0.000 
#
# Total GULP energy -290559.648084 kJ/mol
# GULP energy per Si atom -5587.685540 kJ/mol
# Density = 1.729065 g / cm^3
# Si number density = 17.330098 Si / 1000 Ang^3
#
#
#
# Elastic Constant Matrix: (Units=GPa)
#
#
# Indices 1 2 3 4 5 6 
#
# 1 78.4731 54.2604 76.6176 0.0000 0.0000 0.0000
# 2 54.2604 81.9284 72.9603 0.0000 0.0000 0.0000
# 3 76.6176 72.9603 179.2659 0.0000 0.0000 0.0000
# 4 0.0000 0.0000 0.0000 28.1074 0.0000 0.0000
# 5 0.0000 0.0000 0.0000 0.0000 31.7076 0.0000
# 6 0.0000 0.0000 0.0000 0.0000 0.0000 -10.0459
#
#
#
# Elastic Compliance Matrix: (Units=1/GPa)
#
#
# Indices 1 2 3 4 5 6 
#
# 1 0.028144 -0.012434 -0.006968 0.000000 0.000000 0.000000
# 2 -0.012434 0.024638 -0.004713 0.000000 0.000000 0.000000
# 3 -0.006968 -0.004713 0.010475 0.000000 0.000000 0.000000
# 4 0.000000 0.000000 0.000000 0.035578 0.000000 0.000000
# 5 0.000000 0.000000 0.000000 0.000000 0.031538 0.000000
# 6 0.000000 0.000000 0.000000 0.000000 0.000000 -0.099543
#
#
# Mechanical properties :
#
#
# Convention : Reuss Voigt Hill
#
# Bulk Modulus (GPa) = 66.55173 83.03824 74.79499
# Shear Modulus (GPa) = 59.47399 19.00909 39.24154
#
# Velocity S-wave (km/s) = 5.86454 3.31552 4.76369
# Velocity P-wave (km/s) = 9.18384 7.91685 8.57378
#
# Compressibility (1/GPa) = 0.01502590
#
# Stress axis : x y z
#
# Youngs Moduli (GPa) = 35.53113 40.58727 95.46835
#
# Poissons Ratio (x) = 0.50468 0.66523
# Poissons Ratio (y) = 0.44181 0.44996
# Poissons Ratio (z) = 0.24758 0.19130
#
# Static dielectric constant tensor:
#      x y z
#    x 1.578360 0.000000 0.000000 
#    y 0.000000 1.561320 0.000000 
#    z 0.000000 0.000000 1.585830 
# 
# From -- ./inp_files/21641.got.cif
#   From: 2010.05.17/outbox.cif.g08.bks.cpg/sg51_11_cif.got.tgz:21641.got - 2010.06.03 11:52:47.
