data_PCOD9402186
_publ_section_title
;
Structure prediction by ZEFSAII (Michael W. Deem and Ramdas Pophale) SiO2 
 PCOD9402186
Probable space group: P M M A
;
_chemical_formula_sum "Si O2"
_cell_formula_units_Z 48
_cell_length_a 31.692324
_cell_length_b 8.237942
_cell_length_c 9.096061
_cell_angle_alpha 90.000000
_cell_angle_beta 90.000000
_cell_angle_gamma 90.000000
_cell_volume 2374.795303
_symmetry_space_group_name_H-M "P M M A"
_symmetry_group_IT_number 51
_symmetry_cell_setting 'orthorhombic'
loop_
_space_group_symop_operation_xyz
x,y,z
1/2-x,-y,z
1/2+x,-y,-z
-x,y,-z
-x,-y,-z
1/2+x,y,-z
1/2-x,y,z
x,-y,z
loop_
_atom_site_type_symbol
_atom_site_label
_atom_site_fract_x
_atom_site_fract_y
_atom_site_fract_z
Si Si1 0.499425 0.698252 0.169631
Si Si2 0.327567 0.189143 0.176504
Si Si3 0.750000 0.187931 0.321383
Si Si4 0.084845 0.301815 0.668728
Si Si5 0.750000 0.316101 0.640580
Si Si6 0.332141 0.693207 0.844806
Si Si7 0.086942 0.302930 0.328657
O O1 0.499783 0.500000 0.169965
O O2 0.541379 0.751354 0.255260
O O3 0.456636 0.748040 0.251363
O O4 0.500000 0.750534 0.000000
O O5 0.291045 0.285884 0.260630
O O6 0.372762 0.236578 0.243004
O O7 0.319374 0.000000 0.200389
O O8 0.327210 0.227196 0.003814
O O9 0.750000 0.204917 0.496865
O O10 0.791653 0.269321 0.254456
O O11 0.750000 0.000000 0.278191
O O12 0.084763 0.500000 0.668901
O O13 0.125571 0.249703 0.761574
O O14 0.087579 0.251541 0.499002
O O15 0.750000 0.500000 0.585088
O O16 0.335694 0.500000 0.866868
O O17 0.088716 0.500000 0.324393
#
# Coordination Sequence:
#
# PCOD9402186 Si02
#       7
#     8   8   4   8   4   8   8
#     4   9  16  28  51  85 120 152 191 243 298 349
#     4  12  25  41  60  86 120 155 195 247 308 361
#     4  12  25  42  63  92 128 160 192 236 295 352
#     4   9  18  32  55  87 117 148 193 248 297 345
#     4  12  25  44  67  90 116 152 200 244 289 350
#     4  11  22  39  62  87 117 157 205 249 293 351
#     4  10  19  34  58  86 117 154 197 243 294 358
#
# _framework density 20.21227
#
# number of rings (size 3 to 8) (size 9 to 14) (size 15 to 20)
#    0.000    1.500    0.000    6.500    0.000    6.000 
#    0.000    0.833    0.000    7.500    0.000    0.000 
#    0.000    0.000    0.000    0.000    0.000    0.000 
#
# Total GULP energy -268476.533051 kJ/mol
# GULP energy per Si atom -5593.261105 kJ/mol
# Density = 2.016627 g / cm^3
# Si number density = 20.212270 Si / 1000 Ang^3
#
#
#
# Elastic Constant Matrix: (Units=GPa)
#
#
# Indices 1 2 3 4 5 6 
#
# 1 155.6388 -7.1235 54.1535 0.0000 0.0000 0.0000
# 2 -7.1235 29.6595 -14.7998 0.0000 0.0000 0.0000
# 3 54.1535 -14.7998 133.9894 0.0000 0.0000 0.0000
# 4 0.0000 0.0000 0.0000 15.6236 0.0000 0.0000
# 5 0.0000 0.0000 0.0000 0.0000 37.8864 0.0000
# 6 0.0000 0.0000 0.0000 0.0000 0.0000 -39.1168
#
#
#
# Elastic Compliance Matrix: (Units=1/GPa)
#
#
# Indices 1 2 3 4 5 6 
#
# 1 0.007479 0.000305 -0.002989 0.000000 0.000000 0.000000
# 2 0.000305 0.035695 0.003820 0.000000 0.000000 0.000000
# 3 -0.002989 0.003820 0.009093 0.000000 0.000000 0.000000
# 4 0.000000 0.000000 0.000000 0.064006 0.000000 0.000000
# 5 0.000000 0.000000 0.000000 0.000000 0.026395 0.000000
# 6 0.000000 0.000000 0.000000 0.000000 0.000000 -0.025564
#
#
# Mechanical properties :
#
#
# Convention : Reuss Voigt Hill
#
# Bulk Modulus (GPa) = 18.33587 42.63867 30.48727
# Shear Modulus (GPa) = 37.59050 22.01582 29.80316
#
# Velocity S-wave (km/s) = 4.31720 3.30393 3.84410
# Velocity P-wave (km/s) = 5.82600 5.97460 5.90077
#
# Compressibility (1/GPa) = 0.05453790
#
# Stress axis : x y z
#
# Youngs Moduli (GPa) = 133.70547 28.01502 109.97159
#
# Poissons Ratio (x) = -0.00854 0.32872
# Poissons Ratio (y) = -0.04075 -0.42004
# Poissons Ratio (z) = 0.39966 -0.10700
#
# Static dielectric constant tensor:
#      x y z
#    x 1.672770 0.000000 0.000000 
#    y 0.000000 1.701260 0.000000 
#    z 0.000000 0.000000 1.667430 
# 
# From -- ./inp_files/12932.got.cif
#   From: 2010.05.17/outbox.cif.g08.bks.cpg/sg51_7_cif.got.tgz:12932.got - 2010.06.03 11:52:47.
