data_PCOD9402605
_publ_section_title
;
Structure prediction by ZEFSAII (Michael W. Deem and Ramdas Pophale) SiO2 
 PCOD9402605
Probable space group: P M M A
;
_chemical_formula_sum "Si O2"
_cell_formula_units_Z 64
_cell_length_a 17.840440
_cell_length_b 8.725875
_cell_length_c 23.910704
_cell_angle_alpha 90.000000
_cell_angle_beta 90.000000
_cell_angle_gamma 90.000000
_cell_volume 3722.261769
_symmetry_space_group_name_H-M "P M M A"
_symmetry_group_IT_number 51
_symmetry_cell_setting 'orthorhombic'
loop_
_space_group_symop_operation_xyz
x,y,z
1/2-x,-y,z
1/2+x,-y,-z
-x,y,-z
-x,-y,-z
1/2+x,y,-z
1/2-x,y,z
x,-y,z
loop_
_atom_site_type_symbol
_atom_site_label
_atom_site_fract_x
_atom_site_fract_y
_atom_site_fract_z
Si Si1 0.940587 0.317464 0.869412
Si Si2 0.922212 0.324007 0.535101
Si Si3 0.336341 0.816846 0.564337
Si Si4 0.976637 0.313629 0.367338
Si Si5 0.022667 0.315783 0.760174
Si Si6 0.333798 0.181903 0.819181
Si Si7 0.664738 0.815310 0.956039
Si Si8 0.581985 0.818041 0.067704
O O1 0.933013 0.500000 0.868618
O O2 0.868865 0.243213 0.898089
O O3 0.962989 0.262694 0.807049
O O4 0.010324 0.270084 0.908937
O O5 0.896088 0.500000 0.540386
O O6 0.863477 0.231140 0.497943
O O7 0.000000 0.326704 0.500000
O O8 0.952470 0.264378 0.594523
O O9 0.250000 0.767477 0.574382
O O10 0.398569 0.745630 0.606064
O O11 0.339444 0.000000 0.569571
O O12 0.974547 0.500000 0.370099
O O13 0.986491 0.263313 0.303421
O O14 0.019564 0.500000 0.759711
O O15 0.103295 0.264887 0.783242
O O16 0.250000 0.236845 0.808001
O O17 0.354777 0.199692 0.884527
O O18 0.337511 0.000000 0.807459
O O19 0.750000 0.764452 0.964457
O O20 0.663612 0.000000 0.956621
O O21 0.613089 0.765397 0.008175
O O22 0.563351 0.000000 0.064238
#
# Coordination Sequence:
#
# PCOD9402605 Si02
#       8
#     8   8   8   8   8   8   8   8
#     4  10  20  33  49  70  96 124 154 192 238 284
#     4   8  15  29  49  70  90 117 155 192 222 257
#     4  10  20  31  45  71 105 131 149 178 225 276
#     4   9  18  33  51  69  90 121 162 199 226 261
#     4   9  19  34  49  66  91 124 159 193 230 272
#     4   9  17  29  45  66  93 123 155 192 231 273
#     4  10  20  33  50  71  93 119 154 195 238 286
#     4   9  17  31  50  69  91 122 157 191 232 283
#
# _framework density 17.193847999999999
#
# number of rings (size 3 to 8) (size 9 to 14) (size 15 to 20)
#    0.000    2.750    0.000    2.250    0.000    8.750 
#    0.000    2.500    0.000    3.000    0.000    5.250 
#    0.000    0.000    0.000    0.000    0.000    0.000 
#
# Total GULP energy -356623.465698 kJ/mol
# GULP energy per Si atom -5572.241652 kJ/mol
# Density = 1.715471 g / cm^3
# Si number density = 17.193848 Si / 1000 Ang^3
#
#
#
# Elastic Constant Matrix: (Units=GPa)
#
#
# Indices 1 2 3 4 5 6 
#
# 1 31.8197 8.0037 31.3012 0.0000 0.0000 0.0000
# 2 8.0037 8.8285 14.4153 0.0000 0.0000 0.0000
# 3 31.3012 14.4153 131.2089 0.0000 0.0000 0.0000
# 4 0.0000 0.0000 0.0000 17.9681 0.0000 0.0000
# 5 0.0000 0.0000 0.0000 0.0000 9.7371 0.0000
# 6 0.0000 0.0000 0.0000 0.0000 0.0000 33.9359
#
#
#
# Elastic Compliance Matrix: (Units=1/GPa)
#
#
# Indices 1 2 3 4 5 6 
#
# 1 0.046563 -0.029339 -0.007885 0.000000 0.000000 0.000000
# 2 -0.029339 0.156518 -0.010197 0.000000 0.000000 0.000000
# 3 -0.007885 -0.010197 0.010623 0.000000 0.000000 0.000000
# 4 0.000000 0.000000 0.000000 0.055654 0.000000 0.000000
# 5 0.000000 0.000000 0.000000 0.000000 0.102700 0.000000
# 6 0.000000 0.000000 0.000000 0.000000 0.000000 0.029467
#
#
# Mechanical properties :
#
#
# Convention : Reuss Voigt Hill
#
# Bulk Modulus (GPa) = 8.41307 31.03304 19.72306
# Shear Modulus (GPa) = 9.32860 20.20403 14.76632
#
# Velocity S-wave (km/s) = 2.33181 3.43165 2.93373
# Velocity P-wave (km/s) = 3.48618 5.81290 4.79287
#
# Compressibility (1/GPa) = 0.11886265
#
# Stress axis : x y z
#
# Youngs Moduli (GPa) = 21.47628 6.38906 94.13822
#
# Poissons Ratio (x) = 0.18745 0.74226
# Poissons Ratio (y) = 0.63009 0.95990
# Poissons Ratio (z) = 0.16934 0.06515
#
# Static dielectric constant tensor:
#      x y z
#    x 1.571790 0.000000 0.000000 
#    y 0.000000 1.584630 0.000000 
#    z 0.000000 0.000000 1.610600 
# 
# From -- ./inp_files/35911.got.cif
#   From: 2010.05.17/outbox.cif.g08.bks.cpg/sg51_18_cif.got.tgz:35911.got - 2010.06.03 11:52:47.
