data_PCOD9402265
_publ_section_title
;
Structure prediction by ZEFSAII (Michael W. Deem and Ramdas Pophale) SiO2 
 PCOD9402265
Probable space group: P M M A
;
_chemical_formula_sum "Si O2"
_cell_formula_units_Z 64
_cell_length_a 14.438309
_cell_length_b 18.420117
_cell_length_c 12.741172
_cell_angle_alpha 90.000000
_cell_angle_beta 90.000000
_cell_angle_gamma 90.000000
_cell_volume 3388.582745
_symmetry_space_group_name_H-M "P M M A"
_symmetry_group_IT_number 51
_symmetry_cell_setting 'orthorhombic'
loop_
_space_group_symop_operation_xyz
x,y,z
1/2-x,-y,z
1/2+x,-y,-z
-x,y,-z
-x,-y,-z
1/2+x,y,-z
1/2-x,y,z
x,-y,z
loop_
_atom_site_type_symbol
_atom_site_label
_atom_site_fract_x
_atom_site_fract_y
_atom_site_fract_z
Si Si1 0.357390 0.417405 0.969989
Si Si2 0.854010 0.728566 0.532460
Si Si3 0.357266 0.682873 0.172915
Si Si4 0.603556 0.420204 0.455914
Si Si5 0.013882 0.914510 0.626728
Si Si6 0.553187 0.354316 0.234204
Si Si7 0.637932 0.213892 0.312859
Si Si8 0.359145 0.175271 0.272791
O O1 0.250000 0.416716 0.935467
O O2 0.378143 0.500000 0.006367
O O3 0.418799 0.395460 0.871360
O O4 0.364758 0.358154 0.062122
O O5 0.750000 0.756666 0.524109
O O6 0.851928 0.642502 0.525740
O O7 0.898304 0.753285 0.424213
O O8 0.887939 0.767871 0.635052
O O9 0.250000 0.672781 0.211633
O O10 0.441833 0.648816 0.238777
O O11 0.371696 0.770692 0.173188
O O12 0.500000 0.423386 0.500000
O O13 0.644659 0.500000 0.462639
O O14 0.597328 0.394152 0.335062
O O15 0.095668 0.866284 0.678501
O O16 0.000000 0.899626 0.500000
O O17 0.923893 0.891603 0.696013
O O18 0.031655 0.000000 0.634632
O O19 0.594443 0.272053 0.232297
O O20 0.750000 0.214885 0.303764
O O21 0.250000 0.156613 0.277320
#
# Coordination Sequence:
#
# PCOD9402265 Si02
#       8
#     8   8   8   8   8   8   8   8
#     4  10  22  39  57  84 119 148 189 249 300 341
#     4   9  18  31  50  70  97 139 183 225 271 321
#     4  10  21  35  55  80 106 144 188 233 287 341
#     4  10  21  32  46  72 104 139 185 233 272 319
#     4  11  22  34  55  85 117 153 186 227 289 351
#     4  11  20  35  60  79 107 151 192 230 285 350
#     4  10  20  34  53  80 111 148 188 228 274 339
#     4  10  19  35  55  78 108 147 191 229 275 338
#
# _framework density 18.886952999999998
#
# number of rings (size 3 to 8) (size 9 to 14) (size 15 to 20)
#    0.000    1.875    2.500    1.875    1.750    2.750 
#    0.000    1.875    0.000    3.000    0.000    1.750 
#    0.000    3.000    0.000    0.000    0.000    0.000 
#
# Total GULP energy -356276.676577 kJ/mol
# GULP energy per Si atom -5566.823072 kJ/mol
# Density = 1.884397 g / cm^3
# Si number density = 18.886953 Si / 1000 Ang^3
#
#
#
# Elastic Constant Matrix: (Units=GPa)
#
#
# Indices 1 2 3 4 5 6 
#
# 1 89.0348 20.5840 12.5822 0.0000 0.0000 0.0000
# 2 20.5840 107.5076 18.5161 0.0000 0.0000 0.0000
# 3 12.5822 18.5161 32.8925 0.0000 0.0000 0.0000
# 4 0.0000 0.0000 0.0000 28.4471 0.0000 0.0000
# 5 0.0000 0.0000 0.0000 0.0000 22.6334 0.0000
# 6 0.0000 0.0000 0.0000 0.0000 0.0000 40.1796
#
#
#
# Elastic Compliance Matrix: (Units=1/GPa)
#
#
# Indices 1 2 3 4 5 6 
#
# 1 0.012144 -0.001689 -0.003695 0.000000 0.000000 0.000000
# 2 -0.001689 0.010535 -0.005285 0.000000 0.000000 0.000000
# 3 -0.003695 -0.005285 0.034790 0.000000 0.000000 0.000000
# 4 0.000000 0.000000 0.000000 0.035153 0.000000 0.000000
# 5 0.000000 0.000000 0.000000 0.000000 0.044182 0.000000
# 6 0.000000 0.000000 0.000000 0.000000 0.000000 0.024888
#
#
# Mechanical properties :
#
#
# Convention : Reuss Voigt Hill
#
# Bulk Modulus (GPa) = 27.67533 36.97775 32.32654
# Shear Modulus (GPa) = 25.63133 30.10220 27.86676
#
# Velocity S-wave (km/s) = 3.68787 3.99658 3.84533
# Velocity P-wave (km/s) = 5.72877 6.39671 6.07193
#
# Compressibility (1/GPa) = 0.03613327
#
# Stress axis : x y z
#
# Youngs Moduli (GPa) = 82.34425 94.92011 28.74376
#
# Poissons Ratio (x) = 0.16030 0.10620
# Poissons Ratio (y) = 0.13907 0.15190
# Poissons Ratio (z) = 0.30424 0.50161
#
# Static dielectric constant tensor:
#      x y z
#    x 1.749760 0.000000 0.000000 
#    y 0.000000 1.679470 0.000000 
#    z 0.000000 0.000000 1.675240 
# 
# From -- ./inp_files/16818.got.cif
#   From: 2010.05.17/outbox.cif.g08.bks.cpg/sg51_9_cif.got.tgz:16818.got - 2010.06.03 11:52:47.
