data_PCOD9402645
_publ_section_title
;
Structure prediction by ZEFSAII (Michael W. Deem and Ramdas Pophale) SiO2 
 PCOD9402645
Probable space group: P M M A
;
_chemical_formula_sum "Si O2"
_cell_formula_units_Z 64
_cell_length_a 8.873370
_cell_length_b 14.735627
_cell_length_c 31.961858
_cell_angle_alpha 90.000000
_cell_angle_beta 90.000000
_cell_angle_gamma 90.000000
_cell_volume 4179.162213
_symmetry_space_group_name_H-M "P M M A"
_symmetry_group_IT_number 51
_symmetry_cell_setting 'orthorhombic'
loop_
_space_group_symop_operation_xyz
x,y,z
1/2-x,-y,z
1/2+x,-y,-z
-x,y,-z
-x,-y,-z
1/2+x,y,-z
1/2-x,y,z
x,-y,z
loop_
_atom_site_type_symbol
_atom_site_label
_atom_site_fract_x
_atom_site_fract_y
_atom_site_fract_z
Si Si1 0.432952 0.400028 0.074732
Si Si2 0.070954 0.108212 0.876047
Si Si3 0.424183 0.889425 0.543310
Si Si4 0.066997 0.599976 0.172524
Si Si5 0.577037 0.110289 0.629452
Si Si6 0.568517 0.792655 0.795642
Si Si7 0.570437 0.107234 0.283177
Si Si8 0.568463 0.205486 0.956474
O O1 0.250000 0.401091 0.073579
O O2 0.485415 0.500000 0.060387
O O3 0.475773 0.389060 0.123636
O O4 0.481182 0.310681 0.050210
O O5 0.250000 0.126873 0.876851
O O6 0.998175 0.152692 0.834977
O O7 0.993266 0.150039 0.917022
O O8 0.049696 0.000000 0.874948
O O9 0.500000 0.859442 0.500000
O O10 0.250000 0.863086 0.544402
O O11 0.507222 0.858729 0.585482
O O12 0.429797 0.000000 0.543301
O O13 0.250000 0.599082 0.173064
O O14 0.015458 0.500000 0.186592
O O15 0.019763 0.687714 0.198428
O O16 0.750000 0.139082 0.633355
O O17 0.484490 0.135933 0.670711
O O18 0.574820 0.000000 0.628214
O O19 0.750000 0.796926 0.797077
O O20 0.509082 0.836244 0.753070
O O21 0.750000 0.116062 0.279962
O O22 0.532982 0.000000 0.278033
O O23 0.750000 0.201712 0.957210
O O24 0.500000 0.171823 0.000000
#
# Coordination Sequence:
#
# PCOD9402645 Si02
#       8
#     8   8   8   8   8   8   8   8
#     4   8  14  28  51  76 100 123 145 171 208 255
#     4  11  24  40  55  71  93 121 151 185 223 260
#     4   9  15  22  33  50  73 104 144 190 238 284
#     4   8  14  27  49  75  98 118 142 173 212 259
#     4   9  16  26  39  55  77 107 147 195 239 278
#     4  11  20  32  53  77  95 117 149 184 221 262
#     4  10  20  32  44  61  89 124 156 189 232 275
#     4  11  22  37  56  77  98 122 149 179 215 257
#
# _framework density 15.314074
#
# number of rings (size 3 to 8) (size 9 to 14) (size 15 to 20)
#    0.000    2.375    1.250    3.375    0.000    6.750 
#    0.000    0.000    0.000    3.375    0.000    0.000 
#    0.000    0.000    0.000    0.000    0.000    0.625 
#
# Total GULP energy -356810.571037 kJ/mol
# GULP energy per Si atom -5575.165172 kJ/mol
# Density = 1.527922 g / cm^3
# Si number density = 15.314074 Si / 1000 Ang^3
#
#
#
# Elastic Constant Matrix: (Units=GPa)
#
#
# Indices 1 2 3 4 5 6 
#
# 1 59.1163 34.2314 43.9104 0.0000 0.0000 0.0000
# 2 34.2314 62.8574 47.1536 0.0000 0.0000 0.0000
# 3 43.9104 47.1536 124.3941 0.0000 0.0000 0.0000
# 4 0.0000 0.0000 0.0000 -2.9370 0.0000 0.0000
# 5 0.0000 0.0000 0.0000 0.0000 28.6719 0.0000
# 6 0.0000 0.0000 0.0000 0.0000 0.0000 1.0586
#
#
#
# Elastic Compliance Matrix: (Units=1/GPa)
#
#
# Indices 1 2 3 4 5 6 
#
# 1 0.027218 -0.010641 -0.005574 0.000000 0.000000 0.000000
# 2 -0.010641 0.026391 -0.006248 0.000000 0.000000 0.000000
# 3 -0.005574 -0.006248 0.012375 0.000000 0.000000 0.000000
# 4 0.000000 0.000000 0.000000 -0.340486 0.000000 0.000000
# 5 0.000000 0.000000 0.000000 0.000000 0.034877 0.000000
# 6 0.000000 0.000000 0.000000 0.000000 0.000000 0.944647
#
#
# Mechanical properties :
#
#
# Convention : Reuss Voigt Hill
#
# Bulk Modulus (GPa) = 47.48789 55.21760 51.35275
# Shear Modulus (GPa) = 6.60531 13.43021 10.01776
#
# Velocity S-wave (km/s) = 2.07908 2.96461 2.56042
# Velocity P-wave (km/s) = 6.06960 6.91763 6.50744
#
# Compressibility (1/GPa) = 0.02105800
#
# Stress axis : x y z
#
# Youngs Moduli (GPa) = 36.74065 37.89203 80.80906
#
# Poissons Ratio (x) = 0.40321 0.45044
# Poissons Ratio (y) = 0.39096 0.50487
# Poissons Ratio (z) = 0.20480 0.23674
#
# Static dielectric constant tensor:
#      x y z
#    x 1.513560 0.000000 0.000000 
#    y 0.000000 1.510060 0.000000 
#    z 0.000000 0.000000 1.495050 
# 
# From -- ./inp_files/37663.got.cif
#   From: 2010.05.17/outbox.cif.g08.bks.cpg/sg51_19_cif.got.tgz:37663.got - 2010.06.03 11:52:47.
