data_PCOD9402457
_publ_section_title
;
Structure prediction by ZEFSAII (Michael W. Deem and Ramdas Pophale) SiO2 
 PCOD9402457
Probable space group: P M M A
;
_chemical_formula_sum "Si O2"
_cell_formula_units_Z 40
_cell_length_a 19.138508
_cell_length_b 8.488269
_cell_length_c 12.828478
_cell_angle_alpha 90.000000
_cell_angle_beta 90.000000
_cell_angle_gamma 90.000000
_cell_volume 2084.022224
_symmetry_space_group_name_H-M "P M M A"
_symmetry_group_IT_number 51
_symmetry_cell_setting 'orthorhombic'
loop_
_space_group_symop_operation_xyz
x,y,z
1/2-x,-y,z
1/2+x,-y,-z
-x,y,-z
-x,-y,-z
1/2+x,y,-z
1/2-x,y,z
x,-y,z
loop_
_atom_site_type_symbol
_atom_site_label
_atom_site_fract_x
_atom_site_fract_y
_atom_site_fract_z
Si Si1 0.926151 0.813299 0.712776
Si Si2 0.329940 0.690185 0.465899
Si Si3 0.170224 0.692124 0.864490
Si Si4 0.426148 0.690327 0.052982
Si Si5 0.420803 0.309041 0.664509
O O1 0.865271 0.743500 0.640957
O O2 0.919660 0.759475 0.832334
O O3 0.000752 0.753114 0.670139
O O4 0.924235 0.000000 0.706919
O O5 0.250000 0.744971 0.476703
O O6 0.329058 0.500000 0.468721
O O7 0.378336 0.742581 0.562396
O O8 0.250000 0.745593 0.854049
O O9 0.170823 0.500000 0.862992
O O10 0.121984 0.740717 0.767541
O O11 0.134505 0.739393 0.972970
O O12 0.425397 0.500000 0.061760
O O13 0.500000 0.733883 0.000000
O O14 0.424015 0.500000 0.664465
#
# Coordination Sequence:
#
# PCOD9402457 Si02
#       5
#     8   8   8   8   8
#     4  12  25  38  57  85 121 161 199 236 286 353
#     4  10  22  40  63  89 116 150 196 248 297 345
#     4   9  17  31  57  90 116 141 183 243 304 351
#     4  10  19  36  60  85 113 149 194 244 294 343
#     4  10  19  37  63  89 115 146 192 247 297 347
#
# _framework density 19.193653999999999
#
# number of rings (size 3 to 8) (size 9 to 14) (size 15 to 20)
#    0.000    1.800    2.000    3.000    0.000    7.200 
#    0.000    2.000    0.000    3.000    0.000    0.000 
#    0.000    0.000    0.000    0.000    0.000    0.000 
#
# Total GULP energy -223496.366552 kJ/mol
# GULP energy per Si atom -5587.409164 kJ/mol
# Density = 1.914997 g / cm^3
# Si number density = 19.193654 Si / 1000 Ang^3
#
#
#
# Elastic Constant Matrix: (Units=GPa)
#
#
# Indices 1 2 3 4 5 6 
#
# 1 46.3914 4.8349 15.0900 0.0000 0.0000 0.0000
# 2 4.8349 8.9349 10.7697 0.0000 0.0000 0.0000
# 3 15.0900 10.7697 118.3599 0.0000 0.0000 0.0000
# 4 0.0000 0.0000 0.0000 -12.3838 0.0000 0.0000
# 5 0.0000 0.0000 0.0000 0.0000 28.8227 0.0000
# 6 0.0000 0.0000 0.0000 0.0000 0.0000 -11.4747
#
#
#
# Elastic Compliance Matrix: (Units=1/GPa)
#
#
# Indices 1 2 3 4 5 6 
#
# 1 0.023277 -0.010129 -0.002046 0.000000 0.000000 0.000000
# 2 -0.010129 0.130115 -0.010548 0.000000 0.000000 0.000000
# 3 -0.002046 -0.010548 0.009669 0.000000 0.000000 0.000000
# 4 0.000000 0.000000 0.000000 -0.080750 0.000000 0.000000
# 5 0.000000 0.000000 0.000000 0.000000 0.034695 0.000000
# 6 0.000000 0.000000 0.000000 0.000000 0.000000 -0.087148
#
#
# Mechanical properties :
#
#
# Convention : Reuss Voigt Hill
#
# Bulk Modulus (GPa) = 8.50233 26.11951 17.31092
# Shear Modulus (GPa) = 43.66453 10.52560 27.09506
#
# Velocity S-wave (km/s) = 4.77481 2.34431 3.76129
# Velocity P-wave (km/s) = 5.90236 4.57883 5.28221
#
# Compressibility (1/GPa) = 0.11761485
#
# Stress axis : x y z
#
# Youngs Moduli (GPa) = 42.96108 7.68549 103.41880
#
# Poissons Ratio (x) = 0.07785 0.21159
# Poissons Ratio (y) = 0.43517 1.09086
# Poissons Ratio (z) = 0.08790 0.08107
#
# Static dielectric constant tensor:
#      x y z
#    x 1.647800 0.000000 0.000000 
#    y 0.000000 1.656570 0.000000 
#    z 0.000000 0.000000 1.645400 
# 
# From -- ./inp_files/17065.got.cif
#   From: 2010.05.17/outbox.cif.g08.bks.cpg/sg51_9_cif.got.tgz:17065.got - 2010.06.03 11:52:47.
