data_PCOD9402888
_publ_section_title
;
Structure prediction by ZEFSAII (Michael W. Deem and Ramdas Pophale) SiO2 
 PCOD9402888
Probable space group: P M M A
;
_chemical_formula_sum "Si O2"
_cell_formula_units_Z 48
_cell_length_a 9.333147
_cell_length_b 9.354309
_cell_length_c 31.684174
_cell_angle_alpha 90.000000
_cell_angle_beta 90.000000
_cell_angle_gamma 90.000000
_cell_volume 2766.191278
_symmetry_space_group_name_H-M "P M M A"
_symmetry_group_IT_number 51
_symmetry_cell_setting 'orthorhombic'
loop_
_space_group_symop_operation_xyz
x,y,z
1/2-x,-y,z
1/2+x,-y,-z
-x,y,-z
-x,-y,-z
1/2+x,y,-z
1/2-x,y,z
x,-y,z
loop_
_atom_site_type_symbol
_atom_site_label
_atom_site_fract_x
_atom_site_fract_y
_atom_site_fract_z
Si Si1 0.918827 0.671412 0.798851
Si Si2 0.921750 0.832034 0.372275
Si Si3 0.581690 0.828124 0.126652
Si Si4 0.921602 0.331848 0.702141
Si Si5 0.084740 0.825783 0.041776
Si Si6 0.421060 0.331199 0.542786
O O1 0.750000 0.704841 0.804874
O O2 0.934335 0.500000 0.803154
O O3 0.957833 0.708315 0.750469
O O4 0.012817 0.752493 0.833023
O O5 0.750000 0.813579 0.368285
O O6 0.966054 0.755774 0.415878
O O7 0.998105 0.759807 0.332634
O O8 0.952992 0.000000 0.374090
O O9 0.750000 0.795632 0.122683
O O10 0.497256 0.783377 0.084360
O O11 0.567090 0.000000 0.130737
O O12 0.750000 0.316760 0.697754
O O13 0.955725 0.500000 0.696611
O O14 0.250000 0.778891 0.041645
O O15 0.085317 0.000000 0.041087
O O16 0.000000 0.778666 0.000000
O O17 0.500000 0.286003 0.500000
O O18 0.250000 0.314310 0.537461
O O19 0.450337 0.500000 0.549428
#
# Coordination Sequence:
#
# PCOD9402888 Si02
#       6
#     8   8   8   8   8   8
#     4   9  19  36  55  74  98 130 168 209 253 301
#     4  10  21  35  51  75 107 138 167 203 250 302
#     4  10  20  32  48  74 105 134 167 207 250 299
#     4   9  19  36  56  76  98 128 169 212 251 297
#     4   9  16  27  45  69  98 132 169 209 252 297
#     4   9  18  33  52  73  98 131 171 211 249 292
#
# _framework density 17.352378999999999
#
# number of rings (size 3 to 8) (size 9 to 14) (size 15 to 20)
#    0.000    2.667    0.000    2.500    0.000    7.000 
#    0.000    6.667    0.000    0.500    0.000    0.000 
#    0.000    0.000    0.000    0.000    0.000    0.000 
#
# Total GULP energy -267761.607559 kJ/mol
# GULP energy per Si atom -5578.366824 kJ/mol
# Density = 1.731288 g / cm^3
# Si number density = 17.352379 Si / 1000 Ang^3
#
#
#
# Elastic Constant Matrix: (Units=GPa)
#
#
# Indices 1 2 3 4 5 6 
#
# 1 93.0654 51.1589 102.8039 0.0000 0.0000 0.0000
# 2 51.1589 44.2882 78.9281 0.0000 0.0000 0.0000
# 3 102.8039 78.9281 201.5652 0.0000 0.0000 0.0000
# 4 0.0000 0.0000 0.0000 30.2873 0.0000 0.0000
# 5 0.0000 0.0000 0.0000 0.0000 40.6575 0.0000
# 6 0.0000 0.0000 0.0000 0.0000 0.0000 24.7498
#
#
#
# Elastic Compliance Matrix: (Units=1/GPa)
#
#
# Indices 1 2 3 4 5 6 
#
# 1 0.031497 -0.025664 -0.006015 0.000000 0.000000 0.000000
# 2 -0.025664 0.095638 -0.024360 0.000000 0.000000 0.000000
# 3 -0.006015 -0.024360 0.017568 0.000000 0.000000 0.000000
# 4 0.000000 0.000000 0.000000 0.033017 0.000000 0.000000
# 5 0.000000 0.000000 0.000000 0.000000 0.024596 0.000000
# 6 0.000000 0.000000 0.000000 0.000000 0.000000 0.040404
#
#
# Mechanical properties :
#
#
# Convention : Reuss Voigt Hill
#
# Bulk Modulus (GPa) = 30.65133 89.41115 60.03124
# Shear Modulus (GPa) = 13.67335 26.20745 19.94040
#
# Velocity S-wave (km/s) = 2.81015 3.89049 3.39358
# Velocity P-wave (km/s) = 5.31334 8.47465 7.07288
#
# Compressibility (1/GPa) = 0.03262501
#
# Stress axis : x y z
#
# Youngs Moduli (GPa) = 31.74865 10.45607 56.92125
#
# Poissons Ratio (x) = 0.26834 0.34240
# Poissons Ratio (y) = 0.81478 1.38663
# Poissons Ratio (z) = 0.19098 0.25471
#
# Static dielectric constant tensor:
#      x y z
#    x 1.577040 0.000000 0.000000 
#    y 0.000000 1.574440 0.000000 
#    z 0.000000 0.000000 1.565200 
# 
# From -- ./inp_files/36967.got.cif
#   From: 2010.05.17/outbox.cif.g08.bks.cpg/sg51_19_cif.got.tgz:36967.got - 2010.06.03 11:52:47.
