data_PCOD9402361
_publ_section_title
;
Structure prediction by ZEFSAII (Michael W. Deem and Ramdas Pophale) SiO2 
 PCOD9402361
Probable space group: P M M A
;
_chemical_formula_sum "Si O2"
_cell_formula_units_Z 48
_cell_length_a 8.026381
_cell_length_b 15.630935
_cell_length_c 19.626021
_cell_angle_alpha 90.000000
_cell_angle_beta 90.000000
_cell_angle_gamma 90.000000
_cell_volume 2462.277449
_symmetry_space_group_name_H-M "P M M A"
_symmetry_group_IT_number 51
_symmetry_cell_setting 'orthorhombic'
loop_
_space_group_symop_operation_xyz
x,y,z
1/2-x,-y,z
1/2+x,-y,-z
-x,y,-z
-x,-y,-z
1/2+x,y,-z
1/2-x,y,z
x,-y,z
loop_
_atom_site_type_symbol
_atom_site_label
_atom_site_fract_x
_atom_site_fract_y
_atom_site_fract_z
Si Si1 0.548881 0.000000 0.921611
Si Si2 0.453852 0.902518 0.325343
Si Si3 0.451122 0.500000 0.921443
Si Si4 0.948364 0.249802 0.578319
Si Si5 0.950783 0.846736 0.826149
Si Si6 0.950849 0.596859 0.324763
Si Si7 0.049261 0.346682 0.825469
O O1 0.489245 0.915988 0.881012
O O2 0.750000 0.000000 0.918096
O O3 0.500000 0.000000 0.000000
O O4 0.250000 0.902314 0.325510
O O5 0.512876 0.833095 0.380256
O O6 0.507315 0.873355 0.249763
O O7 0.506670 0.000000 0.338715
O O8 0.250000 0.500000 0.918354
O O9 0.510366 0.583902 0.880398
O O10 0.500000 0.500000 0.000000
O O11 0.750000 0.245954 0.581068
O O12 0.000000 0.249983 0.500000
O O13 0.001566 0.335108 0.618083
O O14 0.750000 0.850405 0.825218
O O15 0.001299 0.750113 0.841632
O O16 0.750000 0.594327 0.321772
O O17 0.009934 0.500000 0.337763
O O18 0.011207 0.628432 0.250444
O O19 0.250000 0.351680 0.823923
#
# Coordination Sequence:
#
# PCOD9402361 Si02
#       7
#     4   8   4   8   8   8   8
#     4  10  22  38  58  82 117 154 188 233 286 337
#     4   9  17  33  58  84 110 144 187 230 275 328
#     4  10  22  40  58  82 117 154 187 228 285 338
#     4  11  23  38  58  85 117 150 185 232 283 334
#     4  10  19  35  59  85 110 146 192 233 275 331
#     4  10  20  37  61  85 111 147 188 232 283 338
#     4  10  20  36  59  85 114 147 185 233 286 335
#
# _framework density 19.494149
#
# number of rings (size 3 to 8) (size 9 to 14) (size 15 to 20)
#    0.000    2.000    3.333    0.500    0.000    3.000 
#    0.000    3.333    0.000    3.500    0.000    0.000 
#    0.000    0.000    0.000    0.000    0.000    0.000 
#
# Total GULP energy -268055.252485 kJ/mol
# GULP energy per Si atom -5584.484427 kJ/mol
# Density = 1.944978 g / cm^3
# Si number density = 19.494149 Si / 1000 Ang^3
#
#
#
# Elastic Constant Matrix: (Units=GPa)
#
#
# Indices 1 2 3 4 5 6 
#
# 1 14.7882 13.8300 12.7652 0.0000 0.0000 0.0000
# 2 13.8300 239.1241 132.7047 0.0000 0.0000 0.0000
# 3 12.7652 132.7047 200.5936 0.0000 0.0000 0.0000
# 4 0.0000 0.0000 0.0000 36.6125 0.0000 0.0000
# 5 0.0000 0.0000 0.0000 0.0000 21.5610 0.0000
# 6 0.0000 0.0000 0.0000 0.0000 0.0000 26.2041
#
#
#
# Elastic Compliance Matrix: (Units=1/GPa)
#
#
# Indices 1 2 3 4 5 6 
#
# 1 0.072547 -0.002582 -0.002909 0.000000 0.000000 0.000000
# 2 -0.002582 0.006700 -0.004268 0.000000 0.000000 0.000000
# 3 -0.002909 -0.004268 0.007994 0.000000 0.000000 0.000000
# 4 0.000000 0.000000 0.000000 0.027313 0.000000 0.000000
# 5 0.000000 0.000000 0.000000 0.000000 0.046380 0.000000
# 6 0.000000 0.000000 0.000000 0.000000 0.000000 0.038162
#
#
# Mechanical properties :
#
#
# Convention : Reuss Voigt Hill
#
# Bulk Modulus (GPa) = 14.76592 85.90064 50.33328
# Shear Modulus (GPa) = 20.73082 36.55591 28.64337
#
# Velocity S-wave (km/s) = 3.26458 4.33508 3.83734
# Velocity P-wave (km/s) = 4.66915 8.31972 6.74606
#
# Compressibility (1/GPa) = 0.06772349
#
# Stress axis : x y z
#
# Youngs Moduli (GPa) = 13.78424 149.25705 125.09546
#
# Poissons Ratio (x) = 0.38531 0.36388
# Poissons Ratio (y) = 0.03558 0.53392
# Poissons Ratio (z) = 0.04010 0.63704
#
# Static dielectric constant tensor:
#      x y z
#    x 1.709280 0.000000 0.000000 
#    y 0.000000 1.671030 0.000000 
#    z 0.000000 0.000000 1.684330 
# 
# From -- ./inp_files/27606.got.cif
#   From: 2010.05.17/outbox.cif.g08.bks.cpg/sg51_14_cif.got.tgz:27606.got - 2010.06.03 11:52:47.
