data_PCOD9402440
_publ_section_title
;
Structure prediction by ZEFSAII (Michael W. Deem and Ramdas Pophale) SiO2 
 PCOD9402440
Probable space group: P M M A
;
_chemical_formula_sum "Si O2"
_cell_formula_units_Z 40
_cell_length_a 7.710707
_cell_length_b 12.330213
_cell_length_c 20.947129
_cell_angle_alpha 90.000000
_cell_angle_beta 90.000000
_cell_angle_gamma 90.000000
_cell_volume 1991.541161
_symmetry_space_group_name_H-M "P M M A"
_symmetry_group_IT_number 51
_symmetry_cell_setting 'orthorhombic'
loop_
_space_group_symop_operation_xyz
x,y,z
1/2-x,-y,z
1/2+x,-y,-z
-x,y,-z
-x,-y,-z
1/2+x,y,-z
1/2-x,y,z
x,-y,z
loop_
_atom_site_type_symbol
_atom_site_label
_atom_site_fract_x
_atom_site_fract_y
_atom_site_fract_z
Si Si1 0.050979 0.500000 0.741244
Si Si2 0.962220 0.876021 0.809856
Si Si3 0.459753 0.731450 0.310724
Si Si4 0.049727 0.500000 0.114354
Si Si5 0.541381 0.732730 0.927695
Si Si6 0.458504 0.123247 0.426920
O O1 0.250000 0.500000 0.760728
O O2 0.014131 0.391758 0.701315
O O3 0.950913 0.500000 0.808631
O O4 0.750000 0.877190 0.809471
O O5 0.016375 0.803825 0.749619
O O6 0.020456 0.817739 0.874752
O O7 0.019833 0.000000 0.804991
O O8 0.250000 0.731930 0.311393
O O9 0.521968 0.790100 0.375203
O O10 0.250000 0.500000 0.092913
O O11 0.972116 0.387787 0.088636
O O12 0.750000 0.728942 0.920914
O O13 0.500000 0.762456 0.000000
O O14 0.500000 0.151205 0.500000
O O15 0.250000 0.119378 0.421042
O O16 0.522927 0.000000 0.414684
#
# Coordination Sequence:
#
# PCOD9402440 Si02
#       6
#     4   8   8   4   8   8
#     4  12  24  35  54  83 111 137 173 227 282 320
#     4   9  17  31  54  80 103 134 179 224 262 311
#     4  10  19  36  59  80 107 144 185 220 259 319
#     4  10  19  37  57  75  99 139 184 221 268 324
#     4  10  20  33  52  76 105 138 176 221 269 319
#     4   9  18  33  57  88 117 147 181 219 263 312
#
# _framework density 20.084948000000001
#
# number of rings (size 3 to 8) (size 9 to 14) (size 15 to 20)
#    0.000    2.200    2.000    1.800    0.000    4.400 
#    0.000    0.500    0.000    3.000    0.000    0.000 
#    0.000    0.000    0.000    0.000    0.000    0.000 
#
# Total GULP energy -223367.045205 kJ/mol
# GULP energy per Si atom -5584.176130 kJ/mol
# Density = 2.003923 g / cm^3
# Si number density = 20.084948 Si / 1000 Ang^3
#
#
#
# Elastic Constant Matrix: (Units=GPa)
#
#
# Indices 1 2 3 4 5 6 
#
# 1 33.3218 5.6300 -5.2604 0.0000 0.0000 0.0000
# 2 5.6300 187.8797 104.3772 0.0000 0.0000 0.0000
# 3 -5.2604 104.3772 149.2872 0.0000 0.0000 0.0000
# 4 0.0000 0.0000 0.0000 28.2307 0.0000 0.0000
# 5 0.0000 0.0000 0.0000 0.0000 20.2454 0.0000
# 6 0.0000 0.0000 0.0000 0.0000 0.0000 5.6644
#
#
#
# Elastic Compliance Matrix: (Units=1/GPa)
#
#
# Indices 1 2 3 4 5 6 
#
# 1 0.030881 -0.002502 0.002837 0.000000 0.000000 0.000000
# 2 -0.002502 0.008906 -0.006315 0.000000 0.000000 0.000000
# 3 0.002837 -0.006315 0.011214 0.000000 0.000000 0.000000
# 4 0.000000 0.000000 0.000000 0.035422 0.000000 0.000000
# 5 0.000000 0.000000 0.000000 0.000000 0.049394 0.000000
# 6 0.000000 0.000000 0.000000 0.000000 0.000000 0.176540
#
#
# Mechanical properties :
#
#
# Convention : Reuss Voigt Hill
#
# Bulk Modulus (GPa) = 25.61352 64.44248 45.02800
# Shear Modulus (GPa) = 14.82231 28.54422 21.68326
#
# Velocity S-wave (km/s) = 2.71953 3.77394 3.28926
# Velocity P-wave (km/s) = 4.75830 7.15156 6.07397
#
# Compressibility (1/GPa) = 0.03904188
#
# Stress axis : x y z
#
# Youngs Moduli (GPa) = 32.38244 112.28763 89.17775
#
# Poissons Ratio (x) = 0.28090 -0.25301
# Poissons Ratio (y) = 0.08101 0.56314
# Poissons Ratio (z) = -0.09188 0.70907
#
# Static dielectric constant tensor:
#      x y z
#    x 1.747960 0.000000 0.000000 
#    y 0.000000 1.694510 0.000000 
#    z 0.000000 0.000000 1.680150 
# 
# From -- ./inp_files/31432.got.cif
#   From: 2010.05.17/outbox.cif.g08.bks.cpg/sg51_16_cif.got.tgz:31432.got - 2010.06.03 11:52:47.
