data_PCOD9402572
_publ_section_title
;
Structure prediction by ZEFSAII (Michael W. Deem and Ramdas Pophale) SiO2 
 PCOD9402572
Probable space group: P M M A
;
_chemical_formula_sum "Si O2"
_cell_formula_units_Z 64
_cell_length_a 7.514648
_cell_length_b 19.866120
_cell_length_c 24.499153
_cell_angle_alpha 90.000000
_cell_angle_beta 90.000000
_cell_angle_gamma 90.000000
_cell_volume 3657.402578
_symmetry_space_group_name_H-M "P M M A"
_symmetry_group_IT_number 51
_symmetry_cell_setting 'orthorhombic'
loop_
_space_group_symop_operation_xyz
x,y,z
1/2-x,-y,z
1/2+x,-y,-z
-x,y,-z
-x,-y,-z
1/2+x,y,-z
1/2-x,y,z
x,-y,z
loop_
_atom_site_type_symbol
_atom_site_label
_atom_site_fract_x
_atom_site_fract_y
_atom_site_fract_z
Si Si1 0.036575 0.423412 0.562442
Si Si2 0.540376 0.211917 0.273603
Si Si3 0.535502 0.424000 0.770930
Si Si4 0.465644 0.074932 0.771290
Si Si5 0.963162 0.216322 0.938813
Si Si6 0.962362 0.338327 0.336902
Si Si7 0.539509 0.925823 0.899801
Si Si8 0.965646 0.703225 0.834491
O O1 0.250000 0.426294 0.568828
O O2 0.968846 0.500000 0.570667
O O3 0.967230 0.371861 0.607830
O O4 0.000000 0.403953 0.500000
O O5 0.750000 0.204985 0.285536
O O6 0.467522 0.136853 0.265224
O O7 0.465228 0.265990 0.316742
O O8 0.521490 0.247863 0.214787
O O9 0.750000 0.426476 0.773880
O O10 0.467903 0.500000 0.775439
O O11 0.490052 0.390383 0.712865
O O12 0.473716 0.371317 0.817092
O O13 0.250000 0.076167 0.770413
O O14 0.518748 0.084336 0.834614
O O15 0.523909 0.000000 0.754692
O O16 0.750000 0.212703 0.932018
O O17 0.034211 0.140410 0.929110
O O18 0.029082 0.266135 0.891515
O O19 0.000000 0.238846 0.000000
O O20 0.750000 0.329982 0.343234
O O21 0.750000 0.928588 0.911490
O O22 0.464470 0.000000 0.913395
O O23 0.750000 0.702405 0.835012
#
# Coordination Sequence:
#
# PCOD9402572 Si02
#       8
#     8   8   8   8   8   8   8   8
#     4   9  17  28  41  57  81 114 146 172 198 230
#     4   9  16  26  42  62  83 107 134 164 200 239
#     4   9  17  28  44  65  85 105 130 163 202 243
#     4   9  16  25  39  60  84 108 132 159 194 237
#     4  10  20  31  43  58  76 101 131 165 200 237
#     4   9  17  28  42  62  87 113 139 169 202 236
#     4   9  17  29  43  58  77 102 131 161 194 235
#     4   9  17  30  44  59  80 103 129 161 200 244
#
# _framework density 17.498756
#
# number of rings (size 3 to 8) (size 9 to 14) (size 15 to 20)
#    0.000    2.875    1.250    0.375    0.000    2.500 
#    0.000    1.250    0.000    0.375    0.000    0.000 
#    0.000    0.500    0.000    0.375    0.000    0.750 
#
# Total GULP energy -356701.338222 kJ/mol
# GULP energy per Si atom -5573.458410 kJ/mol
# Density = 1.745893 g / cm^3
# Si number density = 17.498756 Si / 1000 Ang^3
#
#
#
# Elastic Constant Matrix: (Units=GPa)
#
#
# Indices 1 2 3 4 5 6 
#
# 1 44.3718 -5.2556 -6.6267 0.0000 0.0000 0.0000
# 2 -5.2556 109.4387 52.7658 0.0000 0.0000 0.0000
# 3 -6.6267 52.7658 99.5916 0.0000 0.0000 0.0000
# 4 0.0000 0.0000 0.0000 24.6411 0.0000 0.0000
# 5 0.0000 0.0000 0.0000 0.0000 15.4983 0.0000
# 6 0.0000 0.0000 0.0000 0.0000 0.0000 8.3800
#
#
#
# Elastic Compliance Matrix: (Units=1/GPa)
#
#
# Indices 1 2 3 4 5 6 
#
# 1 0.022782 0.000488 0.001257 0.000000 0.000000 0.000000
# 2 0.000488 0.012283 -0.006475 0.000000 0.000000 0.000000
# 3 0.001257 -0.006475 0.013555 0.000000 0.000000 0.000000
# 4 0.000000 0.000000 0.000000 0.040583 0.000000 0.000000
# 5 0.000000 0.000000 0.000000 0.000000 0.064523 0.000000
# 6 0.000000 0.000000 0.000000 0.000000 0.000000 0.119332
#
#
# Mechanical properties :
#
#
# Convention : Reuss Voigt Hill
#
# Bulk Modulus (GPa) = 25.53579 37.24101 31.38840
# Shear Modulus (GPa) = 16.91634 23.87180 20.39407
#
# Velocity S-wave (km/s) = 3.11258 3.69751 3.41758
# Velocity P-wave (km/s) = 5.24806 6.28944 5.79220
#
# Compressibility (1/GPa) = 0.03916072
#
# Stress axis : x y z
#
# Youngs Moduli (GPa) = 43.89354 81.41293 73.77095
#
# Poissons Ratio (x) = -0.03971 -0.09277
# Poissons Ratio (y) = -0.02141 0.47769
# Poissons Ratio (z) = -0.05520 0.52718
#
# Static dielectric constant tensor:
#      x y z
#    x 1.645450 0.000000 0.000000 
#    y 0.000000 1.641330 0.000000 
#    z 0.000000 0.000000 1.569870 
# 
# From -- ./inp_files/32559.got.cif
#   From: 2010.05.17/outbox.cif.g08.bks.cpg/sg51_17_cif.got.tgz:32559.got - 2010.06.03 11:52:47.
