data_PCOD9402291
_publ_section_title
;
Structure prediction by ZEFSAII (Michael W. Deem and Ramdas Pophale) SiO2 
 PCOD9402291
Probable space group: P M M A
;
_chemical_formula_sum "Si O2"
_cell_formula_units_Z 48
_cell_length_a 31.264232
_cell_length_b 8.268951
_cell_length_c 9.925236
_cell_angle_alpha 90.000000
_cell_angle_beta 90.000000
_cell_angle_gamma 90.000000
_cell_volume 2565.895856
_symmetry_space_group_name_H-M "P M M A"
_symmetry_group_IT_number 51
_symmetry_cell_setting 'orthorhombic'
loop_
_space_group_symop_operation_xyz
x,y,z
1/2-x,-y,z
1/2+x,-y,-z
-x,y,-z
-x,-y,-z
1/2+x,y,-z
1/2-x,y,z
x,-y,z
loop_
_atom_site_type_symbol
_atom_site_label
_atom_site_fract_x
_atom_site_fract_y
_atom_site_fract_z
Si Si1 0.299025 0.304128 0.196039
Si Si2 0.518453 0.809876 0.353966
Si Si3 0.561766 0.689882 0.795013
Si Si4 0.387466 0.690132 0.687539
Si Si5 0.133744 0.812015 0.400669
Si Si6 0.628871 0.302712 0.013519
O O1 0.250000 0.252580 0.182979
O O2 0.300051 0.500000 0.202030
O O3 0.322321 0.237298 0.328653
O O4 0.329360 0.254079 0.071338
O O5 0.500000 0.759001 0.500000
O O6 0.481250 0.780194 0.245763
O O7 0.561539 0.715913 0.320480
O O8 0.528849 0.000000 0.363078
O O9 0.552193 0.500000 0.809289
O O10 0.596097 0.713403 0.674312
O O11 0.587108 0.747994 0.927774
O O12 0.377794 0.500000 0.677976
O O13 0.367378 0.776119 0.558371
O O14 0.372129 0.752156 0.832887
O O15 0.124750 0.000000 0.376454
O O16 0.627904 0.500000 0.014240
#
# Coordination Sequence:
#
# PCOD9402291 Si02
#       6
#     8   8   8   8   8   8
#     4   9  18  37  64  87 106 135 177 219 263 322
#     4  11  22  34  50  76 111 145 186 233 275 316
#     4  10  19  35  57  78 103 141 188 227 267 317
#     4  11  21  35  55  78 109 147 186 224 270 321
#     4  11  21  34  53  80 113 142 175 220 268 316
#     4   8  18  35  55  82 110 137 176 228 273 316
#
# _framework density 18.706918000000002
#
# number of rings (size 3 to 8) (size 9 to 14) (size 15 to 20)
#    0.000    2.000    1.667    4.000    0.000    1.667 
#    0.000   12.500    0.000    3.000    0.000    0.000 
#    0.000    0.000    0.000    0.000    0.000    0.000 
#
# Total GULP energy -268011.266323 kJ/mol
# GULP energy per Si atom -5583.568048 kJ/mol
# Density = 1.866434 g / cm^3
# Si number density = 18.706918 Si / 1000 Ang^3
#
#
#
# Elastic Constant Matrix: (Units=GPa)
#
#
# Indices 1 2 3 4 5 6 
#
# 1 79.8356 -1.8472 35.6015 0.0000 0.0000 0.0000
# 2 -1.8472 18.5600 -2.6767 0.0000 0.0000 0.0000
# 3 35.6015 -2.6767 124.2154 0.0000 0.0000 0.0000
# 4 0.0000 0.0000 0.0000 -9.3640 0.0000 0.0000
# 5 0.0000 0.0000 0.0000 0.0000 14.9845 0.0000
# 6 0.0000 0.0000 0.0000 0.0000 0.0000 -4.0099
#
#
#
# Elastic Compliance Matrix: (Units=1/GPa)
#
#
# Indices 1 2 3 4 5 6 
#
# 1 0.014374 0.000839 -0.004102 0.000000 0.000000 0.000000
# 2 0.000839 0.054096 0.000925 0.000000 0.000000 0.000000
# 3 -0.004102 0.000925 0.009246 0.000000 0.000000 0.000000
# 4 0.000000 0.000000 0.000000 -0.106791 0.000000 0.000000
# 5 0.000000 0.000000 0.000000 0.000000 0.066736 0.000000
# 6 0.000000 0.000000 0.000000 0.000000 0.000000 -0.249380
#
#
# Mechanical properties :
#
#
# Convention : Reuss Voigt Hill
#
# Bulk Modulus (GPa) = 13.69079 31.64069 22.66574
# Shear Modulus (GPa) = -27.36775 13.09099 -7.13838
#
# Velocity S-wave (km/s) = -3.82903 2.64823 -1.95555
# Velocity P-wave (km/s) = 3.49488 5.12850 2.65398
#
# Compressibility (1/GPa) = 0.07304180
#
# Stress axis : x y z
#
# Youngs Moduli (GPa) = 69.56879 18.48554 108.15407
#
# Poissons Ratio (x) = -0.01551 0.44362
# Poissons Ratio (y) = -0.05838 -0.10006
# Poissons Ratio (z) = 0.28535 -0.01710
#
# Static dielectric constant tensor:
#      x y z
#    x 1.620560 0.000000 0.000000 
#    y 0.000000 1.632560 0.000000 
#    z 0.000000 0.000000 1.654730 
# 
# From -- ./inp_files/12855.got.cif
#   From: 2010.05.17/outbox.cif.g08.bks.cpg/sg51_7_cif.got.tgz:12855.got - 2010.06.03 11:52:47.
