data_PCOD9402895
_publ_section_title
;
Structure prediction by ZEFSAII (Michael W. Deem and Ramdas Pophale) SiO2 
 PCOD9402895
Probable space group: P M M A
;
_chemical_formula_sum "Si O2"
_cell_formula_units_Z 48
_cell_length_a 9.410655
_cell_length_b 7.570947
_cell_length_c 35.737780
_cell_angle_alpha 90.000000
_cell_angle_beta 90.000000
_cell_angle_gamma 90.000000
_cell_volume 2546.229991
_symmetry_space_group_name_H-M "P M M A"
_symmetry_group_IT_number 51
_symmetry_cell_setting 'orthorhombic'
loop_
_space_group_symop_operation_xyz
x,y,z
1/2-x,-y,z
1/2+x,-y,-z
-x,y,-z
-x,-y,-z
1/2+x,y,-z
1/2-x,y,z
x,-y,z
loop_
_atom_site_type_symbol
_atom_site_label
_atom_site_fract_x
_atom_site_fract_y
_atom_site_fract_z
Si Si1 0.918670 0.208188 0.099860
Si Si2 0.422008 0.000000 0.460544
Si Si3 0.910405 0.788899 0.245947
Si Si4 0.087025 0.215682 0.174469
Si Si5 0.411743 0.712411 0.319563
Si Si6 0.919775 0.500000 0.039077
Si Si7 0.577237 0.702011 0.598109
O O1 0.750000 0.229229 0.107502
O O2 0.954647 0.329345 0.064497
O O3 0.006196 0.264073 0.136433
O O4 0.944765 0.000000 0.092818
O O5 0.500000 0.000000 0.500000
O O6 0.462530 0.169641 0.435450
O O7 0.250000 0.000000 0.465201
O O8 0.750000 0.718547 0.245997
O O9 0.002836 0.721448 0.211090
O O10 0.989123 0.757677 0.285020
O O11 0.901565 0.000000 0.241056
O O12 0.250000 0.274523 0.174769
O O13 0.087901 0.000000 0.175380
O O14 0.250000 0.777675 0.313310
O O15 0.404404 0.500000 0.322093
O O16 0.465025 0.770142 0.360583
O O17 0.750000 0.500000 0.032744
O O18 0.000000 0.500000 0.000000
O O19 0.750000 0.699172 0.599531
O O20 0.528815 0.500000 0.592747
#
# Coordination Sequence:
#
# PCOD9402895 Si02
#       7
#     8   4   8   8   8   4   8
#     4   9  18  35  57  78 105 142 178 217 269 325
#     4  10  20  34  54  80 106 136 172 214 266 320
#     4  10  20  32  48  74 107 142 176 214 262 317
#     4   9  17  31  52  77 103 135 179 224 263 309
#     4   9  18  33  52  74  99 130 175 224 264 308
#     4  10  22  38  56  82 112 140 176 220 268 324
#     4   8  16  32  53  76 102 134 173 216 262 315
#
# _framework density 18.851400000000002
#
# number of rings (size 3 to 8) (size 9 to 14) (size 15 to 20)
#    0.000    2.833    0.000    2.000    1.167    4.667 
#    1.500    0.833    0.000    1.000    0.000    0.000 
#    0.000    0.000    0.000    0.000    0.000    0.000 
#
# Total GULP energy -267798.284335 kJ/mol
# GULP energy per Si atom -5579.130924 kJ/mol
# Density = 1.880849 g / cm^3
# Si number density = 18.851400 Si / 1000 Ang^3
#
#
#
# Elastic Constant Matrix: (Units=GPa)
#
#
# Indices 1 2 3 4 5 6 
#
# 1 92.9190 36.5869 100.6256 0.0000 0.0000 0.0000
# 2 36.5869 71.9084 62.9632 0.0000 0.0000 0.0000
# 3 100.6256 62.9632 220.4561 0.0000 0.0000 0.0000
# 4 0.0000 0.0000 0.0000 38.3657 0.0000 0.0000
# 5 0.0000 0.0000 0.0000 0.0000 38.1465 0.0000
# 6 0.0000 0.0000 0.0000 0.0000 0.0000 11.0568
#
#
#
# Elastic Compliance Matrix: (Units=1/GPa)
#
#
# Indices 1 2 3 4 5 6 
#
# 1 0.021812 -0.003174 -0.009049 0.000000 0.000000 0.000000
# 2 -0.003174 0.019006 -0.003979 0.000000 0.000000 0.000000
# 3 -0.009049 -0.003979 0.009803 0.000000 0.000000 0.000000
# 4 0.000000 0.000000 0.000000 0.026065 0.000000 0.000000
# 5 0.000000 0.000000 0.000000 0.000000 0.026215 0.000000
# 6 0.000000 0.000000 0.000000 0.000000 0.000000 0.090442
#
#
# Mechanical properties :
#
#
# Convention : Reuss Voigt Hill
#
# Bulk Modulus (GPa) = 54.89954 87.29278 71.09616
# Shear Modulus (GPa) = 21.56849 29.85433 25.71141
#
# Velocity S-wave (km/s) = 3.38617 3.98385 3.69711
# Velocity P-wave (km/s) = 6.66886 8.21995 7.48470
#
# Compressibility (1/GPa) = 0.01821509
#
# Stress axis : x y z
#
# Youngs Moduli (GPa) = 45.84706 52.61519 102.00950
#
# Poissons Ratio (x) = 0.16701 0.92310
# Poissons Ratio (y) = 0.14553 0.40593
# Poissons Ratio (z) = 0.41488 0.20937
#
# Static dielectric constant tensor:
#      x y z
#    x 1.638270 0.000000 0.000000 
#    y 0.000000 1.690210 0.000000 
#    z 0.000000 0.000000 1.622540 
# 
# From -- ./inp_files/37170.got.cif
#   From: 2010.05.17/outbox.cif.g08.bks.cpg/sg51_19_cif.got.tgz:37170.got - 2010.06.03 11:52:47.
