data_PCOD9402951
_publ_section_title
;
Structure prediction by ZEFSAII (Michael W. Deem and Ramdas Pophale) SiO2 
 PCOD9402951
Probable space group: P M M A
;
_chemical_formula_sum "Si O2"
_cell_formula_units_Z 64
_cell_length_a 14.318281
_cell_length_b 8.877020
_cell_length_c 26.862878
_cell_angle_alpha 90.000000
_cell_angle_beta 90.000000
_cell_angle_gamma 90.000000
_cell_volume 3414.370295
_symmetry_space_group_name_H-M "P M M A"
_symmetry_group_IT_number 51
_symmetry_cell_setting 'orthorhombic'
loop_
_space_group_symop_operation_xyz
x,y,z
1/2-x,-y,z
1/2+x,-y,-z
-x,y,-z
-x,-y,-z
1/2+x,y,-z
1/2-x,y,z
x,-y,z
loop_
_atom_site_type_symbol
_atom_site_label
_atom_site_fract_x
_atom_site_fract_y
_atom_site_fract_z
Si Si1 0.141309 0.182134 0.226237
Si Si2 0.856403 0.818590 0.076172
Si Si3 0.863599 0.326127 0.480507
Si Si4 0.862310 0.674770 0.970432
Si Si5 0.540977 0.181491 0.874929
Si Si6 0.863102 0.825575 0.582672
Si Si7 0.356339 0.316338 0.630096
Si Si8 0.456957 0.679846 0.322197
O O1 0.250000 0.227932 0.224879
O O2 0.088291 0.233078 0.176183
O O3 0.091124 0.244788 0.274981
O O4 0.138774 0.000000 0.227780
O O5 0.750000 0.769539 0.086543
O O6 0.932503 0.776195 0.117464
O O7 0.856284 0.000000 0.071787
O O8 0.886743 0.751307 0.023001
O O9 0.750000 0.326652 0.480785
O O10 0.893536 0.500000 0.485144
O O11 0.894476 0.234450 0.528662
O O12 0.887365 0.266981 0.425474
O O13 0.750000 0.683924 0.966426
O O14 0.889727 0.500000 0.971170
O O15 0.905939 0.755680 0.922997
O O16 0.547222 0.000000 0.875929
O O17 0.750000 0.815533 0.584053
O O18 0.903875 0.728445 0.627563
O O19 0.888880 0.000000 0.589220
O O20 0.250000 0.266514 0.639917
O O21 0.354532 0.500000 0.627890
O O22 0.435078 0.272850 0.669417
O O23 0.453362 0.500000 0.317114
#
# Coordination Sequence:
#
# PCOD9402951 Si02
#       8
#     8   8   8   8   8   8   8   8
#     4  10  22  40  58  76 103 136 168 210 264 312
#     4   9  18  33  53  78 109 143 177 212 251 301
#     4   8  14  28  51  75  99 130 168 207 246 296
#     4  10  20  32  49  78 114 146 175 213 261 307
#     4  10  20  35  56  78 101 137 182 219 255 305
#     4  10  20  33  49  72 106 142 170 203 253 308
#     4   8  16  33  55  77 102 132 166 206 253 304
#     4  11  22  35  55  79 100 129 172 217 256 301
#
# _framework density 18.744306999999999
#
# number of rings (size 3 to 8) (size 9 to 14) (size 15 to 20)
#    0.000    2.500    0.000    3.000    0.000    6.750 
#    0.000    4.375    0.000    3.750    0.000    0.000 
#    0.000    0.000    0.000    0.000    0.000    0.000 
#
# Total GULP energy -357209.407257 kJ/mol
# GULP energy per Si atom -5581.396988 kJ/mol
# Density = 1.870164 g / cm^3
# Si number density = 18.744307 Si / 1000 Ang^3
#
#
#
# Elastic Constant Matrix: (Units=GPa)
#
#
# Indices 1 2 3 4 5 6 
#
# 1 114.0373 25.8961 91.1251 0.0000 0.0000 0.0000
# 2 25.8961 13.3147 23.1556 0.0000 0.0000 0.0000
# 3 91.1251 23.1556 135.5956 0.0000 0.0000 0.0000
# 4 0.0000 0.0000 0.0000 31.3906 0.0000 0.0000
# 5 0.0000 0.0000 0.0000 0.0000 34.8064 0.0000
# 6 0.0000 0.0000 0.0000 0.0000 0.0000 16.5526
#
#
#
# Elastic Compliance Matrix: (Units=1/GPa)
#
#
# Indices 1 2 3 4 5 6 
#
# 1 0.024162 -0.026677 -0.011682 0.000000 0.000000 0.000000
# 2 -0.026677 0.136286 -0.005346 0.000000 0.000000 0.000000
# 3 -0.011682 -0.005346 0.016139 0.000000 0.000000 0.000000
# 4 0.000000 0.000000 0.000000 0.031857 0.000000 0.000000
# 5 0.000000 0.000000 0.000000 0.000000 0.028730 0.000000
# 6 0.000000 0.000000 0.000000 0.000000 0.000000 0.060413
#
#
# Mechanical properties :
#
#
# Convention : Reuss Voigt Hill
#
# Bulk Modulus (GPa) = 11.21359 60.36680 35.79020
# Shear Modulus (GPa) = 12.05626 24.73463 18.39544
#
# Velocity S-wave (km/s) = 2.53888 3.63654 3.13611
# Velocity P-wave (km/s) = 3.81968 7.06455 5.67881
#
# Compressibility (1/GPa) = 0.08917748
#
# Stress axis : x y z
#
# Youngs Moduli (GPa) = 41.38757 7.33749 61.96356
#
# Poissons Ratio (x) = 0.19574 0.72386
# Poissons Ratio (y) = 1.10409 0.33125
# Poissons Ratio (z) = 0.48349 0.03923
#
# Static dielectric constant tensor:
#      x y z
#    x 1.697260 0.000000 0.000000 
#    y 0.000000 1.630830 0.000000 
#    z 0.000000 0.000000 1.610580 
# 
# From -- ./inp_files/35756.got.cif
#   From: 2010.05.17/outbox.cif.g08.bks.cpg/sg51_18_cif.got.tgz:35756.got - 2010.06.03 11:52:47.
