data_PCOD9402987
_publ_section_title
;
Structure prediction by ZEFSAII (Michael W. Deem and Ramdas Pophale) SiO2 
 PCOD9402987
Probable space group: P M M A
;
_chemical_formula_sum "Si O2"
_cell_formula_units_Z 52
_cell_length_a 8.629945
_cell_length_b 21.912299
_cell_length_c 14.213691
_cell_angle_alpha 90.000000
_cell_angle_beta 90.000000
_cell_angle_gamma 90.000000
_cell_volume 2687.836474
_symmetry_space_group_name_H-M "P M M A"
_symmetry_group_IT_number 51
_symmetry_cell_setting 'orthorhombic'
loop_
_space_group_symop_operation_xyz
x,y,z
1/2-x,-y,z
1/2+x,-y,-z
-x,y,-z
-x,-y,-z
1/2+x,y,-z
1/2-x,y,z
x,-y,z
loop_
_atom_site_type_symbol
_atom_site_label
_atom_site_fract_x
_atom_site_fract_y
_atom_site_fract_z
Si Si1 0.068244 0.259279 0.896168
Si Si2 0.750000 0.072728 0.633453
Si Si3 0.750000 0.071369 0.862702
Si Si4 0.082950 0.073710 0.636151
Si Si5 0.935134 0.429671 0.602255
Si Si6 0.437493 0.622384 0.786310
Si Si7 0.924199 0.121458 0.149785
Si Si8 0.063251 0.500000 0.895327
O O1 0.250000 0.270983 0.908162
O O2 0.004947 0.316617 0.837896
O O3 0.053766 0.194398 0.844604
O O4 0.000000 0.254320 0.000000
O O5 0.750000 0.079541 0.747920
O O6 0.583366 0.096432 0.598933
O O7 0.750000 0.000000 0.613895
O O8 0.584480 0.097944 0.896324
O O9 0.750000 0.000000 0.882398
O O10 0.250000 0.094687 0.597812
O O11 0.082693 0.091098 0.746905
O O12 0.080791 0.000000 0.628251
O O13 0.750000 0.428350 0.601198
O O14 0.984975 0.500000 0.623125
O O15 0.000000 0.414354 0.500000
O O16 0.999899 0.385760 0.681825
O O17 0.250000 0.623214 0.783255
O O18 0.487006 0.561680 0.842775
O O19 0.750000 0.110638 0.107724
O O20 0.250000 0.500000 0.897044
O O21 0.000000 0.500000 0.000000
#
# Coordination Sequence:
#
# PCOD9402987 Si02
#       8
#     8   4   4   8   8   8   8   4
#     4  10  22  36  51  70  94 135 184 233 277 325
#     4   7  10  16  26  46  70  88 115 161 217 279
#     4   9  16  26  46  70  88 115 161 217 279 334
#     4   8  12  19  34  53  72  97 133 184 244 300
#     4  10  20  34  56  86 115 143 172 211 268 332
#     4  10  20  36  54  76 106 139 181 227 276 326
#     4   9  17  29  44  65  88 121 165 220 277 331
#     4  10  20  32  51  74 103 142 181 236 290 318
#
# _framework density 19.346416000000001
#
# number of rings (size 3 to 8) (size 9 to 14) (size 15 to 20)
#    0.000    2.769    0.769    2.308    1.077    2.769 
#    0.000    0.000    0.000    1.846    0.000    0.000 
#    0.000    0.000    0.000    0.000    0.000    3.077 
#
# Total GULP energy -289817.313759 kJ/mol
# GULP energy per Si atom -5573.409880 kJ/mol
# Density = 1.930238 g / cm^3
# Si number density = 19.346416 Si / 1000 Ang^3
#
#
#
# Elastic Constant Matrix: (Units=GPa)
#
#
# Indices 1 2 3 4 5 6 
#
# 1 138.9224 37.0472 18.6989 0.0000 0.0000 0.0000
# 2 37.0472 34.0226 -1.6435 0.0000 0.0000 0.0000
# 3 18.6989 -1.6435 48.0369 0.0000 0.0000 0.0000
# 4 0.0000 0.0000 0.0000 327.7025 0.0000 0.0000
# 5 0.0000 0.0000 0.0000 0.0000 31.9774 0.0000
# 6 0.0000 0.0000 0.0000 0.0000 0.0000 18.4684
#
#
#
# Elastic Compliance Matrix: (Units=1/GPa)
#
#
# Indices 1 2 3 4 5 6 
#
# 1 0.011132 -0.012352 -0.004756 0.000000 0.000000 0.000000
# 2 -0.012352 0.043146 0.006284 0.000000 0.000000 0.000000
# 3 -0.004756 0.006284 0.022884 0.000000 0.000000 0.000000
# 4 0.000000 0.000000 0.000000 0.003052 0.000000 0.000000
# 5 0.000000 0.000000 0.000000 0.000000 0.031272 0.000000
# 6 0.000000 0.000000 0.000000 0.000000 0.000000 0.054146
#
#
# Mechanical properties :
#
#
# Convention : Reuss Voigt Hill
#
# Bulk Modulus (GPa) = 18.01333 36.57635 27.29484
# Shear Modulus (GPa) = 24.29739 86.75495 55.52617
#
# Velocity S-wave (km/s) = 3.54773 6.70375 5.36314
# Velocity P-wave (km/s) = 5.11009 8.88073 7.24501
#
# Compressibility (1/GPa) = 0.05551444
#
# Stress axis : x y z
#
# Youngs Moduli (GPa) = 89.82863 23.17736 43.69940
#
# Poissons Ratio (x) = 0.28628 0.20783
# Poissons Ratio (y) = 1.10954 -0.27461
# Poissons Ratio (z) = 0.42722 -0.14565
#
# Static dielectric constant tensor:
#      x y z
#    x 1.730640 0.000000 0.000000 
#    y 0.000000 1.649350 0.000000 
#    z 0.000000 0.000000 1.681590 
# 
# From -- ./inp_files/21669.got.cif
#   From: 2010.05.17/outbox.cif.g08.bks.cpg/sg51_11_cif.got.tgz:21669.got - 2010.06.03 11:52:47.
