data_PCOD9402316
_publ_section_title
;
Structure prediction by ZEFSAII (Michael W. Deem and Ramdas Pophale) SiO2 
 PCOD9402316
Probable space group: P M M A
;
_chemical_formula_sum "Si O2"
_cell_formula_units_Z 64
_cell_length_a 21.571786
_cell_length_b 19.808318
_cell_length_c 7.770802
_cell_angle_alpha 90.000000
_cell_angle_beta 90.000000
_cell_angle_gamma 90.000000
_cell_volume 3320.469887
_symmetry_space_group_name_H-M "P M M A"
_symmetry_group_IT_number 51
_symmetry_cell_setting 'orthorhombic'
loop_
_space_group_symop_operation_xyz
x,y,z
1/2-x,-y,z
1/2+x,-y,-z
-x,y,-z
-x,-y,-z
1/2+x,y,-z
1/2-x,y,z
x,-y,z
loop_
_atom_site_type_symbol
_atom_site_label
_atom_site_fract_x
_atom_site_fract_y
_atom_site_fract_z
Si Si1 0.682195 0.314932 0.693496
Si Si2 0.053312 0.634587 0.190431
Si Si3 0.176695 0.921569 0.003585
Si Si4 0.508786 0.209558 0.803487
Si Si5 0.361090 0.165569 0.320076
Si Si6 0.570988 0.578565 0.193523
Si Si7 0.129130 0.179171 0.718082
Si Si8 0.818101 0.322107 0.283262
O O1 0.750000 0.335602 0.761925
O O2 0.622637 0.360103 0.736925
O O3 0.667688 0.237294 0.741826
O O4 0.685607 0.314666 0.488072
O O5 0.028353 0.711688 0.185382
O O6 0.996008 0.595454 0.278091
O O7 0.062305 0.600469 0.005056
O O8 0.250000 0.915936 0.968324
O O9 0.164008 0.891457 0.193241
O O10 0.158845 0.000000 0.996250
O O11 0.141496 0.877979 0.858954
O O12 0.565299 0.172088 0.712212
O O13 0.443348 0.199270 0.710988
O O14 0.500000 0.185933 0.000000
O O15 0.349521 0.159172 0.524888
O O16 0.584573 0.500000 0.210602
O O17 0.627534 0.624982 0.252019
O O18 0.163299 0.247583 0.780660
O O19 0.750000 0.341939 0.217201
#
# Coordination Sequence:
#
# PCOD9402316 Si02
#       8
#     8   8   8   8   8   8   8   8
#     4   9  20  36  59  88 114 147 198 256 306 356
#     4  10  19  35  57  86 116 152 194 250 301 363
#     4  11  25  42  62  91 126 167 209 251 308 371
#     4  11  17  34  63  94 122 150 201 260 313 361
#     4  10  22  37  62  92 126 160 199 256 313 366
#     4  11  22  37  56  83 119 157 198 247 308 372
#     4  11  21  40  64  93 124 162 208 254 309 370
#     4  10  21  38  59  86 116 153 204 254 303 362
#
# _framework density 19.274381000000002
#
# number of rings (size 3 to 8) (size 9 to 14) (size 15 to 20)
#    0.000    1.625    3.750    1.875    1.750    3.250 
#    0.000    4.375    0.000    4.125    0.000    0.000 
#    0.000    0.000    0.000    0.000    0.000    0.000 
#
# Total GULP energy -357019.232911 kJ/mol
# GULP energy per Si atom -5578.425514 kJ/mol
# Density = 1.923051 g / cm^3
# Si number density = 19.274381 Si / 1000 Ang^3
#
#
#
# Elastic Constant Matrix: (Units=GPa)
#
#
# Indices 1 2 3 4 5 6 
#
# 1 140.2530 54.1178 17.5454 0.0000 0.0000 0.0000
# 2 54.1178 115.1465 34.4463 0.0000 0.0000 0.0000
# 3 17.5454 34.4463 60.3745 0.0000 0.0000 0.0000
# 4 0.0000 0.0000 0.0000 -58.0881 0.0000 0.0000
# 5 0.0000 0.0000 0.0000 0.0000 26.9003 0.0000
# 6 0.0000 0.0000 0.0000 0.0000 0.0000 33.4106
#
#
#
# Elastic Compliance Matrix: (Units=1/GPa)
#
#
# Indices 1 2 3 4 5 6 
#
# 1 0.008712 -0.004024 -0.000236 0.000000 0.000000 0.000000
# 2 -0.004024 0.012331 -0.005866 0.000000 0.000000 0.000000
# 3 -0.000236 -0.005866 0.019978 0.000000 0.000000 0.000000
# 4 0.000000 0.000000 0.000000 -0.017215 0.000000 0.000000
# 5 0.000000 0.000000 0.000000 0.000000 0.037174 0.000000
# 6 0.000000 0.000000 0.000000 0.000000 0.000000 0.029931
#
#
# Mechanical properties :
#
#
# Convention : Reuss Voigt Hill
#
# Bulk Modulus (GPa) = 48.14669 58.66588 53.40628
# Shear Modulus (GPa) = 42.34212 14.42220 28.38216
#
# Velocity S-wave (km/s) = 4.69210 2.73840 3.84152
# Velocity P-wave (km/s) = 7.37484 6.36410 6.88803
#
# Compressibility (1/GPa) = 0.02076986
#
# Stress axis : x y z
#
# Youngs Moduli (GPa) = 114.78145 81.09903 50.05381
#
# Poissons Ratio (x) = 0.32635 0.01181
# Poissons Ratio (y) = 0.46189 0.29360
# Poissons Ratio (z) = 0.02708 0.47570
#
# Static dielectric constant tensor:
#      x y z
#    x 1.728810 0.000000 0.000000 
#    y 0.000000 1.636100 0.000000 
#    z 0.000000 0.000000 1.622130 
# 
# From -- ./inp_files/11196.got.cif
#   From: 2010.05.17/outbox.cif.g08.bks.cpg/sg51_6_cif.got.tgz:11196.got - 2010.06.03 11:52:47.
