data_PCOD9402612
_publ_section_title
;
Structure prediction by ZEFSAII (Michael W. Deem and Ramdas Pophale) SiO2 
 PCOD9402612
Probable space group: P M M A
;
_chemical_formula_sum "Si O2"
_cell_formula_units_Z 40
_cell_length_a 9.988260
_cell_length_b 19.740858
_cell_length_c 13.536580
_cell_angle_alpha 90.000000
_cell_angle_beta 90.000000
_cell_angle_gamma 90.000000
_cell_volume 2669.099830
_symmetry_space_group_name_H-M "P M M A"
_symmetry_group_IT_number 51
_symmetry_cell_setting 'orthorhombic'
loop_
_space_group_symop_operation_xyz
x,y,z
1/2-x,-y,z
1/2+x,-y,-z
-x,y,-z
-x,-y,-z
1/2+x,y,-z
1/2-x,y,z
x,-y,z
loop_
_atom_site_type_symbol
_atom_site_label
_atom_site_fract_x
_atom_site_fract_y
_atom_site_fract_z
Si Si1 0.904443 0.077898 0.906887
Si Si2 0.250000 0.079726 0.647013
Si Si3 0.983726 0.146886 0.711428
Si Si4 0.912758 0.723656 0.397824
Si Si5 0.093575 0.427139 0.595892
Si Si6 0.250000 0.082067 0.417526
O O1 0.750000 0.081788 0.938050
O O2 0.929643 0.131833 0.820438
O O3 0.926149 0.000000 0.869189
O O4 0.000000 0.088115 0.000000
O O5 0.120133 0.105983 0.700724
O O6 0.250000 0.101668 0.532378
O O7 0.250000 0.000000 0.645312
O O8 0.023144 0.222079 0.676660
O O9 0.878134 0.114085 0.635566
O O10 0.750000 0.735003 0.412044
O O11 0.929190 0.646661 0.357487
O O12 0.000000 0.728837 0.500000
O O13 0.250000 0.426437 0.565971
O O14 0.071176 0.500000 0.648658
O O15 0.000000 0.427989 0.500000
O O16 0.250000 0.000000 0.408234
#
# Coordination Sequence:
#
# PCOD9402612 Si02
#       6
#     8   4   8   8   8   4
#     4  10  22  39  57  73  89 115 157 208 257 300
#     4  11  22  32  47  69  94 130 165 194 233 283
#     4  12  22  34  50  70  97 127 160 206 247 286
#     4  10  20  31  46  70  99 133 167 199 239 287
#     4   8  14  26  43  63  90 125 164 200 231 270
#     4  11  22  36  49  65  94 130 169 200 233 283
#
# _framework density 14.986326
#
# number of rings (size 3 to 8) (size 9 to 14) (size 15 to 20)
#    0.000    1.800    2.000    3.600    2.800    1.600 
#    0.000    0.000    0.000    0.000    0.000    0.000 
#    0.000    0.800    0.000    0.600    0.000    0.600 
#
# Total GULP energy -222746.842231 kJ/mol
# GULP energy per Si atom -5568.671056 kJ/mol
# Density = 1.495222 g / cm^3
# Si number density = 14.986326 Si / 1000 Ang^3
#
#
#
# Elastic Constant Matrix: (Units=GPa)
#
#
# Indices 1 2 3 4 5 6 
#
# 1 85.8467 27.5929 17.5663 0.0000 0.0000 0.0000
# 2 27.5929 116.8200 28.8729 0.0000 0.0000 0.0000
# 3 17.5663 28.8729 39.2093 0.0000 0.0000 0.0000
# 4 0.0000 0.0000 0.0000 4.9132 0.0000 0.0000
# 5 0.0000 0.0000 0.0000 0.0000 22.8259 0.0000
# 6 0.0000 0.0000 0.0000 0.0000 0.0000 22.6070
#
#
#
# Elastic Compliance Matrix: (Units=1/GPa)
#
#
# Indices 1 2 3 4 5 6 
#
# 1 0.013205 -0.002025 -0.004425 0.000000 0.000000 0.000000
# 2 -0.002025 0.010775 -0.007027 0.000000 0.000000 0.000000
# 3 -0.004425 -0.007027 0.032661 0.000000 0.000000 0.000000
# 4 0.000000 0.000000 0.000000 0.203532 0.000000 0.000000
# 5 0.000000 0.000000 0.000000 0.000000 0.043810 0.000000
# 6 0.000000 0.000000 0.000000 0.000000 0.000000 0.044234
#
#
# Mechanical properties :
#
#
# Convention : Reuss Voigt Hill
#
# Bulk Modulus (GPa) = 33.68479 43.32668 38.50574
# Shear Modulus (GPa) = 12.98471 21.25881 17.12176
#
# Velocity S-wave (km/s) = 2.94672 3.77045 3.38374
# Velocity P-wave (km/s) = 5.83981 6.92305 6.40437
#
# Compressibility (1/GPa) = 0.02968699
#
# Stress axis : x y z
#
# Youngs Moduli (GPa) = 75.72854 92.80330 30.61732
#
# Poissons Ratio (x) = 0.18797 0.13547
# Poissons Ratio (y) = 0.15339 0.21516
# Poissons Ratio (z) = 0.33506 0.65217
#
# Static dielectric constant tensor:
#      x y z
#    x 1.514690 0.000000 0.000000 
#    y 0.000000 1.548800 0.000000 
#    z 0.000000 0.000000 1.467060 
# 
# From -- ./inp_files/14284.got.cif
#   From: 2010.05.17/outbox.cif.g08.bks.cpg/sg51_8_cif.got.tgz:14284.got - 2010.06.03 11:52:47.
