data_PCOD9402666
_publ_section_title
;
Structure prediction by ZEFSAII (Michael W. Deem and Ramdas Pophale) SiO2 
 PCOD9402666
Probable space group: P M M A
;
_chemical_formula_sum "Si O2"
_cell_formula_units_Z 64
_cell_length_a 19.771036
_cell_length_b 8.784190
_cell_length_c 22.469869
_cell_angle_alpha 90.000000
_cell_angle_beta 90.000000
_cell_angle_gamma 90.000000
_cell_volume 3902.399149
_symmetry_space_group_name_H-M "P M M A"
_symmetry_group_IT_number 51
_symmetry_cell_setting 'orthorhombic'
loop_
_space_group_symop_operation_xyz
x,y,z
1/2-x,-y,z
1/2+x,-y,-z
-x,y,-z
-x,-y,-z
1/2+x,y,-z
1/2-x,y,z
x,-y,z
loop_
_atom_site_type_symbol
_atom_site_label
_atom_site_fract_x
_atom_site_fract_y
_atom_site_fract_z
Si Si1 0.672620 0.817501 0.983813
Si Si2 0.036026 0.822245 0.409665
Si Si3 0.323931 0.815252 0.876944
Si Si4 0.963633 0.817287 0.174435
Si Si5 0.961386 0.318501 0.939159
Si Si6 0.325673 0.683041 0.635578
Si Si7 0.534954 0.318542 0.301483
Si Si8 0.890781 0.177307 0.476439
O O1 0.750000 0.785144 0.966332
O O2 0.616036 0.730773 0.947335
O O3 0.662236 0.000000 0.979547
O O4 0.665758 0.775280 0.053707
O O5 0.093153 0.767951 0.456425
O O6 0.020429 0.729105 0.350558
O O7 0.964216 0.817496 0.444456
O O8 0.049230 0.000000 0.396071
O O9 0.250000 0.760164 0.857705
O O10 0.386748 0.763391 0.838468
O O11 0.322889 0.000000 0.875206
O O12 0.983032 0.753805 0.238434
O O13 0.007010 0.758238 0.118935
O O14 0.965363 0.000000 0.174906
O O15 0.967993 0.500000 0.934414
O O16 0.000000 0.269106 0.000000
O O17 0.250000 0.736210 0.653175
O O18 0.325986 0.500000 0.637962
O O19 0.390121 0.735586 0.675374
O O20 0.341623 0.733707 0.567778
O O21 0.537644 0.500000 0.296720
O O22 0.870388 0.000000 0.479280
#
# Coordination Sequence:
#
# PCOD9402666 Si02
#       8
#     8   8   8   8   8   8   8   8
#     4   9  17  32  54  76  97 123 158 199 244 298
#     4   8  14  27  45  65  89 115 148 190 238 280
#     4   8  15  28  46  68  92 120 158 202 243 288
#     4  11  21  33  51  70  94 130 172 212 254 303
#     4  11  22  34  50  74 104 131 160 205 259 309
#     4   9  18  31  45  64  96 136 169 196 231 280
#     4  10  20  32  45  64  94 128 165 203 240 286
#     4   8  14  25  44  68  90 114 149 196 236 268
#
# _framework density 16.400167
#
# number of rings (size 3 to 8) (size 9 to 14) (size 15 to 20)
#    0.000    2.750    1.250    2.625    0.000    2.500 
#    0.000    2.500    0.000    1.125    0.000    0.875 
#    0.000    3.000    0.000    0.000    0.000    0.000 
#
# Total GULP energy -356431.176525 kJ/mol
# GULP energy per Si atom -5569.237133 kJ/mol
# Density = 1.636284 g / cm^3
# Si number density = 16.400167 Si / 1000 Ang^3
#
#
#
# Elastic Constant Matrix: (Units=GPa)
#
#
# Indices 1 2 3 4 5 6 
#
# 1 30.1190 14.4004 31.3634 0.0000 0.0000 0.0000
# 2 14.4004 30.5175 34.8175 0.0000 0.0000 0.0000
# 3 31.3634 34.8175 111.1539 0.0000 0.0000 0.0000
# 4 0.0000 0.0000 0.0000 19.7204 0.0000 0.0000
# 5 0.0000 0.0000 0.0000 0.0000 16.1966 0.0000
# 6 0.0000 0.0000 0.0000 0.0000 0.0000 15.7626
#
#
#
# Elastic Compliance Matrix: (Units=1/GPa)
#
#
# Indices 1 2 3 4 5 6 
#
# 1 0.049501 -0.011551 -0.010349 0.000000 0.000000 0.000000
# 2 -0.011551 0.053686 -0.013557 0.000000 0.000000 0.000000
# 3 -0.010349 -0.013557 0.016163 0.000000 0.000000 0.000000
# 4 0.000000 0.000000 0.000000 0.050709 0.000000 0.000000
# 5 0.000000 0.000000 0.000000 0.000000 0.061741 0.000000
# 6 0.000000 0.000000 0.000000 0.000000 0.000000 0.063441
#
#
# Mechanical properties :
#
#
# Convention : Reuss Voigt Hill
#
# Bulk Modulus (GPa) = 20.64580 36.99478 28.82029
# Shear Modulus (GPa) = 13.07868 16.41654 14.74761
#
# Velocity S-wave (km/s) = 2.82702 3.16729 3.00198
# Velocity P-wave (km/s) = 4.82412 5.99851 5.44308
#
# Compressibility (1/GPa) = 0.04843600
#
# Stress axis : x y z
#
# Youngs Moduli (GPa) = 20.20166 18.62674 61.86836
#
# Poissons Ratio (x) = 0.21515 0.64028
# Poissons Ratio (y) = 0.23334 0.83877
# Poissons Ratio (z) = 0.20907 0.25253
#
# Static dielectric constant tensor:
#      x y z
#    x 1.563090 0.000000 0.000000 
#    y 0.000000 1.546810 0.000000 
#    z 0.000000 0.000000 1.557140 
# 
# From -- ./inp_files/34143.got.cif
#   From: 2010.05.17/outbox.cif.g08.bks.cpg/sg51_18_cif.got.tgz:34143.got - 2010.06.03 11:52:47.
