data_PCOD9402664
_publ_section_title
;
Structure prediction by ZEFSAII (Michael W. Deem and Ramdas Pophale) SiO2 
 PCOD9402664
Probable space group: P M M A
;
_chemical_formula_sum "Si O2"
_cell_formula_units_Z 64
_cell_length_a 19.910671
_cell_length_b 8.866164
_cell_length_c 22.537575
_cell_angle_alpha 90.000000
_cell_angle_beta 90.000000
_cell_angle_gamma 90.000000
_cell_volume 3978.586837
_symmetry_space_group_name_H-M "P M M A"
_symmetry_group_IT_number 51
_symmetry_cell_setting 'orthorhombic'
loop_
_space_group_symop_operation_xyz
x,y,z
1/2-x,-y,z
1/2+x,-y,-z
-x,y,-z
-x,-y,-z
1/2+x,y,-z
1/2-x,y,z
x,-y,z
loop_
_atom_site_type_symbol
_atom_site_label
_atom_site_fract_x
_atom_site_fract_y
_atom_site_fract_z
Si Si1 0.454405 0.680566 0.323859
Si Si2 0.891520 0.324250 0.978732
Si Si3 0.674962 0.181440 0.869227
Si Si4 0.325550 0.318855 0.510345
Si Si5 0.036425 0.683114 0.560841
Si Si6 0.827426 0.821026 0.619998
Si Si7 0.966361 0.676189 0.091370
Si Si8 0.538653 0.819892 0.802701
O O1 0.457128 0.500000 0.321614
O O2 0.499899 0.734589 0.379473
O O3 0.379475 0.735308 0.338816
O O4 0.474584 0.748376 0.261003
O O5 0.871563 0.500000 0.981706
O O6 0.841503 0.234887 0.936185
O O7 0.963341 0.318432 0.944901
O O8 0.908835 0.270657 0.045440
O O9 0.750000 0.232727 0.851522
O O10 0.612224 0.231611 0.828016
O O11 0.674439 0.000000 0.867902
O O12 0.250000 0.284387 0.531028
O O13 0.329895 0.500000 0.500455
O O14 0.385497 0.275917 0.554238
O O15 0.336057 0.239146 0.447110
O O16 0.032024 0.500000 0.561243
O O17 0.000000 0.733442 0.500000
O O18 0.750000 0.793364 0.636746
O O19 0.839600 0.000000 0.622115
O O20 0.953907 0.500000 0.105235
O O21 0.982416 0.769167 0.150057
O O22 0.540424 0.000000 0.798455
#
# Coordination Sequence:
#
# PCOD9402664 Si02
#       8
#     8   8   8   8   8   8   8   8
#     4  11  21  33  49  66  90 124 162 200 242 292
#     4   8  14  25  44  68  90 113 145 188 228 261
#     4   9  18  31  45  63  92 129 160 186 222 268
#     4   9  16  29  50  71  90 116 149 182 225 286
#     4   9  16  29  48  71  95 117 147 196 248 287
#     4  10  20  32  45  64  92 121 150 189 233 277
#     4   8  14  27  45  65  89 115 145 183 230 271
#     4  10  20  32  45  64  92 124 161 198 232 275
#
# _framework density 16.086113000000001
#
# number of rings (size 3 to 8) (size 9 to 14) (size 15 to 20)
#    0.000    2.750    1.250    1.875    0.000    2.500 
#    0.000    5.625    0.000    0.000    0.000    0.875 
#    0.000    5.000    0.000    0.000    0.000    0.000 
#
# Total GULP energy -356397.531377 kJ/mol
# GULP energy per Si atom -5568.711428 kJ/mol
# Density = 1.604950 g / cm^3
# Si number density = 16.086113 Si / 1000 Ang^3
#
#
#
# Elastic Constant Matrix: (Units=GPa)
#
#
# Indices 1 2 3 4 5 6 
#
# 1 39.5582 13.4856 38.1532 0.0000 0.0000 0.0000
# 2 13.4856 23.9397 30.1466 0.0000 0.0000 0.0000
# 3 38.1532 30.1466 115.4114 0.0000 0.0000 0.0000
# 4 0.0000 0.0000 0.0000 1.9317 0.0000 0.0000
# 5 0.0000 0.0000 0.0000 0.0000 16.6373 0.0000
# 6 0.0000 0.0000 0.0000 0.0000 0.0000 14.4784
#
#
#
# Elastic Compliance Matrix: (Units=1/GPa)
#
#
# Indices 1 2 3 4 5 6 
#
# 1 0.038205 -0.008370 -0.010444 0.000000 0.000000 0.000000
# 2 -0.008370 0.064081 -0.013971 0.000000 0.000000 0.000000
# 3 -0.010444 -0.013971 0.015767 0.000000 0.000000 0.000000
# 4 0.000000 0.000000 0.000000 0.517685 0.000000 0.000000
# 5 0.000000 0.000000 0.000000 0.000000 0.060106 0.000000
# 6 0.000000 0.000000 0.000000 0.000000 0.000000 0.069069
#
#
# Mechanical properties :
#
#
# Convention : Reuss Voigt Hill
#
# Bulk Modulus (GPa) = 19.05418 38.05335 28.55376
# Shear Modulus (GPa) = 5.89639 13.08440 9.49040
#
# Velocity S-wave (km/s) = 1.91663 2.85511 2.43157
# Velocity P-wave (km/s) = 4.09497 5.88016 5.06680
#
# Compressibility (1/GPa) = 0.05248194
#
# Stress axis : x y z
#
# Youngs Moduli (GPa) = 26.17429 15.60533 63.42500
#
# Poissons Ratio (x) = 0.13062 0.66239
# Poissons Ratio (y) = 0.21909 0.88614
# Poissons Ratio (z) = 0.27336 0.21803
#
# Static dielectric constant tensor:
#      x y z
#    x 1.557350 0.000000 0.000000 
#    y 0.000000 1.538010 0.000000 
#    z 0.000000 0.000000 1.542770 
# 
# From -- ./inp_files/30677.got.cif
#   From: 2010.05.17/outbox.cif.g08.bks.cpg/sg51_16_cif.got.tgz:30677.got - 2010.06.03 11:52:47.
