data_PCOD9402267
_publ_section_title
;
Structure prediction by ZEFSAII (Michael W. Deem and Ramdas Pophale) SiO2 
 PCOD9402267
Probable space group: P M M A
;
_chemical_formula_sum "Si O2"
_cell_formula_units_Z 64
_cell_length_a 9.068250
_cell_length_b 20.844285
_cell_length_c 18.502407
_cell_angle_alpha 90.000000
_cell_angle_beta 90.000000
_cell_angle_gamma 90.000000
_cell_volume 3497.346942
_symmetry_space_group_name_H-M "P M M A"
_symmetry_group_IT_number 51
_symmetry_cell_setting 'orthorhombic'
loop_
_space_group_symop_operation_xyz
x,y,z
1/2-x,-y,z
1/2+x,-y,-z
-x,y,-z
-x,-y,-z
1/2+x,y,-z
1/2-x,y,z
x,-y,z
loop_
_atom_site_type_symbol
_atom_site_label
_atom_site_fract_x
_atom_site_fract_y
_atom_site_fract_z
Si Si1 0.413522 0.926799 0.564201
Si Si2 0.072891 0.573266 0.272109
Si Si3 0.927244 0.358872 0.575618
Si Si4 0.080270 0.754414 0.653802
Si Si5 0.071803 0.792771 0.922876
Si Si6 0.074890 0.113643 0.301620
Si Si7 0.581901 0.316274 0.191808
Si Si8 0.072290 0.926813 0.848305
O O1 0.500000 0.891526 0.500000
O O2 0.250000 0.900633 0.579563
O O3 0.517691 0.928951 0.632966
O O4 0.390190 0.000000 0.541595
O O5 0.250000 0.575645 0.268037
O O6 0.023291 0.500000 0.263268
O O7 0.035132 0.597885 0.353560
O O8 0.009548 0.620016 0.210192
O O9 0.750000 0.356915 0.568714
O O10 0.000000 0.380213 0.500000
O O11 0.993188 0.289401 0.596979
O O12 0.250000 0.763990 0.631010
O O13 0.085880 0.717882 0.730362
O O14 0.993627 0.818533 0.674018
O O15 0.250000 0.791094 0.926875
O O16 0.026921 0.737517 0.865151
O O17 0.031436 0.865419 0.897701
O O18 0.000000 0.779854 0.000000
O O19 0.250000 0.116378 0.295386
O O20 0.003715 0.087914 0.228067
O O21 0.750000 0.332969 0.171069
O O22 0.250000 0.924848 0.839365
O O23 0.034483 0.000000 0.872426
#
# Coordination Sequence:
#
# PCOD9402267 Si02
#       8
#     8   8   8   8   8   8   8   8
#     4  10  21  37  54  71  95 129 170 219 276 333
#     4   9  19  35  56  84 117 152 192 237 284 334
#     4  10  20  34  51  77 113 152 194 237 285 334
#     4  10  19  35  56  75 101 140 185 232 281 330
#     4  10  21  38  59  88 118 149 187 229 279 338
#     4  12  23  34  53  80 108 138 181 233 284 337
#     4   9  18  35  58  82 112 145 185 232 274 326
#     4  10  21  39  60  81 112 154 193 232 281 338
#
# _framework density 18.299586000000001
#
# number of rings (size 3 to 8) (size 9 to 14) (size 15 to 20)
#    0.000    2.000    1.250    2.625    0.000    5.750 
#    0.000    2.500    0.000    0.375    0.000    0.000 
#    0.000    0.000    0.000    0.000    0.000    0.000 
#
# Total GULP energy -356589.715432 kJ/mol
# GULP energy per Si atom -5571.714304 kJ/mol
# Density = 1.825794 g / cm^3
# Si number density = 18.299586 Si / 1000 Ang^3
#
#
#
# Elastic Constant Matrix: (Units=GPa)
#
#
# Indices 1 2 3 4 5 6 
#
# 1 49.5160 40.5165 26.4902 0.0000 0.0000 0.0000
# 2 40.5165 133.9611 41.4806 0.0000 0.0000 0.0000
# 3 26.4902 41.4806 87.5741 0.0000 0.0000 0.0000
# 4 0.0000 0.0000 0.0000 64.1357 0.0000 0.0000
# 5 0.0000 0.0000 0.0000 0.0000 29.8930 0.0000
# 6 0.0000 0.0000 0.0000 0.0000 0.0000 23.6560
#
#
#
# Elastic Compliance Matrix: (Units=1/GPa)
#
#
# Indices 1 2 3 4 5 6 
#
# 1 0.028852 -0.007059 -0.005384 0.000000 0.000000 0.000000
# 2 -0.007059 0.010475 -0.002826 0.000000 0.000000 0.000000
# 3 -0.005384 -0.002826 0.014386 0.000000 0.000000 0.000000
# 4 0.000000 0.000000 0.000000 0.015592 0.000000 0.000000
# 5 0.000000 0.000000 0.000000 0.000000 0.033453 0.000000
# 6 0.000000 0.000000 0.000000 0.000000 0.000000 0.042273
#
#
# Mechanical properties :
#
#
# Convention : Reuss Voigt Hill
#
# Bulk Modulus (GPa) = 43.15060 54.22508 48.68784
# Shear Modulus (GPa) = 27.27863 34.37453 30.82658
#
# Velocity S-wave (km/s) = 3.86511 4.33879 4.10878
# Velocity P-wave (km/s) = 6.59924 7.40245 7.01236
#
# Compressibility (1/GPa) = 0.02317465
#
# Stress axis : x y z
#
# Youngs Moduli (GPa) = 34.65975 95.46478 69.51137
#
# Poissons Ratio (x) = 0.67391 0.37423
# Poissons Ratio (y) = 0.24467 0.19646
# Poissons Ratio (z) = 0.18660 0.26981
#
# Static dielectric constant tensor:
#      x y z
#    x 1.661860 0.000000 0.000000 
#    y 0.000000 1.692180 0.000000 
#    z 0.000000 0.000000 1.653070 
# 
# From -- ./inp_files/28419.got.cif
#   From: 2010.05.17/outbox.cif.g08.bks.cpg/sg51_15_cif.got.tgz:28419.got - 2010.06.03 11:52:47.
