data_PCOD9402317
_publ_section_title
;
Structure prediction by ZEFSAII (Michael W. Deem and Ramdas Pophale) SiO2 
 PCOD9402317
Probable space group: P M M A
;
_chemical_formula_sum "Si O2"
_cell_formula_units_Z 38
_cell_length_a 14.432922
_cell_length_b 12.571282
_cell_length_c 11.283970
_cell_angle_alpha 90.000000
_cell_angle_beta 90.000000
_cell_angle_gamma 90.000000
_cell_volume 2047.367269
_symmetry_space_group_name_H-M "P M M A"
_symmetry_group_IT_number 51
_symmetry_cell_setting 'orthorhombic'
loop_
_space_group_symop_operation_xyz
x,y,z
1/2-x,-y,z
1/2+x,-y,-z
-x,y,-z
-x,-y,-z
1/2+x,y,-z
1/2-x,y,z
x,-y,z
loop_
_atom_site_type_symbol
_atom_site_label
_atom_site_fract_x
_atom_site_fract_y
_atom_site_fract_z
Si Si1 0.500000 0.220806 0.500000
Si Si2 0.146877 0.375975 0.619457
Si Si3 0.356456 0.123351 0.316544
Si Si4 0.613251 0.313256 0.860691
Si Si5 0.750000 0.500000 0.788431
Si Si6 0.898640 0.624627 0.113041
O O1 0.570172 0.297662 0.429985
O O2 0.434302 0.153144 0.413224
O O3 0.250000 0.355963 0.569891
O O4 0.123879 0.500000 0.595137
O O5 0.149854 0.363153 0.761279
O O6 0.250000 0.137716 0.360571
O O7 0.370518 0.203815 0.207357
O O8 0.366504 0.000000 0.282532
O O9 0.669924 0.406170 0.796368
O O10 0.504960 0.343724 0.863869
O O11 0.639748 0.312822 0.999919
O O12 0.893126 0.500000 0.078756
#
# Coordination Sequence:
#
# PCOD9402317 Si02
#       6
#     4   8   8   8   2   8
#     4  12  22  44  62  80 116 161 215 258 296 352
#     4  10  22  36  58  91 125 159 193 244 310 366
#     4  11  25  43  64  88 117 160 209 256 302 355
#     4  11  20  35  58  94 121 155 193 240 299 367
#     4  12  20  30  62 102 120 154 200 236 304 372
#     4  10  19  35  57  89 130 156 188 233 303 372
#
# _framework density 18.560423
#
# number of rings (size 3 to 8) (size 9 to 14) (size 15 to 20)
#    0.000    1.263    5.263    1.895    1.474    0.000 
#    1.895    2.105    0.000    0.000    0.000    0.000 
#    0.000    0.000    0.000    0.000    0.000    0.000 
#
# Total GULP energy -211640.040477 kJ/mol
# GULP energy per Si atom -5569.474749 kJ/mol
# Density = 1.851818 g / cm^3
# Si number density = 18.560423 Si / 1000 Ang^3
#
#
#
# Elastic Constant Matrix: (Units=GPa)
#
#
# Indices 1 2 3 4 5 6 
#
# 1 119.1118 59.8745 30.7955 0.0000 0.0000 0.0000
# 2 59.8745 152.4700 72.6404 0.0000 0.0000 0.0000
# 3 30.7955 72.6404 62.6417 0.0000 0.0000 0.0000
# 4 0.0000 0.0000 0.0000 13.7999 0.0000 0.0000
# 5 0.0000 0.0000 0.0000 0.0000 -207.7405 0.0000
# 6 0.0000 0.0000 0.0000 0.0000 0.0000 64.1118
#
#
#
# Elastic Compliance Matrix: (Units=1/GPa)
#
#
# Indices 1 2 3 4 5 6 
#
# 1 0.010480 -0.003711 -0.000849 0.000000 0.000000 0.000000
# 2 -0.003711 0.015970 -0.016694 0.000000 0.000000 0.000000
# 3 -0.000849 -0.016694 0.035740 0.000000 0.000000 0.000000
# 4 0.000000 0.000000 0.000000 0.072464 0.000000 0.000000
# 5 0.000000 0.000000 0.000000 0.000000 -0.004814 0.000000
# 6 0.000000 0.000000 0.000000 0.000000 0.000000 0.015598
#
#
# Mechanical properties :
#
#
# Convention : Reuss Voigt Hill
#
# Bulk Modulus (GPa) = 50.80849 73.42713 62.11781
# Shear Modulus (GPa) = 25.70610 -14.57154 5.56728
#
# Velocity S-wave (km/s) = 3.72559 -2.80498 1.73380
# Velocity P-wave (km/s) = 6.77796 5.39967 6.12769
#
# Compressibility (1/GPa) = 0.01968175
#
# Stress axis : x y z
#
# Youngs Moduli (GPa) = 95.41551 62.61931 27.98023
#
# Poissons Ratio (x) = 0.23240 0.02374
# Poissons Ratio (y) = 0.35412 0.46710
# Poissons Ratio (z) = 0.08097 1.04536
#
# Static dielectric constant tensor:
#      x y z
#    x 1.678120 0.000000 0.000000 
#    y 0.000000 1.592620 0.000000 
#    z 0.000000 0.000000 1.684830 
# 
# From -- ./inp_files/16236.got.cif
#   From: 2010.05.17/outbox.cif.g08.bks.cpg/sg51_9_cif.got.tgz:16236.got - 2010.06.03 11:52:47.
