data_PCOD9402898
_publ_section_title
;
Structure prediction by ZEFSAII (Michael W. Deem and Ramdas Pophale) SiO2 
 PCOD9402898
Probable space group: P M M A
;
_chemical_formula_sum "Si O2"
_cell_formula_units_Z 40
_cell_length_a 8.579416
_cell_length_b 14.487611
_cell_length_c 16.068196
_cell_angle_alpha 90.000000
_cell_angle_beta 90.000000
_cell_angle_gamma 90.000000
_cell_volume 1997.200304
_symmetry_space_group_name_H-M "P M M A"
_symmetry_group_IT_number 51
_symmetry_cell_setting 'orthorhombic'
loop_
_space_group_symop_operation_xyz
x,y,z
1/2-x,-y,z
1/2+x,-y,-z
-x,y,-z
-x,-y,-z
1/2+x,y,-z
1/2-x,y,z
x,-y,z
loop_
_atom_site_type_symbol
_atom_site_label
_atom_site_fract_x
_atom_site_fract_y
_atom_site_fract_z
Si Si1 0.432202 0.857683 0.730160
Si Si2 0.437582 0.500000 0.409327
Si Si3 0.935193 0.000000 0.596125
Si Si4 0.063981 0.807544 0.912671
Si Si5 0.070324 0.602892 0.111491
Si Si6 0.429923 0.663984 0.298101
O O1 0.250000 0.882365 0.731154
O O2 0.512070 0.915538 0.656456
O O3 0.491110 0.859024 0.827293
O O4 0.460284 0.751312 0.708568
O O5 0.250000 0.500000 0.403777
O O6 0.500000 0.500000 0.500000
O O7 0.489933 0.592622 0.364882
O O8 0.000000 0.000000 0.500000
O O9 0.750000 0.000000 0.588248
O O10 0.250000 0.812079 0.912355
O O11 0.015533 0.698549 0.910696
O O12 0.000000 0.845629 0.000000
O O13 0.250000 0.608816 0.081016
O O14 0.008400 0.500000 0.089922
O O15 0.074629 0.609763 0.211172
O O16 0.250000 0.693552 0.314956
#
# Coordination Sequence:
#
# PCOD9402898 Si02
#       6
#     8   4   4   8   8   8
#     4  10  22  41  64  92 124 157 196 248 305 359
#     4  10  20  32  48  74 109 148 193 242 291 348
#     4  12  26  46  73 100 123 152 191 242 302 366
#     4  10  21  36  56  84 120 161 203 249 298 353
#     4   9  16  29  51  75 104 149 203 254 299 345
#     4   9  17  33  54  77 109 153 200 242 293 354
#
# _framework density 20.028036
#
# number of rings (size 3 to 8) (size 9 to 14) (size 15 to 20)
#    0.000    2.200    1.000    2.100    0.000    4.800 
#    0.000    2.500    0.000    0.000    0.000    0.000 
#    0.000    0.000    0.000    0.000    0.000    0.000 
#
# Total GULP energy -222850.197930 kJ/mol
# GULP energy per Si atom -5571.254948 kJ/mol
# Density = 1.998245 g / cm^3
# Si number density = 20.028036 Si / 1000 Ang^3
#
#
#
# Elastic Constant Matrix: (Units=GPa)
#
#
# Indices 1 2 3 4 5 6 
#
# 1 52.3306 19.0967 41.7133 0.0000 0.0000 0.0000
# 2 19.0967 66.2935 55.2201 0.0000 0.0000 0.0000
# 3 41.7133 55.2201 188.3804 0.0000 0.0000 0.0000
# 4 0.0000 0.0000 0.0000 23.2402 0.0000 0.0000
# 5 0.0000 0.0000 0.0000 0.0000 32.2548 0.0000
# 6 0.0000 0.0000 0.0000 0.0000 0.0000 455.6000
#
#
#
# Elastic Compliance Matrix: (Units=1/GPa)
#
#
# Indices 1 2 3 4 5 6 
#
# 1 0.023724 -0.003252 -0.004300 0.000000 0.000000 0.000000
# 2 -0.003252 0.020403 -0.005261 0.000000 0.000000 0.000000
# 3 -0.004300 -0.005261 0.007803 0.000000 0.000000 0.000000
# 4 0.000000 0.000000 0.000000 0.043029 0.000000 0.000000
# 5 0.000000 0.000000 0.000000 0.000000 0.031003 0.000000
# 6 0.000000 0.000000 0.000000 0.000000 0.000000 0.002195
#
#
# Mechanical properties :
#
#
# Convention : Reuss Voigt Hill
#
# Bulk Modulus (GPa) = 38.01720 59.89605 48.95662
# Shear Modulus (GPa) = 30.75983 114.95063 72.85523
#
# Velocity S-wave (km/s) = 3.92323 7.58416 6.03785
# Velocity P-wave (km/s) = 6.28852 10.32781 8.55012
#
# Compressibility (1/GPa) = 0.02630388
#
# Stress axis : x y z
#
# Youngs Moduli (GPa) = 42.15224 49.01181 128.16281
#
# Poissons Ratio (x) = 0.15940 0.55107
# Poissons Ratio (y) = 0.13709 0.67422
# Poissons Ratio (z) = 0.18125 0.25783
#
# Static dielectric constant tensor:
#      x y z
#    x 1.721600 0.000000 0.000000 
#    y 0.000000 1.776670 0.000000 
#    z 0.000000 0.000000 1.730740 
# 
# From -- ./inp_files/20578.got.cif
#   From: 2010.05.17/outbox.cif.g08.bks.cpg/sg51_11_cif.got.tgz:20578.got - 2010.06.03 11:52:47.
