data_PCOD9402128
_publ_section_title
;
Structure prediction by ZEFSAII (Michael W. Deem and Ramdas Pophale) SiO2 
 PCOD9402128
Probable space group: P M M A
;
_chemical_formula_sum "Si O2"
_cell_formula_units_Z 48
_cell_length_a 8.764517
_cell_length_b 31.398387
_cell_length_c 9.462536
_cell_angle_alpha 90.000000
_cell_angle_beta 90.000000
_cell_angle_gamma 90.000000
_cell_volume 2604.011336
_symmetry_space_group_name_H-M "P M M A"
_symmetry_group_IT_number 51
_symmetry_cell_setting 'orthorhombic'
loop_
_space_group_symop_operation_xyz
x,y,z
1/2-x,-y,z
1/2+x,-y,-z
-x,y,-z
-x,-y,-z
1/2+x,y,-z
1/2-x,y,z
x,-y,z
loop_
_atom_site_type_symbol
_atom_site_label
_atom_site_fract_x
_atom_site_fract_y
_atom_site_fract_z
Si Si1 0.431915 0.500000 0.655638
Si Si2 0.066961 0.000000 0.342603
Si Si3 0.067355 0.253080 0.656061
Si Si4 0.434010 0.093695 0.340500
Si Si5 0.567552 0.425978 0.844971
Si Si6 0.933127 0.829581 0.157190
Si Si7 0.067845 0.326819 0.155344
O O1 0.250000 0.500000 0.652367
O O2 0.500000 0.500000 0.500000
O O3 0.492241 0.458481 0.737250
O O4 0.023314 0.953724 0.282856
O O5 0.000000 0.000000 0.500000
O O6 0.250000 0.000000 0.350761
O O7 0.250000 0.255469 0.647448
O O8 0.026431 0.212742 0.754110
O O9 0.000000 0.247844 0.500000
O O10 0.003179 0.295196 0.730951
O O11 0.500000 0.097806 0.500000
O O12 0.250000 0.096918 0.346989
O O13 0.500921 0.130097 0.241415
O O14 0.750000 0.431740 0.846871
O O15 0.534814 0.376405 0.811618
O O16 0.500000 0.434551 0.000000
O O17 0.750000 0.832535 0.150314
O O18 0.000000 0.827340 0.000000
O O19 0.250000 0.321444 0.150491
O O20 0.000000 0.317628 0.000000
#
# Coordination Sequence:
#
# PCOD9402128 Si02
#       7
#     4   4   8   8   8   8   8
#     4  12  25  40  59  84 116 154 194 240 289 338
#     4   8  16  30  51  80 111 144 182 224 274 328
#     4  11  24  40  60  85 115 149 187 231 280 334
#     4  10  19  34  57  84 114 147 185 230 277 331
#     4  10  21  39  62  88 117 152 192 234 280 335
#     4  11  24  40  58  82 111 147 188 232 282 335
#     4  10  21  38  62  89 118 151 189 232 280 334
#
# _framework density 18.433098999999999
#
# number of rings (size 3 to 8) (size 9 to 14) (size 15 to 20)
#    0.000    1.667    0.000    4.500    0.000    8.667 
#    0.000    0.417    0.000    0.000    0.000    0.000 
#    0.000    0.000    0.000    0.000    0.000    0.000 
#
# Total GULP energy -268186.447062 kJ/mol
# GULP energy per Si atom -5587.217647 kJ/mol
# Density = 1.839114 g / cm^3
# Si number density = 18.433099 Si / 1000 Ang^3
#
#
#
# Elastic Constant Matrix: (Units=GPa)
#
#
# Indices 1 2 3 4 5 6 
#
# 1 82.2112 78.5008 70.6336 0.0000 0.0000 0.0000
# 2 78.5008 150.1722 119.6880 0.0000 0.0000 0.0000
# 3 70.6336 119.6880 159.7729 0.0000 0.0000 0.0000
# 4 0.0000 0.0000 0.0000 46.1679 0.0000 0.0000
# 5 0.0000 0.0000 0.0000 0.0000 36.8293 0.0000
# 6 0.0000 0.0000 0.0000 0.0000 0.0000 28.2016
#
#
#
# Elastic Compliance Matrix: (Units=1/GPa)
#
#
# Indices 1 2 3 4 5 6 
#
# 1 0.024897 -0.010528 -0.003120 0.000000 0.000000 0.000000
# 2 -0.010528 0.020978 -0.011060 0.000000 0.000000 0.000000
# 3 -0.003120 -0.011060 0.015924 0.000000 0.000000 0.000000
# 4 0.000000 0.000000 0.000000 0.021660 0.000000 0.000000
# 5 0.000000 0.000000 0.000000 0.000000 0.027152 0.000000
# 6 0.000000 0.000000 0.000000 0.000000 0.000000 0.035459
#
#
# Mechanical properties :
#
#
# Convention : Reuss Voigt Hill
#
# Bulk Modulus (GPa) = 80.76413 103.31125 92.03769
# Shear Modulus (GPa) = 25.04835 30.46202 27.75519
#
# Velocity S-wave (km/s) = 3.69030 4.06959 3.88458
# Velocity P-wave (km/s) = 7.87830 8.84593 8.37610
#
# Compressibility (1/GPa) = 0.01238173
#
# Stress axis : x y z
#
# Youngs Moduli (GPa) = 40.16469 47.67010 62.80007
#
# Poissons Ratio (x) = 0.50188 0.19594
# Poissons Ratio (y) = 0.42286 0.69458
# Poissons Ratio (z) = 0.12532 0.52724
#
# Static dielectric constant tensor:
#      x y z
#    x 1.613920 0.000000 0.000000 
#    y 0.000000 1.646730 0.000000 
#    z 0.000000 0.000000 1.583300 
# 
# From -- ./inp_files/6204.got.cif
#   From: 2010.05.17/outbox.cif.g08.bks.cpg/sg51_4_cif.got.tgz:6204.got - 2010.06.03 11:52:47.
