data_PCOD9402062
_publ_section_title
;
Structure prediction by ZEFSAII (Michael W. Deem and Ramdas Pophale) SiO2 
 PCOD9402062
Probable space group: P M M A
;
_chemical_formula_sum "Si O2"
_cell_formula_units_Z 56
_cell_length_a 7.812632
_cell_length_b 14.826177
_cell_length_c 21.984625
_cell_angle_alpha 90.000000
_cell_angle_beta 90.000000
_cell_angle_gamma 90.000000
_cell_volume 2546.511318
_symmetry_space_group_name_H-M "P M M A"
_symmetry_group_IT_number 51
_symmetry_cell_setting 'orthorhombic'
loop_
_space_group_symop_operation_xyz
x,y,z
1/2-x,-y,z
1/2+x,-y,-z
-x,y,-z
-x,-y,-z
1/2+x,y,-z
1/2-x,y,z
x,-y,z
loop_
_atom_site_type_symbol
_atom_site_label
_atom_site_fract_x
_atom_site_fract_y
_atom_site_fract_z
Si Si1 0.046929 0.294488 0.568630
Si Si2 0.455820 0.291039 0.303219
Si Si3 0.953034 0.283601 0.933106
Si Si4 0.540304 0.603769 0.817198
Si Si5 0.549567 0.899419 0.739912
Si Si6 0.047486 0.100422 0.877371
Si Si7 0.544022 0.094618 0.429208
O O1 0.250000 0.287892 0.567032
O O2 0.970541 0.194105 0.581239
O O3 0.000000 0.325052 0.500000
O O4 0.999139 0.339285 0.632721
O O5 0.250000 0.285223 0.299786
O O6 0.515200 0.346988 0.244639
O O7 0.525392 0.187801 0.294408
O O8 0.750000 0.284417 0.928438
O O9 0.020603 0.342762 0.876903
O O10 0.010433 0.180661 0.923246
O O11 0.000000 0.316868 0.000000
O O12 0.750000 0.605320 0.817416
O O13 0.487119 0.500000 0.818556
O O14 0.750000 0.904662 0.723722
O O15 0.538006 0.880057 0.812079
O O16 0.472549 0.000000 0.731592
O O17 0.250000 0.098254 0.866356
O O18 0.992457 0.000000 0.897326
O O19 0.500000 0.086301 0.500000
O O20 0.750000 0.096638 0.420730
O O21 0.479876 0.000000 0.400516
#
# Coordination Sequence:
#
# PCOD9402062 Si02
#       7
#     8   8   8   8   8   8   8
#     4  10  20  33  50  75 106 143 182 229 281 337
#     4  10  19  34  56  82 110 146 186 229 281 339
#     4  11  22  38  60  88 120 157 194 236 285 337
#     4   9  19  38  63  88 114 147 188 232 285 349
#     4   9  17  31  52  79 111 149 193 237 283 337
#     4  10  20  34  54  82 117 157 199 241 283 329
#     4   8  14  25  40  59  88 128 172 213 255 305
#
# _framework density 21.990870999999999
#
# number of rings (size 3 to 8) (size 9 to 14) (size 15 to 20)
#    0.000    2.429    1.429    1.286    0.000    3.143 
#    0.000    0.000    0.000    7.286    0.000    0.000 
#    0.000    0.000    0.000    0.000    0.000    0.000 
#
# Total GULP energy -312131.699655 kJ/mol
# GULP energy per Si atom -5573.780351 kJ/mol
# Density = 2.194082 g / cm^3
# Si number density = 21.990871 Si / 1000 Ang^3
#
#
#
# Elastic Constant Matrix: (Units=GPa)
#
#
# Indices 1 2 3 4 5 6 
#
# 1 44.3796 9.4661 7.7880 0.0000 0.0000 0.0000
# 2 9.4661 78.3280 59.2730 0.0000 0.0000 0.0000
# 3 7.7880 59.2730 178.6225 0.0000 0.0000 0.0000
# 4 0.0000 0.0000 0.0000 -1.4337 0.0000 0.0000
# 5 0.0000 0.0000 0.0000 0.0000 23.5315 0.0000
# 6 0.0000 0.0000 0.0000 0.0000 0.0000 2.9786
#
#
#
# Elastic Compliance Matrix: (Units=1/GPa)
#
#
# Indices 1 2 3 4 5 6 
#
# 1 0.023131 -0.002714 -0.000108 0.000000 0.000000 0.000000
# 2 -0.002714 0.017366 -0.005644 0.000000 0.000000 0.000000
# 3 -0.000108 -0.005644 0.007476 0.000000 0.000000 0.000000
# 4 0.000000 0.000000 0.000000 -0.697515 0.000000 0.000000
# 5 0.000000 0.000000 0.000000 0.000000 0.042496 0.000000
# 6 0.000000 0.000000 0.000000 0.000000 0.000000 0.335727
#
#
# Mechanical properties :
#
#
# Convention : Reuss Voigt Hill
#
# Bulk Modulus (GPa) = 32.21571 50.48713 41.35142
# Shear Modulus (GPa) = -20.48840 20.00217 -0.24311
#
# Velocity S-wave (km/s) = -3.05565 3.01917 -0.33285
# Velocity P-wave (km/s) = 1.49401 5.92975 4.32400
#
# Compressibility (1/GPa) = 0.03104076
#
# Stress axis : x y z
#
# Youngs Moduli (GPa) = 43.23273 57.58390 133.75999
#
# Poissons Ratio (x) = 0.15626 0.01445
# Poissons Ratio (y) = 0.11732 0.75498
# Poissons Ratio (z) = 0.00467 0.32502
#
# Static dielectric constant tensor:
#      x y z
#    x 1.808350 0.000000 0.000000 
#    y 0.000000 1.885450 0.000000 
#    z 0.000000 0.000000 1.766050 
# 
# From -- ./inp_files/32029.got.cif
#   From: 2010.05.17/outbox.cif.g08.bks.cpg/sg51_17_cif.got.tgz:32029.got - 2010.06.03 11:52:47.
