data_PCOD9402049
_publ_section_title
;
Structure prediction by ZEFSAII (Michael W. Deem and Ramdas Pophale) SiO2 
 PCOD9402049
Probable space group: P M M A
;
_chemical_formula_sum "Si O2"
_cell_formula_units_Z 44
_cell_length_a 8.680737
_cell_length_b 29.163919
_cell_length_c 9.694166
_cell_angle_alpha 90.000000
_cell_angle_beta 90.000000
_cell_angle_gamma 90.000000
_cell_volume 2454.216853
_symmetry_space_group_name_H-M "P M M A"
_symmetry_group_IT_number 51
_symmetry_cell_setting 'orthorhombic'
loop_
_space_group_symop_operation_xyz
x,y,z
1/2-x,-y,z
1/2+x,-y,-z
-x,y,-z
-x,-y,-z
1/2+x,y,-z
1/2-x,y,z
x,-y,z
loop_
_atom_site_type_symbol
_atom_site_label
_atom_site_fract_x
_atom_site_fract_y
_atom_site_fract_z
Si Si1 0.065098 0.000000 0.345560
Si Si2 0.565601 0.448604 0.846086
Si Si3 0.064512 0.265715 0.652346
Si Si4 0.564633 0.182038 0.154457
Si Si5 0.434645 0.629912 0.652242
Si Si6 0.564144 0.899006 0.656501
O O1 0.019860 0.950130 0.288448
O O2 0.000000 0.000000 0.500000
O O3 0.250000 0.000000 0.350937
O O4 0.750000 0.445464 0.849923
O O5 0.524228 0.500000 0.794882
O O6 0.498716 0.408329 0.753626
O O7 0.500000 0.444514 0.000000
O O8 0.250000 0.264478 0.643453
O O9 0.015991 0.228249 0.764276
O O10 0.018858 0.317813 0.690023
O O11 0.000000 0.255199 0.500000
O O12 0.750000 0.180656 0.150022
O O13 0.503410 0.139654 0.244780
O O14 0.500000 0.180983 0.000000
O O15 0.500000 0.621468 0.500000
O O16 0.250000 0.627939 0.649966
O O17 0.500000 0.894128 0.500000
O O18 0.750000 0.895690 0.651520
#
# Coordination Sequence:
#
# PCOD9402049 Si02
#       6
#     4   8   8   8   8   8
#     4   8  16  30  51  78 107 136 172 216 260 308
#     4  10  21  37  56  79 108 143 181 220 264 315
#     4   9  20  37  57  80 106 137 175 217 264 316
#     4  11  23  38  54  77 108 142 179 220 266 316
#     4  10  20  36  57  82 110 140 176 219 265 314
#     4  10  19  34  56  82 109 140 177 218 263 313
#
# _framework density 17.928325999999998
#
# number of rings (size 3 to 8) (size 9 to 14) (size 15 to 20)
#    0.000    2.182    0.000    2.727    0.000    6.545 
#    0.000    2.273    0.000    0.000    0.000    0.000 
#    0.000    0.000    0.000    0.000    0.000    0.000 
#
# Total GULP energy -245489.905965 kJ/mol
# GULP energy per Si atom -5579.316045 kJ/mol
# Density = 1.788752 g / cm^3
# Si number density = 17.928326 Si / 1000 Ang^3
#
#
#
# Elastic Constant Matrix: (Units=GPa)
#
#
# Indices 1 2 3 4 5 6 
#
# 1 52.1169 56.6468 41.0051 0.0000 0.0000 0.0000
# 2 56.6468 187.3760 118.4582 0.0000 0.0000 0.0000
# 3 41.0051 118.4582 114.7397 0.0000 0.0000 0.0000
# 4 0.0000 0.0000 0.0000 -33.0925 0.0000 0.0000
# 5 0.0000 0.0000 0.0000 0.0000 33.4399 0.0000
# 6 0.0000 0.0000 0.0000 0.0000 0.0000 27.4349
#
#
#
# Elastic Compliance Matrix: (Units=1/GPa)
#
#
# Indices 1 2 3 4 5 6 
#
# 1 0.029142 -0.006409 -0.003798 0.000000 0.000000 0.000000
# 2 -0.006409 0.016776 -0.015029 0.000000 0.000000 0.000000
# 3 -0.003798 -0.015029 0.025588 0.000000 0.000000 0.000000
# 4 0.000000 0.000000 0.000000 -0.030218 0.000000 0.000000
# 5 0.000000 0.000000 0.000000 0.000000 0.029904 0.000000
# 6 0.000000 0.000000 0.000000 0.000000 0.000000 0.036450
#
#
# Mechanical properties :
#
#
# Convention : Reuss Voigt Hill
#
# Bulk Modulus (GPa) = 47.54075 87.38365 67.46220
# Shear Modulus (GPa) = 30.28017 14.76462 22.52240
#
# Velocity S-wave (km/s) = 4.11415 2.87285 3.54820
# Velocity P-wave (km/s) = 7.01021 7.73632 7.38220
#
# Compressibility (1/GPa) = 0.02103459
#
# Stress axis : x y z
#
# Youngs Moduli (GPa) = 34.31489 59.61049 39.08024
#
# Poissons Ratio (x) = 0.38205 0.14841
# Poissons Ratio (y) = 0.21993 0.58733
# Poissons Ratio (z) = 0.13032 0.89587
#
# Static dielectric constant tensor:
#      x y z
#    x 1.603830 0.000000 0.000000 
#    y 0.000000 1.643890 0.000000 
#    z 0.000000 0.000000 1.558310 
# 
# From -- ./inp_files/5861.got.cif
#   From: 2010.05.17/outbox.cif.g08.bks.cpg/sg51_3_cif.got.tgz:5861.got - 2010.06.03 11:52:47.
