data_PCOD9402619
_publ_section_title
;
Structure prediction by ZEFSAII (Michael W. Deem and Ramdas Pophale) SiO2 
 PCOD9402619
Probable space group: P M M A
;
_chemical_formula_sum "Si O2"
_cell_formula_units_Z 44
_cell_length_a 9.260607
_cell_length_b 7.781870
_cell_length_c 31.646353
_cell_angle_alpha 90.000000
_cell_angle_beta 90.000000
_cell_angle_gamma 90.000000
_cell_volume 2280.589359
_symmetry_space_group_name_H-M "P M M A"
_symmetry_group_IT_number 51
_symmetry_cell_setting 'orthorhombic'
loop_
_space_group_symop_operation_xyz
x,y,z
1/2-x,-y,z
1/2+x,-y,-z
-x,y,-z
-x,-y,-z
1/2+x,y,-z
1/2-x,y,z
x,-y,z
loop_
_atom_site_type_symbol
_atom_site_label
_atom_site_fract_x
_atom_site_fract_y
_atom_site_fract_z
Si Si1 0.085189 0.793619 0.299193
Si Si2 0.073800 0.801835 0.391296
Si Si3 0.575330 0.500000 0.545159
Si Si4 0.084122 0.210465 0.042147
Si Si5 0.914876 0.295964 0.792120
Si Si6 0.412633 0.794893 0.875630
O O1 0.250000 0.724482 0.297390
O O2 0.022217 0.741963 0.344623
O O3 0.019982 0.747427 0.253957
O O4 0.092368 0.000000 0.301343
O O5 0.250000 0.802687 0.388854
O O6 0.033991 0.668180 0.427513
O O7 0.029395 0.000000 0.399001
O O8 0.750000 0.500000 0.540632
O O9 0.500000 0.500000 0.500000
O O10 0.250000 0.266023 0.041388
O O11 0.004251 0.270737 0.084558
O O12 0.084422 0.000000 0.042451
O O13 0.000000 0.263658 0.000000
O O14 0.750000 0.224772 0.794270
O O15 0.905935 0.500000 0.794885
O O16 0.007321 0.234329 0.831508
O O17 0.250000 0.724909 0.875089
O O18 0.402915 0.000000 0.881439
#
# Coordination Sequence:
#
# PCOD9402619 Si02
#       6
#     8   8   4   8   8   8
#     4   8  14  26  46  72  99 125 158 203 250 294
#     4   8  15  28  47  73 102 132 168 212 261 310
#     4  10  20  32  50  74 102 136 174 216 259 308
#     4   9  16  27  46  72  99 125 158 204 254 301
#     4  10  20  31  47  73 101 128 159 199 249 302
#     4  10  20  33  49  69  96 132 170 205 243 292
#
# _framework density 19.293258000000002
#
# number of rings (size 3 to 8) (size 9 to 14) (size 15 to 20)
#    0.000    2.909    0.000    2.727    1.273    4.727 
#    0.000    0.000    0.000    1.636    0.000    2.545 
#    0.000    0.000    0.000    0.000    0.000    0.000 
#
# Total GULP energy -245246.265058 kJ/mol
# GULP energy per Si atom -5573.778751 kJ/mol
# Density = 1.924935 g / cm^3
# Si number density = 19.293258 Si / 1000 Ang^3
#
#
#
# Elastic Constant Matrix: (Units=GPa)
#
#
# Indices 1 2 3 4 5 6 
#
# 1 81.3043 20.1860 80.0399 0.0000 0.0000 0.0000
# 2 20.1860 48.5249 43.7553 0.0000 0.0000 0.0000
# 3 80.0399 43.7553 224.8532 0.0000 0.0000 0.0000
# 4 0.0000 0.0000 0.0000 92.4054 0.0000 0.0000
# 5 0.0000 0.0000 0.0000 0.0000 26.5538 0.0000
# 6 0.0000 0.0000 0.0000 0.0000 0.0000 5.7677
#
#
#
# Elastic Compliance Matrix: (Units=1/GPa)
#
#
# Indices 1 2 3 4 5 6 
#
# 1 0.019127 -0.002204 -0.006380 0.000000 0.000000 0.000000
# 2 -0.002204 0.025248 -0.004128 0.000000 0.000000 0.000000
# 3 -0.006380 -0.004128 0.007522 0.000000 0.000000 0.000000
# 4 0.000000 0.000000 0.000000 0.010822 0.000000 0.000000
# 5 0.000000 0.000000 0.000000 0.000000 0.037659 0.000000
# 6 0.000000 0.000000 0.000000 0.000000 0.000000 0.173380
#
#
# Mechanical properties :
#
#
# Convention : Reuss Voigt Hill
#
# Bulk Modulus (GPa) = 37.77601 71.40496 54.59048
# Shear Modulus (GPa) = 16.23342 38.99213 27.61277
#
# Velocity S-wave (km/s) = 2.90384 4.50046 3.78724
# Velocity P-wave (km/s) = 5.55567 8.00601 6.89063
#
# Compressibility (1/GPa) = 0.02647183
#
# Stress axis : x y z
#
# Youngs Moduli (GPa) = 52.28160 39.60785 132.94924
#
# Poissons Ratio (x) = 0.08730 0.84818
# Poissons Ratio (y) = 0.11524 0.54887
# Poissons Ratio (z) = 0.33354 0.16352
#
# Static dielectric constant tensor:
#      x y z
#    x 1.680840 0.000000 0.000000 
#    y 0.000000 1.699460 0.000000 
#    z 0.000000 0.000000 1.679400 
# 
# From -- ./inp_files/36790.got.cif
#   From: 2010.05.17/outbox.cif.g08.bks.cpg/sg51_19_cif.got.tgz:36790.got - 2010.06.03 11:52:47.
