data_PCOD9402536
_publ_section_title
;
Structure prediction by ZEFSAII (Michael W. Deem and Ramdas Pophale) SiO2 
 PCOD9402536
Probable space group: P M M A
;
_chemical_formula_sum "Si O2"
_cell_formula_units_Z 48
_cell_length_a 14.897584
_cell_length_b 8.816967
_cell_length_c 19.930645
_cell_angle_alpha 90.000000
_cell_angle_beta 90.000000
_cell_angle_gamma 90.000000
_cell_volume 2617.920246
_symmetry_space_group_name_H-M "P M M A"
_symmetry_group_IT_number 51
_symmetry_cell_setting 'orthorhombic'
loop_
_space_group_symop_operation_xyz
x,y,z
1/2-x,-y,z
1/2+x,-y,-z
-x,y,-z
-x,-y,-z
1/2+x,y,-z
1/2-x,y,z
x,-y,z
loop_
_atom_site_type_symbol
_atom_site_label
_atom_site_fract_x
_atom_site_fract_y
_atom_site_fract_z
Si Si1 0.357009 0.179193 0.435959
Si Si2 0.445565 0.317614 0.931144
Si Si3 0.486513 0.321287 0.327617
Si Si4 0.435010 0.180406 0.185921
Si Si5 0.750000 0.682606 0.866253
Si Si6 0.250000 0.684200 0.977123
Si Si7 0.644555 0.818617 0.409108
O O1 0.250000 0.197620 0.426946
O O2 0.412765 0.274141 0.382957
O O3 0.378130 0.218744 0.513306
O O4 0.377677 0.000000 0.427089
O O5 0.447817 0.500000 0.920312
O O6 0.494727 0.237001 0.869998
O O7 0.342568 0.268455 0.942184
O O8 0.500000 0.288534 0.000000
O O9 0.484640 0.500000 0.315689
O O10 0.466038 0.235066 0.258832
O O11 0.581122 0.269545 0.358722
O O12 0.339235 0.254480 0.168171
O O13 0.427110 0.000000 0.184118
O O14 0.750000 0.500000 0.863685
O O15 0.750000 0.729540 0.944725
O O16 0.250000 0.500000 0.977107
O O17 0.750000 0.787362 0.399176
O O18 0.631354 0.000000 0.401562
#
# Coordination Sequence:
#
# PCOD9402536 Si02
#       7
#     8   8   8   8   4   4   8
#     4   9  19  37  62  90 120 155 196 243 298 361
#     4  10  19  38  65  92 122 158 201 246 295 356
#     4  12  25  39  58  86 121 162 202 248 299 355
#     4  12  26  42  60  88 124 163 201 247 299 356
#     4  11  21  41  67  93 121 156 195 240 301 365
#     4   9  18  35  65  95 119 154 195 242 299 355
#     4   9  19  39  65  89 116 154 198 247 302 361
#
# _framework density 18.335166000000001
#
# number of rings (size 3 to 8) (size 9 to 14) (size 15 to 20)
#    0.000    1.667    1.667    4.750    1.167    3.667 
#    1.500    2.083    0.000    0.000    0.000    0.000 
#    0.000    0.000    0.000    0.000    0.000    0.000 
#
# Total GULP energy -268286.343463 kJ/mol
# GULP energy per Si atom -5589.298822 kJ/mol
# Density = 1.829343 g / cm^3
# Si number density = 18.335166 Si / 1000 Ang^3
#
#
#
# Elastic Constant Matrix: (Units=GPa)
#
#
# Indices 1 2 3 4 5 6 
#
# 1 126.6439 56.0733 73.6606 0.0000 0.0000 0.0000
# 2 56.0733 84.8240 60.7362 0.0000 0.0000 0.0000
# 3 73.6606 60.7362 115.7602 0.0000 0.0000 0.0000
# 4 0.0000 0.0000 0.0000 34.0109 0.0000 0.0000
# 5 0.0000 0.0000 0.0000 0.0000 -77.2069 0.0000
# 6 0.0000 0.0000 0.0000 0.0000 0.0000 38.1536
#
#
#
# Elastic Compliance Matrix: (Units=1/GPa)
#
#
# Indices 1 2 3 4 5 6 
#
# 1 0.013507 -0.004444 -0.006263 0.000000 0.000000 0.000000
# 2 -0.004444 0.020345 -0.007847 0.000000 0.000000 0.000000
# 3 -0.006263 -0.007847 0.016741 0.000000 0.000000 0.000000
# 4 0.000000 0.000000 0.000000 0.029402 0.000000 0.000000
# 5 0.000000 0.000000 0.000000 0.000000 -0.012952 0.000000
# 6 0.000000 0.000000 0.000000 0.000000 0.000000 0.026210
#
#
# Mechanical properties :
#
#
# Convention : Reuss Voigt Hill
#
# Bulk Modulus (GPa) = 74.15540 78.68536 76.42038
# Shear Modulus (GPa) = 37.07686 8.10873 22.59280
#
# Velocity S-wave (km/s) = 4.50174 2.10526 3.51409
# Velocity P-wave (km/s) = 8.21906 6.99411 7.63121
#
# Compressibility (1/GPa) = 0.01348519
#
# Stress axis : x y z
#
# Youngs Moduli (GPa) = 74.03830 49.15093 59.73516
#
# Poissons Ratio (x) = 0.21844 0.37410
# Poissons Ratio (y) = 0.32905 0.46872
# Poissons Ratio (z) = 0.46368 0.38567
#
# Static dielectric constant tensor:
#      x y z
#    x 1.625750 0.000000 0.000000 
#    y 0.000000 1.613020 0.000000 
#    z 0.000000 0.000000 1.596750 
# 
# From -- ./inp_files/29651.got.cif
#   From: 2010.05.17/outbox.cif.g08.bks.cpg/sg51_15_cif.got.tgz:29651.got - 2010.06.03 11:52:47.
