data_PCOD9402323
_publ_section_title
;
Structure prediction by ZEFSAII (Michael W. Deem and Ramdas Pophale) SiO2 
 PCOD9402323
Probable space group: P M M A
;
_chemical_formula_sum "Si O2"
_cell_formula_units_Z 48
_cell_length_a 24.298361
_cell_length_b 8.043253
_cell_length_c 12.982250
_cell_angle_alpha 90.000000
_cell_angle_beta 90.000000
_cell_angle_gamma 90.000000
_cell_volume 2537.223223
_symmetry_space_group_name_H-M "P M M A"
_symmetry_group_IT_number 51
_symmetry_cell_setting 'orthorhombic'
loop_
_space_group_symop_operation_xyz
x,y,z
1/2-x,-y,z
1/2+x,-y,-z
-x,y,-z
-x,-y,-z
1/2+x,y,-z
1/2-x,y,z
x,-y,z
loop_
_atom_site_type_symbol
_atom_site_label
_atom_site_fract_x
_atom_site_fract_y
_atom_site_fract_z
Si Si1 0.187464 0.803991 0.482454
Si Si2 0.495478 0.296685 0.619614
Si Si3 0.687102 0.299020 0.883788
Si Si4 0.313186 0.801133 0.884568
Si Si5 0.110487 0.696946 0.298682
Si Si6 0.374486 0.696903 0.682758
O O1 0.250000 0.740738 0.472745
O O2 0.146557 0.719994 0.401494
O O3 0.164947 0.777540 0.597401
O O4 0.187561 0.000000 0.460175
O O5 0.500000 0.246858 0.500000
O O6 0.496520 0.500000 0.621131
O O7 0.549387 0.235842 0.680195
O O8 0.437011 0.243409 0.665433
O O9 0.750000 0.240403 0.864860
O O10 0.688167 0.500000 0.878256
O O11 0.645115 0.234667 0.797546
O O12 0.671334 0.249576 0.999547
O O13 0.250000 0.742928 0.867888
O O14 0.352086 0.730725 0.796333
O O15 0.313600 0.000000 0.877322
O O16 0.104319 0.500000 0.280537
O O17 0.373781 0.500000 0.662881
#
# Coordination Sequence:
#
# PCOD9402323 Si02
#       6
#     8   8   8   8   8   8
#     4  11  23  35  49  76 113 144 173 217 272 326
#     4   9  17  33  55  80 108 140 178 221 267 314
#     4   9  18  33  55  82 107 135 177 223 265 316
#     4  10  21  37  56  78 108 143 176 218 273 325
#     4  10  19  35  58  81 107 140 181 225 266 313
#     4  11  21  35  57  80 105 140 182 224 265 314
#
# _framework density 18.918317999999999
#
# number of rings (size 3 to 8) (size 9 to 14) (size 15 to 20)
#    0.000    2.000    1.667    2.500    0.000    5.667 
#    0.000    5.000    0.000    5.000    0.000    0.000 
#    0.000    0.000    0.000    0.000    0.000    0.000 
#
# Total GULP energy -268013.567581 kJ/mol
# GULP energy per Si atom -5583.615991 kJ/mol
# Density = 1.887526 g / cm^3
# Si number density = 18.918318 Si / 1000 Ang^3
#
#
#
# Elastic Constant Matrix: (Units=GPa)
#
#
# Indices 1 2 3 4 5 6 
#
# 1 104.5175 -0.1716 49.8522 0.0000 0.0000 0.0000
# 2 -0.1716 11.1009 -8.7234 0.0000 0.0000 0.0000
# 3 49.8522 -8.7234 99.1422 0.0000 0.0000 0.0000
# 4 0.0000 0.0000 0.0000 -15.5671 0.0000 0.0000
# 5 0.0000 0.0000 0.0000 0.0000 14.0965 0.0000
# 6 0.0000 0.0000 0.0000 0.0000 0.0000 -45.3214
#
#
#
# Elastic Compliance Matrix: (Units=1/GPa)
#
#
# Indices 1 2 3 4 5 6 
#
# 1 0.012865 -0.005247 -0.006931 0.000000 0.000000 0.000000
# 2 -0.005247 0.098915 0.011342 0.000000 0.000000 0.000000
# 3 -0.006931 0.011342 0.014569 0.000000 0.000000 0.000000
# 4 0.000000 0.000000 0.000000 -0.064238 0.000000 0.000000
# 5 0.000000 0.000000 0.000000 0.000000 0.070940 0.000000
# 6 0.000000 0.000000 0.000000 0.000000 0.000000 -0.022065
#
#
# Mechanical properties :
#
#
# Convention : Reuss Voigt Hill
#
# Bulk Modulus (GPa) = 8.02070 32.96388 20.49229
# Shear Modulus (GPa) = 32.42170 2.22849 17.32510
#
# Velocity S-wave (km/s) = 4.14427 1.08651 3.02948
# Velocity P-wave (km/s) = 5.21045 4.36304 4.80546
#
# Compressibility (1/GPa) = 0.12467734
#
# Stress axis : x y z
#
# Youngs Moduli (GPa) = 77.73079 10.10968 68.63657
#
# Poissons Ratio (x) = 0.05305 0.47570
# Poissons Ratio (y) = 0.40789 -0.77848
# Poissons Ratio (z) = 0.53873 -0.11466
#
# Static dielectric constant tensor:
#      x y z
#    x 1.662480 0.000000 0.000000 
#    y 0.000000 1.681510 0.000000 
#    z 0.000000 0.000000 1.618770 
# 
# From -- ./inp_files/18551.got.cif
#   From: 2010.05.17/outbox.cif.g08.bks.cpg/sg51_10_cif.got.tgz:18551.got - 2010.06.03 11:52:47.
