data_PCOD9402701
_publ_section_title
;
Structure prediction by ZEFSAII (Michael W. Deem and Ramdas Pophale) SiO2 
 PCOD9402701
Probable space group: P M M A
;
_chemical_formula_sum "Si O2"
_cell_formula_units_Z 64
_cell_length_a 9.292171
_cell_length_b 17.734558
_cell_length_c 21.453346
_cell_angle_alpha 90.000000
_cell_angle_beta 90.000000
_cell_angle_gamma 90.000000
_cell_volume 3535.351498
_symmetry_space_group_name_H-M "P M M A"
_symmetry_group_IT_number 51
_symmetry_cell_setting 'orthorhombic'
loop_
_space_group_symop_operation_xyz
x,y,z
1/2-x,-y,z
1/2+x,-y,-z
-x,y,-z
-x,-y,-z
1/2+x,y,-z
1/2-x,y,z
x,-y,z
loop_
_atom_site_type_symbol
_atom_site_label
_atom_site_fract_x
_atom_site_fract_y
_atom_site_fract_z
Si Si1 0.918417 0.414930 0.086723
Si Si2 0.411986 0.363620 0.774886
Si Si3 0.918935 0.878380 0.563853
Si Si4 0.577245 0.785290 0.799614
Si Si5 0.916752 0.697494 0.561997
Si Si6 0.925035 0.915534 0.704026
Si Si7 0.077039 0.259061 0.061534
Si Si8 0.917912 0.417931 0.359564
O O1 0.750000 0.401987 0.068661
O O2 0.959129 0.500000 0.067845
O O3 0.925199 0.409710 0.161649
O O4 0.018420 0.345356 0.066577
O O5 0.250000 0.330723 0.774188
O O6 0.521156 0.294336 0.774151
O O7 0.426653 0.414837 0.714807
O O8 0.750000 0.898631 0.557660
O O9 0.929733 0.787489 0.568632
O O10 0.972596 0.906233 0.631626
O O11 0.000000 0.901500 0.500000
O O12 0.750000 0.786841 0.798287
O O13 0.525890 0.852341 0.753719
O O14 0.536677 0.783091 0.873435
O O15 0.750000 0.679010 0.557223
O O16 0.000000 0.674833 0.500000
O O17 0.990014 0.651198 0.616393
O O18 0.750000 0.909836 0.701467
O O19 0.962339 0.000000 0.724963
O O20 0.250000 0.258722 0.055561
O O21 0.000000 0.226734 0.000000
O O22 0.750000 0.408231 0.376845
O O23 0.966585 0.500000 0.382717
#
# Coordination Sequence:
#
# PCOD9402701 Si02
#       8
#     8   8   8   8   8   8   8   8
#     4   9  17  30  48  70  98 131 165 202 245 292
#     4   9  17  30  49  71  95 126 161 196 240 292
#     4   9  18  32  51  75 102 132 164 197 234 281
#     4   9  18  33  53  76  99 126 165 209 245 285
#     4  10  20  34  50  66  87 118 158 202 245 290
#     4   9  17  31  53  79 105 132 161 195 238 287
#     4  10  20  33  50  72  98 129 167 210 253 297
#     4  10  20  32  46  66  92 121 156 200 247 294
#
# _framework density 18.102868000000001
#
# number of rings (size 3 to 8) (size 9 to 14) (size 15 to 20)
#    0.000    2.625    0.000    1.875    0.000    5.250 
#    0.000    0.625    0.000    3.750    0.000    0.000 
#    0.000    0.000    0.000    0.000    0.000    0.375 
#
# Total GULP energy -356576.102459 kJ/mol
# GULP energy per Si atom -5571.501601 kJ/mol
# Density = 1.806167 g / cm^3
# Si number density = 18.102868 Si / 1000 Ang^3
#
#
#
# Elastic Constant Matrix: (Units=GPa)
#
#
# Indices 1 2 3 4 5 6 
#
# 1 33.2572 26.1192 33.0071 0.0000 0.0000 0.0000
# 2 26.1192 70.5599 47.4090 0.0000 0.0000 0.0000
# 3 33.0071 47.4090 105.1375 0.0000 0.0000 0.0000
# 4 0.0000 0.0000 0.0000 -2.1303 0.0000 0.0000
# 5 0.0000 0.0000 0.0000 0.0000 26.7482 0.0000
# 6 0.0000 0.0000 0.0000 0.0000 0.0000 9.0130
#
#
#
# Elastic Compliance Matrix: (Units=1/GPa)
#
#
# Indices 1 2 3 4 5 6 
#
# 1 0.049193 -0.011238 -0.010376 0.000000 0.000000 0.000000
# 2 -0.011238 0.022900 -0.006798 0.000000 0.000000 0.000000
# 3 -0.010376 -0.006798 0.015834 0.000000 0.000000 0.000000
# 4 0.000000 0.000000 0.000000 -0.469410 0.000000 0.000000
# 5 0.000000 0.000000 0.000000 0.000000 0.037386 0.000000
# 6 0.000000 0.000000 0.000000 0.000000 0.000000 0.110951
#
#
# Mechanical properties :
#
#
# Convention : Reuss Voigt Hill
#
# Bulk Modulus (GPa) = 32.15169 46.89167 39.52168
# Shear Modulus (GPa) = -30.12877 13.55412 -8.28733
#
# Velocity S-wave (km/s) = -4.08402 2.73926 -2.14193
# Velocity P-wave (km/s) = 2.10710 5.99699 3.97014
#
# Compressibility (1/GPa) = 0.03110257
#
# Stress axis : x y z
#
# Youngs Moduli (GPa) = 20.32809 43.66827 63.15405
#
# Poissons Ratio (x) = 0.49075 0.65530
# Poissons Ratio (y) = 0.22845 0.42932
# Poissons Ratio (z) = 0.21093 0.29686
#
# Static dielectric constant tensor:
#      x y z
#    x 1.619230 0.000000 0.000000 
#    y 0.000000 1.605820 0.000000 
#    z 0.000000 0.000000 1.666610 
# 
# From -- ./inp_files/32373.got.cif
#   From: 2010.05.17/outbox.cif.g08.bks.cpg/sg51_17_cif.got.tgz:32373.got - 2010.06.03 11:52:47.
