data_PCOD9402971
_publ_section_title
;
Structure prediction by ZEFSAII (Michael W. Deem and Ramdas Pophale) SiO2 
 PCOD9402971
Probable space group: P M M A
;
_chemical_formula_sum "Si O2"
_cell_formula_units_Z 44
_cell_length_a 7.483994
_cell_length_b 14.040256
_cell_length_c 19.350210
_cell_angle_alpha 90.000000
_cell_angle_beta 90.000000
_cell_angle_gamma 90.000000
_cell_volume 2033.265725
_symmetry_space_group_name_H-M "P M M A"
_symmetry_group_IT_number 51
_symmetry_cell_setting 'orthorhombic'
loop_
_space_group_symop_operation_xyz
x,y,z
1/2-x,-y,z
1/2+x,-y,-z
-x,y,-z
-x,-y,-z
1/2+x,y,-z
1/2-x,y,z
x,-y,z
loop_
_atom_site_type_symbol
_atom_site_label
_atom_site_fract_x
_atom_site_fract_y
_atom_site_fract_z
Si Si1 0.963794 0.100696 0.917864
Si Si2 0.464039 0.500000 0.581354
Si Si3 0.035807 0.894421 0.581756
Si Si4 0.966024 0.603750 0.780932
Si Si5 0.040992 0.698272 0.645209
Si Si6 0.035779 0.309616 0.080471
O O1 0.750000 0.101203 0.907231
O O2 0.033581 0.204425 0.898470
O O3 0.033093 0.000000 0.888822
O O4 0.000000 0.097996 0.000000
O O5 0.250000 0.500000 0.593258
O O6 0.500000 0.500000 0.500000
O O7 0.535085 0.399936 0.612583
O O8 0.250000 0.896753 0.591919
O O9 0.965811 0.799259 0.619363
O O10 0.000000 0.884497 0.500000
O O11 0.967763 0.000000 0.602945
O O12 0.750000 0.603628 0.780268
O O13 0.029051 0.500000 0.756705
O O14 0.025829 0.620297 0.859607
O O15 0.025403 0.683458 0.727234
O O16 0.250000 0.699611 0.625776
O O17 0.250000 0.306290 0.084588
O O18 0.000000 0.330831 0.000000
#
# Coordination Sequence:
#
# PCOD9402971 Si02
#       6
#     8   4   8   8   8   8
#     4   8  13  23  41  63  87 114 143 183 237 292
#     4  10  20  32  50  78 105 130 165 208 249 290
#     4   9  18  33  54  80 110 143 176 212 254 301
#     4  10  21  36  52  71  99 135 172 214 266 317
#     4  10  20  35  53  75 105 138 174 213 252 304
#     4   9  18  32  49  71  96 123 163 211 258 311
#
# _framework density 21.640065
#
# number of rings (size 3 to 8) (size 9 to 14) (size 15 to 20)
#    0.000    2.727    0.909    0.545    0.000    2.545 
#    0.000    0.909    0.000    1.091    0.000    5.091 
#    0.000    0.000    0.000    0.000    0.000    0.000 
#
# Total GULP energy -245148.221515 kJ/mol
# GULP energy per Si atom -5571.550489 kJ/mol
# Density = 2.159081 g / cm^3
# Si number density = 21.640065 Si / 1000 Ang^3
#
#
#
# Elastic Constant Matrix: (Units=GPa)
#
#
# Indices 1 2 3 4 5 6 
#
# 1 62.9255 12.1421 -8.8993 0.0000 0.0000 0.0000
# 2 12.1421 184.6350 75.0875 0.0000 0.0000 0.0000
# 3 -8.8993 75.0875 97.3121 0.0000 0.0000 0.0000
# 4 0.0000 0.0000 0.0000 47.5205 0.0000 0.0000
# 5 0.0000 0.0000 0.0000 0.0000 19.2324 0.0000
# 6 0.0000 0.0000 0.0000 0.0000 0.0000 -2.4090
#
#
#
# Elastic Compliance Matrix: (Units=1/GPa)
#
#
# Indices 1 2 3 4 5 6 
#
# 1 0.016875 -0.002532 0.003497 0.000000 0.000000 0.000000
# 2 -0.002532 0.008273 -0.006615 0.000000 0.000000 0.000000
# 3 0.003497 -0.006615 0.015700 0.000000 0.000000 0.000000
# 4 0.000000 0.000000 0.000000 0.021044 0.000000 0.000000
# 5 0.000000 0.000000 0.000000 0.000000 0.051996 0.000000
# 6 0.000000 0.000000 0.000000 0.000000 0.000000 -0.415112
#
#
# Mechanical properties :
#
#
# Convention : Reuss Voigt Hill
#
# Bulk Modulus (GPa) = 33.84324 55.72588 44.78456
# Shear Modulus (GPa) = -17.85229 30.63826 6.39299
#
# Velocity S-wave (km/s) = -2.87534 3.76681 1.72065
# Velocity P-wave (km/s) = 2.15632 6.68772 4.96867
#
# Compressibility (1/GPa) = 0.02954800
#
# Stress axis : x y z
#
# Youngs Moduli (GPa) = 59.25961 120.87873 63.69351
#
# Poissons Ratio (x) = 0.30604 -0.22273
# Poissons Ratio (y) = 0.15004 0.42133
# Poissons Ratio (z) = -0.20722 0.79960
#
# Static dielectric constant tensor:
#      x y z
#    x 1.862890 0.000000 0.000000 
#    y 0.000000 1.872140 0.000000 
#    z 0.000000 0.000000 1.734560 
# 
# From -- ./inp_files/27414.got.cif
#   From: 2010.05.17/outbox.cif.g08.bks.cpg/sg51_14_cif.got.tgz:27414.got - 2010.06.03 11:52:47.
