data_PCOD9402480
_publ_section_title
;
Structure prediction by ZEFSAII (Michael W. Deem and Ramdas Pophale) SiO2 
 PCOD9402480
Probable space group: P M M A
;
_chemical_formula_sum "Si O2"
_cell_formula_units_Z 64
_cell_length_a 25.102792
_cell_length_b 15.806198
_cell_length_c 8.468915
_cell_angle_alpha 90.000000
_cell_angle_beta 90.000000
_cell_angle_gamma 90.000000
_cell_volume 3360.293559
_symmetry_space_group_name_H-M "P M M A"
_symmetry_group_IT_number 51
_symmetry_cell_setting 'orthorhombic'
loop_
_space_group_symop_operation_xyz
x,y,z
1/2-x,-y,z
1/2+x,-y,-z
-x,y,-z
-x,-y,-z
1/2+x,y,-z
1/2-x,y,z
x,-y,z
loop_
_atom_site_type_symbol
_atom_site_label
_atom_site_fract_x
_atom_site_fract_y
_atom_site_fract_z
Si Si1 0.507783 0.665249 0.184054
Si Si2 0.120591 0.408109 0.853043
Si Si3 0.307599 0.260874 0.716910
Si Si4 0.147214 0.240125 0.397329
Si Si5 0.365369 0.096486 0.821658
Si Si6 0.452963 0.822858 0.609344
Si Si7 0.813046 0.097343 0.842066
Si Si8 0.892502 0.594148 0.773671
O O1 0.558852 0.604921 0.188489
O O2 0.520394 0.744421 0.296775
O O3 0.455292 0.615055 0.233211
O O4 0.500000 0.692714 0.000000
O O5 0.139735 0.500000 0.796702
O O6 0.151173 0.328359 0.783989
O O7 0.123575 0.406059 0.042327
O O8 0.250000 0.279895 0.783331
O O9 0.310138 0.263587 0.529514
O O10 0.324963 0.165900 0.755951
O O11 0.094088 0.209520 0.492242
O O12 0.168332 0.165976 0.284888
O O13 0.134855 0.326132 0.306192
O O14 0.422269 0.121618 0.743161
O O15 0.353327 0.000000 0.776997
O O16 0.353757 0.103376 0.009233
O O17 0.500000 0.861634 0.500000
O O18 0.750000 0.110955 0.885884
O O19 0.816332 0.000000 0.783724
O O20 0.881775 0.500000 0.708797
#
# Coordination Sequence:
#
# PCOD9402480 Si02
#       8
#     8   8   8   8   8   8   8   8
#     4  10  19  36  62  87 116 156 204 248 295 349
#     4  10  20  37  60  89 120 154 202 253 300 355
#     4  11  23  39  60  86 118 158 200 247 309 365
#     4  11  22  37  59  88 128 159 196 250 309 363
#     4  10  22  40  64  90 117 153 201 251 298 357
#     4  11  22  38  58  92 126 166 201 239 305 371
#     4  10  22  42  68  94 117 152 206 261 309 359
#     4  10  21  36  59  89 120 158 202 249 297 353
#
# _framework density 19.045954999999999
#
# number of rings (size 3 to 8) (size 9 to 14) (size 15 to 20)
#    0.000    1.625    3.750    1.875    1.750    5.250 
#    0.000    1.250    0.000    4.500    0.000    0.000 
#    0.000    0.000    0.000    0.000    0.000    0.000 
#
# Total GULP energy -356820.031084 kJ/mol
# GULP energy per Si atom -5575.312986 kJ/mol
# Density = 1.900261 g / cm^3
# Si number density = 19.045955 Si / 1000 Ang^3
#
#
#
# Elastic Constant Matrix: (Units=GPa)
#
#
# Indices 1 2 3 4 5 6 
#
# 1 80.7536 42.6329 33.3333 0.0000 0.0000 0.0000
# 2 42.6329 143.6145 64.5088 0.0000 0.0000 0.0000
# 3 33.3333 64.5088 57.2646 0.0000 0.0000 0.0000
# 4 0.0000 0.0000 0.0000 -94.9775 0.0000 0.0000
# 5 0.0000 0.0000 0.0000 0.0000 13.5457 0.0000
# 6 0.0000 0.0000 0.0000 0.0000 0.0000 46.6418
#
#
#
# Elastic Compliance Matrix: (Units=1/GPa)
#
#
# Indices 1 2 3 4 5 6 
#
# 1 0.016397 -0.001175 -0.008221 0.000000 0.000000 0.000000
# 2 -0.001175 0.014180 -0.015290 0.000000 0.000000 0.000000
# 3 -0.008221 -0.015290 0.039472 0.000000 0.000000 0.000000
# 4 0.000000 0.000000 0.000000 -0.010529 0.000000 0.000000
# 5 0.000000 0.000000 0.000000 0.000000 0.073824 0.000000
# 6 0.000000 0.000000 0.000000 0.000000 0.000000 0.021440
#
#
# Mechanical properties :
#
#
# Convention : Reuss Voigt Hill
#
# Bulk Modulus (GPa) = 48.36141 62.50918 55.43529
# Shear Modulus (GPa) = 23.69133 2.45252 13.07192
#
# Velocity S-wave (km/s) = 3.53073 1.13599 2.62264
# Velocity P-wave (km/s) = 6.48602 5.88320 6.19195
#
# Compressibility (1/GPa) = 0.02067764
#
# Stress axis : x y z
#
# Youngs Moduli (GPa) = 60.98646 70.52392 25.33437
#
# Poissons Ratio (x) = 0.08285 0.20828
# Poissons Ratio (y) = 0.07164 0.38735
# Poissons Ratio (z) = 0.50138 1.07828
#
# Static dielectric constant tensor:
#      x y z
#    x 1.694680 0.000000 0.000000 
#    y 0.000000 1.653340 0.000000 
#    z 0.000000 0.000000 1.690530 
# 
# From -- ./inp_files/11850.got.cif
#   From: 2010.05.17/outbox.cif.g08.bks.cpg/sg51_6_cif.got.tgz:11850.got - 2010.06.03 11:52:47.
