data_PCOD9402911
_publ_section_title
;
Structure prediction by ZEFSAII (Michael W. Deem and Ramdas Pophale) SiO2 
 PCOD9402911
Probable space group: P M M A
;
_chemical_formula_sum "Si O2"
_cell_formula_units_Z 64
_cell_length_a 26.351713
_cell_length_b 13.542139
_cell_length_c 10.436209
_cell_angle_alpha 90.000000
_cell_angle_beta 90.000000
_cell_angle_gamma 90.000000
_cell_volume 3724.250519
_symmetry_space_group_name_H-M "P M M A"
_symmetry_group_IT_number 51
_symmetry_cell_setting 'orthorhombic'
loop_
_space_group_symop_operation_xyz
x,y,z
1/2-x,-y,z
1/2+x,-y,-z
-x,y,-z
-x,-y,-z
1/2+x,y,-z
1/2-x,y,z
x,-y,z
loop_
_atom_site_type_symbol
_atom_site_label
_atom_site_fract_x
_atom_site_fract_y
_atom_site_fract_z
Si Si1 0.453467 0.119778 0.822841
Si Si2 0.567693 0.118797 0.898617
Si Si3 0.808745 0.309044 0.683246
Si Si4 0.382120 0.385866 0.528164
Si Si5 0.808207 0.379930 0.239093
Si Si6 0.137944 0.885638 0.340438
Si Si7 0.442211 0.806689 0.541296
Si Si8 0.188671 0.612718 0.040716
O O1 0.512289 0.149599 0.847225
O O2 0.435587 0.165059 0.689780
O O3 0.451368 0.000000 0.811905
O O4 0.425287 0.151188 0.954239
O O5 0.609627 0.140520 0.793019
O O6 0.564899 0.000000 0.905402
O O7 0.750000 0.337388 0.664373
O O8 0.846271 0.372398 0.595465
O O9 0.818161 0.195158 0.645908
O O10 0.822355 0.327085 0.831776
O O11 0.397217 0.500000 0.542482
O O12 0.346438 0.354928 0.647826
O O13 0.427526 0.307834 0.520516
O O14 0.750000 0.346522 0.262753
O O15 0.806359 0.500000 0.233404
O O16 0.826911 0.347202 0.098432
O O17 0.096584 0.867561 0.452009
O O18 0.153499 0.000000 0.338542
O O19 0.500000 0.827167 0.500000
O O20 0.250000 0.607951 0.031500
O O21 0.170079 0.500000 0.056560
#
# Coordination Sequence:
#
# PCOD9402911 Si02
#       8
#     8   8   8   8   8   8   8   8
#     4   9  16  28  49  74  97 121 155 198 239 279
#     4   8  15  28  47  72  97 122 154 194 238 280
#     4  10  20  32  49  73  97 126 162 195 236 287
#     4  10  21  34  48  69  95 126 163 201 243 288
#     4   8  14  27  48  71  93 117 148 191 240 283
#     4  10  20  33  49  71  99 128 159 196 238 284
#     4  11  21  32  49  71  94 126 164 201 241 286
#     4   8  14  26  46  71  95 118 147 187 232 275
#
# _framework density 17.184664999999999
#
# number of rings (size 3 to 8) (size 9 to 14) (size 15 to 20)
#    0.000    2.750    1.250    2.625    0.000    3.250 
#    0.000    0.000    0.000    0.000    0.000    1.750 
#    0.000    6.000    0.000    0.000    0.000    0.000 
#
# Total GULP energy -356405.062167 kJ/mol
# GULP energy per Si atom -5568.829096 kJ/mol
# Density = 1.714555 g / cm^3
# Si number density = 17.184665 Si / 1000 Ang^3
#
#
#
# Elastic Constant Matrix: (Units=GPa)
#
#
# Indices 1 2 3 4 5 6 
#
# 1 7.8401 -8.0774 -0.2137 0.0000 0.0000 0.0000
# 2 -8.0774 40.7567 -6.3164 0.0000 0.0000 0.0000
# 3 -0.2137 -6.3164 95.8684 0.0000 0.0000 0.0000
# 4 0.0000 0.0000 0.0000 -2.2700 0.0000 0.0000
# 5 0.0000 0.0000 0.0000 0.0000 14.1908 0.0000
# 6 0.0000 0.0000 0.0000 0.0000 0.0000 8.1885
#
#
#
# Elastic Compliance Matrix: (Units=1/GPa)
#
#
# Indices 1 2 3 4 5 6 
#
# 1 0.160859 0.032265 0.002484 0.000000 0.000000 0.000000
# 2 0.032265 0.031261 0.002132 0.000000 0.000000 0.000000
# 3 0.002484 0.002132 0.010577 0.000000 0.000000 0.000000
# 4 0.000000 0.000000 0.000000 -0.440521 0.000000 0.000000
# 5 0.000000 0.000000 0.000000 0.000000 0.070468 0.000000
# 6 0.000000 0.000000 0.000000 0.000000 0.000000 0.122123
#
#
# Mechanical properties :
#
#
# Convention : Reuss Voigt Hill
#
# Bulk Modulus (GPa) = 3.61718 12.80559 8.21139
# Shear Modulus (GPa) = -186.26935 14.62670 -85.82133
#
# Velocity S-wave (km/s) = -10.42248 2.92061 -7.07454
# Velocity P-wave (km/s) = 11.94688 4.34065 7.87041
#
# Compressibility (1/GPa) = 0.27645810
#
# Stress axis : x y z
#
# Youngs Moduli (GPa) = 6.21662 31.98919 94.54528
#
# Poissons Ratio (x) = -1.03213 -0.23488
# Poissons Ratio (y) = -0.20058 -0.20153
# Poissons Ratio (z) = -0.01544 -0.06819
#
# Static dielectric constant tensor:
#      x y z
#    x 1.578480 0.000000 0.000000 
#    y 0.000000 1.569930 0.000000 
#    z 0.000000 0.000000 1.618500 
# 
# From -- ./inp_files/13230.got.cif
#   From: 2010.05.17/outbox.cif.g08.bks.cpg/sg51_7_cif.got.tgz:13230.got - 2010.06.03 11:52:47.
