data_PCOD9402178
_publ_section_title
;
Structure prediction by ZEFSAII (Michael W. Deem and Ramdas Pophale) SiO2 
 PCOD9402178
Probable space group: P M M A
;
_chemical_formula_sum "Si O2"
_cell_formula_units_Z 64
_cell_length_a 26.101503
_cell_length_b 7.787196
_cell_length_c 14.967057
_cell_angle_alpha 90.000000
_cell_angle_beta 90.000000
_cell_angle_gamma 90.000000
_cell_volume 3042.166884
_symmetry_space_group_name_H-M "P M M A"
_symmetry_group_IT_number 51
_symmetry_cell_setting 'orthorhombic'
loop_
_space_group_symop_operation_xyz
x,y,z
1/2-x,-y,z
1/2+x,-y,-z
-x,y,-z
-x,-y,-z
1/2+x,y,-z
1/2-x,y,z
x,-y,z
loop_
_atom_site_type_symbol
_atom_site_label
_atom_site_fract_x
_atom_site_fract_y
_atom_site_fract_z
Si Si1 0.095414 0.204839 0.115333
Si Si2 0.978056 0.789982 0.594787
Si Si3 0.193015 0.296557 0.232378
Si Si4 0.992296 0.210761 0.213822
Si Si5 0.139087 0.207649 0.414408
Si Si6 0.901866 0.796620 0.086049
Si Si7 0.691042 0.792783 0.404360
Si Si8 0.808344 0.296255 0.205457
O O1 0.148231 0.232984 0.167510
O O2 0.046268 0.267504 0.170867
O O3 0.088631 0.000000 0.109631
O O4 0.096464 0.274811 0.014371
O O5 0.918934 0.736068 0.604012
O O6 0.000000 0.731829 0.500000
O O7 0.008949 0.735532 0.682719
O O8 0.978708 0.000000 0.593542
O O9 0.250000 0.224875 0.215351
O O10 0.195232 0.500000 0.220698
O O11 0.175942 0.259981 0.333911
O O12 0.945679 0.272176 0.152347
O O13 0.991466 0.000000 0.214345
O O14 0.158708 0.268386 0.510958
O O15 0.138610 0.000000 0.416161
O O16 0.847121 0.774175 0.132521
O O17 0.911771 0.000000 0.078721
O O18 0.750000 0.733030 0.412836
O O19 0.672566 0.741974 0.305986
O O20 0.691230 0.000000 0.407110
O O21 0.750000 0.227758 0.198543
O O22 0.806294 0.500000 0.194541
#
# Coordination Sequence:
#
# PCOD9402178 Si02
#       8
#     8   8   8   8   8   8   8   8
#     4  10  20  38  60  85 112 143 187 238 287 335
#     4   9  17  28  50  86 118 143 174 218 275 334
#     4  11  24  39  56  81 115 155 194 234 286 345
#     4   9  17  33  57  85 116 145 178 227 283 339
#     4  10  19  34  58  85 113 146 187 232 277 330
#     4  10  21  35  60  89 111 141 186 238 287 337
#     4   9  18  32  53  81 109 139 182 233 277 322
#     4  10  22  39  56  77 112 154 190 228 278 337
#
# _framework density 21.037635000000002
#
# number of rings (size 3 to 8) (size 9 to 14) (size 15 to 20)
#    0.000    2.250    1.250    1.500    1.750    5.250 
#    0.000    4.375    0.000    1.875    0.000    0.000 
#    0.000    0.000    0.000    0.000    0.000    0.000 
#
# Total GULP energy -357410.031639 kJ/mol
# GULP energy per Si atom -5584.531744 kJ/mol
# Density = 2.098975 g / cm^3
# Si number density = 21.037635 Si / 1000 Ang^3
#
#
#
# Elastic Constant Matrix: (Units=GPa)
#
#
# Indices 1 2 3 4 5 6 
#
# 1 98.1786 -3.0514 65.0188 0.0000 0.0000 0.0000
# 2 -3.0514 24.2182 0.1787 0.0000 0.0000 0.0000
# 3 65.0188 0.1787 174.8753 0.0000 0.0000 0.0000
# 4 0.0000 0.0000 0.0000 -37.8467 0.0000 0.0000
# 5 0.0000 0.0000 0.0000 0.0000 5.7699 0.0000
# 6 0.0000 0.0000 0.0000 0.0000 0.0000 470.4768
#
#
#
# Elastic Compliance Matrix: (Units=1/GPa)
#
#
# Indices 1 2 3 4 5 6 
#
# 1 0.013586 0.001749 -0.005053 0.000000 0.000000 0.000000
# 2 0.001749 0.041517 -0.000693 0.000000 0.000000 0.000000
# 3 -0.005053 -0.000693 0.007598 0.000000 0.000000 0.000000
# 4 0.000000 0.000000 0.000000 -0.026422 0.000000 0.000000
# 5 0.000000 0.000000 0.000000 0.000000 0.173314 0.000000
# 6 0.000000 0.000000 0.000000 0.000000 0.000000 0.002126
#
#
# Mechanical properties :
#
#
# Convention : Reuss Voigt Hill
#
# Bulk Modulus (GPa) = 18.27911 46.84047 32.55979
# Shear Modulus (GPa) = 21.01302 103.35506 62.18404
#
# Velocity S-wave (km/s) = 3.16386 7.01679 5.44267
# Velocity P-wave (km/s) = 4.69620 9.37873 7.41670
#
# Compressibility (1/GPa) = 0.05470725
#
# Stress axis : x y z
#
# Youngs Moduli (GPa) = 73.60318 24.08670 131.61602
#
# Poissons Ratio (x) = -0.04213 0.66508
# Poissons Ratio (y) = -0.12874 0.09118
# Poissons Ratio (z) = 0.37193 0.01669
#
# Static dielectric constant tensor:
#      x y z
#    x 1.764160 0.000000 0.000000 
#    y 0.000000 1.773240 0.000000 
#    z 0.000000 0.000000 1.739200 
# 
# From -- ./inp_files/26295.got.cif
#   From: 2010.05.17/outbox.cif.g08.bks.cpg/sg51_14_cif.got.tgz:26295.got - 2010.06.03 11:52:47.
