data_PCOD9402028
_publ_section_title
;
Structure prediction by ZEFSAII (Michael W. Deem and Ramdas Pophale) SiO2 
 PCOD9402028
Probable space group: P M M A
;
_chemical_formula_sum "Si O2"
_cell_formula_units_Z 48
_cell_length_a 28.813686
_cell_length_b 7.806483
_cell_length_c 10.273357
_cell_angle_alpha 90.000000
_cell_angle_beta 90.000000
_cell_angle_gamma 90.000000
_cell_volume 2310.822660
_symmetry_space_group_name_H-M "P M M A"
_symmetry_group_IT_number 51
_symmetry_cell_setting 'orthorhombic'
loop_
_space_group_symop_operation_xyz
x,y,z
1/2-x,-y,z
1/2+x,-y,-z
-x,y,-z
-x,-y,-z
1/2+x,y,-z
1/2-x,y,z
x,-y,z
loop_
_atom_site_type_symbol
_atom_site_label
_atom_site_fract_x
_atom_site_fract_y
_atom_site_fract_z
Si Si1 0.198369 0.707854 0.644762
Si Si2 0.951352 0.197730 0.446392
Si Si3 0.301315 0.202156 0.340696
Si Si4 0.598398 0.300278 0.699394
Si Si5 0.552063 0.289745 0.964303
Si Si6 0.608786 0.699780 0.207947
O O1 0.250000 0.754590 0.691652
O O2 0.195525 0.500000 0.639377
O O3 0.194103 0.769446 0.496192
O O4 0.156276 0.773907 0.733020
O O5 0.915820 0.207789 0.566625
O O6 0.929543 0.288433 0.321921
O O7 0.000000 0.269275 0.500000
O O8 0.959058 0.000000 0.409585
O O9 0.250000 0.268934 0.303467
O O10 0.346695 0.282826 0.276720
O O11 0.302322 0.000000 0.315212
O O12 0.587628 0.500000 0.679027
O O13 0.569084 0.235649 0.822082
O O14 0.552542 0.500000 0.964636
O O15 0.500000 0.236725 0.000000
O O16 0.587190 0.227895 0.076122
O O17 0.618192 0.500000 0.181938
#
# Coordination Sequence:
#
# PCOD9402028 Si02
#       6
#     8   8   8   8   8   8
#     4   9  17  30  51  80 109 136 173 222 274 327
#     4  11  23  36  52  78 110 141 180 231 279 327
#     4  10  20  34  54  80 112 147 181 222 273 326
#     4  11  21  35  57  83 110 145 185 228 275 325
#     4   9  19  35  54  78 110 146 185 227 273 327
#     4  10  19  34  56  80 105 140 182 226 277 327
#
# _framework density 20.771823999999999
#
# number of rings (size 3 to 8) (size 9 to 14) (size 15 to 20)
#    0.000    2.000    1.667    2.500    0.000    3.667 
#    0.000    2.500    0.000    7.500    0.000    2.333 
#    0.000    0.000    0.000    0.000    0.000    0.000 
#
# Total GULP energy -268043.776559 kJ/mol
# GULP energy per Si atom -5584.245345 kJ/mol
# Density = 2.072455 g / cm^3
# Si number density = 20.771824 Si / 1000 Ang^3
#
#
#
# Elastic Constant Matrix: (Units=GPa)
#
#
# Indices 1 2 3 4 5 6 
#
# 1 77.5824 -3.1614 -22.0706 0.0000 0.0000 0.0000
# 2 -3.1614 31.0359 -4.2632 0.0000 0.0000 0.0000
# 3 -22.0706 -4.2632 35.9690 0.0000 0.0000 0.0000
# 4 0.0000 0.0000 0.0000 34.8643 0.0000 0.0000
# 5 0.0000 0.0000 0.0000 0.0000 35.3073 0.0000
# 6 0.0000 0.0000 0.0000 0.0000 0.0000 21.4493
#
#
#
# Elastic Compliance Matrix: (Units=1/GPa)
#
#
# Indices 1 2 3 4 5 6 
#
# 1 0.015886 0.003006 0.010104 0.000000 0.000000 0.000000
# 2 0.003006 0.033323 0.005794 0.000000 0.000000 0.000000
# 3 0.010104 0.005794 0.034688 0.000000 0.000000 0.000000
# 4 0.000000 0.000000 0.000000 0.028683 0.000000 0.000000
# 5 0.000000 0.000000 0.000000 0.000000 0.028323 0.000000
# 6 0.000000 0.000000 0.000000 0.000000 0.000000 0.046622
#
#
# Mechanical properties :
#
#
# Convention : Reuss Voigt Hill
#
# Bulk Modulus (GPa) = 8.21644 9.51076 8.86360
# Shear Modulus (GPa) = 26.27644 29.92968 28.10306
#
# Velocity S-wave (km/s) = 3.56055 3.80001 3.68223
# Velocity P-wave (km/s) = 4.56810 4.88283 4.72808
#
# Compressibility (1/GPa) = 0.12170714
#
# Stress axis : x y z
#
# Youngs Moduli (GPa) = 62.94664 30.00943 28.82805
#
# Poissons Ratio (x) = -0.09022 -0.29129
# Poissons Ratio (y) = -0.18923 -0.16704
# Poissons Ratio (z) = -0.63603 -0.17388
#
# Static dielectric constant tensor:
#      x y z
#    x 1.785740 0.000000 0.000000 
#    y 0.000000 1.767840 0.000000 
#    z 0.000000 0.000000 1.696450 
# 
# From -- ./inp_files/12857.got.cif
#   From: 2010.05.17/outbox.cif.g08.bks.cpg/sg51_7_cif.got.tgz:12857.got - 2010.06.03 11:52:47.
