data_PCOD9402542
_publ_section_title
;
Structure prediction by ZEFSAII (Michael W. Deem and Ramdas Pophale) SiO2 
 PCOD9402542
Probable space group: P M M A
;
_chemical_formula_sum "Si O2"
_cell_formula_units_Z 64
_cell_length_a 14.289648
_cell_length_b 7.692197
_cell_length_c 24.115291
_cell_angle_alpha 90.000000
_cell_angle_beta 90.000000
_cell_angle_gamma 90.000000
_cell_volume 2650.723546
_symmetry_space_group_name_H-M "P M M A"
_symmetry_group_IT_number 51
_symmetry_cell_setting 'orthorhombic'
loop_
_space_group_symop_operation_xyz
x,y,z
1/2-x,-y,z
1/2+x,-y,-z
-x,y,-z
-x,-y,-z
1/2+x,y,-z
1/2-x,y,z
x,-y,z
loop_
_atom_site_type_symbol
_atom_site_label
_atom_site_fract_x
_atom_site_fract_y
_atom_site_fract_z
Si Si1 0.935638 0.295304 0.246982
Si Si2 0.149893 0.799840 0.394993
Si Si3 0.609445 0.712378 0.008744
Si Si4 0.895929 0.701901 0.127521
Si Si5 0.109579 0.699147 0.515178
Si Si6 0.120198 0.297749 0.110745
Si Si7 0.350734 0.801602 0.231447
Si Si8 0.061463 0.293948 0.632739
O O1 0.912480 0.500000 0.246661
O O2 0.890794 0.221855 0.189872
O O3 0.049441 0.284205 0.244585
O O4 0.909659 0.221757 0.307287
O O5 0.250000 0.722444 0.376824
O O6 0.150458 0.792442 0.461958
O O7 0.051444 0.721984 0.374864
O O8 0.147575 0.000000 0.378046
O O9 0.617246 0.500000 0.010046
O O10 0.642473 0.775826 0.069183
O O11 0.500000 0.753892 0.000000
O O12 0.649823 0.768208 0.949604
O O13 0.864836 0.500000 0.130698
O O14 0.007285 0.701336 0.115548
O O15 0.144002 0.500000 0.515907
O O16 0.000000 0.691114 0.500000
O O17 0.111415 0.776081 0.577146
O O18 0.147637 0.500000 0.115868
O O19 0.152515 0.199591 0.164748
O O20 0.250000 0.727001 0.250038
O O21 0.356361 0.000000 0.250957
O O22 0.081156 0.500000 0.632749
#
# Coordination Sequence:
#
# PCOD9402542 Si02
#       8
#     8   8   8   8   8   8   8   8
#     4   9  17  29  44  59  76 103 138 169 195 234
#     4  10  20  31  44  65  90 114 143 177 210 247
#     4   7   9  15  31  54  73  87 109 144 184 225
#     4   7  10  18  34  55  75  93 115 147 187 227
#     4   8  15  29  47  65  86 111 138 171 212 255
#     4   8  13  22  37  53  67  89 123 158 191 232
#     4  10  20  30  37  48  72 105 137 171 209 242
#     4   9  18  31  46  65  87 112 144 177 209 251
#
# _framework density 24.144349999999999
#
# number of rings (size 3 to 8) (size 9 to 14) (size 15 to 20)
#    0.000    3.500    0.000    3.750    0.000    5.250 
#    0.000    2.500    0.000    9.375    0.000    0.000 
#    0.000    1.000    0.000   12.500    0.000    4.375 
#
# Total GULP energy -356392.821411 kJ/mol
# GULP energy per Si atom -5568.637835 kJ/mol
# Density = 2.408940 g / cm^3
# Si number density = 24.144350 Si / 1000 Ang^3
#
#
#
# Elastic Constant Matrix: (Units=GPa)
#
#
# Indices 1 2 3 4 5 6 
#
# 1 50.1795 -4.6834 3.6951 0.0000 0.0000 0.0000
# 2 -4.6834 43.8562 16.9097 0.0000 0.0000 0.0000
# 3 3.6951 16.9097 274.7632 0.0000 0.0000 0.0000
# 4 0.0000 0.0000 0.0000 -151.1783 0.0000 0.0000
# 5 0.0000 0.0000 0.0000 0.0000 36.5844 0.0000
# 6 0.0000 0.0000 0.0000 0.0000 0.0000 -1.3208
#
#
#
# Elastic Compliance Matrix: (Units=1/GPa)
#
#
# Indices 1 2 3 4 5 6 
#
# 1 0.020175 0.002314 -0.000414 0.000000 0.000000 0.000000
# 2 0.002314 0.023621 -0.001485 0.000000 0.000000 0.000000
# 3 -0.000414 -0.001485 0.003736 0.000000 0.000000 0.000000
# 4 0.000000 0.000000 0.000000 -0.006615 0.000000 0.000000
# 5 0.000000 0.000000 0.000000 0.000000 0.027334 0.000000
# 6 0.000000 0.000000 0.000000 0.000000 0.000000 -0.757123
#
#
# Mechanical properties :
#
#
# Convention : Reuss Voigt Hill
#
# Bulk Modulus (GPa) = 20.67673 44.51576 32.59624
# Shear Modulus (GPa) = -7.42302 0.34222 -3.54040
#
# Velocity S-wave (km/s) = -1.75531 0.37689 -1.21224
# Velocity P-wave (km/s) = 2.11524 4.32050 3.40154
#
# Compressibility (1/GPa) = 0.04836355
#
# Stress axis : x y z
#
# Youngs Moduli (GPa) = 49.56660 42.33447 267.63424
#
# Poissons Ratio (x) = -0.09796 0.11073
# Poissons Ratio (y) = -0.11470 0.39740
# Poissons Ratio (z) = 0.02051 0.06286
#
# Static dielectric constant tensor:
#      x y z
#    x 1.954470 0.000000 0.000000 
#    y 0.000000 1.862760 0.000000 
#    z 0.000000 0.000000 2.018350 
# 
# From -- ./inp_files/35959.got.cif
#   From: 2010.05.17/outbox.cif.g08.bks.cpg/sg51_18_cif.got.tgz:35959.got - 2010.06.03 11:52:47.
