data_PCOD9402504
_publ_section_title
;
Structure prediction by ZEFSAII (Michael W. Deem and Ramdas Pophale) SiO2 
 PCOD9402504
Probable space group: P M M A
;
_chemical_formula_sum "Si O2"
_cell_formula_units_Z 58
_cell_length_a 29.394641
_cell_length_b 8.881653
_cell_length_c 12.094689
_cell_angle_alpha 90.000000
_cell_angle_beta 90.000000
_cell_angle_gamma 90.000000
_cell_volume 3157.596758
_symmetry_space_group_name_H-M "P M M A"
_symmetry_group_IT_number 51
_symmetry_cell_setting 'orthorhombic'
loop_
_space_group_symop_operation_xyz
x,y,z
1/2-x,-y,z
1/2+x,-y,-z
-x,y,-z
-x,-y,-z
1/2+x,y,-z
1/2-x,y,z
x,-y,z
loop_
_atom_site_type_symbol
_atom_site_label
_atom_site_fract_x
_atom_site_fract_y
_atom_site_fract_z
Si Si1 0.517252 0.679251 0.723848
Si Si2 0.339716 0.166002 0.293311
Si Si3 0.302846 0.680610 0.075929
Si Si4 0.125361 0.679249 0.897511
Si Si5 0.049822 0.177074 0.055148
Si Si6 0.918322 0.178817 0.308349
Si Si7 0.408912 0.677776 0.455216
Si Si8 0.750000 0.000000 0.644913
O O1 0.514143 0.500000 0.741656
O O2 0.545721 0.753076 0.823193
O O3 0.467323 0.749931 0.720902
O O4 0.543721 0.705316 0.609216
O O5 0.329707 0.238105 0.174385
O O6 0.369843 0.269978 0.371038
O O7 0.290608 0.128548 0.346470
O O8 0.362024 0.000000 0.280464
O O9 0.250000 0.726986 0.077435
O O10 0.305114 0.500000 0.092688
O O11 0.327528 0.713675 0.960112
O O12 0.121630 0.500000 0.882923
O O13 0.117321 0.759952 0.781363
O O14 0.085938 0.736092 0.980149
O O15 0.060917 0.000000 0.058525
O O16 0.000000 0.192584 0.000000
O O17 0.906348 0.231159 0.431530
O O18 0.921431 0.000000 0.300890
O O19 0.405835 0.500000 0.478317
#
# Coordination Sequence:
#
# PCOD9402504 Si02
#       8
#     8   8   8   8   8   8   8   2
#     4  11  23  39  60  86 119 156 199 245 293 347
#     4  10  19  37  60  91 122 151 187 237 291 351
#     4  10  20  37  62  91 121 150 189 240 295 355
#     4  11  23  38  60  85 116 159 199 242 297 352
#     4  11  22  36  56  86 119 154 194 240 287 347
#     4  12  25  41  59  83 116 159 202 245 294 349
#     4  11  24  40  61  88 117 155 201 244 292 349
#     4   8  20  36  62  92 124 154 186 234 310 350
#
# _framework density 18.368399
#
# number of rings (size 3 to 8) (size 9 to 14) (size 15 to 20)
#    0.414    0.828    2.069    4.552    0.000    8.828 
#    0.000    0.000    1.517    0.000    0.000    0.000 
#    0.000    0.000    0.000    0.000    0.000    0.000 
#
# Total GULP energy -323581.531576 kJ/mol
# GULP energy per Si atom -5578.991924 kJ/mol
# Density = 1.832659 g / cm^3
# Si number density = 18.368399 Si / 1000 Ang^3
#
#
#
# Elastic Constant Matrix: (Units=GPa)
#
#
# Indices 1 2 3 4 5 6 
#
# 1 33.5069 11.8071 15.5832 0.0000 0.0000 0.0000
# 2 11.8071 63.0707 34.5552 0.0000 0.0000 0.0000
# 3 15.5832 34.5552 102.6837 0.0000 0.0000 0.0000
# 4 0.0000 0.0000 0.0000 63.0437 0.0000 0.0000
# 5 0.0000 0.0000 0.0000 0.0000 12.9698 0.0000
# 6 0.0000 0.0000 0.0000 0.0000 0.0000 9.6319
#
#
#
# Elastic Compliance Matrix: (Units=1/GPa)
#
#
# Indices 1 2 3 4 5 6 
#
# 1 0.032998 -0.004210 -0.003591 0.000000 0.000000 0.000000
# 2 -0.004210 0.019976 -0.006084 0.000000 0.000000 0.000000
# 3 -0.003591 -0.006084 0.012331 0.000000 0.000000 0.000000
# 4 0.000000 0.000000 0.000000 0.015862 0.000000 0.000000
# 5 0.000000 0.000000 0.000000 0.000000 0.077102 0.000000
# 6 0.000000 0.000000 0.000000 0.000000 0.000000 0.103822
#
#
# Mechanical properties :
#
#
# Convention : Reuss Voigt Hill
#
# Bulk Modulus (GPa) = 26.64082 35.90580 31.27331
# Shear Modulus (GPa) = 16.53586 26.28346 21.40966
#
# Velocity S-wave (km/s) = 3.00365 3.78684 3.41775
# Velocity P-wave (km/s) = 5.15405 6.22175 5.71290
#
# Compressibility (1/GPa) = 0.03753638
#
# Stress axis : x y z
#
# Youngs Moduli (GPa) = 30.30467 50.05899 81.09720
#
# Poissons Ratio (x) = 0.21074 0.29122
# Poissons Ratio (y) = 0.12758 0.49336
# Poissons Ratio (z) = 0.10883 0.30454
#
# Static dielectric constant tensor:
#      x y z
#    x 1.627010 0.000000 0.000000 
#    y 0.000000 1.617170 0.000000 
#    z 0.000000 0.000000 1.623500 
# 
# From -- ./inp_files/19162.got.cif
#   From: 2010.05.17/outbox.cif.g08.bks.cpg/sg51_10_cif.got.tgz:19162.got - 2010.06.03 11:52:47.
