data_PCOD9402660
_publ_section_title
;
Structure prediction by ZEFSAII (Michael W. Deem and Ramdas Pophale) SiO2 
 PCOD9402660
Probable space group: P M M A
;
_chemical_formula_sum "Si O2"
_cell_formula_units_Z 48
_cell_length_a 9.385813
_cell_length_b 7.357267
_cell_length_c 32.570675
_cell_angle_alpha 90.000000
_cell_angle_beta 90.000000
_cell_angle_gamma 90.000000
_cell_volume 2249.133185
_symmetry_space_group_name_H-M "P M M A"
_symmetry_group_IT_number 51
_symmetry_cell_setting 'orthorhombic'
loop_
_space_group_symop_operation_xyz
x,y,z
1/2-x,-y,z
1/2+x,-y,-z
-x,y,-z
-x,-y,-z
1/2+x,y,-z
1/2-x,y,z
x,-y,z
loop_
_atom_site_type_symbol
_atom_site_label
_atom_site_fract_x
_atom_site_fract_y
_atom_site_fract_z
Si Si1 0.086003 0.722122 0.378544
Si Si2 0.085629 0.721699 0.540466
Si Si3 0.084775 0.777772 0.039995
Si Si4 0.587250 0.218567 0.781719
Si Si5 0.910720 0.284262 0.299880
Si Si6 0.076489 0.212220 0.129068
O O1 0.250000 0.780500 0.380383
O O2 0.087602 0.500000 0.378414
O O3 0.996674 0.777957 0.418439
O O4 0.008337 0.784811 0.337056
O O5 0.250000 0.780066 0.540026
O O6 0.086675 0.500000 0.540337
O O7 0.000000 0.779085 0.500000
O O8 0.250000 0.726544 0.036203
O O9 0.030307 0.714046 0.084752
O O10 0.080273 0.000000 0.040882
O O11 0.000000 0.718005 0.000000
O O12 0.750000 0.282368 0.774303
O O13 0.486689 0.259386 0.743718
O O14 0.535342 0.287642 0.826368
O O15 0.594513 0.000000 0.785174
O O16 0.750000 0.210999 0.300323
O O17 0.900275 0.500000 0.306559
O O18 0.250000 0.219371 0.128757
O O19 0.034949 0.000000 0.129019
#
# Coordination Sequence:
#
# PCOD9402660 Si02
#       6
#     8   8   8   8   8   8
#     4   9  16  26  40  57  78 107 143 180 217 257
#     4   9  15  22  33  51  77 108 140 173 211 257
#     4   8  12  18  29  46  70 100 131 161 195 239
#     4   9  17  30  48  67  86 112 148 186 221 259
#     4  10  20  32  45  63  89 119 148 180 221 267
#     4   7  11  21  36  53  75 104 135 167 206 250
#
# _framework density 21.341553999999999
#
# number of rings (size 3 to 8) (size 9 to 14) (size 15 to 20)
#    0.000    3.333    0.000    3.500    0.000    5.333 
#    0.000    0.833    0.000    3.000    0.000    0.000 
#    0.000    1.333    0.000    4.000    0.000    9.833 
#
# Total GULP energy -267747.275826 kJ/mol
# GULP energy per Si atom -5578.068246 kJ/mol
# Density = 2.129298 g / cm^3
# Si number density = 21.341554 Si / 1000 Ang^3
#
#
#
# Elastic Constant Matrix: (Units=GPa)
#
#
# Indices 1 2 3 4 5 6 
#
# 1 159.0406 5.4648 132.2111 0.0000 0.0000 0.0000
# 2 5.4648 77.6777 4.3676 0.0000 0.0000 0.0000
# 3 132.2111 4.3676 261.8414 0.0000 0.0000 0.0000
# 4 0.0000 0.0000 0.0000 6.3304 0.0000 0.0000
# 5 0.0000 0.0000 0.0000 0.0000 37.2708 0.0000
# 6 0.0000 0.0000 0.0000 0.0000 0.0000 -3.4898
#
#
#
# Elastic Compliance Matrix: (Units=1/GPa)
#
#
# Indices 1 2 3 4 5 6 
#
# 1 0.010852 -0.000456 -0.005472 0.000000 0.000000 0.000000
# 2 -0.000456 0.012905 0.000015 0.000000 0.000000 0.000000
# 3 -0.005472 0.000015 0.006582 0.000000 0.000000 0.000000
# 4 0.000000 0.000000 0.000000 0.157969 0.000000 0.000000
# 5 0.000000 0.000000 0.000000 0.000000 0.026831 0.000000
# 6 0.000000 0.000000 0.000000 0.000000 0.000000 -0.286548
#
#
# Mechanical properties :
#
#
# Convention : Reuss Voigt Hill
#
# Bulk Modulus (GPa) = 54.01558 86.96075 70.48817
# Shear Modulus (GPa) = -93.61022 31.79003 -30.91009
#
# Velocity S-wave (km/s) = -6.63009 3.86370 -3.80985
# Velocity P-wave (km/s) = 5.76592 7.79358 3.70770
#
# Compressibility (1/GPa) = 0.01851318
#
# Stress axis : x y z
#
# Youngs Moduli (GPa) = 92.14663 77.48975 151.93342
#
# Poissons Ratio (x) = 0.03532 0.83138
# Poissons Ratio (y) = 0.04200 -0.00226
# Poissons Ratio (z) = 0.50423 -0.00115
#
# Static dielectric constant tensor:
#      x y z
#    x 1.717920 0.000000 0.000000 
#    y 0.000000 1.960760 0.000000 
#    z 0.000000 0.000000 1.771350 
# 
# From -- ./inp_files/37306.got.cif
#   From: 2010.05.17/outbox.cif.g08.bks.cpg/sg51_19_cif.got.tgz:37306.got - 2010.06.03 11:52:47.
