data_PCOD9402578
_publ_section_title
;
Structure prediction by ZEFSAII (Michael W. Deem and Ramdas Pophale) SiO2 
 PCOD9402578
Probable space group: P M M A
;
_chemical_formula_sum "Si O2"
_cell_formula_units_Z 48
_cell_length_a 14.187262
_cell_length_b 7.442182
_cell_length_c 18.500586
_cell_angle_alpha 90.000000
_cell_angle_beta 90.000000
_cell_angle_gamma 90.000000
_cell_volume 1953.369311
_symmetry_space_group_name_H-M "P M M A"
_symmetry_group_IT_number 51
_symmetry_cell_setting 'orthorhombic'
loop_
_space_group_symop_operation_xyz
x,y,z
1/2-x,-y,z
1/2+x,-y,-z
-x,y,-z
-x,-y,-z
1/2+x,y,-z
1/2-x,y,z
x,-y,z
loop_
_atom_site_type_symbol
_atom_site_label
_atom_site_fract_x
_atom_site_fract_y
_atom_site_fract_z
Si Si1 0.888618 0.293648 0.015411
Si Si2 0.148752 0.795900 0.143393
Si Si3 0.110145 0.705333 0.521516
Si Si4 0.150297 0.719907 0.365214
Si Si5 0.068454 0.709740 0.831169
Si Si6 0.440490 0.721046 0.674824
O O1 0.855068 0.500000 0.015622
O O2 0.884369 0.213632 0.096071
O O3 0.849401 0.202664 0.944175
O O4 0.000000 0.299760 0.000000
O O5 0.250000 0.713065 0.165837
O O6 0.046694 0.715408 0.163495
O O7 0.146087 0.000000 0.169622
O O8 0.144369 0.500000 0.526959
O O9 0.151940 0.784077 0.448574
O O10 0.000000 0.697577 0.500000
O O11 0.112926 0.782491 0.602205
O O12 0.250000 0.773359 0.331014
O O13 0.147435 0.500000 0.366311
O O14 0.050794 0.775151 0.331778
O O15 0.093741 0.500000 0.832411
O O16 0.095730 0.781648 0.752660
O O17 0.438850 0.500000 0.673357
#
# Coordination Sequence:
#
# PCOD9402578 Si02
#       6
#     8   8   8   8   8   8
#     4   8  15  28  44  61  80 104 136 169 199 236
#     4  10  20  31  43  61  83 106 133 165 202 245
#     4   7  10  17  28  42  65  98 130 158 188 220
#     4   8  12  17  27  46  72 102 134 162 188 224
#     4   9  17  28  43  63  84 107 136 168 203 244
#     4   8  13  21  33  50  74 103 131 159 194 235
#
# _framework density 24.572927
#
# number of rings (size 3 to 8) (size 9 to 14) (size 15 to 20)
#    0.000    3.667    0.000    3.500    0.000    5.000 
#    0.000    1.667    0.000    1.000    0.000    4.667 
#    0.000    6.000    0.000    0.333    0.000    2.167 
#
# Total GULP energy -267380.985605 kJ/mol
# GULP energy per Si atom -5570.437200 kJ/mol
# Density = 2.451700 g / cm^3
# Si number density = 24.572927 Si / 1000 Ang^3
#
#
#
# Elastic Constant Matrix: (Units=GPa)
#
#
# Indices 1 2 3 4 5 6 
#
# 1 47.2560 -8.3199 -12.4260 0.0000 0.0000 0.0000
# 2 -8.3199 75.3619 1.2718 0.0000 0.0000 0.0000
# 3 -12.4260 1.2718 194.1565 0.0000 0.0000 0.0000
# 4 0.0000 0.0000 0.0000-4247.5175 0.0000 0.0000
# 5 0.0000 0.0000 0.0000 0.0000 -7.1028 0.0000
# 6 0.0000 0.0000 0.0000 0.0000 0.0000-2074.7143
#
#
#
# Elastic Compliance Matrix: (Units=1/GPa)
#
#
# Indices 1 2 3 4 5 6 
#
# 1 0.021949 0.002400 0.001389 0.000000 0.000000 0.000000
# 2 0.002400 0.013533 0.000065 0.000000 0.000000 0.000000
# 3 0.001389 0.000065 0.005239 0.000000 0.000000 0.000000
# 4 0.000000 0.000000 0.000000 -0.000235 0.000000 0.000000
# 5 0.000000 0.000000 0.000000 0.000000 -0.140789 0.000000
# 6 0.000000 0.000000 0.000000 0.000000 0.000000 -0.000482
#
#
# Mechanical properties :
#
#
# Convention : Reuss Voigt Hill
#
# Bulk Modulus (GPa) = 20.64899 30.86958 25.75928
# Shear Modulus (GPa) = -54.14182 -1243.45035 -648.79609
#
# Velocity S-wave (km/s) = -4.69904 -22.51939 -16.26659
# Velocity P-wave (km/s) = 4.58474 25.75994 18.50127
#
# Compressibility (1/GPa) = 0.04842853
#
# Stress axis : x y z
#
# Youngs Moduli (GPa) = 45.55998 73.89270 190.87768
#
# Poissons Ratio (x) = -0.17732 -0.26513
# Poissons Ratio (y) = -0.10933 -0.01239
# Poissons Ratio (z) = -0.06328 -0.00480
#
# Static dielectric constant tensor:
#      x y z
#    x 1.960000 0.000000 0.000000 
#    y 0.000000 1.938510 0.000000 
#    z 0.000000 0.000000 2.000880 
# 
# From -- ./inp_files/33647.got.cif
#   From: 2010.05.17/outbox.cif.g08.bks.cpg/sg51_17_cif.got.tgz:33647.got - 2010.06.03 11:52:47.
