data_PCOD9402648
_publ_section_title
;
Structure prediction by ZEFSAII (Michael W. Deem and Ramdas Pophale) SiO2 
 PCOD9402648
Probable space group: P M M A
;
_chemical_formula_sum "Si O2"
_cell_formula_units_Z 44
_cell_length_a 8.368525
_cell_length_b 16.966831
_cell_length_c 16.509254
_cell_angle_alpha 90.000000
_cell_angle_beta 90.000000
_cell_angle_gamma 90.000000
_cell_volume 2344.105216
_symmetry_space_group_name_H-M "P M M A"
_symmetry_group_IT_number 51
_symmetry_cell_setting 'orthorhombic'
loop_
_space_group_symop_operation_xyz
x,y,z
1/2-x,-y,z
1/2+x,-y,-z
-x,y,-z
-x,-y,-z
1/2+x,y,-z
1/2-x,y,z
x,-y,z
loop_
_atom_site_type_symbol
_atom_site_label
_atom_site_fract_x
_atom_site_fract_y
_atom_site_fract_z
Si Si1 0.058396 0.263087 0.414451
Si Si2 0.439632 0.307258 0.760481
Si Si3 0.061676 0.085622 0.387345
Si Si4 0.558881 0.591027 0.912046
Si Si5 0.559266 0.000000 0.089228
Si Si6 0.441948 0.874278 0.784246
O O1 0.250000 0.259811 0.413448
O O2 0.994385 0.171580 0.412748
O O3 0.000000 0.297702 0.500000
O O4 0.004796 0.307489 0.332251
O O5 0.250000 0.318473 0.755644
O O6 0.505260 0.364056 0.830617
O O7 0.473915 0.218042 0.789423
O O8 0.250000 0.085305 0.407424
O O9 0.035519 0.090408 0.291425
O O10 0.992912 0.000000 0.413276
O O11 0.750000 0.591811 0.914143
O O12 0.502254 0.500000 0.907022
O O13 0.500000 0.622642 0.000000
O O14 0.508602 0.077486 0.137548
O O15 0.750000 0.000000 0.089408
O O16 0.500000 0.000000 0.000000
O O17 0.250000 0.884550 0.770272
#
# Coordination Sequence:
#
# PCOD9402648 Si02
#       6
#     8   8   8   8   4   8
#     4  10  20  34  51  75 108 145 187 233 279 330
#     4  10  20  35  57  83 110 144 184 226 276 330
#     4   9  17  29  47  69  94 128 173 224 276 325
#     4  10  21  38  61  89 119 148 178 217 268 326
#     4  10  20  32  44  62  91 128 171 218 265 312
#     4   9  18  32  48  67  94 131 175 220 265 317
#
# _framework density 18.770486999999999
#
# number of rings (size 3 to 8) (size 9 to 14) (size 15 to 20)
#    0.000    2.364    0.909    1.636    0.000    4.364 
#    0.000    1.818    0.000    0.545    0.000    0.000 
#    0.000    0.000    0.000    0.000    0.000    0.000 
#
# Total GULP energy -245139.673171 kJ/mol
# GULP energy per Si atom -5571.356208 kJ/mol
# Density = 1.872776 g / cm^3
# Si number density = 18.770487 Si / 1000 Ang^3
#
#
#
# Elastic Constant Matrix: (Units=GPa)
#
#
# Indices 1 2 3 4 5 6 
#
# 1 26.0657 25.5246 33.7118 0.0000 0.0000 0.0000
# 2 25.5246 56.2541 55.6631 0.0000 0.0000 0.0000
# 3 33.7118 55.6631 190.2606 0.0000 0.0000 0.0000
# 4 0.0000 0.0000 0.0000 42.2550 0.0000 0.0000
# 5 0.0000 0.0000 0.0000 0.0000 30.0847 0.0000
# 6 0.0000 0.0000 0.0000 0.0000 0.0000 13.6166
#
#
#
# Elastic Compliance Matrix: (Units=1/GPa)
#
#
# Indices 1 2 3 4 5 6 
#
# 1 0.071657 -0.028079 -0.004482 0.000000 0.000000 0.000000
# 2 -0.028079 0.036022 -0.005563 0.000000 0.000000 0.000000
# 3 -0.004482 -0.005563 0.007678 0.000000 0.000000 0.000000
# 4 0.000000 0.000000 0.000000 0.023666 0.000000 0.000000
# 5 0.000000 0.000000 0.000000 0.000000 0.033240 0.000000
# 6 0.000000 0.000000 0.000000 0.000000 0.000000 0.073440
#
#
# Mechanical properties :
#
#
# Convention : Reuss Voigt Hill
#
# Bulk Modulus (GPa) = 25.56985 55.81993 40.69489
# Shear Modulus (GPa) = 14.92599 27.70331 21.31465
#
# Velocity S-wave (km/s) = 2.82296 3.84591 3.37343
# Velocity P-wave (km/s) = 4.92721 7.03733 6.07460
#
# Compressibility (1/GPa) = 0.03910856
#
# Stress axis : x y z
#
# Youngs Moduli (GPa) = 13.95534 27.76095 130.24632
#
# Poissons Ratio (x) = 0.77949 0.58377
# Poissons Ratio (y) = 0.39185 0.72462
# Poissons Ratio (z) = 0.06255 0.15445
#
# Static dielectric constant tensor:
#      x y z
#    x 1.652730 0.000000 0.000000 
#    y 0.000000 1.474390 0.000000 
#    z 0.000000 0.000000 0.909910 
# 
# From -- ./inp_files/20926.got.cif
#   From: 2010.05.17/outbox.cif.g08.bks.cpg/sg51_11_cif.got.tgz:20926.got - 2010.06.03 11:52:47.
