data_PCOD9402247
_publ_section_title
;
Structure prediction by ZEFSAII (Michael W. Deem and Ramdas Pophale) SiO2 
 PCOD9402247
Probable space group: P M M A
;
_chemical_formula_sum "Si O2"
_cell_formula_units_Z 48
_cell_length_a 9.270953
_cell_length_b 15.111186
_cell_length_c 20.505248
_cell_angle_alpha 90.000000
_cell_angle_beta 90.000000
_cell_angle_gamma 90.000000
_cell_volume 2872.684670
_symmetry_space_group_name_H-M "P M M A"
_symmetry_group_IT_number 51
_symmetry_cell_setting 'orthorhombic'
loop_
_space_group_symop_operation_xyz
x,y,z
1/2-x,-y,z
1/2+x,-y,-z
-x,y,-z
-x,-y,-z
1/2+x,y,-z
1/2-x,y,z
x,-y,z
loop_
_atom_site_type_symbol
_atom_site_label
_atom_site_fract_x
_atom_site_fract_y
_atom_site_fract_z
Si Si1 0.077034 0.603958 0.566259
Si Si2 0.415675 0.100786 0.292130
Si Si3 0.576865 0.671830 0.160594
Si Si4 0.577344 0.500000 0.071210
Si Si5 0.419334 0.000000 0.932635
Si Si6 0.922564 0.718213 0.309189
Si Si7 0.914463 0.149808 0.860382
O O1 0.250000 0.612223 0.559125
O O2 0.043953 0.500000 0.575379
O O3 0.031818 0.657920 0.630133
O O4 0.000000 0.634053 0.500000
O O5 0.250000 0.107000 0.315645
O O6 0.507591 0.184604 0.315530
O O7 0.411501 0.116326 0.214222
O O8 0.467560 0.000000 0.305224
O O9 0.750000 0.689208 0.154537
O O10 0.545073 0.585230 0.117258
O O11 0.545612 0.671839 0.238941
O O12 0.479006 0.752326 0.135874
O O13 0.750000 0.500000 0.059401
O O14 0.500000 0.500000 0.000000
O O15 0.475951 0.085746 0.895746
O O16 0.250000 0.000000 0.939558
O O17 0.500000 0.000000 0.000000
O O18 0.750000 0.728102 0.311193
O O19 0.750000 0.144513 0.885478
#
# Coordination Sequence:
#
# PCOD9402247 Si02
#       7
#     8   8   8   4   4   8   8
#     4   9  18  32  51  76 108 143 174 210 258 310
#     4   9  17  31  51  74 103 135 165 204 257 307
#     4   9  19  35  54  78 102 134 177 220 263 310
#     4  10  22  38  56  74 101 136 174 216 263 316
#     4  12  24  36  52  74 100 132 169 210 259 318
#     4   9  18  31  51  79 105 133 174 218 257 299
#     4  10  19  35  54  74 102 133 165 210 261 313
#
# _framework density 16.709109000000002
#
# number of rings (size 3 to 8) (size 9 to 14) (size 15 to 20)
#    0.000    2.500    0.833    1.250    1.167    3.000 
#    0.000    1.667    0.000    0.500    0.000    0.000 
#    0.000    0.000    0.000    0.000    0.000    0.000 
#
# Total GULP energy -267339.024662 kJ/mol
# GULP energy per Si atom -5569.563014 kJ/mol
# Density = 1.667108 g / cm^3
# Si number density = 16.709109 Si / 1000 Ang^3
#
#
#
# Elastic Constant Matrix: (Units=GPa)
#
#
# Indices 1 2 3 4 5 6 
#
# 1 73.2809 53.8723 50.5285 0.0000 0.0000 0.0000
# 2 53.8723 127.8630 75.5545 0.0000 0.0000 0.0000
# 3 50.5285 75.5545 93.7070 0.0000 0.0000 0.0000
# 4 0.0000 0.0000 0.0000 30.6215 0.0000 0.0000
# 5 0.0000 0.0000 0.0000 0.0000 26.4459 0.0000
# 6 0.0000 0.0000 0.0000 0.0000 0.0000 25.9553
#
#
#
# Elastic Compliance Matrix: (Units=1/GPa)
#
#
# Indices 1 2 3 4 5 6 
#
# 1 0.023010 -0.004514 -0.008768 0.000000 0.000000 0.000000
# 2 -0.004514 0.015823 -0.010324 0.000000 0.000000 0.000000
# 3 -0.008768 -0.010324 0.023724 0.000000 0.000000 0.000000
# 4 0.000000 0.000000 0.000000 0.032657 0.000000 0.000000
# 5 0.000000 0.000000 0.000000 0.000000 0.037813 0.000000
# 6 0.000000 0.000000 0.000000 0.000000 0.000000 0.038528
#
#
# Mechanical properties :
#
#
# Convention : Reuss Voigt Hill
#
# Bulk Modulus (GPa) = 65.16753 72.75127 68.95940
# Shear Modulus (GPa) = 22.33324 24.26424 23.29874
#
# Velocity S-wave (km/s) = 3.65991 3.81485 3.73818
# Velocity P-wave (km/s) = 7.54624 7.93968 7.74546
#
# Compressibility (1/GPa) = 0.01534506
#
# Stress axis : x y z
#
# Youngs Moduli (GPa) = 43.45898 63.19866 42.15204
#
# Poissons Ratio (x) = 0.28526 0.36960
# Poissons Ratio (y) = 0.19616 0.43518
# Poissons Ratio (z) = 0.38106 0.65247
#
# Static dielectric constant tensor:
#      x y z
#    x 1.573180 0.000000 0.000000 
#    y 0.000000 1.560700 0.000000 
#    z 0.000000 0.000000 1.479150 
# 
# From -- ./inp_files/27648.got.cif
#   From: 2010.05.17/outbox.cif.g08.bks.cpg/sg51_14_cif.got.tgz:27648.got - 2010.06.03 11:52:47.
