data_PCOD9402850
_publ_section_title
;
Structure prediction by ZEFSAII (Michael W. Deem and Ramdas Pophale) SiO2 
 PCOD9402850
Probable space group: P M M A
;
_chemical_formula_sum "Si O2"
_cell_formula_units_Z 64
_cell_length_a 22.916168
_cell_length_b 7.562702
_cell_length_c 18.130795
_cell_angle_alpha 90.000000
_cell_angle_beta 90.000000
_cell_angle_gamma 90.000000
_cell_volume 3142.214532
_symmetry_space_group_name_H-M "P M M A"
_symmetry_group_IT_number 51
_symmetry_cell_setting 'orthorhombic'
loop_
_space_group_symop_operation_xyz
x,y,z
1/2-x,-y,z
1/2+x,-y,-z
-x,y,-z
-x,-y,-z
1/2+x,y,-z
1/2-x,y,z
x,-y,z
loop_
_atom_site_type_symbol
_atom_site_label
_atom_site_fract_x
_atom_site_fract_y
_atom_site_fract_z
Si Si1 0.185336 0.291104 0.131193
Si Si2 0.447542 0.295248 0.554924
Si Si3 0.312752 0.787531 0.373007
Si Si4 0.028270 0.197995 0.720543
Si Si5 0.085420 0.212463 0.031495
Si Si6 0.400804 0.296925 0.253870
Si Si7 0.814927 0.705118 0.456507
Si Si8 0.528471 0.783661 0.119633
O O1 0.250000 0.216418 0.129311
O O2 0.189632 0.500000 0.146909
O O3 0.148937 0.268696 0.056844
O O4 0.143699 0.216692 0.194671
O O5 0.500000 0.224102 0.500000
O O6 0.440732 0.500000 0.531393
O O7 0.465694 0.288026 0.641037
O O8 0.380743 0.218708 0.556449
O O9 0.250000 0.743701 0.337075
O O10 0.365762 0.706749 0.329573
O O11 0.311635 0.716886 0.455360
O O12 0.318144 0.000000 0.375104
O O13 0.959527 0.191427 0.736980
O O14 0.048800 0.277719 0.799350
O O15 0.052534 0.000000 0.712479
O O16 0.036384 0.271448 0.091428
O O17 0.082311 0.000000 0.031430
O O18 0.068090 0.270845 0.949596
O O19 0.415714 0.500000 0.235381
O O20 0.750000 0.776593 0.431249
O O21 0.816290 0.500000 0.431744
O O22 0.528270 0.000000 0.123402
#
# Coordination Sequence:
#
# PCOD9402850 Si02
#       8
#     8   8   8   8   8   8   8   8
#     4  10  21  34  47  70 106 142 174 212 255 300
#     4  10  21  36  53  77 109 143 180 223 270 323
#     4  10  20  32  48  72 100 131 172 220 262 307
#     4  11  21  34  54  79 106 133 170 221 273 317
#     4   9  16  32  55  75  99 132 171 208 251 307
#     4  11  21  33  48  68 101 143 178 210 254 312
#     4   9  18  34  55  75  99 136 178 217 265 327
#     4   8  16  31  53  78 102 128 161 211 264 308
#
# _framework density 20.367801
#
# number of rings (size 3 to 8) (size 9 to 14) (size 15 to 20)
#    0.000    2.250    1.250    3.000    0.000    3.750 
#    0.000    2.500    0.000    0.750    0.000    3.500 
#    0.000    0.000    0.000    0.000    0.000    0.000 
#
# Total GULP energy -356481.148016 kJ/mol
# GULP energy per Si atom -5570.017938 kJ/mol
# Density = 2.032144 g / cm^3
# Si number density = 20.367801 Si / 1000 Ang^3
#
#
#
# Elastic Constant Matrix: (Units=GPa)
#
#
# Indices 1 2 3 4 5 6 
#
# 1 132.6974 -0.1268 44.3462 0.0000 0.0000 0.0000
# 2 -0.1268 55.4048 -4.3212 0.0000 0.0000 0.0000
# 3 44.3462 -4.3212 105.2763 0.0000 0.0000 0.0000
# 4 0.0000 0.0000 0.0000 14.4058 0.0000 0.0000
# 5 0.0000 0.0000 0.0000 0.0000 15.6434 0.0000
# 6 0.0000 0.0000 0.0000 0.0000 0.0000 -24.2654
#
#
#
# Elastic Compliance Matrix: (Units=1/GPa)
#
#
# Indices 1 2 3 4 5 6 
#
# 1 0.008775 -0.000269 -0.003707 0.000000 0.000000 0.000000
# 2 -0.000269 0.018115 0.000857 0.000000 0.000000 0.000000
# 3 -0.003707 0.000857 0.011096 0.000000 0.000000 0.000000
# 4 0.000000 0.000000 0.000000 0.069417 0.000000 0.000000
# 5 0.000000 0.000000 0.000000 0.000000 0.063925 0.000000
# 6 0.000000 0.000000 0.000000 0.000000 0.000000 -0.041211
#
#
# Mechanical properties :
#
#
# Convention : Reuss Voigt Hill
#
# Bulk Modulus (GPa) = 31.49940 41.46387 36.48163
# Shear Modulus (GPa) = 34.02828 18.05545 26.04187
#
# Velocity S-wave (km/s) = 4.09184 2.98060 3.57960
# Velocity P-wave (km/s) = 6.15005 5.67865 5.91904
#
# Compressibility (1/GPa) = 0.03174664
#
# Stress axis : x y z
#
# Youngs Moduli (GPa) = 113.96530 55.20228 90.12577
#
# Poissons Ratio (x) = 0.01485 0.33412
# Poissons Ratio (y) = 0.03066 -0.07723
# Poissons Ratio (z) = 0.42249 -0.04730
#
# Static dielectric constant tensor:
#      x y z
#    x 1.796500 0.000000 0.000000 
#    y 0.000000 1.774750 0.000000 
#    z 0.000000 0.000000 1.743440 
# 
# From -- ./inp_files/26196.got.cif
#   From: 2010.05.17/outbox.cif.g08.bks.cpg/sg51_14_cif.got.tgz:26196.got - 2010.06.03 11:52:47.
