data_PCOD9402351
_publ_section_title
;
Structure prediction by ZEFSAII (Michael W. Deem and Ramdas Pophale) SiO2 
 PCOD9402351
Probable space group: P M M A
;
_chemical_formula_sum "Si O2"
_cell_formula_units_Z 64
_cell_length_a 20.482121
_cell_length_b 8.624002
_cell_length_c 20.528105
_cell_angle_alpha 90.000000
_cell_angle_beta 90.000000
_cell_angle_gamma 90.000000
_cell_volume 3626.040382
_symmetry_space_group_name_H-M "P M M A"
_symmetry_group_IT_number 51
_symmetry_cell_setting 'orthorhombic'
loop_
_space_group_symop_operation_xyz
x,y,z
1/2-x,-y,z
1/2+x,-y,-z
-x,y,-z
-x,-y,-z
1/2+x,y,-z
1/2-x,y,z
x,-y,z
loop_
_atom_site_type_symbol
_atom_site_label
_atom_site_fract_x
_atom_site_fract_y
_atom_site_fract_z
Si Si1 0.568931 0.685684 0.467899
Si Si2 0.325188 0.685810 0.050918
Si Si3 0.174710 0.814085 0.906024
Si Si4 0.895147 0.812602 0.694242
Si Si5 0.545485 0.814253 0.328314
Si Si6 0.919451 0.813148 0.838238
Si Si7 0.563388 0.315233 0.187784
Si Si8 0.324171 0.812098 0.433479
O O1 0.500000 0.736579 0.500000
O O2 0.568870 0.500000 0.464458
O O3 0.574919 0.753487 0.395425
O O4 0.626167 0.743980 0.514419
O O5 0.250000 0.726942 0.068865
O O6 0.329654 0.500000 0.047501
O O7 0.376701 0.749143 0.102830
O O8 0.337651 0.755608 0.979453
O O9 0.250000 0.771809 0.889774
O O10 0.122390 0.741284 0.857377
O O11 0.169370 0.000000 0.904184
O O12 0.888344 0.760908 0.768840
O O13 0.845420 0.759575 0.639042
O O14 0.968436 0.771603 0.671832
O O15 0.891693 0.000000 0.695856
O O16 0.573322 0.742890 0.261895
O O17 0.550328 0.000000 0.324891
O O18 0.994289 0.755212 0.836764
O O19 0.920159 0.000000 0.840223
O O20 0.558627 0.500000 0.186717
O O21 0.250000 0.767722 0.447087
O O22 0.328790 0.000000 0.435183
#
# Coordination Sequence:
#
# PCOD9402351 Si02
#       8
#     8   8   8   8   8   8   8   8
#     4  11  22  35  55  83 111 145 187 230 280 334
#     4  10  21  37  56  81 114 151 191 236 289 344
#     4  10  21  39  62  85 110 145 191 237 281 339
#     4   8  16  31  52  78 106 139 180 226 271 321
#     4  10  19  35  59  83 109 143 187 231 274 327
#     4  10  20  35  56  84 115 151 194 235 277 328
#     4  11  22  37  58  86 120 149 180 230 288 341
#     4  10  20  35  55  80 110 146 188 232 279 332
#
# _framework density 17.650106999999998
#
# number of rings (size 3 to 8) (size 9 to 14) (size 15 to 20)
#    0.000    2.000    1.250    3.750    0.000    3.250 
#    0.000    5.000    0.000    3.750    0.000    0.000 
#    0.000    0.000    0.000    0.000    0.000    0.000 
#
# Total GULP energy -357251.684676 kJ/mol
# GULP energy per Si atom -5582.057573 kJ/mol
# Density = 1.760993 g / cm^3
# Si number density = 17.650107 Si / 1000 Ang^3
#
#
#
# Elastic Constant Matrix: (Units=GPa)
#
#
# Indices 1 2 3 4 5 6 
#
# 1 116.1478 43.5415 100.0478 0.0000 0.0000 0.0000
# 2 43.5415 64.4892 46.5480 0.0000 0.0000 0.0000
# 3 100.0478 46.5480 148.2188 0.0000 0.0000 0.0000
# 4 0.0000 0.0000 0.0000 17.2878 0.0000 0.0000
# 5 0.0000 0.0000 0.0000 0.0000 31.3820 0.0000
# 6 0.0000 0.0000 0.0000 0.0000 0.0000 23.3220
#
#
#
# Elastic Compliance Matrix: (Units=1/GPa)
#
#
# Indices 1 2 3 4 5 6 
#
# 1 0.021897 -0.005322 -0.013109 0.000000 0.000000 0.000000
# 2 -0.005322 0.021345 -0.003111 0.000000 0.000000 0.000000
# 3 -0.013109 -0.003111 0.016572 0.000000 0.000000 0.000000
# 4 0.000000 0.000000 0.000000 0.057844 0.000000 0.000000
# 5 0.000000 0.000000 0.000000 0.000000 0.031865 0.000000
# 6 0.000000 0.000000 0.000000 0.000000 0.000000 0.042878
#
#
# Mechanical properties :
#
#
# Convention : Reuss Voigt Hill
#
# Bulk Modulus (GPa) = 59.77203 78.79229 69.28216
# Shear Modulus (GPa) = 20.74150 23.64627 22.19389
#
# Velocity S-wave (km/s) = 3.43176 3.66419 3.54988
# Velocity P-wave (km/s) = 7.04565 7.91454 7.49270
#
# Compressibility (1/GPa) = 0.01673023
#
# Stress axis : x y z
#
# Youngs Moduli (GPa) = 45.66915 46.84851 60.34185
#
# Poissons Ratio (x) = 0.24934 0.79101
# Poissons Ratio (y) = 0.24306 0.18772
# Poissons Ratio (z) = 0.59867 0.14575
#
# Static dielectric constant tensor:
#      x y z
#    x 1.581730 0.000000 0.000000 
#    y 0.000000 1.594410 0.000000 
#    z 0.000000 0.000000 1.585920 
# 
# From -- ./inp_files/33987.got.cif
#   From: 2010.05.17/outbox.cif.g08.bks.cpg/sg51_17_cif.got.tgz:33987.got - 2010.06.03 11:52:47.
