data_PCOD9402925
_publ_section_title
;
Structure prediction by ZEFSAII (Michael W. Deem and Ramdas Pophale) SiO2 
 PCOD9402925
Probable space group: P M M A
;
_chemical_formula_sum "Si O2"
_cell_formula_units_Z 64
_cell_length_a 13.560407
_cell_length_b 7.532476
_cell_length_c 24.570196
_cell_angle_alpha 90.000000
_cell_angle_beta 90.000000
_cell_angle_gamma 90.000000
_cell_volume 2509.684348
_symmetry_space_group_name_H-M "P M M A"
_symmetry_group_IT_number 51
_symmetry_cell_setting 'orthorhombic'
loop_
_space_group_symop_operation_xyz
x,y,z
1/2-x,-y,z
1/2+x,-y,-z
-x,y,-z
-x,-y,-z
1/2+x,y,-z
1/2-x,y,z
x,-y,z
loop_
_atom_site_type_symbol
_atom_site_label
_atom_site_fract_x
_atom_site_fract_y
_atom_site_fract_z
Si Si1 0.855463 0.202128 0.889307
Si Si2 0.134654 0.285896 0.408759
Si Si3 0.868464 0.708447 0.355545
Si Si4 0.937122 0.706735 0.241675
Si Si5 0.362366 0.791538 0.286467
Si Si6 0.919090 0.293402 0.125568
Si Si7 0.369256 0.286415 0.526733
Si Si8 0.116394 0.705929 0.990853
O O1 0.750000 0.277211 0.868991
O O2 0.961008 0.289898 0.878463
O O3 0.862672 0.000000 0.869259
O O4 0.847625 0.200716 0.955028
O O5 0.250000 0.231781 0.408007
O O6 0.130381 0.500000 0.410346
O O7 0.099597 0.232895 0.348848
O O8 0.094388 0.223358 0.467477
O O9 0.750000 0.710413 0.356687
O O10 0.899964 0.500000 0.355204
O O11 0.901832 0.783088 0.414122
O O12 0.899971 0.788571 0.298102
O O13 0.906277 0.500000 0.241511
O O14 0.055954 0.712206 0.246740
O O15 0.898795 0.784792 0.185001
O O16 0.250000 0.720454 0.282905
O O17 0.358175 0.000000 0.275621
O O18 0.889694 0.500000 0.125529
O O19 0.872284 0.218230 0.070077
O O20 0.250000 0.262983 0.525083
O O21 0.386316 0.500000 0.528220
O O22 0.147846 0.500000 0.992214
O O23 0.000000 0.703849 0.000000
#
# Coordination Sequence:
#
# PCOD9402925 Si02
#       8
#     8   8   8   8   8   8   8   8
#     4  10  20  32  49  76 104 128 160 200 239 283
#     4   8  13  24  45  70  93 120 158 203 250 302
#     4   8  14  27  49  76 102 125 155 203 258 304
#     4  10  20  34  53  76 101 132 171 210 246 290
#     4  10  21  35  49  67  96 134 172 210 253 300
#     4   9  19  34  50  71  99 130 165 200 236 284
#     4   7  10  19  40  70  97 119 149 195 251 305
#     4   8  15  30  50  70  94 123 153 187 230 278
#
# _framework density 25.501214999999998
#
# number of rings (size 3 to 8) (size 9 to 14) (size 15 to 20)
#    0.000    3.250    0.000    3.000    0.000    5.000 
#    0.000    3.750    0.000    7.125    0.000    1.750 
#    0.000    0.000    0.000    0.000    0.000    0.000 
#
# Total GULP energy -357031.071811 kJ/mol
# GULP energy per Si atom -5578.610497 kJ/mol
# Density = 2.544317 g / cm^3
# Si number density = 25.501215 Si / 1000 Ang^3
#
#
#
# Elastic Constant Matrix: (Units=GPa)
#
#
# Indices 1 2 3 4 5 6 
#
# 1 58.2187 -11.4245 3.9280 0.0000 0.0000 0.0000
# 2 -11.4245 66.9526 2.5452 0.0000 0.0000 0.0000
# 3 3.9280 2.5452 194.7277 0.0000 0.0000 0.0000
# 4 0.0000 0.0000 0.0000 58.0694 0.0000 0.0000
# 5 0.0000 0.0000 0.0000 0.0000 548.0523 0.0000
# 6 0.0000 0.0000 0.0000 0.0000 0.0000 -6.8574
#
#
#
# Elastic Compliance Matrix: (Units=1/GPa)
#
#
# Indices 1 2 3 4 5 6 
#
# 1 0.017803 0.003053 -0.000399 0.000000 0.000000 0.000000
# 2 0.003053 0.015467 -0.000264 0.000000 0.000000 0.000000
# 3 -0.000399 -0.000264 0.005147 0.000000 0.000000 0.000000
# 4 0.000000 0.000000 0.000000 0.017221 0.000000 0.000000
# 5 0.000000 0.000000 0.000000 0.000000 0.001825 0.000000
# 6 0.000000 0.000000 0.000000 0.000000 0.000000 -0.145828
#
#
# Mechanical properties :
#
#
# Convention : Reuss Voigt Hill
#
# Bulk Modulus (GPa) = 23.14990 34.44404 28.79697
# Shear Modulus (GPa) = -63.49402 141.50954 39.00776
#
# Velocity S-wave (km/s) = -4.99525 7.45733 3.91531
# Velocity P-wave (km/s) = 4.91653 9.36404 5.63528
#
# Compressibility (1/GPa) = 0.04319673
#
# Stress axis : x y z
#
# Youngs Moduli (GPa) = 56.17151 64.65423 194.29275
#
# Poissons Ratio (x) = -0.19738 0.07752
# Poissons Ratio (y) = -0.17149 0.05124
# Poissons Ratio (z) = 0.02241 0.01705
#
# Static dielectric constant tensor:
#      x y z
#    x 2.057790 0.000000 0.000000 
#    y 0.000000 1.927240 0.000000 
#    z 0.000000 0.000000 2.065050 
# 
# From -- ./inp_files/35927.got.cif
#   From: 2010.05.17/outbox.cif.g08.bks.cpg/sg51_18_cif.got.tgz:35927.got - 2010.06.03 11:52:47.
