data_PCOD9402426
_publ_section_title
;
Structure prediction by ZEFSAII (Michael W. Deem and Ramdas Pophale) SiO2 
 PCOD9402426
Probable space group: P M M A
;
_chemical_formula_sum "Si O2"
_cell_formula_units_Z 48
_cell_length_a 15.949640
_cell_length_b 17.415156
_cell_length_c 9.190185
_cell_angle_alpha 90.000000
_cell_angle_beta 90.000000
_cell_angle_gamma 90.000000
_cell_volume 2552.716044
_symmetry_space_group_name_H-M "P M M A"
_symmetry_group_IT_number 51
_symmetry_cell_setting 'orthorhombic'
loop_
_space_group_symop_operation_xyz
x,y,z
1/2-x,-y,z
1/2+x,-y,-z
-x,y,-z
-x,-y,-z
1/2+x,y,-z
1/2-x,y,z
x,-y,z
loop_
_atom_site_type_symbol
_atom_site_label
_atom_site_fract_x
_atom_site_fract_y
_atom_site_fract_z
Si Si1 0.351518 0.500000 0.110038
Si Si2 0.914122 0.183107 0.074169
Si Si3 0.250000 0.911860 0.926915
Si Si4 0.250000 0.088388 0.572687
Si Si5 0.907720 0.500000 0.567718
Si Si6 0.585332 0.817092 0.425581
Si Si7 0.348144 0.652262 0.583700
Si Si8 0.850648 0.350622 0.078904
O O1 0.250000 0.500000 0.138070
O O2 0.401847 0.500000 0.259270
O O3 0.371344 0.576061 0.017903
O O4 0.834029 0.132728 0.028464
O O5 0.920851 0.179073 0.249861
O O6 0.895133 0.271799 0.034982
O O7 0.000000 0.157824 0.000000
O O8 0.250000 0.911143 0.749816
O O9 0.250000 0.000000 0.975051
O O10 0.165980 0.133266 0.528395
O O11 0.250000 0.000000 0.524818
O O12 0.863722 0.422797 0.510690
O O13 0.000000 0.500000 0.500000
O O14 0.500000 0.843618 0.500000
O O15 0.602054 0.727827 0.464101
O O16 0.250000 0.672945 0.581267
O O17 0.370282 0.634144 0.751535
O O18 0.750000 0.338185 0.069991
#
# Coordination Sequence:
#
# PCOD9402426 Si02
#       8
#     4   8   4   4   4   8   8   8
#     4  10  21  36  55  80 109 142 185 237 286 325
#     4  10  20  35  58  86 115 149 188 233 281 335
#     4   9  18  36  61  84 113 150 190 229 275 343
#     4   9  18  36  61  86 113 154 192 229 283 339
#     4  12  25  36  48  76 116 148 185 232 282 336
#     4  10  20  36  58  87 116 148 194 236 278 336
#     4  10  19  36  58  77 104 150 194 229 275 337
#     4   9  18  35  58  80 106 142 192 236 275 329
#
# _framework density 18.8035
#
# number of rings (size 3 to 8) (size 9 to 14) (size 15 to 20)
#    0.000    2.167    1.667    1.750    0.000    6.000 
#    0.000    2.083    0.000    1.000    0.000    0.000 
#    0.000    0.000    0.000    0.000    0.000    0.000 
#
# Total GULP energy -268009.377553 kJ/mol
# GULP energy per Si atom -5583.528699 kJ/mol
# Density = 1.876070 g / cm^3
# Si number density = 18.803500 Si / 1000 Ang^3
#
#
#
# Elastic Constant Matrix: (Units=GPa)
#
#
# Indices 1 2 3 4 5 6 
#
# 1 128.7564 73.7182 37.8611 0.0000 0.0000 0.0000
# 2 73.7182 128.1702 40.7712 0.0000 0.0000 0.0000
# 3 37.8611 40.7712 31.7927 0.0000 0.0000 0.0000
# 4 0.0000 0.0000 0.0000 6.5184 0.0000 0.0000
# 5 0.0000 0.0000 0.0000 0.0000 30.8287 0.0000
# 6 0.0000 0.0000 0.0000 0.0000 0.0000 1.6046
#
#
#
# Elastic Compliance Matrix: (Units=1/GPa)
#
#
# Indices 1 2 3 4 5 6 
#
# 1 0.013276 -0.004403 -0.010164 0.000000 0.000000 0.000000
# 2 -0.004403 0.014638 -0.013529 0.000000 0.000000 0.000000
# 3 -0.010164 -0.013529 0.060907 0.000000 0.000000 0.000000
# 4 0.000000 0.000000 0.000000 0.153411 0.000000 0.000000
# 5 0.000000 0.000000 0.000000 0.000000 0.032437 0.000000
# 6 0.000000 0.000000 0.000000 0.000000 0.000000 0.623204
#
#
# Mechanical properties :
#
#
# Convention : Reuss Voigt Hill
#
# Bulk Modulus (GPa) = 30.64642 65.93559 48.29100
# Shear Modulus (GPa) = 5.18167 16.88161 11.03164
#
# Velocity S-wave (km/s) = 1.66183 2.99957 2.42478
# Velocity P-wave (km/s) = 4.47391 6.86573 5.79457
#
# Compressibility (1/GPa) = 0.03263024
#
# Stress axis : x y z
#
# Youngs Moduli (GPa) = 75.32351 68.31611 16.41837
#
# Poissons Ratio (x) = 0.30077 0.16688
# Poissons Ratio (y) = 0.33162 0.22212
# Poissons Ratio (z) = 0.76560 0.92423
#
# Static dielectric constant tensor:
#      x y z
#    x 1.654290 0.000000 0.000000 
#    y 0.000000 1.643110 0.000000 
#    z 0.000000 0.000000 1.631630 
# 
# From -- ./inp_files/8394.got.cif
#   From: 2010.05.17/outbox.cif.g08.bks.cpg/sg51_5_cif.got.tgz:8394.got - 2010.06.03 11:52:47.
