data_PCOD9402084
_publ_section_title
;
Structure prediction by ZEFSAII (Michael W. Deem and Ramdas Pophale) SiO2 
 PCOD9402084
Probable space group: P M M A
;
_chemical_formula_sum "Si O2"
_cell_formula_units_Z 44
_cell_length_a 8.635530
_cell_length_b 18.396798
_cell_length_c 14.704523
_cell_angle_alpha 90.000000
_cell_angle_beta 90.000000
_cell_angle_gamma 90.000000
_cell_volume 2336.050237
_symmetry_space_group_name_H-M "P M M A"
_symmetry_group_IT_number 51
_symmetry_cell_setting 'orthorhombic'
loop_
_space_group_symop_operation_xyz
x,y,z
1/2-x,-y,z
1/2+x,-y,-z
-x,y,-z
-x,-y,-z
1/2+x,y,-z
1/2-x,y,z
x,-y,z
loop_
_atom_site_type_symbol
_atom_site_label
_atom_site_fract_x
_atom_site_fract_y
_atom_site_fract_z
Si Si1 0.934811 0.500000 0.602328
Si Si2 0.563429 0.639522 0.292578
Si Si3 0.935956 0.312288 0.096473
Si Si4 0.564546 0.857624 0.097077
Si Si5 0.436648 0.919150 0.282247
Si Si6 0.436680 0.220486 0.398111
O O1 0.750000 0.500000 0.598539
O O2 0.000000 0.500000 0.500000
O O3 0.994304 0.429181 0.655541
O O4 0.750000 0.636857 0.296875
O O5 0.516038 0.644377 0.186468
O O6 0.504910 0.712632 0.341065
O O7 0.750000 0.313277 0.092319
O O8 0.983491 0.227444 0.107625
O O9 0.000000 0.338667 0.000000
O O10 0.750000 0.860752 0.096391
O O11 0.500065 0.901377 0.182296
O O12 0.500000 0.883066 0.000000
O O13 0.250000 0.917797 0.278395
O O14 0.485038 0.854873 0.349970
O O15 0.485991 0.000000 0.310853
O O16 0.500000 0.223812 0.500000
O O17 0.250000 0.225053 0.398510
#
# Coordination Sequence:
#
# PCOD9402084 Si02
#       6
#     4   8   8   8   8   8
#     4  12  26  44  65  94 125 160 199 244 298 350
#     4  11  22  41  65  92 124 158 196 243 293 349
#     4   9  19  34  58  89 121 154 194 239 287 343
#     4  10  19  34  56  85 116 153 195 242 295 350
#     4  10  22  39  57  81 115 154 198 248 299 352
#     4  11  23  39  61  86 114 152 197 247 298 356
#
# _framework density 18.835211000000001
#
# number of rings (size 3 to 8) (size 9 to 14) (size 15 to 20)
#    0.000    1.636    1.818    3.000    0.000    4.000 
#    0.000    0.455    0.000    0.000    0.000    0.000 
#    0.000    0.000    0.000    0.000    0.000    0.000 
#
# Total GULP energy -245865.202953 kJ/mol
# GULP energy per Si atom -5587.845522 kJ/mol
# Density = 1.879234 g / cm^3
# Si number density = 18.835211 Si / 1000 Ang^3
#
#
#
# Elastic Constant Matrix: (Units=GPa)
#
#
# Indices 1 2 3 4 5 6 
#
# 1 52.5379 44.4413 42.6491 0.0000 0.0000 0.0000
# 2 44.4413 134.3082 90.0145 0.0000 0.0000 0.0000
# 3 42.6491 90.0145 173.0251 0.0000 0.0000 0.0000
# 4 0.0000 0.0000 0.0000 -5.4656 0.0000 0.0000
# 5 0.0000 0.0000 0.0000 0.0000 33.6327 0.0000
# 6 0.0000 0.0000 0.0000 0.0000 0.0000 -6.2657
#
#
#
# Elastic Compliance Matrix: (Units=1/GPa)
#
#
# Indices 1 2 3 4 5 6 
#
# 1 0.027499 -0.006996 -0.003139 0.000000 0.000000 0.000000
# 2 -0.006996 0.013211 -0.005148 0.000000 0.000000 0.000000
# 3 -0.003139 -0.005148 0.009232 0.000000 0.000000 0.000000
# 4 0.000000 0.000000 0.000000 -0.182961 0.000000 0.000000
# 5 0.000000 0.000000 0.000000 0.000000 0.029733 0.000000
# 6 0.000000 0.000000 0.000000 0.000000 0.000000 -0.159598
#
#
# Mechanical properties :
#
#
# Convention : Reuss Voigt Hill
#
# Bulk Modulus (GPa) = 51.61026 79.34232 65.47629
# Shear Modulus (GPa) = -22.13763 16.56470 -2.78647
#
# Velocity S-wave (km/s) = -3.43203 2.96878 -1.21762
# Velocity P-wave (km/s) = 3.42860 7.34625 5.73248
#
# Compressibility (1/GPa) = 0.01937599
#
# Stress axis : x y z
#
# Youngs Moduli (GPa) = 36.36431 75.69521 108.32247
#
# Poissons Ratio (x) = 0.52953 0.34003
# Poissons Ratio (y) = 0.25439 0.55770
# Poissons Ratio (z) = 0.11415 0.38972
#
# Static dielectric constant tensor:
#      x y z
#    x 1.635270 0.000000 0.000000 
#    y 0.000000 1.648430 0.000000 
#    z 0.000000 0.000000 1.631550 
# 
# From -- ./inp_files/20951.got.cif
#   From: 2010.05.17/outbox.cif.g08.bks.cpg/sg51_11_cif.got.tgz:20951.got - 2010.06.03 11:52:47.
