data_PCOD9402007
_publ_section_title
;
Structure prediction by ZEFSAII (Michael W. Deem and Ramdas Pophale) SiO2 
 PCOD9402007
Probable space group: P M M A
;
_chemical_formula_sum "Si O2"
_cell_formula_units_Z 48
_cell_length_a 15.373226
_cell_length_b 7.436071
_cell_length_c 19.500075
_cell_angle_alpha 90.000000
_cell_angle_beta 90.000000
_cell_angle_gamma 90.000000
_cell_volume 2229.178374
_symmetry_space_group_name_H-M "P M M A"
_symmetry_group_IT_number 51
_symmetry_cell_setting 'orthorhombic'
loop_
_space_group_symop_operation_xyz
x,y,z
1/2-x,-y,z
1/2+x,-y,-z
-x,y,-z
-x,-y,-z
1/2+x,y,-z
1/2-x,y,z
x,-y,z
loop_
_atom_site_type_symbol
_atom_site_label
_atom_site_fract_x
_atom_site_fract_y
_atom_site_fract_z
Si Si1 0.344453 0.783486 0.131742
Si Si2 0.648601 0.218818 0.486993
Si Si3 0.345515 0.282089 0.834915
Si Si4 0.905851 0.288797 0.017119
Si Si5 0.486398 0.219677 0.395436
Si Si6 0.519364 0.209536 0.758365
O O1 0.250000 0.730741 0.158674
O O2 0.353139 0.726720 0.052901
O O3 0.419867 0.713341 0.181390
O O4 0.349551 0.000000 0.130032
O O5 0.750000 0.278953 0.483315
O O6 0.580341 0.273786 0.427064
O O7 0.594179 0.271359 0.555356
O O8 0.651671 0.000000 0.486194
O O9 0.250000 0.221709 0.813815
O O10 0.345752 0.500000 0.834807
O O11 0.421547 0.220941 0.785405
O O12 0.364768 0.218401 0.912839
O O13 0.918549 0.500000 0.030812
O O14 0.000000 0.208041 0.000000
O O15 0.473766 0.284736 0.317982
O O16 0.487773 0.000000 0.395531
O O17 0.544225 0.000000 0.752499
#
# Coordination Sequence:
#
# PCOD9402007 Si02
#       6
#     8   8   8   8   8   8
#     4  10  21  34  48  70 100 132 164 200 245 294
#     4   8  13  23  41  64  91 123 157 193 232 273
#     4  10  21  36  52  71  96 126 162 204 248 293
#     4  10  19  34  56  74  90 120 165 212 250 287
#     4   8  15  26  40  64  95 124 155 191 232 278
#     4  10  20  33  49  71 102 133 161 197 241 291
#
# _framework density 21.532598
#
# number of rings (size 3 to 8) (size 9 to 14) (size 15 to 20)
#    0.000    2.667    1.667    1.500    0.000    3.667 
#    0.000    5.000    0.000    0.000    0.000    2.333 
#    0.000    1.333    0.000    0.000    0.000    0.000 
#
# Total GULP energy -267789.027580 kJ/mol
# GULP energy per Si atom -5578.938075 kJ/mol
# Density = 2.148359 g / cm^3
# Si number density = 21.532598 Si / 1000 Ang^3
#
#
#
# Elastic Constant Matrix: (Units=GPa)
#
#
# Indices 1 2 3 4 5 6 
#
# 1 77.4573 -14.7855 -23.1841 0.0000 0.0000 0.0000
# 2 -14.7855 60.0243 -12.7578 0.0000 0.0000 0.0000
# 3 -23.1841 -12.7578 65.3928 0.0000 0.0000 0.0000
# 4 0.0000 0.0000 0.0000 9.7407 0.0000 0.0000
# 5 0.0000 0.0000 0.0000 0.0000 -10.1630 0.0000
# 6 0.0000 0.0000 0.0000 0.0000 0.0000 12.6280
#
#
#
# Elastic Compliance Matrix: (Units=1/GPa)
#
#
# Indices 1 2 3 4 5 6 
#
# 1 0.015934 0.005347 0.006693 0.000000 0.000000 0.000000
# 2 0.005347 0.019175 0.005637 0.000000 0.000000 0.000000
# 3 0.006693 0.005637 0.018765 0.000000 0.000000 0.000000
# 4 0.000000 0.000000 0.000000 0.102662 0.000000 0.000000
# 5 0.000000 0.000000 0.000000 0.000000 -0.098396 0.000000
# 6 0.000000 0.000000 0.000000 0.000000 0.000000 0.079189
#
#
# Mechanical properties :
#
#
# Convention : Reuss Voigt Hill
#
# Bulk Modulus (GPa) = 11.20727 11.26885 11.23806
# Shear Modulus (GPa) = 37.95994 19.34793 28.65393
#
# Velocity S-wave (km/s) = 4.20325 3.00082 3.65187
# Velocity P-wave (km/s) = 5.36400 4.15347 4.79707
#
# Compressibility (1/GPa) = 0.08922784
#
# Stress axis : x y z
#
# Youngs Moduli (GPa) = 62.75783 52.15068 53.29164
#
# Poissons Ratio (x) = -0.27887 -0.35666
# Poissons Ratio (y) = -0.33560 -0.30040
# Poissons Ratio (z) = -0.42001 -0.29397
#
# Static dielectric constant tensor:
#      x y z
#    x 1.780430 0.000000 0.000000 
#    y 0.000000 1.848190 0.000000 
#    z 0.000000 0.000000 1.761900 
# 
# From -- ./inp_files/24002.got.cif
#   From: 2010.05.17/outbox.cif.g08.bks.cpg/sg51_13_cif.got.tgz:24002.got - 2010.06.03 11:52:47.
