data_PCOD9402431
_publ_section_title
;
Structure prediction by ZEFSAII (Michael W. Deem and Ramdas Pophale) SiO2 
 PCOD9402431
Probable space group: P M M A
;
_chemical_formula_sum "Si O2"
_cell_formula_units_Z 48
_cell_length_a 31.310120
_cell_length_b 8.432487
_cell_length_c 9.913041
_cell_angle_alpha 90.000000
_cell_angle_beta 90.000000
_cell_angle_gamma 90.000000
_cell_volume 2617.262694
_symmetry_space_group_name_H-M "P M M A"
_symmetry_group_IT_number 51
_symmetry_cell_setting 'orthorhombic'
loop_
_space_group_symop_operation_xyz
x,y,z
1/2-x,-y,z
1/2+x,-y,-z
-x,y,-z
-x,-y,-z
1/2+x,y,-z
1/2-x,y,z
x,-y,z
loop_
_atom_site_type_symbol
_atom_site_label
_atom_site_fract_x
_atom_site_fract_y
_atom_site_fract_z
Si Si1 0.701219 0.307808 0.686707
Si Si2 0.481690 0.187849 0.852588
Si Si3 0.611618 0.688023 0.206413
Si Si4 0.063217 0.688918 0.282920
Si Si5 0.360957 0.307352 0.081823
Si Si6 0.126269 0.813336 0.499785
O O1 0.750000 0.254908 0.673511
O O2 0.700497 0.500000 0.682299
O O3 0.679563 0.258694 0.828765
O O4 0.669557 0.246353 0.571343
O O5 0.438302 0.279001 0.820647
O O6 0.518529 0.227406 0.745102
O O7 0.472916 0.000000 0.853909
O O8 0.500000 0.233754 0.000000
O O9 0.618522 0.500000 0.221155
O O10 0.625325 0.771649 0.343422
O O11 0.635957 0.746473 0.071853
O O12 0.057444 0.500000 0.273378
O O13 0.096867 0.740347 0.166160
O O14 0.086841 0.730307 0.422009
O O15 0.361438 0.500000 0.079336
O O16 0.122151 0.000000 0.479244
#
# Coordination Sequence:
#
# PCOD9402431 Si02
#       6
#     8   8   8   8   8   8
#     4   9  18  37  64  89 110 139 182 227 273 336
#     4  11  22  34  52  82 117 150 188 233 285 332
#     4  11  21  36  56  80 112 152 194 231 276 329
#     4  10  19  36  58  80 106 146 196 235 274 324
#     4   8  16  31  55  83 108 136 178 230 273 316
#     4  11  23  38  55  81 117 151 184 230 290 339
#
# _framework density 18.339770999999999
#
# number of rings (size 3 to 8) (size 9 to 14) (size 15 to 20)
#    0.000    2.000    1.667    4.000    0.000    1.667 
#    0.000    5.000    0.000    3.000    0.000    0.000 
#    0.000    0.000    0.000    0.000    0.000    0.000 
#
# Total GULP energy -267993.249140 kJ/mol
# GULP energy per Si atom -5583.192690 kJ/mol
# Density = 1.829803 g / cm^3
# Si number density = 18.339771 Si / 1000 Ang^3
#
#
#
# Elastic Constant Matrix: (Units=GPa)
#
#
# Indices 1 2 3 4 5 6 
#
# 1 77.2457 -0.1844 30.2592 0.0000 0.0000 0.0000
# 2 -0.1844 20.9573 -2.0950 0.0000 0.0000 0.0000
# 3 30.2592 -2.0950 118.6707 0.0000 0.0000 0.0000
# 4 0.0000 0.0000 0.0000 18.1677 0.0000 0.0000
# 5 0.0000 0.0000 0.0000 0.0000 14.5847 0.0000
# 6 0.0000 0.0000 0.0000 0.0000 0.0000 8.2905
#
#
#
# Elastic Compliance Matrix: (Units=1/GPa)
#
#
# Indices 1 2 3 4 5 6 
#
# 1 0.014383 -0.000241 -0.003672 0.000000 0.000000 0.000000
# 2 -0.000241 0.047805 0.000905 0.000000 0.000000 0.000000
# 3 -0.003672 0.000905 0.009379 0.000000 0.000000 0.000000
# 4 0.000000 0.000000 0.000000 0.055043 0.000000 0.000000
# 5 0.000000 0.000000 0.000000 0.000000 0.068565 0.000000
# 6 0.000000 0.000000 0.000000 0.000000 0.000000 0.120620
#
#
# Mechanical properties :
#
#
# Convention : Reuss Voigt Hill
#
# Bulk Modulus (GPa) = 15.25487 30.31480 22.78484
# Shear Modulus (GPa) = 14.54929 20.80151 17.67540
#
# Velocity S-wave (km/s) = 2.81965 3.37149 3.10784
# Velocity P-wave (km/s) = 4.35161 5.63217 5.03278
#
# Compressibility (1/GPa) = 0.06555282
#
# Stress axis : x y z
#
# Youngs Moduli (GPa) = 69.52421 20.91853 106.62215
#
# Poissons Ratio (x) = 0.00503 0.39150
# Poissons Ratio (y) = 0.01672 -0.09652
# Poissons Ratio (z) = 0.25528 -0.01894
#
# Static dielectric constant tensor:
#      x y z
#    x 1.607470 0.000000 0.000000 
#    y 0.000000 1.617330 0.000000 
#    z 0.000000 0.000000 1.636630 
# 
# From -- ./inp_files/12818.got.cif
#   From: 2010.05.17/outbox.cif.g08.bks.cpg/sg51_7_cif.got.tgz:12818.got - 2010.06.03 11:52:47.
