data_PCOD9402582
_publ_section_title
;
Structure prediction by ZEFSAII (Michael W. Deem and Ramdas Pophale) SiO2 
 PCOD9402582
Probable space group: P M M A
;
_chemical_formula_sum "Si O2"
_cell_formula_units_Z 56
_cell_length_a 14.643873
_cell_length_b 9.701826
_cell_length_c 18.772454
_cell_angle_alpha 90.000000
_cell_angle_beta 90.000000
_cell_angle_gamma 90.000000
_cell_volume 2667.045863
_symmetry_space_group_name_H-M "P M M A"
_symmetry_group_IT_number 51
_symmetry_cell_setting 'orthorhombic'
loop_
_space_group_symop_operation_xyz
x,y,z
1/2-x,-y,z
1/2+x,-y,-z
-x,y,-z
-x,-y,-z
1/2+x,y,-z
1/2-x,y,z
x,-y,z
loop_
_atom_site_type_symbol
_atom_site_label
_atom_site_fract_x
_atom_site_fract_y
_atom_site_fract_z
Si Si1 0.886813 0.340489 0.072928
Si Si2 0.138021 0.158055 0.371184
Si Si3 0.143030 0.153193 0.791377
Si Si4 0.861738 0.342387 0.335241
Si Si5 0.138853 0.341976 0.503447
Si Si6 0.358812 0.657339 0.238909
Si Si7 0.894244 0.658501 0.917386
O O1 0.856280 0.500000 0.082112
O O2 0.859931 0.241584 0.136649
O O3 0.996652 0.344474 0.076103
O O4 0.859812 0.288513 0.993837
O O5 0.250000 0.156225 0.371184
O O6 0.108966 0.236794 0.442902
O O7 0.108414 0.246958 0.302884
O O8 0.107300 0.000000 0.368532
O O9 0.250000 0.137680 0.774788
O O10 0.103967 0.241117 0.725939
O O11 0.102996 0.000000 0.799313
O O12 0.750000 0.341857 0.334251
O O13 0.889323 0.500000 0.320595
O O14 0.889050 0.306283 0.415917
O O15 0.250000 0.341948 0.502909
O O16 0.111024 0.500000 0.487728
O O17 0.250000 0.645688 0.248230
O O18 0.396582 0.500000 0.241424
O O19 0.373056 0.719417 0.159818
O O20 0.861100 0.500000 0.913649
#
# Coordination Sequence:
#
# PCOD9402582 Si02
#       7
#     8   8   8   8   8   8   8
#     4   9  17  32  52  69  88 115 150 190 227 268
#     4   9  16  24  35  56  87 119 149 180 216 259
#     4  10  20  31  43  65  97 125 150 184 225 268
#     4   8  14  25  41  61  85 115 151 186 220 261
#     4   8  13  22  37  57  82 113 148 183 218 258
#     4   9  16  27  44  65  90 118 147 181 222 266
#     4   8  16  31  50  71  90 112 148 191 228 264
#
# _framework density 20.997015000000001
#
# number of rings (size 3 to 8) (size 9 to 14) (size 15 to 20)
#    0.000    3.286    0.000    2.571    0.000    3.714 
#    0.000    7.143    0.000    1.714    0.000    1.000 
#    0.000    8.000    0.000    0.000    0.000    0.000 
#
# Total GULP energy -312239.516156 kJ/mol
# GULP energy per Si atom -5575.705646 kJ/mol
# Density = 2.094922 g / cm^3
# Si number density = 20.997015 Si / 1000 Ang^3
#
#
#
# Elastic Constant Matrix: (Units=GPa)
#
#
# Indices 1 2 3 4 5 6 
#
# 1 49.8066 2.9323 -0.8613 0.0000 0.0000 0.0000
# 2 2.9323 134.4626 134.6342 0.0000 0.0000 0.0000
# 3 -0.8613 134.6342 222.3402 0.0000 0.0000 0.0000
# 4 0.0000 0.0000 0.0000 -8.8183 0.0000 0.0000
# 5 0.0000 0.0000 0.0000 0.0000 41.6069 0.0000
# 6 0.0000 0.0000 0.0000 0.0000 0.0000 2.2525
#
#
#
# Elastic Compliance Matrix: (Units=1/GPa)
#
#
# Indices 1 2 3 4 5 6 
#
# 1 0.020170 -0.001316 0.000875 0.000000 0.000000 0.000000
# 2 -0.001316 0.018976 -0.011496 0.000000 0.000000 0.000000
# 3 0.000875 -0.011496 0.011462 0.000000 0.000000 0.000000
# 4 0.000000 0.000000 0.000000 -0.113400 0.000000 0.000000
# 5 0.000000 0.000000 0.000000 0.000000 0.024034 0.000000
# 6 0.000000 0.000000 0.000000 0.000000 0.000000 0.443942
#
#
# Mechanical properties :
#
#
# Convention : Reuss Voigt Hill
#
# Bulk Modulus (GPa) = 37.40416 75.55775 56.48095
# Shear Modulus (GPa) = 11.41632 25.00185 18.20909
#
# Velocity S-wave (km/s) = 2.33429 3.45444 2.94806
# Velocity P-wave (km/s) = 5.01178 7.20930 6.20854
#
# Compressibility (1/GPa) = 0.02673499
#
# Stress axis : x y z
#
# Youngs Moduli (GPa) = 49.57790 52.69769 87.24427
#
# Poissons Ratio (x) = 0.06935 -0.07634
# Poissons Ratio (y) = 0.06524 1.00294
# Poissons Ratio (z) = -0.04338 0.60580
#
# Static dielectric constant tensor:
#      x y z
#    x 1.819740 0.000000 0.000000 
#    y 0.000000 1.726500 0.000000 
#    z 0.000000 0.000000 1.762640 
# 
# From -- ./inp_files/30418.got.cif
#   From: 2010.05.17/outbox.cif.g08.bks.cpg/sg51_16_cif.got.tgz:30418.got - 2010.06.03 11:52:47.
