data_PCOD9402044
_publ_section_title
;
Structure prediction by ZEFSAII (Michael W. Deem and Ramdas Pophale) SiO2 
 PCOD9402044
Probable space group: P M M A
;
_chemical_formula_sum "Si O2"
_cell_formula_units_Z 64
_cell_length_a 8.085627
_cell_length_b 15.976420
_cell_length_c 25.453777
_cell_angle_alpha 90.000000
_cell_angle_beta 90.000000
_cell_angle_gamma 90.000000
_cell_volume 3288.102951
_symmetry_space_group_name_H-M "P M M A"
_symmetry_group_IT_number 51
_symmetry_cell_setting 'orthorhombic'
loop_
_space_group_symop_operation_xyz
x,y,z
1/2-x,-y,z
1/2+x,-y,-z
-x,y,-z
-x,-y,-z
1/2+x,y,-z
1/2-x,y,z
x,-y,z
loop_
_atom_site_type_symbol
_atom_site_label
_atom_site_fract_x
_atom_site_fract_y
_atom_site_fract_z
Si Si1 0.447046 0.407497 0.642093
Si Si2 0.552289 0.730690 0.558112
Si Si3 0.558854 0.872260 0.291983
Si Si4 0.551666 0.090821 0.825718
Si Si5 0.048584 0.274106 0.146597
Si Si6 0.449819 0.404971 0.059882
Si Si7 0.054417 0.089716 0.406704
Si Si8 0.944680 0.306227 0.735200
O O1 0.250000 0.407199 0.647272
O O2 0.501310 0.500000 0.624832
O O3 0.495293 0.336056 0.600982
O O4 0.522524 0.384917 0.698672
O O5 0.500000 0.704872 0.500000
O O6 0.750000 0.734739 0.561527
O O7 0.484047 0.824354 0.569638
O O8 0.750000 0.896272 0.295181
O O9 0.486337 0.902087 0.236409
O O10 0.468157 0.903740 0.343823
O O11 0.540893 0.771927 0.289734
O O12 0.750000 0.090808 0.831777
O O13 0.489940 0.177158 0.852162
O O14 0.488341 0.000000 0.844422
O O15 0.250000 0.271612 0.143492
O O16 0.989117 0.334246 0.100181
O O17 0.007439 0.312294 0.203810
O O18 0.250000 0.405470 0.062544
O O19 0.506401 0.500000 0.072750
O O20 0.500000 0.387242 0.000000
O O21 0.250000 0.088802 0.418131
O O22 0.983350 0.000000 0.424418
O O23 0.750000 0.284632 0.733555
#
# Coordination Sequence:
#
# PCOD9402044 Si02
#       8
#     8   8   8   8   8   8   8   8
#     4  11  24  41  61  86 115 144 176 220 273 329
#     4  11  24  42  64  84 108 143 182 228 275 323
#     4  11  20  30  49  77 110 144 178 217 263 315
#     4   9  17  30  48  70 100 139 180 221 262 309
#     4   8  16  30  50  76 104 136 178 220 261 313
#     4   9  17  31  51  74 101 134 174 221 268 315
#     4  10  21  37  57  81 109 143 181 220 265 320
#     4  10  19  34  56  81 110 144 181 219 265 321
#
# _framework density 19.464110999999999
#
# number of rings (size 3 to 8) (size 9 to 14) (size 15 to 20)
#    0.000    2.125    1.250    3.375    0.000    4.500 
#    0.000    4.375    0.000    1.875    0.000    0.000 
#    0.000    0.000    0.000    0.000    0.000    0.000 
#
# Total GULP energy -357120.975219 kJ/mol
# GULP energy per Si atom -5580.015238 kJ/mol
# Density = 1.941981 g / cm^3
# Si number density = 19.464111 Si / 1000 Ang^3
#
#
#
# Elastic Constant Matrix: (Units=GPa)
#
#
# Indices 1 2 3 4 5 6 
#
# 1 23.3336 12.4106 2.2757 0.0000 0.0000 0.0000
# 2 12.4106 144.9657 71.2580 0.0000 0.0000 0.0000
# 3 2.2757 71.2580 89.1008 0.0000 0.0000 0.0000
# 4 0.0000 0.0000 0.0000 1814.1741 0.0000 0.0000
# 5 0.0000 0.0000 0.0000 0.0000 17.0073 0.0000
# 6 0.0000 0.0000 0.0000 0.0000 0.0000 -2.7097
#
#
#
# Elastic Compliance Matrix: (Units=1/GPa)
#
#
# Indices 1 2 3 4 5 6 
#
# 1 0.045453 -0.005472 0.003215 0.000000 0.000000 0.000000
# 2 -0.005472 0.012025 -0.009477 0.000000 0.000000 0.000000
# 3 0.003215 -0.009477 0.018721 0.000000 0.000000 0.000000
# 4 0.000000 0.000000 0.000000 0.000551 0.000000 0.000000
# 5 0.000000 0.000000 0.000000 0.000000 0.058798 0.000000
# 6 0.000000 0.000000 0.000000 0.000000 0.000000 -0.369045
#
#
# Mechanical properties :
#
#
# Convention : Reuss Voigt Hill
#
# Bulk Modulus (GPa) = 18.96414 47.69876 33.33145
# Shear Modulus (GPa) = -25.98059 377.12474 175.57207
#
# Velocity S-wave (km/s) = -3.65745 13.93465 9.50783
# Velocity P-wave (km/s) = 2.84106 16.83623 11.73429
#
# Compressibility (1/GPa) = 0.05273110
#
# Stress axis : x y z
#
# Youngs Moduli (GPa) = 22.00061 83.15858 53.41707
#
# Poissons Ratio (x) = 0.45501 -0.17173
# Poissons Ratio (y) = 0.12038 0.50625
# Poissons Ratio (z) = -0.07073 0.78812
#
# Static dielectric constant tensor:
#      x y z
#    x 1.682830 0.000000 0.000000 
#    y 0.000000 1.741890 0.000000 
#    z 0.000000 0.000000 1.636760 
# 
# From -- ./inp_files/34982.got.cif
#   From: 2010.05.17/outbox.cif.g08.bks.cpg/sg51_18_cif.got.tgz:34982.got - 2010.06.03 11:52:47.
