data_PCOD9402244
_publ_section_title
;
Structure prediction by ZEFSAII (Michael W. Deem and Ramdas Pophale) SiO2 
 PCOD9402244
Probable space group: P M M A
;
_chemical_formula_sum "Si O2"
_cell_formula_units_Z 40
_cell_length_a 14.858157
_cell_length_b 14.939125
_cell_length_c 9.636382
_cell_angle_alpha 90.000000
_cell_angle_beta 90.000000
_cell_angle_gamma 90.000000
_cell_volume 2138.967136
_symmetry_space_group_name_H-M "P M M A"
_symmetry_group_IT_number 51
_symmetry_cell_setting 'orthorhombic'
loop_
_space_group_symop_operation_xyz
x,y,z
1/2-x,-y,z
1/2+x,-y,-z
-x,y,-z
-x,-y,-z
1/2+x,y,-z
1/2-x,y,z
x,-y,z
loop_
_atom_site_type_symbol
_atom_site_label
_atom_site_fract_x
_atom_site_fract_y
_atom_site_fract_z
Si Si1 0.894284 0.893693 0.493305
Si Si2 0.250000 0.353151 0.495245
Si Si3 0.436190 0.600354 0.389882
Si Si4 0.250000 0.796885 0.697847
Si Si5 0.250000 0.738810 0.004345
Si Si6 0.250000 0.177766 0.303394
Si Si7 0.406128 0.395199 0.080022
O O1 0.837242 0.843282 0.373194
O O2 0.838562 0.870967 0.634159
O O3 0.000000 0.869316 0.500000
O O4 0.888728 0.000000 0.469129
O O5 0.159684 0.404677 0.463396
O O6 0.250000 0.305600 0.643512
O O7 0.250000 0.272615 0.383262
O O8 0.500000 0.648733 0.500000
O O9 0.473553 0.500000 0.365596
O O10 0.423380 0.638200 0.237249
O O11 0.250000 0.794796 0.862748
O O12 0.250000 0.801912 0.140774
O O13 0.164950 0.671694 0.012697
O O14 0.374402 0.500000 0.086546
O O15 0.500000 0.394484 0.000000
#
# Coordination Sequence:
#
# PCOD9402244 Si02
#       7
#     8   4   8   4   4   4   8
#     4   9  19  41  68  88 112 148 183 222 274 339
#     4  10  19  35  53  75 106 146 181 233 287 332
#     4  10  20  34  54  77 103 142 195 248 287 326
#     4  10  24  35  56  89 119 143 186 225 283 332
#     4  12  23  39  53  85 120 158 183 236 290 337
#     4  10  20  35  58  87 115 145 188 222 278 339
#     4  10  22  39  56  76 109 158 204 241 287 340
#
# _framework density 18.700614000000002
#
# number of rings (size 3 to 8) (size 9 to 14) (size 15 to 20)
#    0.000    2.200    2.000    1.800    2.800    6.400 
#    0.000    3.000    0.000    2.400    0.000    0.000 
#    0.000    0.000    0.000    0.000    0.000    0.000 
#
# Total GULP energy -222986.360698 kJ/mol
# GULP energy per Si atom -5574.659017 kJ/mol
# Density = 1.865805 g / cm^3
# Si number density = 18.700614 Si / 1000 Ang^3
#
#
#
# Elastic Constant Matrix: (Units=GPa)
#
#
# Indices 1 2 3 4 5 6 
#
# 1 149.3063 33.9296 56.3076 0.0000 0.0000 0.0000
# 2 33.9296 63.4213 33.6635 0.0000 0.0000 0.0000
# 3 56.3076 33.6635 127.1448 0.0000 0.0000 0.0000
# 4 0.0000 0.0000 0.0000 18.4422 0.0000 0.0000
# 5 0.0000 0.0000 0.0000 0.0000 17.9249 0.0000
# 6 0.0000 0.0000 0.0000 0.0000 0.0000 32.5883
#
#
#
# Elastic Compliance Matrix: (Units=1/GPa)
#
#
# Indices 1 2 3 4 5 6 
#
# 1 0.008494 -0.002964 -0.002977 0.000000 0.000000 0.000000
# 2 -0.002964 0.019380 -0.003819 0.000000 0.000000 0.000000
# 3 -0.002977 -0.003819 0.010194 0.000000 0.000000 0.000000
# 4 0.000000 0.000000 0.000000 0.054223 0.000000 0.000000
# 5 0.000000 0.000000 0.000000 0.000000 0.055788 0.000000
# 6 0.000000 0.000000 0.000000 0.000000 0.000000 0.030686
#
#
# Mechanical properties :
#
#
# Convention : Reuss Voigt Hill
#
# Bulk Modulus (GPa) = 53.90954 65.29710 59.60332
# Shear Modulus (GPa) = 24.45372 28.18919 26.32145
#
# Velocity S-wave (km/s) = 3.62006 3.88673 3.75576
# Velocity P-wave (km/s) = 6.80906 7.42530 7.12385
#
# Compressibility (1/GPa) = 0.01854959
#
# Stress axis : x y z
#
# Youngs Moduli (GPa) = 117.73206 51.59922 98.09314
#
# Poissons Ratio (x) = 0.15294 0.29201
# Poissons Ratio (y) = 0.34896 0.37457
# Poissons Ratio (z) = 0.35047 0.19703
#
# Static dielectric constant tensor:
#      x y z
#    x 1.670600 0.000000 0.000000 
#    y 0.000000 1.673000 0.000000 
#    z 0.000000 0.000000 1.656570 
# 
# From -- ./inp_files/8045.got.cif
#   From: 2010.05.17/outbox.cif.g08.bks.cpg/sg51_5_cif.got.tgz:8045.got - 2010.06.03 11:52:47.
