data_PCOD9402087
_publ_section_title
;
Structure prediction by ZEFSAII (Michael W. Deem and Ramdas Pophale) SiO2 
 PCOD9402087
Probable space group: P M M A
;
_chemical_formula_sum "Si O2"
_cell_formula_units_Z 48
_cell_length_a 14.443657
_cell_length_b 15.157962
_cell_length_c 11.663374
_cell_angle_alpha 90.000000
_cell_angle_beta 90.000000
_cell_angle_gamma 90.000000
_cell_volume 2553.537161
_symmetry_space_group_name_H-M "P M M A"
_symmetry_group_IT_number 51
_symmetry_cell_setting 'orthorhombic'
loop_
_space_group_symop_operation_xyz
x,y,z
1/2-x,-y,z
1/2+x,-y,-z
-x,y,-z
-x,-y,-z
1/2+x,y,-z
1/2-x,y,z
x,-y,z
loop_
_atom_site_type_symbol
_atom_site_label
_atom_site_fract_x
_atom_site_fract_y
_atom_site_fract_z
Si Si1 0.850032 0.171861 0.797356
Si Si2 0.986515 0.103681 0.364489
Si Si3 0.391663 0.096891 0.971138
Si Si4 0.439949 0.401936 0.833989
Si Si5 0.356300 0.226251 0.762457
Si Si6 0.141389 0.364378 0.087353
O O1 0.750000 0.173034 0.738507
O O2 0.862842 0.264686 0.864002
O O3 0.931013 0.146695 0.710638
O O4 0.848119 0.105289 0.903957
O O5 0.895730 0.156362 0.327203
O O6 0.000000 0.111961 0.500000
O O7 0.981717 0.000000 0.335636
O O8 0.365966 0.174754 0.884335
O O9 0.371979 0.000000 0.921179
O O10 0.500000 0.104246 0.000000
O O11 0.409565 0.500000 0.797020
O O12 0.413893 0.316911 0.759475
O O13 0.551152 0.405507 0.850908
O O14 0.387712 0.379378 0.954716
O O15 0.250000 0.247867 0.744746
O O16 0.250000 0.392429 0.102422
#
# Coordination Sequence:
#
# PCOD9402087 Si02
#       6
#     8   8   8   8   8   8
#     4  11  21  36  60  87 120 158 194 241 301 363
#     4  11  25  44  64  86 117 159 208 258 303 351
#     4  11  20  33  56  84 118 156 188 230 295 362
#     4  11  22  36  57  88 127 164 196 239 300 366
#     4  12  24  40  60  87 124 159 199 248 300 364
#     4  10  19  34  56  85 122 161 198 237 292 360
#
# _framework density 18.797456
#
# number of rings (size 3 to 8) (size 9 to 14) (size 15 to 20)
#    0.000    1.000    5.000    3.000    0.000    6.333 
#    0.000    1.667    0.000    0.500    0.000    0.000 
#    0.000    0.000    0.000    0.000    0.000    0.000 
#
# Total GULP energy -267674.783505 kJ/mol
# GULP energy per Si atom -5576.557990 kJ/mol
# Density = 1.875467 g / cm^3
# Si number density = 18.797456 Si / 1000 Ang^3
#
#
#
# Elastic Constant Matrix: (Units=GPa)
#
#
# Indices 1 2 3 4 5 6 
#
# 1 126.1058 36.5912 13.0938 0.0000 0.0000 0.0000
# 2 36.5912 131.2287 26.5052 0.0000 0.0000 0.0000
# 3 13.0938 26.5052 53.7063 0.0000 0.0000 0.0000
# 4 0.0000 0.0000 0.0000 3.7400 0.0000 0.0000
# 5 0.0000 0.0000 0.0000 0.0000 -3.6996 0.0000
# 6 0.0000 0.0000 0.0000 0.0000 0.0000 1.2086
#
#
#
# Elastic Compliance Matrix: (Units=1/GPa)
#
#
# Indices 1 2 3 4 5 6 
#
# 1 0.008678 -0.002213 -0.001024 0.000000 0.000000 0.000000
# 2 -0.002213 0.009028 -0.003916 0.000000 0.000000 0.000000
# 3 -0.001024 -0.003916 0.020802 0.000000 0.000000 0.000000
# 4 0.000000 0.000000 0.000000 0.267383 0.000000 0.000000
# 5 0.000000 0.000000 0.000000 0.000000 -0.270303 0.000000
# 6 0.000000 0.000000 0.000000 0.000000 0.000000 0.827412
#
#
# Mechanical properties :
#
#
# Convention : Reuss Voigt Hill
#
# Bulk Modulus (GPa) = 41.31706 51.49124 46.40415
# Shear Modulus (GPa) = 5.64733 15.90650 10.77691
#
# Velocity S-wave (km/s) = 1.73517 2.91212 2.39700
# Velocity P-wave (km/s) = 5.10316 6.22570 5.69217
#
# Compressibility (1/GPa) = 0.02420308
#
# Stress axis : x y z
#
# Youngs Moduli (GPa) = 115.23015 110.76236 48.07216
#
# Poissons Ratio (x) = 0.24512 0.04921
# Poissons Ratio (y) = 0.25501 0.18826
# Poissons Ratio (z) = 0.11795 0.43376
#
# Static dielectric constant tensor:
#      x y z
#    x 1.693170 0.000000 0.000000 
#    y 0.000000 1.682350 0.000000 
#    z 0.000000 0.000000 1.618640 
# 
# From -- ./inp_files/16459.got.cif
#   From: 2010.05.17/outbox.cif.g08.bks.cpg/sg51_9_cif.got.tgz:16459.got - 2010.06.03 11:52:47.
