data_PCOD9402199
_publ_section_title
;
Structure prediction by ZEFSAII (Michael W. Deem and Ramdas Pophale) SiO2 
 PCOD9402199
Probable space group: P M M A
;
_chemical_formula_sum "Si O2"
_cell_formula_units_Z 56
_cell_length_a 21.071336
_cell_length_b 8.335732
_cell_length_c 15.521845
_cell_angle_alpha 90.000000
_cell_angle_beta 90.000000
_cell_angle_gamma 90.000000
_cell_volume 2726.334617
_symmetry_space_group_name_H-M "P M M A"
_symmetry_group_IT_number 51
_symmetry_cell_setting 'orthorhombic'
loop_
_space_group_symop_operation_xyz
x,y,z
1/2-x,-y,z
1/2+x,-y,-z
-x,y,-z
-x,-y,-z
1/2+x,y,-z
1/2-x,y,z
x,-y,z
loop_
_atom_site_type_symbol
_atom_site_label
_atom_site_fract_x
_atom_site_fract_y
_atom_site_fract_z
Si Si1 0.117699 0.808431 0.483156
Si Si2 0.250000 0.684191 0.413529
Si Si3 0.539925 0.805783 0.681726
Si Si4 0.570316 0.686125 0.017539
Si Si5 0.750000 0.173522 0.765109
Si Si6 0.630969 0.681500 0.829991
Si Si7 0.106353 0.804983 0.678085
Si Si8 0.322909 0.806245 0.848624
O O1 0.186455 0.769025 0.445640
O O2 0.065432 0.753891 0.412828
O O3 0.116108 0.744582 0.580622
O O4 0.108810 0.000000 0.489280
O O5 0.250000 0.500000 0.441076
O O6 0.250000 0.698403 0.310766
O O7 0.582052 0.725672 0.754997
O O8 0.466745 0.767197 0.698531
O O9 0.547178 0.000000 0.686214
O O10 0.560600 0.500000 0.044691
O O11 0.621331 0.758285 0.084429
O O12 0.500000 0.758707 0.000000
O O13 0.601188 0.690249 0.923565
O O14 0.811471 0.197083 0.821722
O O15 0.750000 0.000000 0.722026
O O16 0.653953 0.500000 0.816781
O O17 0.153643 0.750551 0.753507
O O18 0.111822 0.000000 0.675916
O O19 0.250000 0.751155 0.867413
O O20 0.321062 0.000000 0.847817
#
# Coordination Sequence:
#
# PCOD9402199 Si02
#       8
#     8   4   8   8   4   8   8   8
#     4  10  20  35  59  86 117 159 203 245 292 351
#     4  12  24  38  56  83 122 157 194 245 298 352
#     4  10  19  34  58  90 121 154 199 243 291 356
#     4  10  23  43  65  89 119 159 201 242 302 373
#     4  12  24  40  60  85 116 155 198 241 294 358
#     4  11  23  38  60  88 120 154 190 240 299 356
#     4   9  19  36  60  87 119 158 202 251 297 344
#     4  10  22  39  60  89 122 159 206 258 304 352
#
# _framework density 20.540398
#
# number of rings (size 3 to 8) (size 9 to 14) (size 15 to 20)
#    0.000    1.714    1.429    3.000    2.000    3.429 
#    0.000    1.429    0.000    1.714    0.000    0.000 
#    0.000    0.000    0.000    0.000    0.000    0.000 
#
# Total GULP energy -312504.658492 kJ/mol
# GULP energy per Si atom -5580.440330 kJ/mol
# Density = 2.049365 g / cm^3
# Si number density = 20.540398 Si / 1000 Ang^3
#
#
#
# Elastic Constant Matrix: (Units=GPa)
#
#
# Indices 1 2 3 4 5 6 
#
# 1 112.3653 6.7869 44.1801 0.0000 0.0000 0.0000
# 2 6.7869 15.1193 19.4158 0.0000 0.0000 0.0000
# 3 44.1801 19.4158 105.3639 0.0000 0.0000 0.0000
# 4 0.0000 0.0000 0.0000 5.6346 0.0000 0.0000
# 5 0.0000 0.0000 0.0000 0.0000 42.8621 0.0000
# 6 0.0000 0.0000 0.0000 0.0000 0.0000 41.8672
#
#
#
# Elastic Compliance Matrix: (Units=1/GPa)
#
#
# Indices 1 2 3 4 5 6 
#
# 1 0.010675 0.001253 -0.004707 0.000000 0.000000 0.000000
# 2 0.001253 0.086791 -0.016519 0.000000 0.000000 0.000000
# 3 -0.004707 -0.016519 0.014508 0.000000 0.000000 0.000000
# 4 0.000000 0.000000 0.000000 0.177476 0.000000 0.000000
# 5 0.000000 0.000000 0.000000 0.000000 0.023331 0.000000
# 6 0.000000 0.000000 0.000000 0.000000 0.000000 0.023885
#
#
# Mechanical properties :
#
#
# Convention : Reuss Voigt Hill
#
# Bulk Modulus (GPa) = 13.88340 41.51267 27.69803
# Shear Modulus (GPa) = 12.48064 28.90381 20.69223
#
# Velocity S-wave (km/s) = 2.46766 3.75529 3.17739
# Velocity P-wave (km/s) = 3.85913 6.24957 5.19374
#
# Compressibility (1/GPa) = 0.07202848
#
# Stress axis : x y z
#
# Youngs Moduli (GPa) = 93.68116 11.52196 68.92539
#
# Poissons Ratio (x) = -0.01443 0.32442
# Poissons Ratio (y) = -0.11735 1.13855
# Poissons Ratio (z) = 0.44093 0.19033
#
# Static dielectric constant tensor:
#      x y z
#    x 1.731840 0.000000 0.000000 
#    y 0.000000 1.729030 0.000000 
#    z 0.000000 0.000000 1.653400 
# 
# From -- ./inp_files/25894.got.cif
#   From: 2010.05.17/outbox.cif.g08.bks.cpg/sg51_13_cif.got.tgz:25894.got - 2010.06.03 11:52:47.
