data_PCOD9402364
_publ_section_title
;
Structure prediction by ZEFSAII (Michael W. Deem and Ramdas Pophale) SiO2 
 PCOD9402364
Probable space group: P M M A
;
_chemical_formula_sum "Si O2"
_cell_formula_units_Z 64
_cell_length_a 21.918886
_cell_length_b 15.246278
_cell_length_c 9.470887
_cell_angle_alpha 90.000000
_cell_angle_beta 90.000000
_cell_angle_gamma 90.000000
_cell_volume 3164.994555
_symmetry_space_group_name_H-M "P M M A"
_symmetry_group_IT_number 51
_symmetry_cell_setting 'orthorhombic'
loop_
_space_group_symop_operation_xyz
x,y,z
1/2-x,-y,z
1/2+x,-y,-z
-x,y,-z
-x,-y,-z
1/2+x,y,-z
1/2-x,y,z
x,-y,z
loop_
_atom_site_type_symbol
_atom_site_label
_atom_site_fract_x
_atom_site_fract_y
_atom_site_fract_z
Si Si1 0.089215 0.104714 0.718837
Si Si2 0.182139 0.894995 0.478925
Si Si3 0.850294 0.593428 0.753214
Si Si4 0.009353 0.401866 0.335638
Si Si5 0.176112 0.404230 0.918000
Si Si6 0.154850 0.780633 0.219503
Si Si7 0.681101 0.788787 0.106439
Si Si8 0.490198 0.232309 0.168777
O O1 0.125625 0.132916 0.577504
O O2 0.135714 0.137521 0.839281
O O3 0.027305 0.156273 0.751217
O O4 0.080770 0.000000 0.718970
O O5 0.250000 0.868357 0.529943
O O6 0.173138 0.856923 0.323964
O O7 0.180972 0.000000 0.477877
O O8 0.820977 0.500000 0.714455
O O9 0.823253 0.687527 0.715355
O O10 0.918323 0.592462 0.692804
O O11 0.852012 0.595818 0.924562
O O12 0.983790 0.500000 0.310019
O O13 0.987294 0.325577 0.231489
O O14 0.000000 0.379297 0.500000
O O15 0.250000 0.401500 0.935364
O O16 0.161367 0.500000 0.852884
O O17 0.160350 0.310339 0.849906
O O18 0.081562 0.776238 0.201594
O O19 0.180670 0.789619 0.063002
O O20 0.750000 0.803045 0.155736
O O21 0.500000 0.228108 0.000000
#
# Coordination Sequence:
#
# PCOD9402364 Si02
#       8
#     8   8   8   8   8   8   8   8
#     4  11  25  42  60  82 116 159 199 248 310 367
#     4  10  23  43  64  87 113 146 198 256 307 362
#     4   8  15  28  49  78 113 147 181 223 274 336
#     4   9  19  35  59  88 118 157 201 243 287 342
#     4   8  14  26  48  79 112 143 178 227 285 345
#     4  10  20  36  61  90 118 152 193 250 293 350
#     4  10  19  35  59  85 113 151 198 244 298 351
#     4  11  23  40  60  90 128 161 198 242 296 363
#
# _framework density 20.221204
#
# number of rings (size 3 to 8) (size 9 to 14) (size 15 to 20)
#    0.000    2.375    1.250    0.750    3.500    2.750 
#    0.000    1.875    0.000    0.750    0.000    0.000 
#    0.000    0.000    0.000    0.000    0.000    0.000 
#
# Total GULP energy -356746.079087 kJ/mol
# GULP energy per Si atom -5574.157486 kJ/mol
# Density = 2.017518 g / cm^3
# Si number density = 20.221204 Si / 1000 Ang^3
#
#
#
# Elastic Constant Matrix: (Units=GPa)
#
#
# Indices 1 2 3 4 5 6 
#
# 1 89.0498 21.9820 13.5978 0.0000 0.0000 0.0000
# 2 21.9820 43.1910 19.5151 0.0000 0.0000 0.0000
# 3 13.5978 19.5151 45.1465 0.0000 0.0000 0.0000
# 4 0.0000 0.0000 0.0000 18.3939 0.0000 0.0000
# 5 0.0000 0.0000 0.0000 0.0000 26.9786 0.0000
# 6 0.0000 0.0000 0.0000 0.0000 0.0000 -173.8861
#
#
#
# Elastic Compliance Matrix: (Units=1/GPa)
#
#
# Indices 1 2 3 4 5 6 
#
# 1 0.012905 -0.005979 -0.001302 0.000000 0.000000 0.000000
# 2 -0.005979 0.031543 -0.011834 0.000000 0.000000 0.000000
# 3 -0.001302 -0.011834 0.027658 0.000000 0.000000 0.000000
# 4 0.000000 0.000000 0.000000 0.054366 0.000000 0.000000
# 5 0.000000 0.000000 0.000000 0.000000 0.037066 0.000000
# 6 0.000000 0.000000 0.000000 0.000000 0.000000 -0.005751
#
#
# Mechanical properties :
#
#
# Convention : Reuss Voigt Hill
#
# Bulk Modulus (GPa) = 29.52079 31.95302 30.73691
# Shear Modulus (GPa) = 24.11861 -17.54988 3.28437
#
# Velocity S-wave (km/s) = 3.45735 -2.94920 1.27583
# Velocity P-wave (km/s) = 5.52886 2.05888 4.17177
#
# Compressibility (1/GPa) = 0.03387444
#
# Stress axis : x y z
#
# Youngs Moduli (GPa) = 77.49226 31.70265 36.15642
#
# Poissons Ratio (x) = 0.18956 0.04708
# Poissons Ratio (y) = 0.46336 0.42787
# Poissons Ratio (z) = 0.10090 0.37517
#
# Static dielectric constant tensor:
#      x y z
#    x 1.727630 0.000000 0.000000 
#    y 0.000000 1.763280 0.000000 
#    z 0.000000 0.000000 1.683280 
# 
# From -- ./inp_files/11854.got.cif
#   From: 2010.05.17/outbox.cif.g08.bks.cpg/sg51_6_cif.got.tgz:11854.got - 2010.06.03 11:52:47.
