data_PCOD9402243
_publ_section_title
;
Structure prediction by ZEFSAII (Michael W. Deem and Ramdas Pophale) SiO2 
 PCOD9402243
Probable space group: P M M A
;
_chemical_formula_sum "Si O2"
_cell_formula_units_Z 40
_cell_length_a 8.447963
_cell_length_b 12.168594
_cell_length_c 21.178615
_cell_angle_alpha 90.000000
_cell_angle_beta 90.000000
_cell_angle_gamma 90.000000
_cell_volume 2177.158061
_symmetry_space_group_name_H-M "P M M A"
_symmetry_group_IT_number 51
_symmetry_cell_setting 'orthorhombic'
loop_
_space_group_symop_operation_xyz
x,y,z
1/2-x,-y,z
1/2+x,-y,-z
-x,y,-z
-x,-y,-z
1/2+x,y,-z
1/2-x,y,z
x,-y,z
loop_
_atom_site_type_symbol
_atom_site_label
_atom_site_fract_x
_atom_site_fract_y
_atom_site_fract_z
Si Si1 0.943492 0.873298 0.807887
Si Si2 0.558125 0.500000 0.895316
Si Si3 0.561776 0.722559 0.693711
Si Si4 0.436665 0.500000 0.754692
Si Si5 0.061131 0.373618 0.569820
Si Si6 0.559903 0.743005 0.933312
O O1 0.750000 0.869757 0.807919
O O2 0.995920 0.815696 0.742649
O O3 0.995622 0.806049 0.870170
O O4 0.991840 0.000000 0.811424
O O5 0.750000 0.500000 0.885861
O O6 0.471622 0.500000 0.828541
O O7 0.514651 0.614362 0.928299
O O8 0.750000 0.732408 0.689039
O O9 0.515567 0.608029 0.726324
O O10 0.494262 0.710594 0.623407
O O11 0.250000 0.500000 0.740450
O O12 0.250000 0.375796 0.569361
O O13 0.005975 0.500000 0.584216
O O14 0.000000 0.346688 0.500000
O O15 0.750000 0.748376 0.933391
O O16 0.500000 0.788522 0.000000
#
# Coordination Sequence:
#
# PCOD9402243 Si02
#       6
#     8   4   8   4   8   8
#     4   9  19  36  57  79 103 138 185 230 272 320
#     4  10  19  35  53  75 105 141 178 215 271 335
#     4  11  20  34  57  80 109 146 181 221 269 322
#     4  12  22  31  50  81 111 139 176 223 271 323
#     4  10  20  33  51  81 118 151 179 214 261 316
#     4  10  20  34  53  77 107 140 176 220 271 329
#
# _framework density 18.372575999999999
#
# number of rings (size 3 to 8) (size 9 to 14) (size 15 to 20)
#    0.000    1.800    3.000    2.400    0.000    2.000 
#    0.000    0.000    0.000    5.400    0.000    0.000 
#    0.000    0.000    0.000    0.000    0.000    0.000 
#
# Total GULP energy -223204.175765 kJ/mol
# GULP energy per Si atom -5580.104394 kJ/mol
# Density = 1.833076 g / cm^3
# Si number density = 18.372576 Si / 1000 Ang^3
#
#
#
# Elastic Constant Matrix: (Units=GPa)
#
#
# Indices 1 2 3 4 5 6 
#
# 1 16.4609 12.0277 29.1442 0.0000 0.0000 0.0000
# 2 12.0277 113.2260 71.7597 0.0000 0.0000 0.0000
# 3 29.1442 71.7597 178.6690 0.0000 0.0000 0.0000
# 4 0.0000 0.0000 0.0000 0.1868 0.0000 0.0000
# 5 0.0000 0.0000 0.0000 0.0000 31.6878 0.0000
# 6 0.0000 0.0000 0.0000 0.0000 0.0000 0.8022
#
#
#
# Elastic Compliance Matrix: (Units=1/GPa)
#
#
# Indices 1 2 3 4 5 6 
#
# 1 0.085429 -0.000326 -0.013804 0.000000 0.000000 0.000000
# 2 -0.000326 0.011849 -0.004706 0.000000 0.000000 0.000000
# 3 -0.013804 -0.004706 0.009739 0.000000 0.000000 0.000000
# 4 0.000000 0.000000 0.000000 5.353583 0.000000 0.000000
# 5 0.000000 0.000000 0.000000 0.000000 0.031558 0.000000
# 6 0.000000 0.000000 0.000000 0.000000 0.000000 1.246512
#
#
# Mechanical properties :
#
#
# Convention : Reuss Voigt Hill
#
# Bulk Modulus (GPa) = 14.42080 59.35770 36.88925
# Shear Modulus (GPa) = 0.73535 19.56364 10.14950
#
# Velocity S-wave (km/s) = 0.63334 3.26671 2.35293
# Velocity P-wave (km/s) = 2.89844 6.82689 5.24440
#
# Compressibility (1/GPa) = 0.06934429
#
# Stress axis : x y z
#
# Youngs Moduli (GPa) = 11.70566 84.39595 102.68415
#
# Poissons Ratio (x) = 0.02754 1.41745
# Poissons Ratio (y) = 0.00382 0.48320
# Poissons Ratio (z) = 0.16158 0.39714
#
# Static dielectric constant tensor:
#      x y z
#    x 1.629720 0.000000 0.000000 
#    y 0.000000 1.619750 0.000000 
#    z 0.000000 0.000000 1.648400 
# 
# From -- ./inp_files/31427.got.cif
#   From: 2010.05.17/outbox.cif.g08.bks.cpg/sg51_16_cif.got.tgz:31427.got - 2010.06.03 11:52:47.
