data_PCOD9402999
_publ_section_title
;
Structure prediction by ZEFSAII (Michael W. Deem and Ramdas Pophale) SiO2 
 PCOD9402999
Probable space group: P M M A
;
_chemical_formula_sum "Si O2"
_cell_formula_units_Z 48
_cell_length_a 7.740475
_cell_length_b 10.329593
_cell_length_c 29.756773
_cell_angle_alpha 90.000000
_cell_angle_beta 90.000000
_cell_angle_gamma 90.000000
_cell_volume 2379.231244
_symmetry_space_group_name_H-M "P M M A"
_symmetry_group_IT_number 51
_symmetry_cell_setting 'orthorhombic'
loop_
_space_group_symop_operation_xyz
x,y,z
1/2-x,-y,z
1/2+x,-y,-z
-x,y,-z
-x,-y,-z
1/2+x,y,-z
1/2-x,y,z
x,-y,z
loop_
_atom_site_type_symbol
_atom_site_label
_atom_site_fract_x
_atom_site_fract_y
_atom_site_fract_z
Si Si1 0.542487 0.250536 0.104667
Si Si2 0.044287 0.146214 0.198162
Si Si3 0.045795 0.146885 0.699999
Si Si4 0.458045 0.000000 0.947569
Si Si5 0.542597 0.144824 0.447675
Si Si6 0.038192 0.349927 0.625913
Si Si7 0.041681 0.500000 0.947540
O O1 0.750000 0.250694 0.100740
O O2 0.503001 0.238685 0.157215
O O3 0.475459 0.375101 0.078769
O O4 0.474980 0.125259 0.078423
O O5 0.250000 0.141532 0.201286
O O6 0.976745 0.179547 0.247546
O O7 0.979676 0.000000 0.187351
O O8 0.250000 0.137936 0.690527
O O9 0.980178 0.261769 0.668210
O O10 0.974434 0.000000 0.692838
O O11 0.250000 0.000000 0.944000
O O12 0.500000 0.000000 0.000000
O O13 0.500000 0.162904 0.500000
O O14 0.750000 0.141309 0.443129
O O15 0.482501 0.263967 0.417071
O O16 0.478964 0.000000 0.434198
O O17 0.250000 0.354353 0.626126
O O18 0.980680 0.500000 0.626155
O O19 0.250000 0.500000 0.944390
O O20 0.000000 0.500000 0.000000
#
# Coordination Sequence:
#
# PCOD9402999 Si02
#       7
#     8   8   8   4   8   8   4
#     4  10  20  36  55  77 104 136 172 209 249 300
#     4  10  20  34  54  80 105 131 167 212 259 305
#     4   9  17  31  53  75  96 128 167 207 252 303
#     4  10  20  32  52  78 104 132 166 206 249 294
#     4   9  17  30  49  73 101 133 171 212 252 298
#     4   9  17  30  49  74 101 130 169 213 253 297
#     4  10  22  38  56  78 106 138 172 208 249 300
#
# _framework density 20.174583999999999
#
# number of rings (size 3 to 8) (size 9 to 14) (size 15 to 20)
#    0.000    2.500    0.833    1.500    0.000    4.333 
#    1.500    0.833    0.000    5.000    0.000    0.000 
#    0.000    0.000    0.000    0.000    0.000    0.000 
#
# Total GULP energy -267790.669104 kJ/mol
# GULP energy per Si atom -5578.972273 kJ/mol
# Density = 2.012867 g / cm^3
# Si number density = 20.174584 Si / 1000 Ang^3
#
#
#
# Elastic Constant Matrix: (Units=GPa)
#
#
# Indices 1 2 3 4 5 6 
#
# 1 28.1904 12.8295 -5.6246 0.0000 0.0000 0.0000
# 2 12.8295 206.6874 121.8431 0.0000 0.0000 0.0000
# 3 -5.6246 121.8431 151.0426 0.0000 0.0000 0.0000
# 4 0.0000 0.0000 0.0000 29.7757 0.0000 0.0000
# 5 0.0000 0.0000 0.0000 0.0000 20.8725 0.0000
# 6 0.0000 0.0000 0.0000 0.0000 0.0000 1.3788
#
#
#
# Elastic Compliance Matrix: (Units=1/GPa)
#
#
# Indices 1 2 3 4 5 6 
#
# 1 0.039685 -0.006358 0.006607 0.000000 0.000000 0.000000
# 2 -0.006358 0.010244 -0.008500 0.000000 0.000000 0.000000
# 3 0.006607 -0.008500 0.013724 0.000000 0.000000 0.000000
# 4 0.000000 0.000000 0.000000 0.033584 0.000000 0.000000
# 5 0.000000 0.000000 0.000000 0.000000 0.047910 0.000000
# 6 0.000000 0.000000 0.000000 0.000000 0.000000 0.725251
#
#
# Mechanical properties :
#
#
# Convention : Reuss Voigt Hill
#
# Bulk Modulus (GPa) = 21.20930 71.55737 46.38334
# Shear Modulus (GPa) = 5.53945 27.53022 16.53483
#
# Velocity S-wave (km/s) = 1.65883 3.69806 2.86595
# Velocity P-wave (km/s) = 3.76891 7.33350 5.83030
#
# Compressibility (1/GPa) = 0.04714913
#
# Stress axis : x y z
#
# Youngs Moduli (GPa) = 25.19857 97.62010 72.86700
#
# Poissons Ratio (x) = 0.62066 -0.48140
# Poissons Ratio (y) = 0.16021 0.61939
# Poissons Ratio (z) = -0.16648 0.82979
#
# Static dielectric constant tensor:
#      x y z
#    x 1.735450 0.000000 0.000000 
#    y 0.000000 1.735320 0.000000 
#    z 0.000000 0.000000 1.686910 
# 
# From -- ./inp_files/37200.got.cif
#   From: 2010.05.17/outbox.cif.g08.bks.cpg/sg51_19_cif.got.tgz:37200.got - 2010.06.03 11:52:47.
