data_PCOD9402327
_publ_section_title
;
Structure prediction by ZEFSAII (Michael W. Deem and Ramdas Pophale) SiO2 
 PCOD9402327
Probable space group: P M M A
;
_chemical_formula_sum "Si O2"
_cell_formula_units_Z 64
_cell_length_a 8.982869
_cell_length_b 19.027973
_cell_length_c 20.143781
_cell_angle_alpha 90.000000
_cell_angle_beta 90.000000
_cell_angle_gamma 90.000000
_cell_volume 3443.091657
_symmetry_space_group_name_H-M "P M M A"
_symmetry_group_IT_number 51
_symmetry_cell_setting 'orthorhombic'
loop_
_space_group_symop_operation_xyz
x,y,z
1/2-x,-y,z
1/2+x,-y,-z
-x,y,-z
-x,-y,-z
1/2+x,y,-z
1/2-x,y,z
x,-y,z
loop_
_atom_site_type_symbol
_atom_site_label
_atom_site_fract_x
_atom_site_fract_y
_atom_site_fract_z
Si Si1 0.419448 0.416117 0.433965
Si Si2 0.430608 0.919193 0.329781
Si Si3 0.424055 0.847994 0.190865
Si Si4 0.573627 0.081962 0.066487
Si Si5 0.575363 0.319514 0.805275
Si Si6 0.574163 0.323621 0.335602
Si Si7 0.070242 0.202584 0.427042
Si Si8 0.429063 0.418110 0.071290
O O1 0.500000 0.388688 0.500000
O O2 0.250000 0.389452 0.428641
O O3 0.412329 0.500000 0.438223
O O4 0.520111 0.393051 0.373285
O O5 0.250000 0.921098 0.329163
O O6 0.474347 0.877663 0.262531
O O7 0.472177 0.872124 0.393244
O O8 0.483620 0.000000 0.330322
O O9 0.250000 0.867793 0.183412
O O10 0.517636 0.881481 0.132389
O O11 0.433486 0.764171 0.184089
O O12 0.750000 0.086359 0.060419
O O13 0.529872 0.000000 0.070958
O O14 0.500000 0.112156 0.000000
O O15 0.750000 0.336452 0.791857
O O16 0.479421 0.331014 0.739631
O O17 0.528000 0.365827 0.868785
O O18 0.750000 0.312897 0.339930
O O19 0.490389 0.261422 0.375872
O O20 0.250000 0.207164 0.430705
O O21 0.000000 0.210358 0.500000
O O22 0.250000 0.414228 0.065056
O O23 0.468029 0.500000 0.086015
O O24 0.500000 0.399851 0.000000
#
# Coordination Sequence:
#
# PCOD9402327 Si02
#       8
#     8   8   8   8   8   8   8   8
#     4  10  21  38  60  85 115 151 191 236 287 345
#     4   9  18  34  58  84 110 147 192 236 291 355
#     4  10  19  35  58  82 111 149 189 237 291 350
#     4  10  21  36  54  79 111 147 187 232 281 340
#     4  10  21  38  59  85 116 152 194 236 285 340
#     4  12  24  38  58  85 118 155 194 240 291 346
#     4  11  22  39  60  84 115 151 194 242 294 354
#     4   9  19  37  61  87 118 155 195 237 282 334
#
# _framework density 18.587945999999999
#
# number of rings (size 3 to 8) (size 9 to 14) (size 15 to 20)
#    0.000    1.875    1.250    3.000    0.000    4.250 
#    0.000    2.500    0.000    1.875    0.000    0.000 
#    0.000    0.000    0.000    0.000    0.000    0.000 
#
# Total GULP energy -357191.297793 kJ/mol
# GULP energy per Si atom -5581.114028 kJ/mol
# Density = 1.854564 g / cm^3
# Si number density = 18.587946 Si / 1000 Ang^3
#
#
#
# Elastic Constant Matrix: (Units=GPa)
#
#
# Indices 1 2 3 4 5 6 
#
# 1 64.2594 31.1180 54.0748 0.0000 0.0000 0.0000
# 2 31.1180 74.0896 55.0406 0.0000 0.0000 0.0000
# 3 54.0748 55.0406 148.2881 0.0000 0.0000 0.0000
# 4 0.0000 0.0000 0.0000 14.9880 0.0000 0.0000
# 5 0.0000 0.0000 0.0000 0.0000 37.3115 0.0000
# 6 0.0000 0.0000 0.0000 0.0000 0.0000 17.9233
#
#
#
# Elastic Compliance Matrix: (Units=1/GPa)
#
#
# Indices 1 2 3 4 5 6 
#
# 1 0.023660 -0.004871 -0.006820 0.000000 0.000000 0.000000
# 2 -0.004871 0.019639 -0.005513 0.000000 0.000000 0.000000
# 3 -0.006820 -0.005513 0.011277 0.000000 0.000000 0.000000
# 4 0.000000 0.000000 0.000000 0.066720 0.000000 0.000000
# 5 0.000000 0.000000 0.000000 0.000000 0.026801 0.000000
# 6 0.000000 0.000000 0.000000 0.000000 0.000000 0.055793
#
#
# Mechanical properties :
#
#
# Convention : Reuss Voigt Hill
#
# Bulk Modulus (GPa) = 49.58453 63.01156 56.29804
# Shear Modulus (GPa) = 20.40651 23.80479 22.10565
#
# Velocity S-wave (km/s) = 3.31695 3.58251 3.45229
# Velocity P-wave (km/s) = 6.43453 7.14739 6.80031
#
# Compressibility (1/GPa) = 0.02016758
#
# Stress axis : x y z
#
# Youngs Moduli (GPa) = 42.26627 50.92015 88.67705
#
# Poissons Ratio (x) = 0.24802 0.60476
# Poissons Ratio (y) = 0.20587 0.48889
# Poissons Ratio (z) = 0.28825 0.28073
#
# Static dielectric constant tensor:
#      x y z
#    x 1.621370 0.000000 0.000000 
#    y 0.000000 1.666600 0.000000 
#    z 0.000000 0.000000 1.661930 
# 
# From -- ./inp_files/32398.got.cif
#   From: 2010.05.17/outbox.cif.g08.bks.cpg/sg51_17_cif.got.tgz:32398.got - 2010.06.03 11:52:47.
