data_PCOD9402579
_publ_section_title
;
Structure prediction by ZEFSAII (Michael W. Deem and Ramdas Pophale) SiO2 
 PCOD9402579
Probable space group: P M M A
;
_chemical_formula_sum "Si O2"
_cell_formula_units_Z 40
_cell_length_a 13.561861
_cell_length_b 7.450199
_cell_length_c 15.745421
_cell_angle_alpha 90.000000
_cell_angle_beta 90.000000
_cell_angle_gamma 90.000000
_cell_volume 1590.894716
_symmetry_space_group_name_H-M "P M M A"
_symmetry_group_IT_number 51
_symmetry_cell_setting 'orthorhombic'
loop_
_space_group_symop_operation_xyz
x,y,z
1/2-x,-y,z
1/2+x,-y,-z
-x,y,-z
-x,-y,-z
1/2+x,y,-z
1/2-x,y,z
x,-y,z
loop_
_atom_site_type_symbol
_atom_site_label
_atom_site_fract_x
_atom_site_fract_y
_atom_site_fract_z
Si Si1 0.142676 0.281438 0.438574
Si Si2 0.916684 0.291629 0.195362
Si Si3 0.855552 0.796111 0.825004
Si Si4 0.430583 0.719482 0.622909
Si Si5 0.116467 0.292361 0.986739
O O1 0.250000 0.219583 0.409310
O O2 0.142363 0.500000 0.435809
O O3 0.125566 0.229783 0.537098
O O4 0.044933 0.224299 0.388736
O O5 0.887291 0.500000 0.193393
O O6 0.037439 0.288659 0.193194
O O7 0.889319 0.216337 0.287196
O O8 0.872463 0.214364 0.108022
O O9 0.750000 0.715657 0.795111
O O10 0.860751 0.000000 0.794209
O O11 0.848524 0.798415 0.927644
O O12 0.429611 0.500000 0.625123
O O13 0.148309 0.500000 0.988483
O O14 0.000000 0.295158 0.000000
#
# Coordination Sequence:
#
# PCOD9402579 Si02
#       5
#     8   8   8   8   8
#     4   8  13  22  37  58  87 120 147 175 216 261
#     4   9  17  29  45  65  88 113 143 181 222 261
#     4  10  20  31  43  62  87 114 146 182 219 262
#     4   8  14  24  38  60  89 116 145 180 216 262
#     4   8  15  28  44  61  82 110 143 176 212 256
#
# _framework density 25.143084999999999
#
# number of rings (size 3 to 8) (size 9 to 14) (size 15 to 20)
#    0.000    3.400    0.000    3.000    0.000    6.000 
#    0.000    3.000    0.000    3.600    0.000    2.800 
#    0.000    1.600    0.000    0.000    0.000    0.000 
#
# Total GULP energy -223074.579606 kJ/mol
# GULP energy per Si atom -5576.864490 kJ/mol
# Density = 2.508586 g / cm^3
# Si number density = 25.143085 Si / 1000 Ang^3
#
#
#
# Elastic Constant Matrix: (Units=GPa)
#
#
# Indices 1 2 3 4 5 6 
#
# 1 91.5830 -8.3508 -16.7068 0.0000 0.0000 0.0000
# 2 -8.3508 77.0619 -0.5364 0.0000 0.0000 0.0000
# 3 -16.7068 -0.5364 157.6714 0.0000 0.0000 0.0000
# 4 0.0000 0.0000 0.0000 980.0654 0.0000 0.0000
# 5 0.0000 0.0000 0.0000 0.0000 -45.2643 0.0000
# 6 0.0000 0.0000 0.0000 0.0000 0.0000 -7.4682
#
#
#
# Elastic Compliance Matrix: (Units=1/GPa)
#
#
# Indices 1 2 3 4 5 6 
#
# 1 0.011249 0.001227 0.001196 0.000000 0.000000 0.000000
# 2 0.001227 0.013111 0.000175 0.000000 0.000000 0.000000
# 3 0.001196 0.000175 0.006470 0.000000 0.000000 0.000000
# 4 0.000000 0.000000 0.000000 0.001020 0.000000 0.000000
# 5 0.000000 0.000000 0.000000 0.000000 -0.022092 0.000000
# 6 0.000000 0.000000 0.000000 0.000000 0.000000 -0.133900
#
#
# Mechanical properties :
#
#
# Convention : Reuss Voigt Hill
#
# Bulk Modulus (GPa) = 27.75783 30.56981 29.16382
# Shear Modulus (GPa) = -42.61467 208.92727 83.15630
#
# Velocity S-wave (km/s) = -4.12137 9.12555 5.75717
# Velocity P-wave (km/s) = 3.40347 11.10041 7.47112
#
# Compressibility (1/GPa) = 0.03602587
#
# Stress axis : x y z
#
# Youngs Moduli (GPa) = 88.89548 76.27299 154.56812
#
# Poissons Ratio (x) = -0.09361 -0.18488
# Poissons Ratio (y) = -0.10911 -0.02700
# Poissons Ratio (z) = -0.10633 -0.01332
#
# Static dielectric constant tensor:
#      x y z
#    x 1.899970 0.000000 0.000000 
#    y 0.000000 1.945120 0.000000 
#    z 0.000000 0.000000 2.009280 
# 
# From -- ./inp_files/23703.got.cif
#   From: 2010.05.17/outbox.cif.g08.bks.cpg/sg51_12_cif.got.tgz:23703.got - 2010.06.03 11:52:47.
