data_PCOD9402338
_publ_section_title
;
Structure prediction by ZEFSAII (Michael W. Deem and Ramdas Pophale) SiO2 
 PCOD9402338
Probable space group: P M M A
;
_chemical_formula_sum "Si O2"
_cell_formula_units_Z 48
_cell_length_a 8.609505
_cell_length_b 31.687985
_cell_length_c 9.498755
_cell_angle_alpha 90.000000
_cell_angle_beta 90.000000
_cell_angle_gamma 90.000000
_cell_volume 2591.430062
_symmetry_space_group_name_H-M "P M M A"
_symmetry_group_IT_number 51
_symmetry_cell_setting 'orthorhombic'
loop_
_space_group_symop_operation_xyz
x,y,z
1/2-x,-y,z
1/2+x,-y,-z
-x,y,-z
-x,-y,-z
1/2+x,y,-z
1/2-x,y,z
x,-y,z
loop_
_atom_site_type_symbol
_atom_site_label
_atom_site_fract_x
_atom_site_fract_y
_atom_site_fract_z
Si Si1 0.937532 0.000000 0.341885
Si Si2 0.937214 0.407484 0.340138
Si Si3 0.063291 0.744613 0.656020
Si Si4 0.562278 0.919336 0.157298
Si Si5 0.435154 0.669558 0.157289
Si Si6 0.937170 0.841420 0.344945
Si Si7 0.436675 0.500000 0.658800
O O1 0.986752 0.958519 0.255214
O O2 0.000000 0.000000 0.500000
O O3 0.750000 0.000000 0.348020
O O4 0.750000 0.404636 0.343332
O O5 0.983212 0.454217 0.282267
O O6 0.000000 0.403898 0.500000
O O7 0.004682 0.370323 0.246274
O O8 0.250000 0.741885 0.655014
O O9 0.017242 0.793138 0.687926
O O10 0.000000 0.734661 0.500000
O O11 0.995508 0.711644 0.765887
O O12 0.750000 0.919457 0.152123
O O13 0.510882 0.875815 0.231432
O O14 0.500000 0.923474 0.000000
O O15 0.250000 0.669549 0.155137
O O16 0.500000 0.667492 0.000000
O O17 0.750000 0.842578 0.350879
O O18 0.000000 0.852020 0.500000
O O19 0.250000 0.500000 0.654508
O O20 0.500000 0.500000 0.500000
#
# Coordination Sequence:
#
# PCOD9402338 Si02
#       7
#     4   8   8   8   8   8   4
#     4  10  21  36  56  80 108 140 181 226 270 318
#     4  10  19  35  58  85 113 144 181 222 266 317
#     4  10  20  37  59  83 109 141 180 225 270 320
#     4  10  21  36  53  79 111 144 180 221 266 320
#     4  12  25  40  56  78 108 144 182 225 274 326
#     4   9  19  35  56  81 109 139 178 221 265 316
#     4   8  16  30  53  82 111 140 176 220 264 310
#
# _framework density 18.522592
#
# number of rings (size 3 to 8) (size 9 to 14) (size 15 to 20)
#    0.000    2.000    0.000    3.750    0.000    3.333 
#    0.000    2.083    0.000    0.000    0.000    0.000 
#    0.000    0.000    0.000    0.000    0.000    0.000 
#
# Total GULP energy -267999.272380 kJ/mol
# GULP energy per Si atom -5583.318175 kJ/mol
# Density = 1.848043 g / cm^3
# Si number density = 18.522592 Si / 1000 Ang^3
#
#
#
# Elastic Constant Matrix: (Units=GPa)
#
#
# Indices 1 2 3 4 5 6 
#
# 1 59.6983 45.6071 42.0161 0.0000 0.0000 0.0000
# 2 45.6071 150.9313 115.7127 0.0000 0.0000 0.0000
# 3 42.0161 115.7127 153.8874 0.0000 0.0000 0.0000
# 4 0.0000 0.0000 0.0000 -8.8150 0.0000 0.0000
# 5 0.0000 0.0000 0.0000 0.0000 35.3600 0.0000
# 6 0.0000 0.0000 0.0000 0.0000 0.0000 5.9982
#
#
#
# Elastic Compliance Matrix: (Units=1/GPa)
#
#
# Indices 1 2 3 4 5 6 
#
# 1 0.022146 -0.004855 -0.002396 0.000000 0.000000 0.000000
# 2 -0.004855 0.016708 -0.011238 0.000000 0.000000 0.000000
# 3 -0.002396 -0.011238 0.015602 0.000000 0.000000 0.000000
# 4 0.000000 0.000000 0.000000 -0.113443 0.000000 0.000000
# 5 0.000000 0.000000 0.000000 0.000000 0.028281 0.000000
# 6 0.000000 0.000000 0.000000 0.000000 0.000000 0.166717
#
#
# Mechanical properties :
#
#
# Convention : Reuss Voigt Hill
#
# Bulk Modulus (GPa) = 57.21071 85.68765 71.44918
# Shear Modulus (GPa) = 27.96178 17.25404 22.60791
#
# Velocity S-wave (km/s) = 3.88958 3.05538 3.49744
# Velocity P-wave (km/s) = 7.15023 7.66868 7.41399
#
# Compressibility (1/GPa) = 0.01747925
#
# Stress axis : x y z
#
# Youngs Moduli (GPa) = 45.15432 59.85114 64.09259
#
# Poissons Ratio (x) = 0.29058 0.15356
# Poissons Ratio (y) = 0.21923 0.72026
# Poissons Ratio (z) = 0.10819 0.67259
#
# Static dielectric constant tensor:
#      x y z
#    x 1.621150 0.000000 0.000000 
#    y 0.000000 1.665040 0.000000 
#    z 0.000000 0.000000 1.592210 
# 
# From -- ./inp_files/6271.got.cif
#   From: 2010.05.17/outbox.cif.g08.bks.cpg/sg51_4_cif.got.tgz:6271.got - 2010.06.03 11:52:47.
