data_PCOD9402192
_publ_section_title
;
Structure prediction by ZEFSAII (Michael W. Deem and Ramdas Pophale) SiO2 
 PCOD9402192
Probable space group: P M M A
;
_chemical_formula_sum "Si O2"
_cell_formula_units_Z 56
_cell_length_a 19.629992
_cell_length_b 14.700689
_cell_length_c 9.477292
_cell_angle_alpha 90.000000
_cell_angle_beta 90.000000
_cell_angle_gamma 90.000000
_cell_volume 2734.903923
_symmetry_space_group_name_H-M "P M M A"
_symmetry_group_IT_number 51
_symmetry_cell_setting 'orthorhombic'
loop_
_space_group_symop_operation_xyz
x,y,z
1/2-x,-y,z
1/2+x,-y,-z
-x,y,-z
-x,-y,-z
1/2+x,y,-z
1/2-x,y,z
x,-y,z
loop_
_atom_site_type_symbol
_atom_site_label
_atom_site_fract_x
_atom_site_fract_y
_atom_site_fract_z
Si Si1 0.977254 0.602510 0.833573
Si Si2 0.173564 0.396834 0.830837
Si Si3 0.578820 0.899213 0.047987
Si Si4 0.324771 0.650523 0.153970
Si Si5 0.077623 0.255425 0.719530
Si Si6 0.829769 0.138837 0.776604
Si Si7 0.417722 0.099255 0.500556
O O1 0.000574 0.500000 0.793913
O O2 0.896100 0.603713 0.812112
O O3 0.007601 0.688943 0.748231
O O4 0.000000 0.615225 0.000000
O O5 0.250000 0.399947 0.778618
O O6 0.149905 0.500000 0.853476
O O7 0.129475 0.338184 0.727110
O O8 0.173619 0.349183 0.983327
O O9 0.588553 0.815783 0.153218
O O10 0.586988 0.000000 0.112464
O O11 0.500000 0.893271 0.000000
O O12 0.631047 0.892199 0.918031
O O13 0.250000 0.610781 0.191764
O O14 0.327720 0.751909 0.213891
O O15 0.091739 0.191999 0.586654
O O16 0.750000 0.108838 0.767546
O O17 0.877725 0.109033 0.646876
O O18 0.500000 0.094138 0.500000
O O19 0.395149 0.000000 0.559035
#
# Coordination Sequence:
#
# PCOD9402192 Si02
#       7
#     8   8   8   8   8   8   8
#     4  11  20  32  56  92 127 159 201 257 315 374
#     4  10  20  35  58  89 124 161 202 250 312 383
#     4  11  22  37  61  93 128 164 206 263 331 397
#     4  10  19  34  58  88 123 161 201 248 309 384
#     4  12  22  37  62  92 124 162 213 268 318 371
#     4  11  23  42  67  95 129 170 216 266 327 396
#     4  11  25  44  65  90 126 175 224 268 323 393
#
# _framework density 20.476040000000001
#
# number of rings (size 3 to 8) (size 9 to 14) (size 15 to 20)
#    0.000    1.143    2.857    4.714    0.000    4.857 
#    0.000    0.000    0.000   12.000    0.000    2.000 
#    0.000    0.000    0.000    0.000    0.000    0.000 
#
# Total GULP energy -312157.824452 kJ/mol
# GULP energy per Si atom -5574.246865 kJ/mol
# Density = 2.042944 g / cm^3
# Si number density = 20.476040 Si / 1000 Ang^3
#
#
#
# Elastic Constant Matrix: (Units=GPa)
#
#
# Indices 1 2 3 4 5 6 
#
# 1 147.2020 24.8325 21.5344 0.0000 0.0000 0.0000
# 2 24.8325 112.8273 23.2990 0.0000 0.0000 0.0000
# 3 21.5344 23.2990 38.1058 0.0000 0.0000 0.0000
# 4 0.0000 0.0000 0.0000 11.4225 0.0000 0.0000
# 5 0.0000 0.0000 0.0000 0.0000 16.5599 0.0000
# 6 0.0000 0.0000 0.0000 0.0000 0.0000 41.2238
#
#
#
# Elastic Compliance Matrix: (Units=1/GPa)
#
#
# Indices 1 2 3 4 5 6 
#
# 1 0.007482 -0.000885 -0.003687 0.000000 0.000000 0.000000
# 2 -0.000885 0.010249 -0.005766 0.000000 0.000000 0.000000
# 3 -0.003687 -0.005766 0.031852 0.000000 0.000000 0.000000
# 4 0.000000 0.000000 0.000000 0.087546 0.000000 0.000000
# 5 0.000000 0.000000 0.000000 0.000000 0.060387 0.000000
# 6 0.000000 0.000000 0.000000 0.000000 0.000000 0.024258
#
#
# Mechanical properties :
#
#
# Convention : Reuss Voigt Hill
#
# Bulk Modulus (GPa) = 34.59498 48.60743 41.60121
# Shear Modulus (GPa) = 19.83455 29.07253 24.45354
#
# Velocity S-wave (km/s) = 3.11572 3.77215 3.45954
# Velocity P-wave (km/s) = 5.46587 6.53930 6.02653
#
# Compressibility (1/GPa) = 0.02890592
#
# Stress axis : x y z
#
# Youngs Moduli (GPa) = 133.65194 97.57374 31.39541
#
# Poissons Ratio (x) = 0.08639 0.11575
# Poissons Ratio (y) = 0.11834 0.18103
# Poissons Ratio (z) = 0.49277 0.56261
#
# Static dielectric constant tensor:
#      x y z
#    x 1.796650 0.000000 0.000000 
#    y 0.000000 1.726660 0.000000 
#    z 0.000000 0.000000 1.720420 
# 
# From -- ./inp_files/10972.got.cif
#   From: 2010.05.17/outbox.cif.g08.bks.cpg/sg51_6_cif.got.tgz:10972.got - 2010.06.03 11:52:47.
