data_PCOD9402735
_publ_section_title
;
Structure prediction by ZEFSAII (Michael W. Deem and Ramdas Pophale) SiO2 
 PCOD9402735
Probable space group: P M M A
;
_chemical_formula_sum "Si O2"
_cell_formula_units_Z 48
_cell_length_a 17.282177
_cell_length_b 7.589774
_cell_length_c 18.513171
_cell_angle_alpha 90.000000
_cell_angle_beta 90.000000
_cell_angle_gamma 90.000000
_cell_volume 2428.332238
_symmetry_space_group_name_H-M "P M M A"
_symmetry_group_IT_number 51
_symmetry_cell_setting 'orthorhombic'
loop_
_space_group_symop_operation_xyz
x,y,z
1/2-x,-y,z
1/2+x,-y,-z
-x,y,-z
-x,-y,-z
1/2+x,y,-z
1/2-x,y,z
x,-y,z
loop_
_atom_site_type_symbol
_atom_site_label
_atom_site_fract_x
_atom_site_fract_y
_atom_site_fract_z
Si Si1 0.837858 0.212693 0.183057
Si Si2 0.664055 0.000000 0.667457
Si Si3 0.067604 0.200695 0.950414
Si Si4 0.662485 0.289005 0.919682
Si Si5 0.601380 0.706024 0.768954
Si Si6 0.998770 0.000000 0.585764
Si Si7 0.559301 0.298509 0.313648
O O1 0.750000 0.274507 0.170609
O O2 0.898920 0.281285 0.123087
O O3 0.867726 0.257274 0.262982
O O4 0.837706 0.000000 0.175885
O O5 0.653126 0.830366 0.719034
O O6 0.750000 0.000000 0.634941
O O7 0.590515 0.000000 0.613687
O O8 0.042290 0.000000 0.934294
O O9 0.138746 0.199969 0.006204
O O10 0.000000 0.284902 0.000000
O O11 0.750000 0.245958 0.898713
O O12 0.657306 0.500000 0.930394
O O13 0.608324 0.240251 0.852438
O O14 0.624186 0.500000 0.764273
O O15 0.514849 0.724133 0.739142
O O16 0.000000 0.000000 0.500000
O O17 0.042514 0.833064 0.621014
O O18 0.561959 0.500000 0.338032
#
# Coordination Sequence:
#
# PCOD9402735 Si02
#       7
#     8   4   8   8   8   4   8
#     4  10  20  35  54  79 115 157 202 258 313 352
#     4  10  20  34  58  87 111 147 189 220 270 340
#     4  10  21  34  50  72 103 146 195 245 295 345
#     4  10  20  32  46  69 103 139 176 225 281 325
#     4   9  19  34  53  80 114 147 184 232 279 335
#     4  10  22  42  64  89 125 153 180 226 280 338
#     4  10  20  37  63  88 112 150 193 230 280 345
#
# _framework density 19.766653000000002
#
# number of rings (size 3 to 8) (size 9 to 14) (size 15 to 20)
#    0.000    2.167    0.833    2.000    1.167    3.667 
#    0.000    0.833    0.000    0.000    0.000    0.000 
#    0.000    0.000    0.000    0.000    0.000    0.000 
#
# Total GULP energy -267960.571886 kJ/mol
# GULP energy per Si atom -5582.511914 kJ/mol
# Density = 1.972166 g / cm^3
# Si number density = 19.766653 Si / 1000 Ang^3
#
#
#
# Elastic Constant Matrix: (Units=GPa)
#
#
# Indices 1 2 3 4 5 6 
#
# 1 77.6947 25.0023 31.2812 0.0000 0.0000 0.0000
# 2 25.0023 64.1415 34.8457 0.0000 0.0000 0.0000
# 3 31.2812 34.8457 134.2217 0.0000 0.0000 0.0000
# 4 0.0000 0.0000 0.0000 1.9007 0.0000 0.0000
# 5 0.0000 0.0000 0.0000 0.0000 14.6091 0.0000
# 6 0.0000 0.0000 0.0000 0.0000 0.0000 -15.6750
#
#
#
# Elastic Compliance Matrix: (Units=1/GPa)
#
#
# Indices 1 2 3 4 5 6 
#
# 1 0.015330 -0.004697 -0.002353 0.000000 0.000000 0.000000
# 2 -0.004697 0.019590 -0.003991 0.000000 0.000000 0.000000
# 3 -0.002353 -0.003991 0.009035 0.000000 0.000000 0.000000
# 4 0.000000 0.000000 0.000000 0.526134 0.000000 0.000000
# 5 0.000000 0.000000 0.000000 0.000000 0.068450 0.000000
# 6 0.000000 0.000000 0.000000 0.000000 0.000000 -0.063796
#
#
# Mechanical properties :
#
#
# Convention : Reuss Voigt Hill
#
# Bulk Modulus (GPa) = 45.72143 50.92403 48.32273
# Shear Modulus (GPa) = 8.27655 12.49553 10.38604
#
# Velocity S-wave (km/s) = 2.04847 2.51699 2.29472
# Velocity P-wave (km/s) = 5.36430 5.85368 5.61432
#
# Compressibility (1/GPa) = 0.02187158
#
# Stress axis : x y z
#
# Youngs Moduli (GPa) = 65.23190 51.04742 110.68142
#
# Poissons Ratio (x) = 0.23978 0.26047
# Poissons Ratio (y) = 0.30640 0.44173
# Poissons Ratio (z) = 0.15351 0.20373
#
# Static dielectric constant tensor:
#      x y z
#    x 1.743290 0.000000 0.000000 
#    y 0.000000 1.712600 0.000000 
#    z 0.000000 0.000000 1.651250 
# 
# From -- ./inp_files/25002.got.cif
#   From: 2010.05.17/outbox.cif.g08.bks.cpg/sg51_13_cif.got.tgz:25002.got - 2010.06.03 11:52:47.
