data_PCOD9402636
_publ_section_title
;
Structure prediction by ZEFSAII (Michael W. Deem and Ramdas Pophale) SiO2 
 PCOD9402636
Probable space group: P M M A
;
_chemical_formula_sum "Si O2"
_cell_formula_units_Z 64
_cell_length_a 22.947148
_cell_length_b 7.629987
_cell_length_c 19.623041
_cell_angle_alpha 90.000000
_cell_angle_beta 90.000000
_cell_angle_gamma 90.000000
_cell_volume 3435.728409
_symmetry_space_group_name_H-M "P M M A"
_symmetry_group_IT_number 51
_symmetry_cell_setting 'orthorhombic'
loop_
_space_group_symop_operation_xyz
x,y,z
1/2-x,-y,z
1/2+x,-y,-z
-x,y,-z
-x,-y,-z
1/2+x,y,-z
1/2-x,y,z
x,-y,z
loop_
_atom_site_type_symbol
_atom_site_label
_atom_site_fract_x
_atom_site_fract_y
_atom_site_fract_z
Si Si1 0.494180 0.287660 0.174249
Si Si2 0.492686 0.792744 0.333033
Si Si3 0.108477 0.709284 0.906315
Si Si4 0.623405 0.212750 0.341964
Si Si5 0.184275 0.706092 0.522100
Si Si6 0.060714 0.703226 0.467580
Si Si7 0.186198 0.210321 0.790082
Si Si8 0.937949 0.295388 0.959387
O O1 0.494534 0.500000 0.172872
O O2 0.484545 0.236235 0.252289
O O3 0.556173 0.225359 0.143011
O O4 0.448378 0.224211 0.116405
O O5 0.557342 0.727058 0.353592
O O6 0.447701 0.711977 0.386243
O O7 0.491180 0.000000 0.344477
O O8 0.099908 0.500000 0.911748
O O9 0.166641 0.743307 0.865484
O O10 0.104232 0.781624 0.982936
O O11 0.669019 0.274934 0.398052
O O12 0.641996 0.274546 0.267255
O O13 0.623118 0.000000 0.343523
O O14 0.250000 0.777297 0.508335
O O15 0.186600 0.500000 0.504236
O O16 0.124068 0.779893 0.488455
O O17 0.062299 0.500000 0.489838
O O18 0.000000 0.778786 0.500000
O O19 0.250000 0.277428 0.774239
O O20 0.186677 0.000000 0.785212
O O21 0.922867 0.500000 0.949458
O O22 0.000000 0.290082 0.000000
#
# Coordination Sequence:
#
# PCOD9402636 Si02
#       8
#     8   8   8   8   8   8   8   8
#     4   9  16  28  47  68  93 123 153 187 236 290
#     4  11  21  31  48  73 100 129 163 200 238 284
#     4   9  16  27  45  66  89 118 156 199 236 274
#     4  10  20  33  48  66  95 133 167 198 234 283
#     4  10  21  36  54  75  96 121 160 207 245 284
#     4  10  20  35  53  72  97 128 160 196 246 299
#     4  10  20  32  43  59  91 133 169 197 232 280
#     4   7  12  24  42  65  89 115 146 181 224 273
#
# _framework density 18.627782
#
# number of rings (size 3 to 8) (size 9 to 14) (size 15 to 20)
#    0.000    2.500    2.500    2.250    0.000    2.750 
#    0.000    0.625    0.000    2.250    0.000    0.875 
#    0.000    3.000    0.000    0.000    0.000    0.000 
#
# Total GULP energy -356416.422587 kJ/mol
# GULP energy per Si atom -5569.006603 kJ/mol
# Density = 1.858538 g / cm^3
# Si number density = 18.627782 Si / 1000 Ang^3
#
#
#
# Elastic Constant Matrix: (Units=GPa)
#
#
# Indices 1 2 3 4 5 6 
#
# 1 100.8058 5.5853 46.6908 0.0000 0.0000 0.0000
# 2 5.5853 39.9786 -0.7593 0.0000 0.0000 0.0000
# 3 46.6908 -0.7593 100.8377 0.0000 0.0000 0.0000
# 4 0.0000 0.0000 0.0000 -5.7697 0.0000 0.0000
# 5 0.0000 0.0000 0.0000 0.0000 23.1467 0.0000
# 6 0.0000 0.0000 0.0000 0.0000 0.0000 -10.0876
#
#
#
# Elastic Compliance Matrix: (Units=1/GPa)
#
#
# Indices 1 2 3 4 5 6 
#
# 1 0.012771 -0.001897 -0.005927 0.000000 0.000000 0.000000
# 2 -0.001897 0.025299 0.001069 0.000000 0.000000 0.000000
# 3 -0.005927 0.001069 0.012670 0.000000 0.000000 0.000000
# 4 0.000000 0.000000 0.000000 -0.173318 0.000000 0.000000
# 5 0.000000 0.000000 0.000000 0.000000 0.043203 0.000000
# 6 0.000000 0.000000 0.000000 0.000000 0.000000 -0.099132
#
#
# Mechanical properties :
#
#
# Convention : Reuss Voigt Hill
#
# Bulk Modulus (GPa) = 26.86152 38.29508 32.57830
# Shear Modulus (GPa) = -32.76784 14.13157 -9.31814
#
# Velocity S-wave (km/s) = -4.19869 2.75731 -2.23900
# Velocity P-wave (km/s) = 3.00898 5.54434 3.29285
#
# Compressibility (1/GPa) = 0.03722797
#
# Stress axis : x y z
#
# Youngs Moduli (GPa) = 78.30485 39.52775 78.92936
#
# Poissons Ratio (x) = 0.07497 0.46785
# Poissons Ratio (y) = 0.14852 -0.08436
# Poissons Ratio (z) = 0.46415 -0.04225
#
# Static dielectric constant tensor:
#      x y z
#    x 1.672700 0.000000 0.000000 
#    y 0.000000 1.698310 0.000000 
#    z 0.000000 0.000000 1.674670 
# 
# From -- ./inp_files/30870.got.cif
#   From: 2010.05.17/outbox.cif.g08.bks.cpg/sg51_16_cif.got.tgz:30870.got - 2010.06.03 11:52:47.
