data_PCOD9402837
_publ_section_title
;
Structure prediction by ZEFSAII (Michael W. Deem and Ramdas Pophale) SiO2 
 PCOD9402837
Probable space group: P M M A
;
_chemical_formula_sum "Si O2"
_cell_formula_units_Z 52
_cell_length_a 8.051078
_cell_length_b 18.797375
_cell_length_c 18.068265
_cell_angle_alpha 90.000000
_cell_angle_beta 90.000000
_cell_angle_gamma 90.000000
_cell_volume 2734.435548
_symmetry_space_group_name_H-M "P M M A"
_symmetry_group_IT_number 51
_symmetry_cell_setting 'orthorhombic'
loop_
_space_group_symop_operation_xyz
x,y,z
1/2-x,-y,z
1/2+x,-y,-z
-x,y,-z
-x,-y,-z
1/2+x,y,-z
1/2-x,y,z
x,-y,z
loop_
_atom_site_type_symbol
_atom_site_label
_atom_site_fract_x
_atom_site_fract_y
_atom_site_fract_z
Si Si1 0.557224 0.278326 0.691080
Si Si2 0.947022 0.634606 0.081802
Si Si3 0.951363 0.155763 0.585905
Si Si4 0.944196 0.222540 0.156952
Si Si5 0.448887 0.921436 0.085732
Si Si6 0.050617 0.421674 0.240019
Si Si7 0.450213 0.000000 0.413449
O O1 0.750000 0.289416 0.670529
O O2 0.483709 0.223746 0.631326
O O3 0.546943 0.238096 0.769507
O O4 0.483729 0.356096 0.710522
O O5 0.750000 0.627816 0.085492
O O6 0.992493 0.717624 0.096413
O O7 0.017677 0.594095 0.153299
O O8 0.000000 0.611703 0.000000
O O9 0.750000 0.155949 0.591044
O O10 0.008202 0.077492 0.615167
O O11 0.000000 0.160975 0.500000
O O12 0.750000 0.233872 0.174180
O O13 0.972060 0.143886 0.128192
O O14 0.250000 0.916063 0.090860
O O15 0.499405 0.000000 0.112821
O O16 0.500000 0.916765 0.000000
O O17 0.250000 0.421778 0.248843
O O18 0.986105 0.500000 0.259079
O O19 0.500000 0.000000 0.500000
O O20 0.250000 0.000000 0.407951
#
# Coordination Sequence:
#
# PCOD9402837 Si02
#       7
#     8   8   8   8   8   8   4
#     4   9  18  33  51  72  98 127 161 200 244 293
#     4  10  20  32  48  71  96 125 159 199 246 295
#     4   9  17  30  50  74 100 130 161 197 237 284
#     4  10  20  33  49  69  95 126 162 203 247 294
#     4  10  20  33  49  68  91 124 165 208 251 292
#     4   9  18  33  52  71  93 125 163 202 244 292
#     4   8  14  26  44  68  96 124 153 184 223 272
#
# _framework density 19.016722000000001
#
# number of rings (size 3 to 8) (size 9 to 14) (size 15 to 20)
#    0.000    2.615    0.000    1.846    0.000    5.231 
#    1.385    0.000    0.000    0.462    0.000    0.000 
#    0.000    0.000    0.000    0.000    0.000    0.000 
#
# Total GULP energy -289748.113280 kJ/mol
# GULP energy per Si atom -5572.079102 kJ/mol
# Density = 1.897344 g / cm^3
# Si number density = 19.016722 Si / 1000 Ang^3
#
#
#
# Elastic Constant Matrix: (Units=GPa)
#
#
# Indices 1 2 3 4 5 6 
#
# 1 19.1949 8.8597 -1.8224 0.0000 0.0000 0.0000
# 2 8.8597 178.1344 55.3682 0.0000 0.0000 0.0000
# 3 -1.8224 55.3682 54.0776 0.0000 0.0000 0.0000
# 4 0.0000 0.0000 0.0000 14.3695 0.0000 0.0000
# 5 0.0000 0.0000 0.0000 0.0000 16.3007 0.0000
# 6 0.0000 0.0000 0.0000 0.0000 0.0000 -12.1439
#
#
#
# Elastic Compliance Matrix: (Units=1/GPa)
#
#
# Indices 1 2 3 4 5 6 
#
# 1 0.054987 -0.004856 0.006825 0.000000 0.000000 0.000000
# 2 -0.004856 0.008663 -0.009033 0.000000 0.000000 0.000000
# 3 0.006825 -0.009033 0.027971 0.000000 0.000000 0.000000
# 4 0.000000 0.000000 0.000000 0.069592 0.000000 0.000000
# 5 0.000000 0.000000 0.000000 0.000000 0.061347 0.000000
# 6 0.000000 0.000000 0.000000 0.000000 0.000000 -0.082346
#
#
# Mechanical properties :
#
#
# Convention : Reuss Voigt Hill
#
# Bulk Modulus (GPa) = 12.90462 41.80199 27.35331
# Shear Modulus (GPa) = 27.75106 16.30536 22.02821
#
# Velocity S-wave (km/s) = 3.82422 2.93135 3.40716
# Velocity P-wave (km/s) = 5.12837 5.78676 5.46748
#
# Compressibility (1/GPa) = 0.07749161
#
# Stress axis : x y z
#
# Youngs Moduli (GPa) = 18.18624 115.43243 35.75126
#
# Poissons Ratio (x) = 0.56057 -0.24401
# Poissons Ratio (y) = 0.08832 0.32296
# Poissons Ratio (z) = -0.12412 1.04276
#
# Static dielectric constant tensor:
#      x y z
#    x 1.666960 0.000000 0.000000 
#    y 0.000000 1.725540 0.000000 
#    z 0.000000 0.000000 1.618040 
# 
# From -- ./inp_files/27934.got.cif
#   From: 2010.05.17/outbox.cif.g08.bks.cpg/sg51_14_cif.got.tgz:27934.got - 2010.06.03 11:52:47.
