data_PCOD9402456
_publ_section_title
;
Structure prediction by ZEFSAII (Michael W. Deem and Ramdas Pophale) SiO2 
 PCOD9402456
Probable space group: P M M A
;
_chemical_formula_sum "Si O2"
_cell_formula_units_Z 64
_cell_length_a 14.132535
_cell_length_b 13.777136
_cell_length_c 16.929503
_cell_angle_alpha 90.000000
_cell_angle_beta 90.000000
_cell_angle_gamma 90.000000
_cell_volume 3296.273385
_symmetry_space_group_name_H-M "P M M A"
_symmetry_group_IT_number 51
_symmetry_cell_setting 'orthorhombic'
loop_
_space_group_symop_operation_xyz
x,y,z
1/2-x,-y,z
1/2+x,-y,-z
-x,y,-z
-x,-y,-z
1/2+x,y,-z
1/2-x,y,z
x,-y,z
loop_
_atom_site_type_symbol
_atom_site_label
_atom_site_fract_x
_atom_site_fract_y
_atom_site_fract_z
Si Si1 0.948069 0.611536 0.324570
Si Si2 0.363487 0.199093 0.092446
Si Si3 0.135045 0.110038 0.922937
Si Si4 0.358325 0.611361 0.509902
Si Si5 0.138375 0.708728 0.817467
Si Si6 0.522559 0.393496 0.907350
Si Si7 0.135467 0.105951 0.256109
Si Si8 0.640383 0.696350 0.659348
O O1 0.919740 0.500000 0.308612
O O2 0.926890 0.629628 0.416951
O O3 0.889678 0.687612 0.272417
O O4 0.059112 0.626412 0.307180
O O5 0.250000 0.206523 0.091459
O O6 0.406986 0.304684 0.107074
O O7 0.390662 0.131510 0.166040
O O8 0.392628 0.154964 0.007935
O O9 0.250000 0.105344 0.923932
O O10 0.110794 0.186723 0.854246
O O11 0.099885 0.000000 0.913113
O O12 0.250000 0.614971 0.540185
O O13 0.374550 0.500000 0.481564
O O14 0.363650 0.681160 0.434915
O O15 0.250000 0.695955 0.829581
O O16 0.075438 0.630899 0.864143
O O17 0.558000 0.500000 0.884268
O O18 0.500000 0.393793 0.000000
O O19 0.250000 0.101666 0.257538
O O20 0.111919 0.196347 0.311973
O O21 0.098541 0.000000 0.279100
O O22 0.750000 0.677355 0.683445
#
# Coordination Sequence:
#
# PCOD9402456 Si02
#       8
#     8   8   8   8   8   8   8   8
#     4  11  22  36  57  86 119 151 190 238 280 330
#     4  10  19  36  60  85 112 143 183 232 286 341
#     4   9  18  35  60  85 109 142 185 236 290 338
#     4   9  18  34  58  88 117 149 190 231 275 329
#     4  11  23  40  58  79 110 151 196 238 283 338
#     4  11  23  37  53  77 112 148 186 230 274 331
#     4   9  18  33  55  81 109 144 185 231 284 339
#     4  10  20  35  57  85 118 151 182 225 286 348
#
# _framework density 19.415863999999999
#
# number of rings (size 3 to 8) (size 9 to 14) (size 15 to 20)
#    0.000    2.000    1.250    2.625    0.000    5.000 
#    0.000    5.625    0.000    8.250    0.000    3.500 
#    0.000    0.000    0.000    0.000    0.000    0.000 
#
# Total GULP energy -357267.331550 kJ/mol
# GULP energy per Si atom -5582.302055 kJ/mol
# Density = 1.937167 g / cm^3
# Si number density = 19.415864 Si / 1000 Ang^3
#
#
#
# Elastic Constant Matrix: (Units=GPa)
#
#
# Indices 1 2 3 4 5 6 
#
# 1 69.1616 15.6214 5.8994 0.0000 0.0000 0.0000
# 2 15.6214 123.8620 51.0892 0.0000 0.0000 0.0000
# 3 5.8994 51.0892 74.0942 0.0000 0.0000 0.0000
# 4 0.0000 0.0000 0.0000 31.6239 0.0000 0.0000
# 5 0.0000 0.0000 0.0000 0.0000 19.6886 0.0000
# 6 0.0000 0.0000 0.0000 0.0000 0.0000 20.4720
#
#
#
# Elastic Compliance Matrix: (Units=1/GPa)
#
#
# Indices 1 2 3 4 5 6 
#
# 1 0.014884 -0.001940 0.000153 0.000000 0.000000 0.000000
# 2 -0.001940 0.011535 -0.007799 0.000000 0.000000 0.000000
# 3 0.000153 -0.007799 0.018862 0.000000 0.000000 0.000000
# 4 0.000000 0.000000 0.000000 0.031622 0.000000 0.000000
# 5 0.000000 0.000000 0.000000 0.000000 0.050791 0.000000
# 6 0.000000 0.000000 0.000000 0.000000 0.000000 0.048847
#
#
# Mechanical properties :
#
#
# Convention : Reuss Voigt Hill
#
# Bulk Modulus (GPa) = 38.30276 45.81529 42.05903
# Shear Modulus (GPa) = 24.45987 27.32410 25.89198
#
# Velocity S-wave (km/s) = 3.55320 3.75548 3.65574
# Velocity P-wave (km/s) = 6.05013 6.51559 6.28717
#
# Compressibility (1/GPa) = 0.02610778
#
# Stress axis : x y z
#
# Youngs Moduli (GPa) = 67.18583 86.69191 53.01711
#
# Poissons Ratio (x) = 0.16820 -0.00810
# Poissons Ratio (y) = 0.13035 0.41349
# Poissons Ratio (z) = -0.01026 0.67613
#
# Static dielectric constant tensor:
#      x y z
#    x 1.717450 0.000000 0.000000 
#    y 0.000000 1.668760 0.000000 
#    z 0.000000 0.000000 1.694070 
# 
# From -- ./inp_files/29879.got.cif
#   From: 2010.05.17/outbox.cif.g08.bks.cpg/sg51_15_cif.got.tgz:29879.got - 2010.06.03 11:52:47.
