data_PCOD9402148
_publ_section_title
;
Structure prediction by ZEFSAII (Michael W. Deem and Ramdas Pophale) SiO2 
 PCOD9402148
Probable space group: P M M A
;
_chemical_formula_sum "Si O2"
_cell_formula_units_Z 64
_cell_length_a 18.319001
_cell_length_b 14.705301
_cell_length_c 12.582103
_cell_angle_alpha 90.000000
_cell_angle_beta 90.000000
_cell_angle_gamma 90.000000
_cell_volume 3389.447730
_symmetry_space_group_name_H-M "P M M A"
_symmetry_group_IT_number 51
_symmetry_cell_setting 'orthorhombic'
loop_
_space_group_symop_operation_xyz
x,y,z
1/2-x,-y,z
1/2+x,-y,-z
-x,y,-z
-x,-y,-z
1/2+x,y,-z
1/2-x,y,z
x,-y,z
loop_
_atom_site_type_symbol
_atom_site_label
_atom_site_fract_x
_atom_site_fract_y
_atom_site_fract_z
Si Si1 0.833279 0.719348 0.873781
Si Si2 0.411157 0.299364 0.502840
Si Si3 0.923389 0.606985 0.715196
Si Si4 0.901563 0.605602 0.283484
Si Si5 0.540968 0.105999 0.109185
Si Si6 0.395540 0.101996 0.233013
Si Si7 0.587902 0.099065 0.514825
Si Si8 0.165505 0.249938 0.876295
O O1 0.750000 0.696821 0.847349
O O2 0.886221 0.647483 0.819097
O O3 0.851895 0.818612 0.825077
O O4 0.841238 0.721289 0.000349
O O5 0.500000 0.299434 0.500000
O O6 0.393015 0.336334 0.385730
O O7 0.384552 0.365024 0.595742
O O8 0.386626 0.196342 0.528950
O O9 0.909833 0.500000 0.699635
O O10 0.010708 0.619150 0.725508
O O11 0.885213 0.500000 0.265607
O O12 0.860824 0.670234 0.201147
O O13 0.480048 0.114282 0.200211
O O14 0.610539 0.165774 0.135318
O O15 0.560157 0.000000 0.095938
O O16 0.500000 0.135291 0.000000
O O17 0.392657 0.104712 0.360129
O O18 0.373653 0.000000 0.197532
O O19 0.500000 0.097845 0.500000
O O20 0.614417 0.000000 0.474375
O O21 0.250000 0.226929 0.856251
#
# Coordination Sequence:
#
# PCOD9402148 Si02
#       8
#     8   8   8   8   8   8   8   8
#     4  11  23  38  54  79 117 156 192 240 297 356
#     4   9  17  32  58  87 118 148 183 243 298 348
#     4  10  20  36  60  88 112 142 190 251 307 351
#     4  10  22  39  62  87 113 152 202 249 296 356
#     4  10  20  35  60  89 116 148 193 243 285 337
#     4  10  19  34  57  87 117 150 193 239 284 341
#     4   9  17  28  50  88 122 148 180 226 291 352
#     4  11  25  40  58  83 120 164 199 241 299 357
#
# _framework density 18.882131999999999
#
# number of rings (size 3 to 8) (size 9 to 14) (size 15 to 20)
#    0.000    2.000    2.500    1.125    3.500    3.000 
#    0.000    4.375    0.000    1.500    0.000    0.000 
#    0.000    0.000    0.000    0.000    0.000    0.000 
#
# Total GULP energy -357081.141576 kJ/mol
# GULP energy per Si atom -5579.392837 kJ/mol
# Density = 1.883916 g / cm^3
# Si number density = 18.882132 Si / 1000 Ang^3
#
#
#
# Elastic Constant Matrix: (Units=GPa)
#
#
# Indices 1 2 3 4 5 6 
#
# 1 26.4065 22.8536 3.8402 0.0000 0.0000 0.0000
# 2 22.8536 64.5654 -6.9329 0.0000 0.0000 0.0000
# 3 3.8402 -6.9329 25.0015 0.0000 0.0000 0.0000
# 4 0.0000 0.0000 0.0000 0.3066 0.0000 0.0000
# 5 0.0000 0.0000 0.0000 0.0000 -0.2544 0.0000
# 6 0.0000 0.0000 0.0000 0.0000 0.0000 8.7047
#
#
#
# Elastic Compliance Matrix: (Units=1/GPa)
#
#
# Indices 1 2 3 4 5 6 
#
# 1 0.059937 -0.022885 -0.015552 0.000000 0.000000 0.000000
# 2 -0.022885 0.024702 0.010365 0.000000 0.000000 0.000000
# 3 -0.015552 0.010365 0.045260 0.000000 0.000000 0.000000
# 4 0.000000 0.000000 0.000000 3.261706 0.000000 0.000000
# 5 0.000000 0.000000 0.000000 0.000000 -3.930347 0.000000
# 6 0.000000 0.000000 0.000000 0.000000 0.000000 0.114881
#
#
# Mechanical properties :
#
#
# Convention : Reuss Voigt Hill
#
# Bulk Modulus (GPa) = 13.55861 17.27724 15.41793
# Shear Modulus (GPa) = -14.57169 8.16554 -3.20308
#
# Velocity S-wave (km/s) = -2.78100 2.08179 -1.30385
# Velocity P-wave (km/s) = 1.76513 3.86632 2.43236
#
# Compressibility (1/GPa) = 0.07375385
#
# Stress axis : x y z
#
# Youngs Moduli (GPa) = 16.68405 40.48310 22.09433
#
# Poissons Ratio (x) = 0.92647 0.34362
# Poissons Ratio (y) = 0.38182 -0.22900
# Poissons Ratio (z) = 0.25948 -0.41960
#
# Static dielectric constant tensor:
#      x y z
#    x 1.636930 0.000000 0.000000 
#    y 0.000000 1.671700 0.000000 
#    z 0.000000 0.000000 1.661050 
# 
# From -- ./inp_files/17595.got.cif
#   From: 2010.05.17/outbox.cif.g08.bks.cpg/sg51_9_cif.got.tgz:17595.got - 2010.06.03 11:52:47.
