data_PCOD9402166
_publ_section_title
;
Structure prediction by ZEFSAII (Michael W. Deem and Ramdas Pophale) SiO2 
 PCOD9402166
Probable space group: P M M A
;
_chemical_formula_sum "Si O2"
_cell_formula_units_Z 48
_cell_length_a 14.440435
_cell_length_b 15.973375
_cell_length_c 12.185223
_cell_angle_alpha 90.000000
_cell_angle_beta 90.000000
_cell_angle_gamma 90.000000
_cell_volume 2810.673798
_symmetry_space_group_name_H-M "P M M A"
_symmetry_group_IT_number 51
_symmetry_cell_setting 'orthorhombic'
loop_
_space_group_symop_operation_xyz
x,y,z
1/2-x,-y,z
1/2+x,-y,-z
-x,y,-z
-x,-y,-z
1/2+x,y,-z
1/2-x,y,z
x,-y,z
loop_
_atom_site_type_symbol
_atom_site_label
_atom_site_fract_x
_atom_site_fract_y
_atom_site_fract_z
Si Si1 0.641126 0.000000 0.810614
Si Si2 0.497844 0.747968 0.322641
Si Si3 0.518360 0.403208 0.176379
Si Si4 0.356297 0.346598 0.022477
Si Si5 0.361350 0.186126 0.505642
Si Si6 0.429081 0.827419 0.098442
Si Si7 0.137989 0.000000 0.437407
O O1 0.616012 0.084417 0.873452
O O2 0.600049 0.000000 0.687084
O O3 0.750000 0.000000 0.795423
O O4 0.508368 0.651980 0.285370
O O5 0.588942 0.778611 0.386339
O O6 0.411424 0.767646 0.403204
O O7 0.479400 0.796493 0.209262
O O8 0.539762 0.500000 0.194990
O O9 0.422129 0.394795 0.108618
O O10 0.595119 0.362329 0.095150
O O11 0.250000 0.373158 0.022666
O O12 0.364321 0.249377 0.059286
O O13 0.250000 0.195473 0.503859
O O14 0.386026 0.087485 0.494361
O O15 0.500000 0.838984 0.000000
O O16 0.250000 0.000000 0.433234
#
# Coordination Sequence:
#
# PCOD9402166 Si02
#       7
#     4   8   8   8   8   8   4
#     4  11  21  32  53  85 118 156 197 235 270 326
#     4  10  21  37  59  83 108 150 190 231 297 336
#     4  10  21  38  56  82 115 144 188 238 287 350
#     4  10  19  34  58  83 113 152 192 232 278 337
#     4  10  21  38  59  83 112 145 194 243 280 332
#     4  11  20  37  53  83 123 157 190 224 281 344
#     4   9  18  33  56  82 105 141 193 238 269 308
#
# _framework density 17.077756000000001
#
# number of rings (size 3 to 8) (size 9 to 14) (size 15 to 20)
#    0.000    1.833    5.000    1.750    0.000    6.667 
#    0.000    1.667    0.000    2.000    0.000    0.000 
#    0.000    0.000    0.000    0.000    0.000    0.000 
#
# Total GULP energy -267621.098990 kJ/mol
# GULP energy per Si atom -5575.439562 kJ/mol
# Density = 1.703889 g / cm^3
# Si number density = 17.077756 Si / 1000 Ang^3
#
#
#
# Elastic Constant Matrix: (Units=GPa)
#
#
# Indices 1 2 3 4 5 6 
#
# 1 116.5139 29.9630 51.8886 0.0000 0.0000 0.0000
# 2 29.9630 138.6560 54.5134 0.0000 0.0000 0.0000
# 3 51.8886 54.5134 88.2063 0.0000 0.0000 0.0000
# 4 0.0000 0.0000 0.0000 20.7414 0.0000 0.0000
# 5 0.0000 0.0000 0.0000 0.0000 11.5247 0.0000
# 6 0.0000 0.0000 0.0000 0.0000 0.0000 7.8027
#
#
#
# Elastic Compliance Matrix: (Units=1/GPa)
#
#
# Indices 1 2 3 4 5 6 
#
# 1 0.011635 0.000233 -0.006989 0.000000 0.000000 0.000000
# 2 0.000233 0.009532 -0.006028 0.000000 0.000000 0.000000
# 3 -0.006989 -0.006028 0.019174 0.000000 0.000000 0.000000
# 4 0.000000 0.000000 0.000000 0.048213 0.000000 0.000000
# 5 0.000000 0.000000 0.000000 0.000000 0.086770 0.000000
# 6 0.000000 0.000000 0.000000 0.000000 0.000000 0.128160
#
#
# Mechanical properties :
#
#
# Convention : Reuss Voigt Hill
#
# Bulk Modulus (GPa) = 67.68813 68.45624 68.07219
# Shear Modulus (GPa) = 14.97120 21.81451 18.39285
#
# Velocity S-wave (km/s) = 2.96404 3.57790 3.28534
# Velocity P-wave (km/s) = 7.17184 7.56575 7.37143
#
# Compressibility (1/GPa) = 0.01477364
#
# Stress axis : x y z
#
# Youngs Moduli (GPa) = 85.94753 104.91405 52.15478
#
# Poissons Ratio (x) = -0.02448 0.36449
# Poissons Ratio (y) = -0.02006 0.31439
# Poissons Ratio (z) = 0.60066 0.63242
#
# Static dielectric constant tensor:
#      x y z
#    x 1.574630 0.000000 0.000000 
#    y 0.000000 1.611640 0.000000 
#    z 0.000000 0.000000 1.568290 
# 
# From -- ./inp_files/16534.got.cif
#   From: 2010.05.17/outbox.cif.g08.bks.cpg/sg51_9_cif.got.tgz:16534.got - 2010.06.03 11:52:47.
