data_PCOD9402943
_publ_section_title
;
Structure prediction by ZEFSAII (Michael W. Deem and Ramdas Pophale) SiO2 
 PCOD9402943
Probable space group: P M M A
;
_chemical_formula_sum "Si O2"
_cell_formula_units_Z 56
_cell_length_a 14.505442
_cell_length_b 8.982669
_cell_length_c 23.503200
_cell_angle_alpha 90.000000
_cell_angle_beta 90.000000
_cell_angle_gamma 90.000000
_cell_volume 3062.410181
_symmetry_space_group_name_H-M "P M M A"
_symmetry_group_IT_number 51
_symmetry_cell_setting 'orthorhombic'
loop_
_space_group_symop_operation_xyz
x,y,z
1/2-x,-y,z
1/2+x,-y,-z
-x,y,-z
-x,-y,-z
1/2+x,y,-z
1/2-x,y,z
x,-y,z
loop_
_atom_site_type_symbol
_atom_site_label
_atom_site_fract_x
_atom_site_fract_y
_atom_site_fract_z
Si Si1 0.541833 0.179162 0.860526
Si Si2 0.145185 0.820936 0.910955
Si Si3 0.643236 0.822654 0.404029
Si Si4 0.141327 0.674115 0.475087
Si Si5 0.466869 0.321810 0.360423
Si Si6 0.141842 0.179791 0.255872
Si Si7 0.139542 0.326592 0.031878
O O1 0.433609 0.218209 0.865637
O O2 0.591146 0.226108 0.802430
O O3 0.591244 0.248499 0.915207
O O4 0.549769 0.000000 0.864039
O O5 0.250000 0.773798 0.897035
O O6 0.145467 0.000000 0.916999
O O7 0.118465 0.751013 0.971728
O O8 0.750000 0.782908 0.391980
O O9 0.623759 0.769169 0.468604
O O10 0.569626 0.743154 0.363869
O O11 0.633743 0.000000 0.400117
O O12 0.250000 0.686562 0.461228
O O13 0.122164 0.500000 0.488347
O O14 0.082689 0.717659 0.420256
O O15 0.468226 0.500000 0.356206
O O16 0.408789 0.253014 0.309174
O O17 0.250000 0.219322 0.254154
O O18 0.135565 0.000000 0.260374
O O19 0.250000 0.315459 0.039375
O O20 0.114197 0.500000 0.029379
#
# Coordination Sequence:
#
# PCOD9402943 Si02
#       7
#     8   8   8   8   8   8   8
#     4  10  20  35  55  77 103 139 181 221 262 309
#     4   9  18  33  53  77 105 137 173 213 259 314
#     4  10  21  36  55  81 111 142 178 221 268 318
#     4   9  18  33  53  79 111 144 177 216 266 322
#     4  11  22  36  56  80 108 144 183 222 266 318
#     4  10  22  39  57  78 106 139 176 221 269 316
#     4  10  20  32  49  77 110 140 171 213 266 319
#
# _framework density 18.286251
#
# number of rings (size 3 to 8) (size 9 to 14) (size 15 to 20)
#    0.000    2.143    0.000    3.000    0.000    8.857 
#    0.000    2.143    0.000    2.571    0.000    0.000 
#    0.000    0.000    0.000    0.000    0.000    0.000 
#
# Total GULP energy -312710.327220 kJ/mol
# GULP energy per Si atom -5584.112986 kJ/mol
# Density = 1.824463 g / cm^3
# Si number density = 18.286251 Si / 1000 Ang^3
#
#
#
# Elastic Constant Matrix: (Units=GPa)
#
#
# Indices 1 2 3 4 5 6 
#
# 1 142.8890 49.6193 95.9450 0.0000 0.0000 0.0000
# 2 49.6193 25.3355 34.5403 0.0000 0.0000 0.0000
# 3 95.9450 34.5403 87.2219 0.0000 0.0000 0.0000
# 4 0.0000 0.0000 0.0000 84.9003 0.0000 0.0000
# 5 0.0000 0.0000 0.0000 0.0000 35.3623 0.0000
# 6 0.0000 0.0000 0.0000 0.0000 0.0000 21.2955
#
#
#
# Elastic Compliance Matrix: (Units=1/GPa)
#
#
# Indices 1 2 3 4 5 6 
#
# 1 0.038825 -0.038716 -0.027376 0.000000 0.000000 0.000000
# 2 -0.038716 0.124389 -0.006671 0.000000 0.000000 0.000000
# 3 -0.027376 -0.006671 0.044221 0.000000 0.000000 0.000000
# 4 0.000000 0.000000 0.000000 0.011779 0.000000 0.000000
# 5 0.000000 0.000000 0.000000 0.000000 0.028279 0.000000
# 6 0.000000 0.000000 0.000000 0.000000 0.000000 0.046958
#
#
# Mechanical properties :
#
#
# Convention : Reuss Voigt Hill
#
# Bulk Modulus (GPa) = 16.15268 68.40617 42.27943
# Shear Modulus (GPa) = 10.85508 33.33442 22.09475
#
# Velocity S-wave (km/s) = 2.43908 4.27420 3.47979
# Velocity P-wave (km/s) = 4.09689 7.86436 6.27027
#
# Compressibility (1/GPa) = 0.06190923
#
# Stress axis : x y z
#
# Youngs Moduli (GPa) = 25.75650 8.03927 22.61368
#
# Poissons Ratio (x) = 0.31125 0.61908
# Poissons Ratio (y) = 0.99719 0.15085
# Poissons Ratio (z) = 0.70512 0.05363
#
# Static dielectric constant tensor:
#      x y z
#    x 1.658120 0.000000 0.000000 
#    y 0.000000 1.608580 0.000000 
#    z 0.000000 0.000000 1.585740 
# 
# From -- ./inp_files/33288.got.cif
#   From: 2010.05.17/outbox.cif.g08.bks.cpg/sg51_17_cif.got.tgz:33288.got - 2010.06.03 11:52:47.
