data_PCOD9402981
_publ_section_title
;
Structure prediction by ZEFSAII (Michael W. Deem and Ramdas Pophale) SiO2 
 PCOD9402981
Probable space group: P M M A
;
_chemical_formula_sum "Si O2"
_cell_formula_units_Z 52
_cell_length_a 11.347858
_cell_length_b 7.426879
_cell_length_c 28.338572
_cell_angle_alpha 90.000000
_cell_angle_beta 90.000000
_cell_angle_gamma 90.000000
_cell_volume 2388.351278
_symmetry_space_group_name_H-M "P M M A"
_symmetry_group_IT_number 51
_symmetry_cell_setting 'orthorhombic'
loop_
_space_group_symop_operation_xyz
x,y,z
1/2-x,-y,z
1/2+x,-y,-z
-x,y,-z
-x,-y,-z
1/2+x,y,-z
1/2-x,y,z
x,-y,z
loop_
_atom_site_type_symbol
_atom_site_label
_atom_site_fract_x
_atom_site_fract_y
_atom_site_fract_z
Si Si1 0.250000 0.789845 0.892967
Si Si2 0.118109 0.282235 0.363669
Si Si3 0.533194 0.703714 0.280478
Si Si4 0.008699 0.782721 0.096872
Si Si5 0.617294 0.212820 0.525601
Si Si6 0.882663 0.500000 0.968320
Si Si7 0.382651 0.783925 0.195517
Si Si8 0.750000 0.719147 0.218592
O O1 0.374327 0.720412 0.912011
O O2 0.250000 0.778128 0.835772
O O3 0.250000 0.000000 0.905007
O O4 0.250000 0.220894 0.349860
O O5 0.117585 0.500000 0.360234
O O6 0.017192 0.213775 0.328435
O O7 0.100889 0.234106 0.418204
O O8 0.571912 0.500000 0.291790
O O9 0.424951 0.700665 0.244108
O O10 0.637582 0.783111 0.248783
O O11 0.098835 0.676426 0.064307
O O12 0.035819 0.737263 0.151340
O O13 0.018069 0.000000 0.091547
O O14 0.500000 0.286562 0.500000
O O15 0.750000 0.284806 0.514314
O O16 0.621682 0.000000 0.514680
O O17 0.750000 0.500000 0.988364
O O18 0.000000 0.500000 0.000000
O O19 0.250000 0.731651 0.183865
O O20 0.387109 0.000000 0.201095
O O21 0.750000 0.500000 0.216311
#
# Coordination Sequence:
#
# PCOD9402981 Si02
#       8
#     4   8   8   8   8   4   8   4
#     4  10  20  36  64  96 124 170 214 253 313 364
#     4   9  18  33  51  72 103 142 183 227 279 341
#     4  10  20  33  49  75 111 152 190 232 282 341
#     4  10  23  43  68  98 134 169 214 266 314 376
#     4   9  18  34  55  76  99 129 172 227 286 347
#     4  12  30  50  74 106 132 172 216 264 327 384
#     4  10  20  33  53  83 116 151 191 241 293 344
#     4  10  20  32  50  80 118 158 196 242 288 341
#
# _framework density 21.772341000000001
#
# number of rings (size 3 to 8) (size 9 to 14) (size 15 to 20)
#    0.000    2.154    1.538    0.923    3.231    3.077 
#    1.385    1.538    0.000    0.000    0.000    0.000 
#    0.000    0.000    0.000    0.000    0.000    0.000 
#
# Total GULP energy -290197.233561 kJ/mol
# GULP energy per Si atom -5580.716030 kJ/mol
# Density = 2.172279 g / cm^3
# Si number density = 21.772341 Si / 1000 Ang^3
#
#
#
# Elastic Constant Matrix: (Units=GPa)
#
#
# Indices 1 2 3 4 5 6 
#
# 1 128.7437 11.8903 31.7901 0.0000 0.0000 0.0000
# 2 11.8903 67.8753 1.4366 0.0000 0.0000 0.0000
# 3 31.7901 1.4366 55.4679 0.0000 0.0000 0.0000
# 4 0.0000 0.0000 0.0000 24.9579 0.0000 0.0000
# 5 0.0000 0.0000 0.0000 0.0000 42.3455 0.0000
# 6 0.0000 0.0000 0.0000 0.0000 0.0000 34.5232
#
#
#
# Elastic Compliance Matrix: (Units=1/GPa)
#
#
# Indices 1 2 3 4 5 6 
#
# 1 0.009198 -0.001501 -0.005233 0.000000 0.000000 0.000000
# 2 -0.001501 0.014986 0.000472 0.000000 0.000000 0.000000
# 3 -0.005233 0.000472 0.021015 0.000000 0.000000 0.000000
# 4 0.000000 0.000000 0.000000 0.040067 0.000000 0.000000
# 5 0.000000 0.000000 0.000000 0.000000 0.023615 0.000000
# 6 0.000000 0.000000 0.000000 0.000000 0.000000 0.028966
#
#
# Mechanical properties :
#
#
# Convention : Reuss Voigt Hill
#
# Bulk Modulus (GPa) = 30.60333 38.03567 34.31950
# Shear Modulus (GPa) = 31.00526 34.16330 32.58428
#
# Velocity S-wave (km/s) = 3.77777 3.96550 3.87278
# Velocity P-wave (km/s) = 5.75459 6.20279 5.98289
#
# Compressibility (1/GPa) = 0.03267618
#
# Stress axis : x y z
#
# Youngs Moduli (GPa) = 108.71846 66.72989 47.58442
#
# Poissons Ratio (x) = 0.10013 0.24900
# Poissons Ratio (y) = 0.16314 -0.02245
# Poissons Ratio (z) = 0.56890 -0.03149
#
# Static dielectric constant tensor:
#      x y z
#    x 1.834770 0.000000 0.000000 
#    y 0.000000 1.800350 0.000000 
#    z 0.000000 0.000000 1.741630 
# 
# From -- ./inp_files/36602.got.cif
#   From: 2010.05.17/outbox.cif.g08.bks.cpg/sg51_19_cif.got.tgz:36602.got - 2010.06.03 11:52:47.
