data_PCOD9402963
_publ_section_title
;
Structure prediction by ZEFSAII (Michael W. Deem and Ramdas Pophale) SiO2 
 PCOD9402963
Probable space group: P M M A
;
_chemical_formula_sum "Si O2"
_cell_formula_units_Z 40
_cell_length_a 8.710796
_cell_length_b 26.585779
_cell_length_c 9.837579
_cell_angle_alpha 90.000000
_cell_angle_beta 90.000000
_cell_angle_gamma 90.000000
_cell_volume 2278.218983
_symmetry_space_group_name_H-M "P M M A"
_symmetry_group_IT_number 51
_symmetry_cell_setting 'orthorhombic'
loop_
_space_group_symop_operation_xyz
x,y,z
1/2-x,-y,z
1/2+x,-y,-z
-x,y,-z
-x,-y,-z
1/2+x,y,-z
1/2-x,y,z
x,-y,z
loop_
_atom_site_type_symbol
_atom_site_label
_atom_site_fract_x
_atom_site_fract_y
_atom_site_fract_z
Si Si1 0.565506 0.250493 0.349239
Si Si2 0.434039 0.054839 0.153563
Si Si3 0.566308 0.158534 0.152296
Si Si4 0.566621 0.358262 0.651012
Si Si5 0.433703 0.557905 0.848947
O O1 0.500000 0.240767 0.500000
O O2 0.750000 0.254520 0.356846
O O3 0.525085 0.205571 0.246949
O O4 0.496898 0.303909 0.302784
O O5 0.250000 0.058806 0.148065
O O6 0.502969 0.105984 0.212920
O O7 0.473335 0.000000 0.215224
O O8 0.500000 0.053822 0.000000
O O9 0.750000 0.155229 0.142719
O O10 0.500000 0.164696 0.000000
O O11 0.500000 0.366263 0.500000
O O12 0.750000 0.356868 0.645712
O O13 0.508743 0.402284 0.748285
O O14 0.250000 0.564239 0.850821
O O15 0.467239 0.500000 0.808599
O O16 0.500000 0.565079 0.000000
#
# Coordination Sequence:
#
# PCOD9402963 Si02
#       5
#     8   8   8   8   8
#     4  10  21  37  55  76 103 136 175 215 260 312
#     4   9  16  26  43  68  98 131 165 204 251 301
#     4  10  20  32  50  76 103 132 168 211 255 304
#     4  11  22  37  58  81 107 140 178 220 263 309
#     4  10  21  38  59  83 112 144 177 215 261 312
#
# _framework density 17.557575
#
# number of rings (size 3 to 8) (size 9 to 14) (size 15 to 20)
#    0.000    2.000    0.000    6.600    0.000    6.800 
#    0.000    2.000    0.000    0.600    0.000    0.000 
#    0.000    0.000    0.000    0.000    0.000    0.000 
#
# Total GULP energy -223193.940891 kJ/mol
# GULP energy per Si atom -5579.848522 kJ/mol
# Density = 1.751761 g / cm^3
# Si number density = 17.557575 Si / 1000 Ang^3
#
#
#
# Elastic Constant Matrix: (Units=GPa)
#
#
# Indices 1 2 3 4 5 6 
#
# 1 99.2428 85.6375 41.8061 0.0000 0.0000 0.0000
# 2 85.6375 205.0738 92.0652 0.0000 0.0000 0.0000
# 3 41.8061 92.0652 55.5208 0.0000 0.0000 0.0000
# 4 0.0000 0.0000 0.0000 -547.6873 0.0000 0.0000
# 5 0.0000 0.0000 0.0000 0.0000 27.2366 0.0000
# 6 0.0000 0.0000 0.0000 0.0000 0.0000 30.4508
#
#
#
# Elastic Compliance Matrix: (Units=1/GPa)
#
#
# Indices 1 2 3 4 5 6 
#
# 1 0.015953 -0.004966 -0.003778 0.000000 0.000000 0.000000
# 2 -0.004966 0.020626 -0.030463 0.000000 0.000000 0.000000
# 3 -0.003778 -0.030463 0.071370 0.000000 0.000000 0.000000
# 4 0.000000 0.000000 0.000000 -0.001826 0.000000 0.000000
# 5 0.000000 0.000000 0.000000 0.000000 0.036715 0.000000
# 6 0.000000 0.000000 0.000000 0.000000 0.000000 0.032840
#
#
# Mechanical properties :
#
#
# Convention : Reuss Voigt Hill
#
# Bulk Modulus (GPa) = 33.85752 88.76169 61.30961
# Shear Modulus (GPa) = 18.94390 -88.64475 -34.85043
#
# Velocity S-wave (km/s) = 3.28831 -7.11320 -4.46008
# Velocity P-wave (km/s) = 5.80887 4.09867 2.91065
#
# Compressibility (1/GPa) = 0.02953553
#
# Stress axis : x y z
#
# Youngs Moduli (GPa) = 62.68539 48.48245 14.01141
#
# Poissons Ratio (x) = 0.24075 0.05293
# Poissons Ratio (y) = 0.31128 0.42683
# Poissons Ratio (z) = 0.23682 1.47693
#
# Static dielectric constant tensor:
#      x y z
#    x 1.586100 0.000000 0.000000 
#    y 0.000000 1.626060 0.000000 
#    z 0.000000 0.000000 1.563470 
# 
# From -- ./inp_files/5507.got.cif
#   From: 2010.05.17/outbox.cif.g08.bks.cpg/sg51_3_cif.got.tgz:5507.got - 2010.06.03 11:52:47.
