data_PCOD9402864
_publ_section_title
;
Structure prediction by ZEFSAII (Michael W. Deem and Ramdas Pophale) SiO2 
 PCOD9402864
Probable space group: P M M A
;
_chemical_formula_sum "Si O2"
_cell_formula_units_Z 40
_cell_length_a 8.835614
_cell_length_b 19.282545
_cell_length_c 14.143738
_cell_angle_alpha 90.000000
_cell_angle_beta 90.000000
_cell_angle_gamma 90.000000
_cell_volume 2409.712836
_symmetry_space_group_name_H-M "P M M A"
_symmetry_group_IT_number 51
_symmetry_cell_setting 'orthorhombic'
loop_
_space_group_symop_operation_xyz
x,y,z
1/2-x,-y,z
1/2+x,-y,-z
-x,y,-z
-x,-y,-z
1/2+x,y,-z
1/2-x,y,z
x,-y,z
loop_
_atom_site_type_symbol
_atom_site_label
_atom_site_fract_x
_atom_site_fract_y
_atom_site_fract_z
Si Si1 0.930812 0.920273 0.603190
Si Si2 0.432032 0.653905 0.601850
Si Si3 0.432224 0.206248 0.709717
Si Si4 0.565612 0.577580 0.208388
Si Si5 0.567536 0.285187 0.101352
O O1 0.750000 0.915430 0.597391
O O2 0.000000 0.905024 0.500000
O O3 0.993383 0.864595 0.676600
O O4 0.971451 0.000000 0.627011
O O5 0.500000 0.638739 0.500000
O O6 0.250000 0.651722 0.595981
O O7 0.474384 0.730986 0.638405
O O8 0.478439 0.601700 0.685891
O O9 0.250000 0.199904 0.706691
O O10 0.474767 0.232416 0.814477
O O11 0.750000 0.577444 0.207077
O O12 0.512977 0.500000 0.186584
O O13 0.517795 0.638155 0.136703
O O14 0.750000 0.285517 0.096117
O O15 0.500000 0.268402 0.000000
#
# Coordination Sequence:
#
# PCOD9402864 Si02
#       5
#     8   8   8   8   8
#     4  10  20  32  48  73 102 129 156 186 222 266
#     4   9  17  28  43  64  89 119 155 190 224 267
#     4   9  18  32  48  67  93 124 157 192 230 274
#     4   8  15  29  46  63  88 122 154 185 228 280
#     4   9  18  32  50  71  92 117 153 195 238 282
#
# _framework density 16.599487
#
# number of rings (size 3 to 8) (size 9 to 14) (size 15 to 20)
#    0.000    3.000    0.000    3.600    0.000    5.200 
#    0.000    3.000    0.000    1.800    0.000    0.000 
#    0.000    0.000    0.000    0.000    0.000    0.000 
#
# Total GULP energy -222931.300065 kJ/mol
# GULP energy per Si atom -5573.282502 kJ/mol
# Density = 1.656171 g / cm^3
# Si number density = 16.599487 Si / 1000 Ang^3
#
#
#
# Elastic Constant Matrix: (Units=GPa)
#
#
# Indices 1 2 3 4 5 6 
#
# 1 11.5763 28.5039 21.2263 0.0000 0.0000 0.0000
# 2 28.5039 118.0405 55.1767 0.0000 0.0000 0.0000
# 3 21.2263 55.1767 92.0389 0.0000 0.0000 0.0000
# 4 0.0000 0.0000 0.0000 11.1070 0.0000 0.0000
# 5 0.0000 0.0000 0.0000 0.0000 30.8192 0.0000
# 6 0.0000 0.0000 0.0000 0.0000 0.0000 18.0762
#
#
#
# Elastic Compliance Matrix: (Units=1/GPa)
#
#
# Indices 1 2 3 4 5 6 
#
# 1 0.266624 -0.049516 -0.031805 0.000000 0.000000 0.000000
# 2 -0.049516 0.020966 -0.001149 0.000000 0.000000 0.000000
# 3 -0.031805 -0.001149 0.018889 0.000000 0.000000 0.000000
# 4 0.000000 0.000000 0.000000 0.090033 0.000000 0.000000
# 5 0.000000 0.000000 0.000000 0.000000 0.032447 0.000000
# 6 0.000000 0.000000 0.000000 0.000000 0.000000 0.055321
#
#
# Mechanical properties :
#
#
# Convention : Reuss Voigt Hill
#
# Bulk Modulus (GPa) = 7.06526 47.94104 27.50315
# Shear Modulus (GPa) = 7.17977 19.78372 13.48175
#
# Velocity S-wave (km/s) = 2.08199 3.45603 2.85297
# Velocity P-wave (km/s) = 3.16941 6.69845 5.23996
#
# Compressibility (1/GPa) = 0.14153770
#
# Stress axis : x y z
#
# Youngs Moduli (GPa) = 3.75060 47.69661 52.94109
#
# Poissons Ratio (x) = 2.36176 1.68379
# Poissons Ratio (y) = 0.18572 0.06084
# Poissons Ratio (z) = 0.11929 0.05482
#
# Static dielectric constant tensor:
#      x y z
#    x 1.557830 0.000000 0.000000 
#    y 0.000000 1.565650 0.000000 
#    z 0.000000 0.000000 1.535280 
# 
# From -- ./inp_files/14234.got.cif
#   From: 2010.05.17/outbox.cif.g08.bks.cpg/sg51_8_cif.got.tgz:14234.got - 2010.06.03 11:52:47.
