data_PCOD9402411
_publ_section_title
;
Structure prediction by ZEFSAII (Michael W. Deem and Ramdas Pophale) SiO2 
 PCOD9402411
Probable space group: P M M A
;
_chemical_formula_sum "Si O2"
_cell_formula_units_Z 56
_cell_length_a 8.913257
_cell_length_b 21.332041
_cell_length_c 14.901642
_cell_angle_alpha 90.000000
_cell_angle_beta 90.000000
_cell_angle_gamma 90.000000
_cell_volume 2833.367867
_symmetry_space_group_name_H-M "P M M A"
_symmetry_group_IT_number 51
_symmetry_cell_setting 'orthorhombic'
loop_
_space_group_symop_operation_xyz
x,y,z
1/2-x,-y,z
1/2+x,-y,-z
-x,y,-z
-x,-y,-z
1/2+x,y,-z
1/2-x,y,z
x,-y,z
loop_
_atom_site_type_symbol
_atom_site_label
_atom_site_fract_x
_atom_site_fract_y
_atom_site_fract_z
Si Si1 0.579666 0.778286 0.760437
Si Si2 0.932305 0.134997 0.594979
Si Si3 0.916527 0.871467 0.922112
Si Si4 0.068672 0.000000 0.651795
Si Si5 0.935172 0.000000 0.849767
Si Si6 0.569962 0.427918 0.220894
Si Si7 0.576707 0.576372 0.592374
Si Si8 0.570952 0.315177 0.098548
O O1 0.750000 0.753815 0.746368
O O2 0.526025 0.812081 0.669339
O O3 0.589074 0.836108 0.829365
O O4 0.485251 0.729293 0.819554
O O5 0.750000 0.130246 0.595019
O O6 0.000000 0.154855 0.500000
O O7 0.000574 0.065336 0.613496
O O8 0.750000 0.881329 0.956031
O O9 0.985022 0.938502 0.901781
O O10 0.000000 0.835262 0.000000
O O11 0.250000 0.000000 0.642583
O O12 0.012707 0.000000 0.754015
O O13 0.750000 0.000000 0.840026
O O14 0.750000 0.427233 0.231058
O O15 0.521521 0.500000 0.207879
O O16 0.501212 0.403919 0.314922
O O17 0.532151 0.384204 0.136996
O O18 0.500000 0.598117 0.500000
O O19 0.750000 0.594645 0.592838
O O20 0.568556 0.500000 0.591540
O O21 0.750000 0.308404 0.090226
O O22 0.500000 0.305687 0.000000
#
# Coordination Sequence:
#
# PCOD9402411 Si02
#       8
#     8   8   8   4   4   8   8   8
#     4  10  22  41  63  84 113 154 196 243 294 348
#     4  11  23  42  65  90 122 158 199 247 299 353
#     4  10  20  34  54  79 109 148 189 234 289 339
#     4  12  23  36  59  91 122 159 203 247 298 353
#     4  10  19  36  54  75 114 155 192 239 292 345
#     4   9  19  37  59  85 119 158 200 247 298 354
#     4   9  16  27  48  80 116 153 190 229 276 332
#     4  11  24  41  63  89 118 153 196 245 298 360
#
# _framework density 19.764465000000001
#
# number of rings (size 3 to 8) (size 9 to 14) (size 15 to 20)
#    0.000    1.857    1.429    2.786    0.000    6.571 
#    0.000    0.714    0.000    1.714    0.000    0.000 
#    0.000    0.000    0.000    0.000    0.000    0.000 
#
# Total GULP energy -312174.262274 kJ/mol
# GULP energy per Si atom -5574.540398 kJ/mol
# Density = 1.971948 g / cm^3
# Si number density = 19.764465 Si / 1000 Ang^3
#
#
#
# Elastic Constant Matrix: (Units=GPa)
#
#
# Indices 1 2 3 4 5 6 
#
# 1 63.1308 36.6964 59.4528 0.0000 0.0000 0.0000
# 2 36.6964 79.0511 57.9318 0.0000 0.0000 0.0000
# 3 59.4528 57.9318 172.4341 0.0000 0.0000 0.0000
# 4 0.0000 0.0000 0.0000 -40.6220 0.0000 0.0000
# 5 0.0000 0.0000 0.0000 0.0000 32.0684 0.0000
# 6 0.0000 0.0000 0.0000 0.0000 0.0000 67.9084
#
#
#
# Elastic Compliance Matrix: (Units=1/GPa)
#
#
# Indices 1 2 3 4 5 6 
#
# 1 0.026358 -0.007397 -0.006603 0.000000 0.000000 0.000000
# 2 -0.007397 0.018858 -0.003785 0.000000 0.000000 0.000000
# 3 -0.006603 -0.003785 0.009348 0.000000 0.000000 0.000000
# 4 0.000000 0.000000 0.000000 -0.024617 0.000000 0.000000
# 5 0.000000 0.000000 0.000000 0.000000 0.031183 0.000000
# 6 0.000000 0.000000 0.000000 0.000000 0.000000 0.014726
#
#
# Mechanical properties :
#
#
# Convention : Reuss Voigt Hill
#
# Bulk Modulus (GPa) = 52.64960 69.19755 60.92357
# Shear Modulus (GPa) = 42.46085 22.57330 32.51708
#
# Velocity S-wave (km/s) = 4.64005 3.38319 4.06054
# Velocity P-wave (km/s) = 7.44333 7.09566 7.27157
#
# Compressibility (1/GPa) = 0.01899350
#
# Stress axis : x y z
#
# Youngs Moduli (GPa) = 37.93943 53.02873 106.98022
#
# Poissons Ratio (x) = 0.39225 0.70636
# Poissons Ratio (y) = 0.28063 0.40494
# Poissons Ratio (z) = 0.25050 0.20072
#
# Static dielectric constant tensor:
#      x y z
#    x 1.680440 0.000000 0.000000 
#    y 0.000000 1.738660 0.000000 
#    z 0.000000 0.000000 1.689050 
# 
# From -- ./inp_files/21934.got.cif
#   From: 2010.05.17/outbox.cif.g08.bks.cpg/sg51_11_cif.got.tgz:21934.got - 2010.06.03 11:52:47.
