data_PCOD9402402
_publ_section_title
;
Structure prediction by ZEFSAII (Michael W. Deem and Ramdas Pophale) SiO2 
 PCOD9402402
Probable space group: P M M A
;
_chemical_formula_sum "Si O2"
_cell_formula_units_Z 56
_cell_length_a 14.601831
_cell_length_b 15.097548
_cell_length_c 12.519765
_cell_angle_alpha 90.000000
_cell_angle_beta 90.000000
_cell_angle_gamma 90.000000
_cell_volume 2760.005286
_symmetry_space_group_name_H-M "P M M A"
_symmetry_group_IT_number 51
_symmetry_cell_setting 'orthorhombic'
loop_
_space_group_symop_operation_xyz
x,y,z
1/2-x,-y,z
1/2+x,-y,-z
-x,y,-z
-x,-y,-z
1/2+x,y,-z
1/2-x,y,z
x,-y,z
loop_
_atom_site_type_symbol
_atom_site_label
_atom_site_fract_x
_atom_site_fract_y
_atom_site_fract_z
Si Si1 0.408888 0.260165 0.559954
Si Si2 0.359162 0.597463 0.717317
Si Si3 0.513684 0.835937 0.116681
Si Si4 0.647410 0.899657 0.299015
Si Si5 0.856563 0.328767 0.061768
Si Si6 0.357991 0.401099 0.380518
Si Si7 0.640807 0.702648 0.828318
O O1 0.500000 0.230162 0.500000
O O2 0.415501 0.324918 0.662086
O O3 0.361402 0.173486 0.607861
O O4 0.367897 0.329323 0.474370
O O5 0.250000 0.613571 0.696442
O O6 0.381021 0.500000 0.675705
O O7 0.371610 0.601506 0.844523
O O8 0.568946 0.885810 0.209667
O O9 0.579036 0.753199 0.088195
O O10 0.419434 0.791864 0.159617
O O11 0.500000 0.881450 0.000000
O O12 0.750000 0.888705 0.251377
O O13 0.640566 0.000000 0.340228
O O14 0.750000 0.301760 0.069900
O O15 0.872382 0.351777 0.938600
O O16 0.250000 0.412003 0.366427
O O17 0.396722 0.500000 0.400928
O O18 0.390467 0.356238 0.270968
O O19 0.750000 0.722126 0.817870
#
# Coordination Sequence:
#
# PCOD9402402 Si02
#       7
#     8   8   8   8   8   8   8
#     4  12  24  39  59  84 121 159 203 258 314 370
#     4  10  20  34  56  87 122 163 211 261 313 367
#     4  10  19  35  61  91 126 161 200 244 310 372
#     4  11  24  43  69  97 122 155 204 263 322 380
#     4   9  17  32  56  84 120 164 209 258 304 358
#     4  10  21  36  54  78 115 164 211 252 298 355
#     4   9  19  35  55  84 122 171 218 253 301 366
#
# _framework density 20.289815999999998
#
# number of rings (size 3 to 8) (size 9 to 14) (size 15 to 20)
#    0.000    1.857    1.429    3.000    0.000    4.000 
#    0.000    2.857    0.000    3.000    0.000    0.000 
#    0.000    0.000    0.000    0.000    0.000    0.000 
#
# Total GULP energy -312177.585712 kJ/mol
# GULP energy per Si atom -5574.599745 kJ/mol
# Density = 2.024364 g / cm^3
# Si number density = 20.289816 Si / 1000 Ang^3
#
#
#
# Elastic Constant Matrix: (Units=GPa)
#
#
# Indices 1 2 3 4 5 6 
#
# 1 75.0390 33.1120 39.7876 0.0000 0.0000 0.0000
# 2 33.1120 115.0833 60.2943 0.0000 0.0000 0.0000
# 3 39.7876 60.2943 123.4492 0.0000 0.0000 0.0000
# 4 0.0000 0.0000 0.0000 10.8472 0.0000 0.0000
# 5 0.0000 0.0000 0.0000 0.0000 34.2848 0.0000
# 6 0.0000 0.0000 0.0000 0.0000 0.0000 91.8833
#
#
#
# Elastic Compliance Matrix: (Units=1/GPa)
#
#
# Indices 1 2 3 4 5 6 
#
# 1 0.016658 -0.002661 -0.004069 0.000000 0.000000 0.000000
# 2 -0.002661 0.012103 -0.005053 0.000000 0.000000 0.000000
# 3 -0.004069 -0.005053 0.011880 0.000000 0.000000 0.000000
# 4 0.000000 0.000000 0.000000 0.092190 0.000000 0.000000
# 5 0.000000 0.000000 0.000000 0.000000 0.029167 0.000000
# 6 0.000000 0.000000 0.000000 0.000000 0.000000 0.010883
#
#
# Mechanical properties :
#
#
# Convention : Reuss Voigt Hill
#
# Bulk Modulus (GPa) = 58.56987 64.43991 61.50489
# Shear Modulus (GPa) = 24.73530 39.42824 32.08177
#
# Velocity S-wave (km/s) = 3.49535 4.41302 3.98071
# Velocity P-wave (km/s) = 6.72453 7.60230 7.17684
#
# Compressibility (1/GPa) = 0.01707363
#
# Stress axis : x y z
#
# Youngs Moduli (GPa) = 60.03036 82.62712 84.17378
#
# Poissons Ratio (x) = 0.21987 0.34253
# Poissons Ratio (y) = 0.15974 0.42537
# Poissons Ratio (z) = 0.24428 0.41755
#
# Static dielectric constant tensor:
#      x y z
#    x 1.775660 0.000000 0.000000 
#    y 0.000000 1.691460 0.000000 
#    z 0.000000 0.000000 1.782200 
# 
# From -- ./inp_files/16580.got.cif
#   From: 2010.05.17/outbox.cif.g08.bks.cpg/sg51_9_cif.got.tgz:16580.got - 2010.06.03 11:52:47.
