data_PCOD9402210
_publ_section_title
;
Structure prediction by ZEFSAII (Michael W. Deem and Ramdas Pophale) SiO2 
 PCOD9402210
Probable space group: P M M A
;
_chemical_formula_sum "Si O2"
_cell_formula_units_Z 56
_cell_length_a 15.176177
_cell_length_b 8.831288
_cell_length_c 22.411613
_cell_angle_alpha 90.000000
_cell_angle_beta 90.000000
_cell_angle_gamma 90.000000
_cell_volume 3003.720687
_symmetry_space_group_name_H-M "P M M A"
_symmetry_group_IT_number 51
_symmetry_cell_setting 'orthorhombic'
loop_
_space_group_symop_operation_xyz
x,y,z
1/2-x,-y,z
1/2+x,-y,-z
-x,y,-z
-x,-y,-z
1/2+x,y,-z
1/2-x,y,z
x,-y,z
loop_
_atom_site_type_symbol
_atom_site_label
_atom_site_fract_x
_atom_site_fract_y
_atom_site_fract_z
Si Si1 0.654315 0.818352 0.885177
Si Si2 0.105014 0.675216 0.991541
Si Si3 0.938160 0.317608 0.444046
Si Si4 0.647333 0.679984 0.142282
Si Si5 0.990112 0.181641 0.789987
Si Si6 0.250000 0.819132 0.525293
Si Si7 0.067726 0.318209 0.335708
Si Si8 0.250000 0.181459 0.383801
O O1 0.750000 0.770783 0.861548
O O2 0.644509 0.762268 0.952576
O O3 0.576532 0.764788 0.842316
O O4 0.650810 0.000000 0.885699
O O5 0.133979 0.500000 0.994442
O O6 0.129222 0.732959 0.925782
O O7 0.000000 0.680441 0.000000
O O8 0.928743 0.500000 0.446705
O O9 0.840950 0.246771 0.448164
O O10 0.000000 0.271074 0.500000
O O11 0.993263 0.278279 0.384834
O O12 0.750000 0.698657 0.155365
O O13 0.626193 0.500000 0.144002
O O14 0.585766 0.766349 0.188321
O O15 0.961422 0.254827 0.728044
O O16 0.985333 0.000000 0.785454
O O17 0.250000 0.782870 0.454465
O O18 0.250000 0.000000 0.532058
O O19 0.074921 0.500000 0.334215
O O20 0.161516 0.249439 0.355195
O O21 0.250000 0.000000 0.376556
#
# Coordination Sequence:
#
# PCOD9402210 Si02
#       8
#     8   8   8   8   8   4   8   4
#     4  10  22  38  56  82 117 155 191 233 294 362
#     4  10  19  34  59  87 115 147 191 249 302 351
#     4  10  21  40  65  91 124 162 204 254 301 354
#     4  10  21  39  62  86 115 154 201 253 307 363
#     4  11  24  41  61  85 119 159 198 248 305 361
#     4  11  23  37  63  99 131 163 200 247 304 363
#     4  11  24  42  65  92 122 164 211 252 299 359
#     4  11  23  39  63  97 133 165 196 243 302 361
#
# _framework density 18.643543999999999
#
# number of rings (size 3 to 8) (size 9 to 14) (size 15 to 20)
#    0.000    1.571    2.857    1.714    1.000    4.571 
#    1.286    0.000    0.000    0.000    0.000    0.000 
#    0.000    0.000    0.000    0.000    0.000    0.000 
#
# Total GULP energy -312849.681541 kJ/mol
# GULP energy per Si atom -5586.601456 kJ/mol
# Density = 1.860111 g / cm^3
# Si number density = 18.643544 Si / 1000 Ang^3
#
#
#
# Elastic Constant Matrix: (Units=GPa)
#
#
# Indices 1 2 3 4 5 6 
#
# 1 142.9604 49.9052 74.0362 0.0000 0.0000 0.0000
# 2 49.9052 42.2634 48.6138 0.0000 0.0000 0.0000
# 3 74.0362 48.6138 128.3781 0.0000 0.0000 0.0000
# 4 0.0000 0.0000 0.0000 29.6181 0.0000 0.0000
# 5 0.0000 0.0000 0.0000 0.0000 7.6060 0.0000
# 6 0.0000 0.0000 0.0000 0.0000 0.0000 22.3119
#
#
#
# Elastic Compliance Matrix: (Units=1/GPa)
#
#
# Indices 1 2 3 4 5 6 
#
# 1 0.012467 -0.011429 -0.002862 0.000000 0.000000 0.000000
# 2 -0.011429 0.052399 -0.013251 0.000000 0.000000 0.000000
# 3 -0.002862 -0.013251 0.014458 0.000000 0.000000 0.000000
# 4 0.000000 0.000000 0.000000 0.033763 0.000000 0.000000
# 5 0.000000 0.000000 0.000000 0.000000 0.131476 0.000000
# 6 0.000000 0.000000 0.000000 0.000000 0.000000 0.044819
#
#
# Mechanical properties :
#
#
# Convention : Reuss Voigt Hill
#
# Bulk Modulus (GPa) = 41.25470 73.19025 57.22247
# Shear Modulus (GPa) = 14.18260 21.31031 17.74645
#
# Velocity S-wave (km/s) = 2.76112 3.38455 3.08861
# Velocity P-wave (km/s) = 5.68693 7.39030 6.59385
#
# Compressibility (1/GPa) = 0.02423966
#
# Stress axis : x y z
#
# Youngs Moduli (GPa) = 80.21387 19.08433 69.16765
#
# Poissons Ratio (x) = 0.21812 0.19793
# Poissons Ratio (y) = 0.91678 0.91654
# Poissons Ratio (z) = 0.22954 0.25289
#
# Static dielectric constant tensor:
#      x y z
#    x 1.647930 0.000000 0.000000 
#    y 0.000000 1.632640 0.000000 
#    z 0.000000 0.000000 1.618880 
# 
# From -- ./inp_files/33586.got.cif
#   From: 2010.05.17/outbox.cif.g08.bks.cpg/sg51_17_cif.got.tgz:33586.got - 2010.06.03 11:52:47.
