data_PCOD9402869
_publ_section_title
;
Structure prediction by ZEFSAII (Michael W. Deem and Ramdas Pophale) SiO2 
 PCOD9402869
Probable space group: P M M A
;
_chemical_formula_sum "Si O2"
_cell_formula_units_Z 48
_cell_length_a 25.557919
_cell_length_b 9.042785
_cell_length_c 12.842328
_cell_angle_alpha 90.000000
_cell_angle_beta 90.000000
_cell_angle_gamma 90.000000
_cell_volume 2968.051638
_symmetry_space_group_name_H-M "P M M A"
_symmetry_group_IT_number 51
_symmetry_cell_setting 'orthorhombic'
loop_
_space_group_symop_operation_xyz
x,y,z
1/2-x,-y,z
1/2+x,-y,-z
-x,y,-z
-x,-y,-z
1/2+x,y,-z
1/2-x,y,z
x,-y,z
loop_
_atom_site_type_symbol
_atom_site_label
_atom_site_fract_x
_atom_site_fract_y
_atom_site_fract_z
Si Si1 0.188240 0.178076 0.773087
Si Si2 0.111866 0.822384 0.383336
Si Si3 0.187602 0.674617 0.219301
Si Si4 0.313462 0.830349 0.007377
Si Si5 0.995484 0.831212 0.373937
Si Si6 0.389591 0.675900 0.610742
O O1 0.250000 0.212323 0.761819
O O2 0.170906 0.217118 0.891119
O O3 0.153921 0.260268 0.688028
O O4 0.182837 0.000000 0.762823
O O5 0.155615 0.763751 0.305431
O O6 0.117540 0.747749 0.496418
O O7 0.053646 0.785948 0.339650
O O8 0.113964 0.000000 0.395211
O O9 0.250000 0.701842 0.229975
O O10 0.178646 0.500000 0.230885
O O11 0.171346 0.729163 0.104140
O O12 0.250000 0.832488 0.004695
O O13 0.330595 0.000000 0.025127
O O14 0.946827 0.727466 0.349100
O O15 0.000000 0.833591 0.500000
O O16 0.984476 0.000000 0.340292
O O17 0.386930 0.500000 0.603135
#
# Coordination Sequence:
#
# PCOD9402869 Si02
#       6
#     8   8   8   8   8   8
#     4   9  18  33  52  72  96 129 166 200 234 278
#     4  10  20  34  52  71  94 128 166 201 236 279
#     4  10  20  32  48  73 103 130 156 193 242 290
#     4   8  15  30  51  71  91 122 165 202 231 274
#     4   8  16  32  51  69  90 121 163 202 234 278
#     4  11  21  31  48  74 102 129 156 194 245 292
#
# _framework density 16.172225000000001
#
# number of rings (size 3 to 8) (size 9 to 14) (size 15 to 20)
#    0.000    2.667    0.000    4.500    0.000    6.333 
#    0.000    1.667    0.000    1.000    0.000    7.000 
#    0.000    0.000    0.000    0.000    0.000    0.000 
#
# Total GULP energy -267472.956592 kJ/mol
# GULP energy per Si atom -5572.353262 kJ/mol
# Density = 1.613542 g / cm^3
# Si number density = 16.172225 Si / 1000 Ang^3
#
#
#
# Elastic Constant Matrix: (Units=GPa)
#
#
# Indices 1 2 3 4 5 6 
#
# 1 79.5189 62.1722 57.0395 0.0000 0.0000 0.0000
# 2 62.1722 85.9135 61.7719 0.0000 0.0000 0.0000
# 3 57.0395 61.7719 94.0666 0.0000 0.0000 0.0000
# 4 0.0000 0.0000 0.0000 9.6592 0.0000 0.0000
# 5 0.0000 0.0000 0.0000 0.0000 -5.8093 0.0000
# 6 0.0000 0.0000 0.0000 0.0000 0.0000 17.1541
#
#
#
# Elastic Compliance Matrix: (Units=1/GPa)
#
#
# Indices 1 2 3 4 5 6 
#
# 1 0.031785 -0.017323 -0.007898 0.000000 0.000000 0.000000
# 2 -0.017323 0.031492 -0.010176 0.000000 0.000000 0.000000
# 3 -0.007898 -0.010176 0.022102 0.000000 0.000000 0.000000
# 4 0.000000 0.000000 0.000000 0.103529 0.000000 0.000000
# 5 0.000000 0.000000 0.000000 0.000000 -0.172139 0.000000
# 6 0.000000 0.000000 0.000000 0.000000 0.000000 0.058295
#
#
# Mechanical properties :
#
#
# Convention : Reuss Voigt Hill
#
# Bulk Modulus (GPa) = 68.56140 69.05181 68.80660
# Shear Modulus (GPa) = 33.17418 9.43516 21.30467
#
# Velocity S-wave (km/s) = 4.53405 2.41802 3.63349
# Velocity P-wave (km/s) = 8.36042 7.11240 7.76154
#
# Compressibility (1/GPa) = 0.01458547
#
# Stress axis : x y z
#
# Youngs Moduli (GPa) = 31.46168 31.75383 45.24392
#
# Poissons Ratio (x) = 0.55007 0.35733
# Poissons Ratio (y) = 0.54500 0.46042
# Poissons Ratio (z) = 0.24848 0.32314
#
# Static dielectric constant tensor:
#      x y z
#    x 1.548040 0.000000 0.000000 
#    y 0.000000 1.535940 0.000000 
#    z 0.000000 0.000000 1.529500 
# 
# From -- ./inp_files/18586.got.cif
#   From: 2010.05.17/outbox.cif.g08.bks.cpg/sg51_10_cif.got.tgz:18586.got - 2010.06.03 11:52:47.
