data_PCOD9402075
_publ_section_title
;
Structure prediction by ZEFSAII (Michael W. Deem and Ramdas Pophale) SiO2 
 PCOD9402075
Probable space group: P M M A
;
_chemical_formula_sum "Si O2"
_cell_formula_units_Z 64
_cell_length_a 8.768363
_cell_length_b 25.317105
_cell_length_c 15.207071
_cell_angle_alpha 90.000000
_cell_angle_beta 90.000000
_cell_angle_gamma 90.000000
_cell_volume 3375.811103
_symmetry_space_group_name_H-M "P M M A"
_symmetry_group_IT_number 51
_symmetry_cell_setting 'orthorhombic'
loop_
_space_group_symop_operation_xyz
x,y,z
1/2-x,-y,z
1/2+x,-y,-z
-x,y,-z
-x,-y,-z
1/2+x,y,-z
1/2-x,y,z
x,-y,z
loop_
_atom_site_type_symbol
_atom_site_label
_atom_site_fract_x
_atom_site_fract_y
_atom_site_fract_z
Si Si1 0.564187 0.558409 0.787356
Si Si2 0.575106 0.421056 0.590937
Si Si3 0.933723 0.339706 0.901635
Si Si4 0.431995 0.254012 0.770520
Si Si5 0.065815 0.132556 0.745691
Si Si6 0.425862 0.293606 0.408796
Si Si7 0.932594 0.940229 0.597506
Si Si8 0.933439 0.060687 0.091862
O O1 0.750000 0.561261 0.783714
O O2 0.522786 0.500000 0.821154
O O3 0.509076 0.563187 0.686042
O O4 0.515919 0.607550 0.847700
O O5 0.500000 0.438864 0.500000
O O6 0.750000 0.438564 0.589552
O O7 0.573577 0.357299 0.589971
O O8 0.750000 0.339650 0.905400
O O9 0.989152 0.289263 0.845445
O O10 0.000000 0.339563 0.000000
O O11 0.250000 0.257109 0.782446
O O12 0.478319 0.192595 0.766765
O O13 0.479661 0.276466 0.675696
O O14 0.250000 0.131260 0.737462
O O15 0.018371 0.096208 0.827219
O O16 0.995896 0.105516 0.659816
O O17 0.500000 0.274815 0.500000
O O18 0.250000 0.276211 0.401559
O O19 0.750000 0.937647 0.594077
O O20 0.000000 0.934700 0.500000
O O21 0.975487 0.000000 0.629137
O O22 0.750000 0.061325 0.087367
O O23 0.983336 0.000000 0.104167
O O24 0.000000 0.080096 0.000000
#
# Coordination Sequence:
#
# PCOD9402075 Si02
#       8
#     8   8   8   8   8   8   8   8
#     4   9  18  35  59  85 116 152 189 234 289 349
#     4   9  17  31  52  81 113 148 185 221 269 330
#     4  11  23  42  64  86 112 149 193 241 299 358
#     4  11  23  39  59  85 115 151 194 242 291 347
#     4  10  22  38  57  83 115 150 192 238 289 342
#     4  10  19  34  56  83 112 149 190 231 279 334
#     4  10  21  37  59  87 119 158 202 245 292 345
#     4   9  18  34  56  80 107 139 174 218 272 329
#
# _framework density 18.958407999999999
#
# number of rings (size 3 to 8) (size 9 to 14) (size 15 to 20)
#    0.000    2.125    1.250    1.875    0.000    4.750 
#    0.000    2.500    0.000    2.625    0.000    0.000 
#    0.000    0.000    0.000    0.000    0.000    0.000 
#
# Total GULP energy -357186.993915 kJ/mol
# GULP energy per Si atom -5581.046780 kJ/mol
# Density = 1.891526 g / cm^3
# Si number density = 18.958408 Si / 1000 Ang^3
#
#
#
# Elastic Constant Matrix: (Units=GPa)
#
#
# Indices 1 2 3 4 5 6 
#
# 1 34.7515 38.4197 34.2732 0.0000 0.0000 0.0000
# 2 38.4197 124.8402 83.2362 0.0000 0.0000 0.0000
# 3 34.2732 83.2362 152.5230 0.0000 0.0000 0.0000
# 4 0.0000 0.0000 0.0000 38.4410 0.0000 0.0000
# 5 0.0000 0.0000 0.0000 0.0000 35.7343 0.0000
# 6 0.0000 0.0000 0.0000 0.0000 0.0000 -17.1060
#
#
#
# Elastic Compliance Matrix: (Units=1/GPa)
#
#
# Indices 1 2 3 4 5 6 
#
# 1 0.045136 -0.011206 -0.004027 0.000000 0.000000 0.000000
# 2 -0.011206 0.015374 -0.005872 0.000000 0.000000 0.000000
# 3 -0.004027 -0.005872 0.010666 0.000000 0.000000 0.000000
# 4 0.000000 0.000000 0.000000 0.026014 0.000000 0.000000
# 5 0.000000 0.000000 0.000000 0.000000 0.027984 0.000000
# 6 0.000000 0.000000 0.000000 0.000000 0.000000 -0.058459
#
#
# Mechanical properties :
#
#
# Convention : Reuss Voigt Hill
#
# Bulk Modulus (GPa) = 34.52306 69.33031 51.92668
# Shear Modulus (GPa) = 42.16573 21.82624 31.99598
#
# Velocity S-wave (km/s) = 4.72117 3.39672 4.11261
# Velocity P-wave (km/s) = 6.92594 7.21337 7.07112
#
# Compressibility (1/GPa) = 0.02896615
#
# Stress axis : x y z
#
# Youngs Moduli (GPa) = 22.15532 65.04552 93.75718
#
# Poissons Ratio (x) = 0.72887 0.37758
# Poissons Ratio (y) = 0.24826 0.55054
# Poissons Ratio (z) = 0.08922 0.38195
#
# Static dielectric constant tensor:
#      x y z
#    x 1.646770 0.000000 0.000000 
#    y 0.000000 1.679320 0.000000 
#    z 0.000000 0.000000 1.633640 
# 
# From -- ./inp_files/22408.got.cif
#   From: 2010.05.17/outbox.cif.g08.bks.cpg/sg51_12_cif.got.tgz:22408.got - 2010.06.03 11:52:47.
