data_PCOD9402620
_publ_section_title
;
Structure prediction by ZEFSAII (Michael W. Deem and Ramdas Pophale) SiO2 
 PCOD9402620
Probable space group: P M M A
;
_chemical_formula_sum "Si O2"
_cell_formula_units_Z 64
_cell_length_a 9.061038
_cell_length_b 19.488762
_cell_length_c 24.290205
_cell_angle_alpha 90.000000
_cell_angle_beta 90.000000
_cell_angle_gamma 90.000000
_cell_volume 4289.368754
_symmetry_space_group_name_H-M "P M M A"
_symmetry_group_IT_number 51
_symmetry_cell_setting 'orthorhombic'
loop_
_space_group_symop_operation_xyz
x,y,z
1/2-x,-y,z
1/2+x,-y,-z
-x,y,-z
-x,-y,-z
1/2+x,y,-z
1/2-x,y,z
x,-y,z
loop_
_atom_site_type_symbol
_atom_site_label
_atom_site_fract_x
_atom_site_fract_y
_atom_site_fract_z
Si Si1 0.073234 0.289865 0.942231
Si Si2 0.926921 0.421528 0.889741
Si Si3 0.572843 0.919778 0.442609
Si Si4 0.428381 0.151206 0.670417
Si Si5 0.074190 0.712141 0.728386
Si Si6 0.573038 0.423317 0.759543
Si Si7 0.573391 0.199486 0.163013
Si Si8 0.426387 0.920211 0.224687
O O1 0.250000 0.292576 0.946900
O O2 0.034795 0.235569 0.894239
O O3 0.012265 0.363834 0.923153
O O4 0.000000 0.271399 0.000000
O O5 0.750000 0.412160 0.895668
O O6 0.961848 0.500000 0.906183
O O7 0.962633 0.414978 0.824628
O O8 0.500000 0.898262 0.500000
O O9 0.750000 0.915834 0.447737
O O10 0.528335 0.875611 0.389604
O O11 0.534155 0.000000 0.433006
O O12 0.250000 0.144981 0.675757
O O13 0.466651 0.230376 0.683351
O O14 0.501763 0.105778 0.718212
O O15 0.250000 0.702215 0.726468
O O16 0.038338 0.747951 0.787100
O O17 0.996178 0.639186 0.726384
O O18 0.750000 0.420839 0.755405
O O19 0.524236 0.500000 0.743045
O O20 0.750000 0.188010 0.164686
O O21 0.490824 0.129426 0.177649
O O22 0.250000 0.912665 0.227741
O O23 0.461855 0.000000 0.215719
#
# Coordination Sequence:
#
# PCOD9402620 Si02
#       8
#     8   8   8   8   8   8   8   8
#     4  11  22  35  50  68  88 113 148 186 224 269
#     4   9  18  32  48  66  89 118 150 182 219 265
#     4   9  17  29  45  64  90 128 166 196 225 258
#     4   9  18  31  46  66  95 128 159 188 224 270
#     4   9  16  28  45  66  89 114 149 188 221 263
#     4   9  17  28  43  64  90 119 148 178 219 270
#     4   9  19  34  49  66  89 116 146 178 220 276
#     4  10  20  31  47  73  97 116 144 185 227 265
#
# _framework density 14.920609000000001
#
# number of rings (size 3 to 8) (size 9 to 14) (size 15 to 20)
#    0.000    2.625    1.250    2.625    0.000    5.750 
#    0.000    2.500    0.000    0.375    0.000    0.000 
#    0.000    0.500    0.000    1.125    0.000    2.000 
#
# Total GULP energy -356749.111092 kJ/mol
# GULP energy per Si atom -5574.204861 kJ/mol
# Density = 1.488665 g / cm^3
# Si number density = 14.920609 Si / 1000 Ang^3
#
#
#
# Elastic Constant Matrix: (Units=GPa)
#
#
# Indices 1 2 3 4 5 6 
#
# 1 25.0438 45.1060 35.9441 0.0000 0.0000 0.0000
# 2 45.1060 125.7969 69.7077 0.0000 0.0000 0.0000
# 3 35.9441 69.7077 107.7409 0.0000 0.0000 0.0000
# 4 0.0000 0.0000 0.0000 23.6524 0.0000 0.0000
# 5 0.0000 0.0000 0.0000 0.0000 21.1565 0.0000
# 6 0.0000 0.0000 0.0000 0.0000 0.0000 27.7234
#
#
#
# Elastic Compliance Matrix: (Units=1/GPa)
#
#
# Indices 1 2 3 4 5 6 
#
# 1 0.140138 -0.037945 -0.022202 0.000000 0.000000 0.000000
# 2 -0.037945 0.022667 -0.002006 0.000000 0.000000 0.000000
# 3 -0.022202 -0.002006 0.017986 0.000000 0.000000 0.000000
# 4 0.000000 0.000000 0.000000 0.042279 0.000000 0.000000
# 5 0.000000 0.000000 0.000000 0.000000 0.047267 0.000000
# 6 0.000000 0.000000 0.000000 0.000000 0.000000 0.036071
#
#
# Mechanical properties :
#
#
# Convention : Reuss Voigt Hill
#
# Bulk Modulus (GPa) = 17.70401 62.23304 39.96853
# Shear Modulus (GPa) = 11.12244 21.69471 16.40858
#
# Velocity S-wave (km/s) = 2.73324 3.81728 3.31981
# Velocity P-wave (km/s) = 4.67462 7.82489 6.44519
#
# Compressibility (1/GPa) = 0.05648436
#
# Stress axis : x y z
#
# Youngs Moduli (GPa) = 7.13583 44.11755 55.59807
#
# Poissons Ratio (x) = 1.67406 1.23437
# Poissons Ratio (y) = 0.27077 0.11153
# Poissons Ratio (z) = 0.15843 0.08850
#
# Static dielectric constant tensor:
#      x y z
#    x 1.497630 0.000000 0.000000 
#    y 0.000000 1.493950 0.000000 
#    z 0.000000 0.000000 1.477450 
# 
# From -- ./inp_files/35089.got.cif
#   From: 2010.05.17/outbox.cif.g08.bks.cpg/sg51_18_cif.got.tgz:35089.got - 2010.06.03 11:52:47.
