data_PCOD9402967
_publ_section_title
;
Structure prediction by ZEFSAII (Michael W. Deem and Ramdas Pophale) SiO2 
 PCOD9402967
Probable space group: P M M A
;
_chemical_formula_sum "Si O2"
_cell_formula_units_Z 48
_cell_length_a 15.605133
_cell_length_b 7.463050
_cell_length_c 19.742289
_cell_angle_alpha 90.000000
_cell_angle_beta 90.000000
_cell_angle_gamma 90.000000
_cell_volume 2299.224247
_symmetry_space_group_name_H-M "P M M A"
_symmetry_group_IT_number 51
_symmetry_cell_setting 'orthorhombic'
loop_
_space_group_symop_operation_xyz
x,y,z
1/2-x,-y,z
1/2+x,-y,-z
-x,y,-z
-x,-y,-z
1/2+x,y,-z
1/2-x,y,z
x,-y,z
loop_
_atom_site_type_symbol
_atom_site_label
_atom_site_fract_x
_atom_site_fract_y
_atom_site_fract_z
Si Si1 0.497339 0.219484 0.577796
Si Si2 0.006259 0.209150 0.075280
Si Si3 0.653157 0.218348 0.670844
Si Si4 0.347014 0.785250 0.675921
Si Si5 0.847599 0.287430 0.168756
Si Si6 0.847623 0.781231 0.825219
O O1 0.500000 0.276710 0.500000
O O2 0.581732 0.277218 0.618351
O O3 0.414633 0.279615 0.620600
O O4 0.496296 0.000000 0.577852
O O5 0.917215 0.217872 0.116018
O O6 0.081486 0.285292 0.122531
O O7 0.028697 0.000000 0.066559
O O8 0.000000 0.287594 0.000000
O O9 0.750000 0.274395 0.654172
O O10 0.633617 0.274147 0.747942
O O11 0.652647 0.000000 0.670660
O O12 0.250000 0.715590 0.667575
O O13 0.374131 0.749324 0.753468
O O14 0.343492 0.000000 0.669081
O O15 0.750000 0.217478 0.160169
O O16 0.844606 0.500000 0.160061
O O17 0.750000 0.729024 0.841975
O O18 0.849538 0.000000 0.824765
#
# Coordination Sequence:
#
# PCOD9402967 Si02
#       6
#     8   8   8   8   8   8
#     4   9  16  24  37  62  95 124 148 184 239 296
#     4  10  20  32  50  77 104 129 157 195 246 299
#     4   8  13  21  34  52  77 112 148 178 212 261
#     4   9  17  30  49  71  94 123 162 207 249 289
#     4  10  21  36  53  72  96 131 173 212 250 294
#     4   8  14  26  44  66  92 121 154 191 230 277
#
# _framework density 20.876605999999999
#
# number of rings (size 3 to 8) (size 9 to 14) (size 15 to 20)
#    0.000    3.000    0.000    2.500    0.000    5.333 
#    0.000    5.000    0.000    1.000    0.000    0.000 
#    0.000    0.000    0.000    0.000    0.000    0.000 
#
# Total GULP energy -267916.874802 kJ/mol
# GULP energy per Si atom -5581.601558 kJ/mol
# Density = 2.082909 g / cm^3
# Si number density = 20.876606 Si / 1000 Ang^3
#
#
#
# Elastic Constant Matrix: (Units=GPa)
#
#
# Indices 1 2 3 4 5 6 
#
# 1 147.1808 -2.4818 141.2299 0.0000 0.0000 0.0000
# 2 -2.4818 59.7514 -1.8722 0.0000 0.0000 0.0000
# 3 141.2299 -1.8722 200.2139 0.0000 0.0000 0.0000
# 4 0.0000 0.0000 0.0000 19.7778 0.0000 0.0000
# 5 0.0000 0.0000 0.0000 0.0000 -11.5818 0.0000
# 6 0.0000 0.0000 0.0000 0.0000 0.0000 -10.9169
#
#
#
# Elastic Compliance Matrix: (Units=1/GPa)
#
#
# Indices 1 2 3 4 5 6 
#
# 1 0.021037 0.000409 -0.014836 0.000000 0.000000 0.000000
# 2 0.000409 0.016749 -0.000132 0.000000 0.000000 0.000000
# 3 -0.014836 -0.000132 0.015458 0.000000 0.000000 0.000000
# 4 0.000000 0.000000 0.000000 0.050562 0.000000 0.000000
# 5 0.000000 0.000000 0.000000 0.000000 -0.086343 0.000000
# 6 0.000000 0.000000 0.000000 0.000000 0.000000 -0.091601
#
#
# Mechanical properties :
#
#
# Convention : Reuss Voigt Hill
#
# Bulk Modulus (GPa) = 41.44688 75.65532 58.55110
# Shear Modulus (GPa) = -135.21548 17.47383 -58.87082
#
# Velocity S-wave (km/s) = -8.05664 2.89624 -5.31607
# Velocity P-wave (km/s) = 8.16392 6.89219 3.09414
#
# Compressibility (1/GPa) = 0.02412727
#
# Stress axis : x y z
#
# Youngs Moduli (GPa) = 47.53525 59.70558 64.68983
#
# Poissons Ratio (x) = -0.02442 0.95971
# Poissons Ratio (y) = -0.01944 0.00853
# Poissons Ratio (z) = 0.70521 0.00787
#
# Static dielectric constant tensor:
#      x y z
#    x 1.770880 0.000000 0.000000 
#    y 0.000000 1.778600 0.000000 
#    z 0.000000 0.000000 1.715120 
# 
# From -- ./inp_files/29435.got.cif
#   From: 2010.05.17/outbox.cif.g08.bks.cpg/sg51_15_cif.got.tgz:29435.got - 2010.06.03 11:52:47.
