data_PCOD9402764
_publ_section_title
;
Structure prediction by ZEFSAII (Michael W. Deem and Ramdas Pophale) SiO2 
 PCOD9402764
Probable space group: P M M A
;
_chemical_formula_sum "Si O2"
_cell_formula_units_Z 64
_cell_length_a 14.658130
_cell_length_b 9.802595
_cell_length_c 21.578004
_cell_angle_alpha 90.000000
_cell_angle_beta 90.000000
_cell_angle_gamma 90.000000
_cell_volume 3100.494021
_symmetry_space_group_name_H-M "P M M A"
_symmetry_group_IT_number 51
_symmetry_cell_setting 'orthorhombic'
loop_
_space_group_symop_operation_xyz
x,y,z
1/2-x,-y,z
1/2+x,-y,-z
-x,y,-z
-x,-y,-z
1/2+x,y,-z
1/2-x,y,z
x,-y,z
loop_
_atom_site_type_symbol
_atom_site_label
_atom_site_fract_x
_atom_site_fract_y
_atom_site_fract_z
Si Si1 0.138265 0.657416 0.991516
Si Si2 0.607708 0.655127 0.507065
Si Si3 0.641223 0.154173 0.624542
Si Si4 0.361994 0.341998 0.262315
Si Si5 0.638955 0.843009 0.122223
Si Si6 0.861575 0.156510 0.260318
Si Si7 0.356882 0.652165 0.631105
Si Si8 0.855744 0.334162 0.873494
O O1 0.250000 0.658463 0.993322
O O2 0.111010 0.500000 0.982582
O O3 0.108872 0.748562 0.934000
O O4 0.106361 0.707162 0.059456
O O5 0.500000 0.645629 0.500000
O O6 0.643091 0.500000 0.518274
O O7 0.627982 0.757440 0.562513
O O8 0.639436 0.703887 0.439358
O O9 0.750000 0.142358 0.632662
O O10 0.608153 0.241675 0.683278
O O11 0.603532 0.000000 0.620531
O O12 0.250000 0.342583 0.260826
O O13 0.388880 0.500000 0.273314
O O14 0.394160 0.296230 0.193736
O O15 0.750000 0.843591 0.120911
O O16 0.613115 0.794922 0.191268
O O17 0.609523 0.000000 0.114799
O O18 0.750000 0.154369 0.261954
O O19 0.894973 0.250047 0.316258
O O20 0.891235 0.000000 0.267621
O O21 0.250000 0.638410 0.645679
O O22 0.398553 0.500000 0.631530
O O23 0.750000 0.289057 0.873036
O O24 0.855497 0.500000 0.874300
#
# Coordination Sequence:
#
# PCOD9402764 Si02
#       8
#     8   8   8   8   8   8   8   8
#     4   8  12  17  26  41  63  94 132 170 205 243
#     4  10  21  36  52  69  90 117 147 179 219 268
#     4  10  20  32  47  69  94 118 147 184 223 263
#     4   8  13  23  40  58  77 106 143 180 216 254
#     4   8  13  20  28  41  65  97 132 167 202 242
#     4   8  14  24  37  53  75 104 137 172 209 250
#     4   9  17  29  46  67  87 107 137 178 217 253
#     4   7  10  17  29  46  68  96 133 173 209 246
#
# _framework density 20.641870000000001
#
# number of rings (size 3 to 8) (size 9 to 14) (size 15 to 20)
#    0.000    3.500    0.000    3.000    0.000    2.500 
#    0.000    4.375    0.000    3.750    0.000    0.000 
#    0.000    0.000    0.000    1.125    0.000   24.750 
#
# Total GULP energy -356630.400157 kJ/mol
# GULP energy per Si atom -5572.350002 kJ/mol
# Density = 2.059489 g / cm^3
# Si number density = 20.641870 Si / 1000 Ang^3
#
#
#
# Elastic Constant Matrix: (Units=GPa)
#
#
# Indices 1 2 3 4 5 6 
#
# 1 51.3189 7.6967 1.6730 0.0000 0.0000 0.0000
# 2 7.6967 100.6096 127.8855 0.0000 0.0000 0.0000
# 3 1.6730 127.8855 253.5541 0.0000 0.0000 0.0000
# 4 0.0000 0.0000 0.0000 -355.4810 0.0000 0.0000
# 5 0.0000 0.0000 0.0000 0.0000 -41.9897 0.0000
# 6 0.0000 0.0000 0.0000 0.0000 0.0000 0.1845
#
#
#
# Elastic Compliance Matrix: (Units=1/GPa)
#
#
# Indices 1 2 3 4 5 6 
#
# 1 0.019997 -0.003795 0.001782 0.000000 0.000000 0.000000
# 2 -0.003795 0.028415 -0.014307 0.000000 0.000000 0.000000
# 3 0.001782 -0.014307 0.011148 0.000000 0.000000 0.000000
# 4 0.000000 0.000000 0.000000 -0.002813 0.000000 0.000000
# 5 0.000000 0.000000 0.000000 0.000000 -0.023815 0.000000
# 6 0.000000 0.000000 0.000000 0.000000 0.000000 5.420395
#
#
# Mechanical properties :
#
#
# Convention : Reuss Voigt Hill
#
# Bulk Modulus (GPa) = 37.14585 75.55478 56.35032
# Shear Modulus (GPa) = 0.90993 -61.57541 -30.33274
#
# Velocity S-wave (km/s) = 0.66466 -5.46764 -3.83753
# Velocity P-wave (km/s) = 4.31549 1.78269 2.77898
#
# Compressibility (1/GPa) = 0.02692091
#
# Stress axis : x y z
#
# Youngs Moduli (GPa) = 50.00727 35.19246 89.70137
#
# Poissons Ratio (x) = 0.13356 -0.15987
# Poissons Ratio (y) = 0.18979 1.28334
# Poissons Ratio (z) = -0.08913 0.50349
#
# Static dielectric constant tensor:
#      x y z
#    x 1.743750 0.000000 0.000000 
#    y 0.000000 1.721560 0.000000 
#    z 0.000000 0.000000 1.754290 
# 
# From -- ./inp_files/34156.got.cif
#   From: 2010.05.17/outbox.cif.g08.bks.cpg/sg51_18_cif.got.tgz:34156.got - 2010.06.03 11:52:47.
