data_PCOD9402858
_publ_section_title
;
Structure prediction by ZEFSAII (Michael W. Deem and Ramdas Pophale) SiO2 
 PCOD9402858
Probable space group: P M M A
;
_chemical_formula_sum "Si O2"
_cell_formula_units_Z 40
_cell_length_a 9.507696
_cell_length_b 7.355687
_cell_length_c 26.520999
_cell_angle_alpha 90.000000
_cell_angle_beta 90.000000
_cell_angle_gamma 90.000000
_cell_volume 1854.762929
_symmetry_space_group_name_H-M "P M M A"
_symmetry_group_IT_number 51
_symmetry_cell_setting 'orthorhombic'
loop_
_space_group_symop_operation_xyz
x,y,z
1/2-x,-y,z
1/2+x,-y,-z
-x,y,-z
-x,-y,-z
1/2+x,y,-z
1/2-x,y,z
x,-y,z
loop_
_atom_site_type_symbol
_atom_site_label
_atom_site_fract_x
_atom_site_fract_y
_atom_site_fract_z
Si Si1 0.088562 0.777949 0.951239
Si Si2 0.409622 0.283395 0.452970
Si Si3 0.412127 0.221531 0.258451
Si Si4 0.590682 0.782077 0.353215
Si Si5 0.588039 0.778712 0.855137
O O1 0.250000 0.720202 0.954150
O O2 0.013227 0.718550 0.899774
O O3 0.088086 0.000000 0.951109
O O4 0.000000 0.721063 0.000000
O O5 0.500000 0.211123 0.500000
O O6 0.250000 0.211996 0.450847
O O7 0.398641 0.500000 0.460060
O O8 0.494116 0.254923 0.401450
O O9 0.250000 0.275384 0.267988
O O10 0.514738 0.284930 0.302470
O O11 0.451164 0.277959 0.201629
O O12 0.413542 0.000000 0.258801
O O13 0.750000 0.713770 0.359506
O O14 0.598928 0.000000 0.348736
O O15 0.750000 0.724845 0.864484
O O16 0.586434 0.000000 0.855308
#
# Coordination Sequence:
#
# PCOD9402858 Si02
#       5
#     8   8   8   8   8
#     4   9  15  20  26  37  55  82 119 164 210 254
#     4  10  21  37  56  75  95 122 155 189 227 272
#     4   8  14  25  40  57  79 108 140 176 219 264
#     4  10  20  32  48  72  99 125 154 189 228 270
#     4   8  13  21  32  45  63  90 125 165 210 257
#
# _framework density 21.566099000000001
#
# number of rings (size 3 to 8) (size 9 to 14) (size 15 to 20)
#    0.000    3.000    0.000    3.000    0.000    6.000 
#    0.000    4.000    0.000    0.000    0.000    0.000 
#    0.000    0.000    0.000    0.000    0.000    1.000 
#
# Total GULP energy -223411.165106 kJ/mol
# GULP energy per Si atom -5585.279128 kJ/mol
# Density = 2.151701 g / cm^3
# Si number density = 21.566099 Si / 1000 Ang^3
#
#
#
# Elastic Constant Matrix: (Units=GPa)
#
#
# Indices 1 2 3 4 5 6 
#
# 1 225.0446 7.9896 167.7114 0.0000 0.0000 0.0000
# 2 7.9896 80.7796 2.3239 0.0000 0.0000 0.0000
# 3 167.7114 2.3239 222.7656 0.0000 0.0000 0.0000
# 4 0.0000 0.0000 0.0000 39.1631 0.0000 0.0000
# 5 0.0000 0.0000 0.0000 0.0000 47.6866 0.0000
# 6 0.0000 0.0000 0.0000 0.0000 0.0000 -2.2061
#
#
#
# Elastic Compliance Matrix: (Units=1/GPa)
#
#
# Indices 1 2 3 4 5 6 
#
# 1 0.010173 -0.000786 -0.007651 0.000000 0.000000 0.000000
# 2 -0.000786 0.012444 0.000462 0.000000 0.000000 0.000000
# 3 -0.007651 0.000462 0.010244 0.000000 0.000000 0.000000
# 4 0.000000 0.000000 0.000000 0.025534 0.000000 0.000000
# 5 0.000000 0.000000 0.000000 0.000000 0.020970 0.000000
# 6 0.000000 0.000000 0.000000 0.000000 0.000000 -0.453279
#
#
# Mechanical properties :
#
#
# Convention : Reuss Voigt Hill
#
# Bulk Modulus (GPa) = 59.13159 98.29329 78.71244
# Shear Modulus (GPa) = -14.19135 40.29970 13.05417
#
# Velocity S-wave (km/s) = -2.56801 4.32749 2.46297
# Velocity P-wave (km/s) = 4.32266 8.40513 6.68325
#
# Compressibility (1/GPa) = 0.01691144
#
# Stress axis : x y z
#
# Youngs Moduli (GPa) = 98.29917 80.36112 97.61727
#
# Poissons Ratio (x) = 0.06317 0.74684
# Poissons Ratio (y) = 0.07727 -0.04510
# Poissons Ratio (z) = 0.75205 -0.03713
#
# Static dielectric constant tensor:
#      x y z
#    x 1.740270 0.000000 0.000000 
#    y 0.000000 1.858670 0.000000 
#    z 0.000000 0.000000 1.734980 
# 
# From -- ./inp_files/35983.got.cif
#   From: 2010.05.17/outbox.cif.g08.bks.cpg/sg51_18_cif.got.tgz:35983.got - 2010.06.03 11:52:47.
