data_PCOD9402978
_publ_section_title
;
Structure prediction by ZEFSAII (Michael W. Deem and Ramdas Pophale) SiO2 
 PCOD9402978
Probable space group: P M M A
;
_chemical_formula_sum "Si O2"
_cell_formula_units_Z 56
_cell_length_a 14.040057
_cell_length_b 8.906228
_cell_length_c 21.225276
_cell_angle_alpha 90.000000
_cell_angle_beta 90.000000
_cell_angle_gamma 90.000000
_cell_volume 2654.092325
_symmetry_space_group_name_H-M "P M M A"
_symmetry_group_IT_number 51
_symmetry_cell_setting 'orthorhombic'
loop_
_space_group_symop_operation_xyz
x,y,z
1/2-x,-y,z
1/2+x,-y,-z
-x,y,-z
-x,-y,-z
1/2+x,y,-z
1/2-x,y,z
x,-y,z
loop_
_atom_site_type_symbol
_atom_site_label
_atom_site_fract_x
_atom_site_fract_y
_atom_site_fract_z
Si Si1 0.365763 0.170329 0.963286
Si Si2 0.387747 0.172122 0.484770
Si Si3 0.545099 0.179105 0.785681
Si Si4 0.138774 0.678243 0.831633
Si Si5 0.365139 0.326851 0.091733
Si Si6 0.053922 0.180951 0.352457
Si Si7 0.147184 0.678248 0.613120
O O1 0.250000 0.165569 0.966432
O O2 0.398019 0.235491 0.030169
O O3 0.399388 0.000000 0.952485
O O4 0.386609 0.274558 0.903424
O O5 0.500000 0.165056 0.500000
O O6 0.382856 0.227494 0.412680
O O7 0.349209 0.277562 0.539290
O O8 0.352859 0.000000 0.489992
O O9 0.435570 0.233506 0.788734
O O10 0.597249 0.256052 0.844007
O O11 0.587326 0.221616 0.717473
O O12 0.549507 0.000000 0.792469
O O13 0.250000 0.716446 0.821137
O O14 0.127863 0.500000 0.823452
O O15 0.250000 0.322927 0.092272
O O16 0.395113 0.500000 0.086500
O O17 0.946896 0.242745 0.360806
O O18 0.049171 0.000000 0.356329
O O19 0.250000 0.723817 0.641284
O O20 0.137241 0.500000 0.620518
#
# Coordination Sequence:
#
# PCOD9402978 Si02
#       7
#     8   8   8   8   8   8   8
#     4   9  17  32  56  83 109 139 179 229 282 330
#     4   8  15  31  53  73  95 126 165 206 248 295
#     4  11  23  38  57  81 110 146 189 232 273 323
#     4  10  21  37  56  80 113 149 184 226 277 333
#     4  10  21  38  59  82 109 141 180 228 282 338
#     4   9  20  37  54  74 102 138 178 217 259 310
#     4  10  20  32  50  80 111 136 168 211 258 310
#
# _framework density 21.099492999999999
#
# number of rings (size 3 to 8) (size 9 to 14) (size 15 to 20)
#    0.000    2.429    0.000    3.000    0.000    9.429 
#    0.000    6.429    0.000    4.286    0.000    0.000 
#    0.000    0.000    0.000    0.000    0.000    0.000 
#
# Total GULP energy -312712.899528 kJ/mol
# GULP energy per Si atom -5584.158920 kJ/mol
# Density = 2.105147 g / cm^3
# Si number density = 21.099493 Si / 1000 Ang^3
#
#
#
# Elastic Constant Matrix: (Units=GPa)
#
#
# Indices 1 2 3 4 5 6 
#
# 1 35.9798 -1.3206 -9.0709 0.0000 0.0000 0.0000
# 2 -1.3206 41.3642 8.1065 0.0000 0.0000 0.0000
# 3 -9.0709 8.1065 96.4132 0.0000 0.0000 0.0000
# 4 0.0000 0.0000 0.0000 -13.2778 0.0000 0.0000
# 5 0.0000 0.0000 0.0000 0.0000 3.7814 0.0000
# 6 0.0000 0.0000 0.0000 0.0000 0.0000 31.6580
#
#
#
# Elastic Compliance Matrix: (Units=1/GPa)
#
#
# Indices 1 2 3 4 5 6 
#
# 1 0.028475 0.000390 0.002646 0.000000 0.000000 0.000000
# 2 0.000390 0.024586 -0.002030 0.000000 0.000000 0.000000
# 3 0.002646 -0.002030 0.010792 0.000000 0.000000 0.000000
# 4 0.000000 0.000000 0.000000 -0.075313 0.000000 0.000000
# 5 0.000000 0.000000 0.000000 0.000000 0.264452 0.000000
# 6 0.000000 0.000000 0.000000 0.000000 0.000000 0.031588
#
#
# Mechanical properties :
#
#
# Convention : Reuss Voigt Hill
#
# Bulk Modulus (GPa) = 15.18259 18.79857 16.99058
# Shear Modulus (GPa) = 16.41923 16.16846 16.29385
#
# Velocity S-wave (km/s) = 2.79262 2.77121 2.78193
# Velocity P-wave (km/s) = 4.19638 4.37816 4.28823
#
# Compressibility (1/GPa) = 0.06586491
#
# Stress axis : x y z
#
# Youngs Moduli (GPa) = 35.11869 40.67375 92.66374
#
# Poissons Ratio (x) = -0.01588 -0.24521
# Poissons Ratio (y) = -0.01371 0.18815
# Poissons Ratio (z) = -0.09293 0.08259
#
# Static dielectric constant tensor:
#      x y z
#    x 1.813080 0.000000 0.000000 
#    y 0.000000 1.701570 0.000000 
#    z 0.000000 0.000000 1.785050 
# 
# From -- ./inp_files/33304.got.cif
#   From: 2010.05.17/outbox.cif.g08.bks.cpg/sg51_17_cif.got.tgz:33304.got - 2010.06.03 11:52:47.
