data_PCOD9402936
_publ_section_title
;
Structure prediction by ZEFSAII (Michael W. Deem and Ramdas Pophale) SiO2 
 PCOD9402936
Probable space group: P M M A
;
_chemical_formula_sum "Si O2"
_cell_formula_units_Z 64
_cell_length_a 18.846116
_cell_length_b 9.343172
_cell_length_c 20.709510
_cell_angle_alpha 90.000000
_cell_angle_beta 90.000000
_cell_angle_gamma 90.000000
_cell_volume 3646.582363
_symmetry_space_group_name_H-M "P M M A"
_symmetry_group_IT_number 51
_symmetry_cell_setting 'orthorhombic'
loop_
_space_group_symop_operation_xyz
x,y,z
1/2-x,-y,z
1/2+x,-y,-z
-x,y,-z
-x,-y,-z
1/2+x,y,-z
1/2-x,y,z
x,-y,z
loop_
_atom_site_type_symbol
_atom_site_label
_atom_site_fract_x
_atom_site_fract_y
_atom_site_fract_z
Si Si1 0.905434 0.831070 0.706571
Si Si2 0.836373 0.335166 0.080096
Si Si3 0.430542 0.169507 0.670657
Si Si4 0.835007 0.669290 0.825192
Si Si5 0.334574 0.832646 0.429976
Si Si6 0.665482 0.670979 0.226092
Si Si7 0.576309 0.331567 0.465327
Si Si8 0.336456 0.836019 0.045208
O O1 0.875000 0.740079 0.765301
O O2 0.867216 0.791874 0.639301
O O3 0.989182 0.811352 0.696220
O O4 0.891437 0.000000 0.718303
O O5 0.750000 0.334393 0.079829
O O6 0.857959 0.500000 0.069337
O O7 0.856990 0.291201 0.152618
O O8 0.860743 0.236029 0.021577
O O9 0.377159 0.240358 0.721432
O O10 0.423845 0.247432 0.601926
O O11 0.417538 0.000000 0.663550
O O12 0.750000 0.691055 0.817209
O O13 0.847922 0.500000 0.828535
O O14 0.856787 0.744703 0.892128
O O15 0.250000 0.821662 0.427568
O O16 0.366830 0.736250 0.486108
O O17 0.353745 0.000000 0.441413
O O18 0.750000 0.695842 0.231905
O O19 0.654003 0.500000 0.233959
O O20 0.500000 0.315327 0.500000
O O21 0.589081 0.500000 0.454645
O O22 0.250000 0.835500 0.043640
O O23 0.359679 0.000000 0.050709
#
# Coordination Sequence:
#
# PCOD9402936 Si02
#       8
#     8   8   8   8   8   8   8   8
#     4  10  21  37  56  78 108 145 182 222 270 323
#     4   8  14  27  48  73 103 139 177 219 269 323
#     4  11  23  38  60  84 109 144 183 224 269 323
#     4  10  20  32  49  76 109 144 183 227 271 319
#     4  10  21  38  61  86 112 144 181 224 274 325
#     4   9  19  36  57  82 113 146 180 224 276 327
#     4  11  23  39  60  83 109 143 181 223 271 323
#     4   9  16  26  44  72 105 141 180 223 271 321
#
# _framework density 17.550678999999999
#
# number of rings (size 3 to 8) (size 9 to 14) (size 15 to 20)
#    0.000    2.250    1.250    2.625    0.000    6.250 
#    0.000    1.250    0.000    0.750    0.000    5.250 
#    0.000    0.000    0.000    0.000    0.000    0.000 
#
# Total GULP energy -357180.436263 kJ/mol
# GULP energy per Si atom -5580.944317 kJ/mol
# Density = 1.751073 g / cm^3
# Si number density = 17.550679 Si / 1000 Ang^3
#
#
#
# Elastic Constant Matrix: (Units=GPa)
#
#
# Indices 1 2 3 4 5 6 
#
# 1 45.4344 56.2971 58.3441 0.0000 0.0000 0.0000
# 2 56.2971 126.0242 125.3649 0.0000 0.0000 0.0000
# 3 58.3441 125.3649 192.2165 0.0000 0.0000 0.0000
# 4 0.0000 0.0000 0.0000 249.7955 0.0000 0.0000
# 5 0.0000 0.0000 0.0000 0.0000 -7.2984 0.0000
# 6 0.0000 0.0000 0.0000 0.0000 0.0000 22.0743
#
#
#
# Elastic Compliance Matrix: (Units=1/GPa)
#
#
# Indices 1 2 3 4 5 6 
#
# 1 0.049494 -0.020402 -0.001717 0.000000 0.000000 0.000000
# 2 -0.020402 0.031004 -0.014028 0.000000 0.000000 0.000000
# 3 -0.001717 -0.014028 0.014873 0.000000 0.000000 0.000000
# 4 0.000000 0.000000 0.000000 0.004003 0.000000 0.000000
# 5 0.000000 0.000000 0.000000 0.000000 -0.137017 0.000000
# 6 0.000000 0.000000 0.000000 0.000000 0.000000 0.045302
#
#
# Mechanical properties :
#
#
# Convention : Reuss Voigt Hill
#
# Bulk Modulus (GPa) = 43.33361 93.74302 68.53831
# Shear Modulus (GPa) = 57.04844 61.15888 59.10366
#
# Velocity S-wave (km/s) = 5.70750 5.90954 5.80940
# Velocity P-wave (km/s) = 8.25701 10.00461 9.17253
#
# Compressibility (1/GPa) = 0.02307678
#
# Stress axis : x y z
#
# Youngs Moduli (GPa) = 20.20436 32.25426 67.23703
#
# Poissons Ratio (x) = 0.65806 0.11543
# Poissons Ratio (y) = 0.41221 0.94321
# Poissons Ratio (z) = 0.03469 0.45246
#
# Static dielectric constant tensor:
#      x y z
#    x 1.582700 0.000000 0.000000 
#    y 0.000000 1.587600 0.000000 
#    z 0.000000 0.000000 1.573730 
# 
# From -- ./inp_files/30563.got.cif
#   From: 2010.05.17/outbox.cif.g08.bks.cpg/sg51_16_cif.got.tgz:30563.got - 2010.06.03 11:52:47.
