data_PCOD9402435
_publ_section_title
;
Structure prediction by ZEFSAII (Michael W. Deem and Ramdas Pophale) SiO2 
 PCOD9402435
Probable space group: P M M A
;
_chemical_formula_sum "Si O2"
_cell_formula_units_Z 34
_cell_length_a 10.839837
_cell_length_b 11.722390
_cell_length_c 13.784010
_cell_angle_alpha 90.000000
_cell_angle_beta 90.000000
_cell_angle_gamma 90.000000
_cell_volume 1751.517566
_symmetry_space_group_name_H-M "P M M A"
_symmetry_group_IT_number 51
_symmetry_cell_setting 'orthorhombic'
loop_
_space_group_symop_operation_xyz
x,y,z
1/2-x,-y,z
1/2+x,-y,-z
-x,y,-z
-x,-y,-z
1/2+x,y,-z
1/2-x,y,z
x,-y,z
loop_
_atom_site_type_symbol
_atom_site_label
_atom_site_fract_x
_atom_site_fract_y
_atom_site_fract_z
Si Si1 0.500509 0.261607 0.105921
Si Si2 0.250000 0.255403 0.592627
Si Si3 0.750000 0.633147 0.820242
Si Si4 0.750000 0.500000 0.304958
Si Si5 0.250000 0.232512 0.363636
Si Si6 0.019558 0.135739 0.695699
Si Si7 0.603948 0.500000 0.152454
O O1 0.366090 0.305429 0.133582
O O2 0.542809 0.184597 0.195290
O O3 0.572771 0.382741 0.101734
O O4 0.500000 0.206716 0.000000
O O5 0.250000 0.380610 0.639658
O O6 0.250000 0.257934 0.476762
O O7 0.373698 0.190881 0.629591
O O8 0.750000 0.500000 0.843300
O O9 0.750000 0.657014 0.706012
O O10 0.590087 0.500000 0.267866
O O11 0.121064 0.168400 0.335926
O O12 0.030689 0.000000 0.694622
O O13 0.750000 0.500000 0.172417
#
# Coordination Sequence:
#
# PCOD9402435 Si02
#       7
#     8   4   4   2   4   8   4
#     4  11  23  37  60  89 121 160 204 249 308 366
#     4  12  23  43  68  96 118 166 208 253 310 372
#     4  10  22  37  56  88 124 155 199 244 302 376
#     4  10  22  38  64  90 136 148 192 264 320 350
#     4  10  25  42  63  93 125 162 203 255 320 359
#     4  11  24  44  64  90 126 163 211 261 301 363
#     4  10  19  36  58  85 126 155 192 256 308 359
#
# _framework density 19.411738
#
# number of rings (size 3 to 8) (size 9 to 14) (size 15 to 20)
#    0.353    0.941    3.529    1.765    2.471    3.294 
#    0.000    1.176    0.000    2.824    0.000    0.000 
#    0.000    0.000    0.000    0.000    0.000    0.000 
#
# Total GULP energy -189317.509564 kJ/mol
# GULP energy per Si atom -5568.162046 kJ/mol
# Density = 1.936756 g / cm^3
# Si number density = 19.411738 Si / 1000 Ang^3
#
#
#
# Elastic Constant Matrix: (Units=GPa)
#
#
# Indices 1 2 3 4 5 6 
#
# 1 81.5368 16.8247 28.7265 0.0000 0.0000 0.0000
# 2 16.8247 64.5768 7.7606 0.0000 0.0000 0.0000
# 3 28.7265 7.7606 148.1778 0.0000 0.0000 0.0000
# 4 0.0000 0.0000 0.0000 0.6972 0.0000 0.0000
# 5 0.0000 0.0000 0.0000 0.0000 17.4957 0.0000
# 6 0.0000 0.0000 0.0000 0.0000 0.0000 20.2117
#
#
#
# Elastic Compliance Matrix: (Units=1/GPa)
#
#
# Indices 1 2 3 4 5 6 
#
# 1 0.013829 -0.003302 -0.002508 0.000000 0.000000 0.000000
# 2 -0.003302 0.016372 -0.000217 0.000000 0.000000 0.000000
# 3 -0.002508 -0.000217 0.007246 0.000000 0.000000 0.000000
# 4 0.000000 0.000000 0.000000 1.434333 0.000000 0.000000
# 5 0.000000 0.000000 0.000000 0.000000 0.057157 0.000000
# 6 0.000000 0.000000 0.000000 0.000000 0.000000 0.049476
#
#
# Mechanical properties :
#
#
# Convention : Reuss Voigt Hill
#
# Bulk Modulus (GPa) = 39.38078 44.54611 41.96345
# Shear Modulus (GPa) = 3.12709 23.74622 13.43666
#
# Velocity S-wave (km/s) = 1.27060 3.50135 2.63381
# Velocity P-wave (km/s) = 4.74170 6.27246 5.56001
#
# Compressibility (1/GPa) = 0.02539310
#
# Stress axis : x y z
#
# Youngs Moduli (GPa) = 72.31019 61.08076 138.00209
#
# Poissons Ratio (x) = 0.20167 0.34612
# Poissons Ratio (y) = 0.23874 0.03000
# Poissons Ratio (z) = 0.18136 0.01328
#
# Static dielectric constant tensor:
#      x y z
#    x 1.785960 0.000000 0.000000 
#    y 0.000000 1.644930 0.000000 
#    z 0.000000 0.000000 1.680720 
# 
# From -- ./inp_files/15211.got.cif
#   From: 2010.05.17/outbox.cif.g08.bks.cpg/sg51_8_cif.got.tgz:15211.got - 2010.06.03 11:52:47.
