data_PCOD9402513
_publ_section_title
;
Structure prediction by ZEFSAII (Michael W. Deem and Ramdas Pophale) SiO2 
 PCOD9402513
Probable space group: P M M A
;
_chemical_formula_sum "Si O2"
_cell_formula_units_Z 56
_cell_length_a 19.324335
_cell_length_b 8.861573
_cell_length_c 16.903415
_cell_angle_alpha 90.000000
_cell_angle_beta 90.000000
_cell_angle_gamma 90.000000
_cell_volume 2894.608487
_symmetry_space_group_name_H-M "P M M A"
_symmetry_group_IT_number 51
_symmetry_cell_setting 'orthorhombic'
loop_
_space_group_symop_operation_xyz
x,y,z
1/2-x,-y,z
1/2+x,-y,-z
-x,y,-z
-x,-y,-z
1/2+x,y,-z
1/2-x,y,z
x,-y,z
loop_
_atom_site_type_symbol
_atom_site_label
_atom_site_fract_x
_atom_site_fract_y
_atom_site_fract_z
Si Si1 0.043955 0.179788 0.922304
Si Si2 0.829475 0.683588 0.352914
Si Si3 0.415969 0.821372 0.329170
Si Si4 0.918816 0.682150 0.506448
Si Si5 0.170048 0.820935 0.024900
Si Si6 0.166668 0.326303 0.189529
Si Si7 0.046260 0.680416 0.752803
O O1 0.029824 0.263194 0.840825
O O2 0.033308 0.000000 0.910400
O O3 0.122417 0.209409 0.949923
O O4 0.000000 0.223254 0.000000
O O5 0.750000 0.737212 0.351002
O O6 0.827200 0.500000 0.353889
O O7 0.872098 0.728835 0.431676
O O8 0.877597 0.726653 0.278346
O O9 0.391877 0.751399 0.411948
O O10 0.365715 0.773888 0.257993
O O11 0.489805 0.749693 0.306136
O O12 0.421589 0.000000 0.334932
O O13 0.916948 0.500000 0.510697
O O14 0.000000 0.726316 0.500000
O O15 0.250000 0.784049 0.010327
O O16 0.145975 0.733081 0.102943
O O17 0.164546 0.000000 0.042185
O O18 0.250000 0.318612 0.192703
O O19 0.145059 0.500000 0.200116
O O20 0.041543 0.500000 0.749215
#
# Coordination Sequence:
#
# PCOD9402513 Si02
#       7
#     8   8   8   8   8   8   8
#     4  10  21  36  54  80 114 150 192 239 291 347
#     4   9  19  37  61  88 118 153 193 241 295 347
#     4  12  24  37  58  86 119 154 193 236 291 355
#     4  10  19  37  62  86 114 150 194 239 286 345
#     4   9  18  34  55  78 111 154 192 231 289 355
#     4  10  21  37  58  85 116 150 193 243 293 345
#     4  11  22  38  60  86 115 151 198 246 295 350
#
# _framework density 19.346312999999999
#
# number of rings (size 3 to 8) (size 9 to 14) (size 15 to 20)
#    0.000    1.857    1.429    3.000    0.000    4.286 
#    0.000    1.429    0.000    3.000    0.000    0.000 
#    0.000    0.000    0.000    0.000    0.000    0.000 
#
# Total GULP energy -312745.204307 kJ/mol
# GULP energy per Si atom -5584.735791 kJ/mol
# Density = 1.930228 g / cm^3
# Si number density = 19.346313 Si / 1000 Ang^3
#
#
#
# Elastic Constant Matrix: (Units=GPa)
#
#
# Indices 1 2 3 4 5 6 
#
# 1 71.6318 15.2402 23.8086 0.0000 0.0000 0.0000
# 2 15.2402 32.6171 22.2928 0.0000 0.0000 0.0000
# 3 23.8086 22.2928 87.5835 0.0000 0.0000 0.0000
# 4 0.0000 0.0000 0.0000 49.9797 0.0000 0.0000
# 5 0.0000 0.0000 0.0000 0.0000 30.9505 0.0000
# 6 0.0000 0.0000 0.0000 0.0000 0.0000 15.8345
#
#
#
# Elastic Compliance Matrix: (Units=1/GPa)
#
#
# Indices 1 2 3 4 5 6 
#
# 1 0.016121 -0.005493 -0.002984 0.000000 0.000000 0.000000
# 2 -0.005493 0.038987 -0.008430 0.000000 0.000000 0.000000
# 3 -0.002984 -0.008430 0.014375 0.000000 0.000000 0.000000
# 4 0.000000 0.000000 0.000000 0.020008 0.000000 0.000000
# 5 0.000000 0.000000 0.000000 0.000000 0.032310 0.000000
# 6 0.000000 0.000000 0.000000 0.000000 0.000000 0.063153
#
#
# Mechanical properties :
#
#
# Convention : Reuss Voigt Hill
#
# Bulk Modulus (GPa) = 28.03629 34.94618 31.49123
# Shear Modulus (GPa) = 21.67718 28.05234 24.86476
#
# Velocity S-wave (km/s) = 3.35099 3.81203 3.58892
# Velocity P-wave (km/s) = 5.43097 6.12194 5.78678
#
# Compressibility (1/GPa) = 0.03566806
#
# Stress axis : x y z
#
# Youngs Moduli (GPa) = 62.03174 25.64949 69.56681
#
# Poissons Ratio (x) = 0.14089 0.20760
# Poissons Ratio (y) = 0.34073 0.58647
# Poissons Ratio (z) = 0.18511 0.21623
#
# Static dielectric constant tensor:
#      x y z
#    x 1.713060 0.000000 0.000000 
#    y 0.000000 1.653250 0.000000 
#    z 0.000000 0.000000 1.650090 
# 
# From -- ./inp_files/25652.got.cif
#   From: 2010.05.17/outbox.cif.g08.bks.cpg/sg51_13_cif.got.tgz:25652.got - 2010.06.03 11:52:47.
