data_PCOD9402493
_publ_section_title
;
Structure prediction by ZEFSAII (Michael W. Deem and Ramdas Pophale) SiO2 
 PCOD9402493
Probable space group: P M M A
;
_chemical_formula_sum "Si O2"
_cell_formula_units_Z 64
_cell_length_a 14.783593
_cell_length_b 22.763377
_cell_length_c 9.950406
_cell_angle_alpha 90.000000
_cell_angle_beta 90.000000
_cell_angle_gamma 90.000000
_cell_volume 3348.555413
_symmetry_space_group_name_H-M "P M M A"
_symmetry_group_IT_number 51
_symmetry_cell_setting 'orthorhombic'
loop_
_space_group_symop_operation_xyz
x,y,z
1/2-x,-y,z
1/2+x,-y,-z
-x,y,-z
-x,-y,-z
1/2+x,y,-z
1/2-x,y,z
x,-y,z
loop_
_atom_site_type_symbol
_atom_site_label
_atom_site_fract_x
_atom_site_fract_y
_atom_site_fract_z
Si Si1 0.640430 0.932970 0.239923
Si Si2 0.351924 0.570206 0.946454
Si Si3 0.395396 0.158549 0.533684
Si Si4 0.022371 0.314762 0.345150
Si Si5 0.851473 0.744042 0.243915
Si Si6 0.147145 0.793148 0.257217
Si Si7 0.357548 0.841029 0.980000
Si Si8 0.463769 0.430364 0.211501
O O1 0.750000 0.932808 0.233744
O O2 0.616670 0.900135 0.378899
O O3 0.606852 0.893983 0.113297
O O4 0.608746 0.000000 0.235406
O O5 0.250000 0.594313 0.924680
O O6 0.342637 0.500000 0.954206
O O7 0.432619 0.577761 0.839159
O O8 0.396962 0.586959 0.088847
O O9 0.500000 0.166989 0.500000
O O10 0.360244 0.209782 0.632517
O O11 0.351071 0.165167 0.388007
O O12 0.092071 0.265229 0.295070
O O13 0.053265 0.381641 0.323994
O O14 0.000000 0.305013 0.500000
O O15 0.930509 0.302034 0.263277
O O16 0.750000 0.719968 0.244396
O O17 0.865491 0.782554 0.110299
O O18 0.250000 0.776258 0.223570
O O19 0.105854 0.826807 0.128108
O O20 0.250000 0.853127 0.996782
O O21 0.451307 0.500000 0.242644
#
# Coordination Sequence:
#
# PCOD9402493 Si02
#       8
#     8   8   8   8   8   8   8   8
#     4   9  18  35  58  83 115 159 199 228 274 345
#     4   8  15  33  59  81 104 140 182 222 272 336
#     4  11  19  35  57  83 112 149 192 234 283 339
#     4  12  24  37  54  83 108 147 196 234 285 346
#     4  10  19  37  57  78 108 145 191 236 285 343
#     4  11  21  37  57  83 114 144 186 245 299 337
#     4   8  18  33  55  83 110 144 184 233 291 335
#     4   9  20  36  55  82 115 147 183 231 287 347
#
# _framework density 19.112718000000001
#
# number of rings (size 3 to 8) (size 9 to 14) (size 15 to 20)
#    0.000    2.250    2.500    2.625    0.000    4.000 
#    0.000    1.875    0.000    3.000    0.000    5.250 
#    0.000    0.000    0.000    0.000    0.000    0.000 
#
# Total GULP energy -356653.375559 kJ/mol
# GULP energy per Si atom -5572.708993 kJ/mol
# Density = 1.906922 g / cm^3
# Si number density = 19.112718 Si / 1000 Ang^3
#
#
#
# Elastic Constant Matrix: (Units=GPa)
#
#
# Indices 1 2 3 4 5 6 
#
# 1 74.9868 21.0284 10.2866 0.0000 0.0000 0.0000
# 2 21.0284 116.2202 55.3473 0.0000 0.0000 0.0000
# 3 10.2866 55.3473 118.5927 0.0000 0.0000 0.0000
# 4 0.0000 0.0000 0.0000 15.6995 0.0000 0.0000
# 5 0.0000 0.0000 0.0000 0.0000 -90.3294 0.0000
# 6 0.0000 0.0000 0.0000 0.0000 0.0000 13.5224
#
#
#
# Elastic Compliance Matrix: (Units=1/GPa)
#
#
# Indices 1 2 3 4 5 6 
#
# 1 0.014049 -0.002522 -0.000041 0.000000 0.000000 0.000000
# 2 -0.002522 0.011516 -0.005156 0.000000 0.000000 0.000000
# 3 -0.000041 -0.005156 0.010842 0.000000 0.000000 0.000000
# 4 0.000000 0.000000 0.000000 0.063696 0.000000 0.000000
# 5 0.000000 0.000000 0.000000 0.000000 -0.011071 0.000000
# 6 0.000000 0.000000 0.000000 0.000000 0.000000 0.073952
#
#
# Mechanical properties :
#
#
# Convention : Reuss Voigt Hill
#
# Bulk Modulus (GPa) = 47.69191 53.68045 50.68618
# Shear Modulus (GPa) = 26.96696 2.65433 14.81064
#
# Velocity S-wave (km/s) = 3.76033 1.17974 2.78674
# Velocity P-wave (km/s) = 6.62273 5.47749 6.07715
#
# Compressibility (1/GPa) = 0.02096792
#
# Stress axis : x y z
#
# Youngs Moduli (GPa) = 71.18120 86.83552 92.23379
#
# Poissons Ratio (x) = 0.21901 0.00383
# Poissons Ratio (y) = 0.17953 0.47554
# Poissons Ratio (z) = 0.00295 0.44770
#
# Static dielectric constant tensor:
#      x y z
#    x 1.663090 0.000000 0.000000 
#    y 0.000000 1.653130 0.000000 
#    z 0.000000 0.000000 1.713890 
# 
# From -- ./inp_files/8759.got.cif
#   From: 2010.05.17/outbox.cif.g08.bks.cpg/sg51_5_cif.got.tgz:8759.got - 2010.06.03 11:52:47.
