data_PCOD9402652
_publ_section_title
;
Structure prediction by ZEFSAII (Michael W. Deem and Ramdas Pophale) SiO2 
 PCOD9402652
Probable space group: P M M A
;
_chemical_formula_sum "Si O2"
_cell_formula_units_Z 48
_cell_length_a 8.987600
_cell_length_b 13.867020
_cell_length_c 25.745844
_cell_angle_alpha 90.000000
_cell_angle_beta 90.000000
_cell_angle_gamma 90.000000
_cell_volume 3208.736178
_symmetry_space_group_name_H-M "P M M A"
_symmetry_group_IT_number 51
_symmetry_cell_setting 'orthorhombic'
loop_
_space_group_symop_operation_xyz
x,y,z
1/2-x,-y,z
1/2+x,-y,-z
-x,y,-z
-x,-y,-z
1/2+x,y,-z
1/2-x,y,z
x,-y,z
loop_
_atom_site_type_symbol
_atom_site_label
_atom_site_fract_x
_atom_site_fract_y
_atom_site_fract_z
Si Si1 0.070637 0.387820 0.268019
Si Si2 0.426990 0.732538 0.366637
Si Si3 0.080349 0.616819 0.841243
Si Si4 0.919170 0.614407 0.448573
Si Si5 0.578333 0.382431 0.946713
Si Si6 0.071605 0.887485 0.556801
O O1 0.250000 0.389460 0.267047
O O2 0.023080 0.500000 0.280246
O O3 0.025913 0.305907 0.309735
O O4 0.008357 0.362002 0.211356
O O5 0.250000 0.748811 0.366791
O O6 0.474169 0.642303 0.402002
O O7 0.506812 0.820287 0.397165
O O8 0.250000 0.650798 0.837909
O O9 0.083473 0.500000 0.844356
O O10 0.003295 0.650556 0.894328
O O11 0.750000 0.651482 0.442848
O O12 0.908890 0.500000 0.452469
O O13 0.000000 0.651408 0.500000
O O14 0.750000 0.353463 0.946210
O O15 0.574508 0.500000 0.946506
O O16 0.500000 0.351347 0.000000
O O17 0.250000 0.876686 0.553322
O O18 0.000000 0.866570 0.500000
O O19 0.038584 0.000000 0.567940
#
# Coordination Sequence:
#
# PCOD9402652 Si02
#       6
#     8   8   8   8   8   8
#     4   9  18  31  44  59  82 113 145 174 206 245
#     4  11  21  32  48  67  87 110 137 170 207 250
#     4   9  16  25  37  53  74 102 137 176 214 248
#     4  10  20  32  45  61  83 110 138 168 202 241
#     4   9  15  22  33  49  70  97 132 175 218 255
#     4  10  21  37  55  72  89 108 132 166 209 257
#
# _framework density 14.959160000000001
#
# number of rings (size 3 to 8) (size 9 to 14) (size 15 to 20)
#    0.000    2.333    0.000    3.500    0.000    8.000 
#    0.000    1.667    0.000    0.000    0.000    0.000 
#    0.000    0.000    0.000    0.000    0.000    0.833 
#
# Total GULP energy -267287.663884 kJ/mol
# GULP energy per Si atom -5568.492998 kJ/mol
# Density = 1.492511 g / cm^3
# Si number density = 14.959160 Si / 1000 Ang^3
#
#
#
# Elastic Constant Matrix: (Units=GPa)
#
#
# Indices 1 2 3 4 5 6 
#
# 1 52.6529 25.4073 45.4124 0.0000 0.0000 0.0000
# 2 25.4073 60.3142 36.1811 0.0000 0.0000 0.0000
# 3 45.4124 36.1811 136.8029 0.0000 0.0000 0.0000
# 4 0.0000 0.0000 0.0000 3.3831 0.0000 0.0000
# 5 0.0000 0.0000 0.0000 0.0000 25.6896 0.0000
# 6 0.0000 0.0000 0.0000 0.0000 0.0000 -18.7985
#
#
#
# Elastic Compliance Matrix: (Units=1/GPa)
#
#
# Indices 1 2 3 4 5 6 
#
# 1 0.029376 -0.007755 -0.007700 0.000000 0.000000 0.000000
# 2 -0.007755 0.021754 -0.003179 0.000000 0.000000 0.000000
# 3 -0.007700 -0.003179 0.010707 0.000000 0.000000 0.000000
# 4 0.000000 0.000000 0.000000 0.295587 0.000000 0.000000
# 5 0.000000 0.000000 0.000000 0.000000 0.038926 0.000000
# 6 0.000000 0.000000 0.000000 0.000000 0.000000 -0.053196
#
#
# Mechanical properties :
#
#
# Convention : Reuss Voigt Hill
#
# Bulk Modulus (GPa) = 40.70473 51.53017 46.11745
# Shear Modulus (GPa) = 12.86630 11.57279 12.21955
#
# Velocity S-wave (km/s) = 2.93592 2.78443 2.86118
# Velocity P-wave (km/s) = 6.22595 6.69772 6.46614
#
# Compressibility (1/GPa) = 0.02456717
#
# Stress axis : x y z
#
# Youngs Moduli (GPa) = 34.04129 45.96909 93.39919
#
# Poissons Ratio (x) = 0.35651 0.71921
# Poissons Ratio (y) = 0.26400 0.29691
# Poissons Ratio (z) = 0.26213 0.14613
#
# Static dielectric constant tensor:
#      x y z
#    x 1.513100 0.000000 0.000000 
#    y 0.000000 1.497720 0.000000 
#    z 0.000000 0.000000 1.486160 
# 
# From -- ./inp_files/34633.got.cif
#   From: 2010.05.17/outbox.cif.g08.bks.cpg/sg51_18_cif.got.tgz:34633.got - 2010.06.03 11:52:47.
