data_PCOD9402268
_publ_section_title
;
Structure prediction by ZEFSAII (Michael W. Deem and Ramdas Pophale) SiO2 
 PCOD9402268
Probable space group: P M M A
;
_chemical_formula_sum "Si O2"
_cell_formula_units_Z 64
_cell_length_a 32.862265
_cell_length_b 7.675219
_cell_length_c 11.066540
_cell_angle_alpha 90.000000
_cell_angle_beta 90.000000
_cell_angle_gamma 90.000000
_cell_volume 2791.258945
_symmetry_space_group_name_H-M "P M M A"
_symmetry_group_IT_number 51
_symmetry_cell_setting 'orthorhombic'
loop_
_space_group_symop_operation_xyz
x,y,z
1/2-x,-y,z
1/2+x,-y,-z
-x,y,-z
-x,-y,-z
1/2+x,y,-z
1/2-x,y,z
x,-y,z
loop_
_atom_site_type_symbol
_atom_site_label
_atom_site_fract_x
_atom_site_fract_y
_atom_site_fract_z
Si Si1 0.646224 0.212479 0.806074
Si Si2 0.497521 0.198260 0.229575
Si Si3 0.082479 0.308259 0.779128
Si Si4 0.544235 0.291749 0.548178
Si Si5 0.202663 0.787790 0.970809
Si Si6 0.637403 0.790110 0.529930
Si Si7 0.565338 0.212359 0.947618
Si Si8 0.833173 0.805157 0.283019
O O1 0.648558 0.271590 0.665909
O O2 0.603328 0.264023 0.864958
O O3 0.647738 0.000000 0.802105
O O4 0.679002 0.269460 0.907802
O O5 0.537795 0.290685 0.278577
O O6 0.459835 0.205983 0.320324
O O7 0.476871 0.272630 0.110587
O O8 0.510608 0.000000 0.208756
O O9 0.098337 0.500000 0.753639
O O10 0.118634 0.182565 0.745010
O O11 0.072971 0.281454 0.919515
O O12 0.500000 0.227426 0.500000
O O13 0.541667 0.500000 0.556592
O O14 0.589577 0.249849 0.503325
O O15 0.250000 0.744534 0.979113
O O16 0.185382 0.725406 0.840219
O O17 0.198268 0.000000 0.968223
O O18 0.665499 0.725303 0.418255
O O19 0.640880 0.000000 0.529547
O O20 0.564014 0.000000 0.951503
O O21 0.815242 0.000000 0.293366
#
# Coordination Sequence:
#
# PCOD9402268 Si02
#       8
#     8   8   8   8   8   8   8   8
#     4   9  16  32  56  82 112 144 186 231 278 337
#     4  11  22  36  54  75 104 148 198 242 287 336
#     4  12  24  35  51  79 115 149 191 240 289 337
#     4  11  23  36  50  73 109 150 194 245 294 336
#     4   9  17  32  59  91 118 145 178 225 287 348
#     4  10  20  35  56  81 108 150 198 238 277 333
#     4  10  19  35  56  76 104 145 191 238 285 337
#     4  10  20  36  58  83 113 149 192 233 279 340
#
# _framework density 22.928722
#
# number of rings (size 3 to 8) (size 9 to 14) (size 15 to 20)
#    0.000    1.750    2.500    3.000    0.000    6.000 
#    0.000    0.625    0.000    4.125    0.000    0.000 
#    0.000    1.000    0.000    0.000    0.000    0.000 
#
# Total GULP energy -356991.999274 kJ/mol
# GULP energy per Si atom -5577.999989 kJ/mol
# Density = 2.287654 g / cm^3
# Si number density = 22.928722 Si / 1000 Ang^3
#
#
#
# Elastic Constant Matrix: (Units=GPa)
#
#
# Indices 1 2 3 4 5 6 
#
# 1 104.1727 2.0262 61.6777 0.0000 0.0000 0.0000
# 2 2.0262 56.2179 -7.8989 0.0000 0.0000 0.0000
# 3 61.6777 -7.8989 147.8073 0.0000 0.0000 0.0000
# 4 0.0000 0.0000 0.0000 18.5158 0.0000 0.0000
# 5 0.0000 0.0000 0.0000 0.0000 29.1144 0.0000
# 6 0.0000 0.0000 0.0000 0.0000 0.0000 -11.2888
#
#
#
# Elastic Compliance Matrix: (Units=1/GPa)
#
#
# Indices 1 2 3 4 5 6 
#
# 1 0.012832 -0.001224 -0.005420 0.000000 0.000000 0.000000
# 2 -0.001224 0.018039 0.001475 0.000000 0.000000 0.000000
# 3 -0.005420 0.001475 0.009106 0.000000 0.000000 0.000000
# 4 0.000000 0.000000 0.000000 0.054008 0.000000 0.000000
# 5 0.000000 0.000000 0.000000 0.000000 0.034347 0.000000
# 6 0.000000 0.000000 0.000000 0.000000 0.000000 -0.088584
#
#
# Mechanical properties :
#
#
# Convention : Reuss Voigt Hill
#
# Bulk Modulus (GPa) = 33.73939 46.64532 40.19236
# Shear Modulus (GPa) = 83.37794 24.09448 53.73621
#
# Velocity S-wave (km/s) = 6.03680 3.24519 4.84635
# Velocity P-wave (km/s) = 7.95848 5.86766 6.99167
#
# Compressibility (1/GPa) = 0.02963894
#
# Stress axis : x y z
#
# Youngs Moduli (GPa) = 77.92787 55.43460 109.81614
#
# Poissons Ratio (x) = 0.06786 0.59522
# Poissons Ratio (y) = 0.09539 -0.16196
# Poissons Ratio (z) = 0.42238 -0.08176
#
# Static dielectric constant tensor:
#      x y z
#    x 1.792920 0.000000 0.000000 
#    y 0.000000 1.843820 0.000000 
#    z 0.000000 0.000000 2.015940 
# 
# From -- ./inp_files/19431.got.cif
#   From: 2010.05.17/outbox.cif.g08.bks.cpg/sg51_10_cif.got.tgz:19431.got - 2010.06.03 11:52:47.
