data_PCOD9402252
_publ_section_title
;
Structure prediction by ZEFSAII (Michael W. Deem and Ramdas Pophale) SiO2 
 PCOD9402252
Probable space group: P M M A
;
_chemical_formula_sum "Si O2"
_cell_formula_units_Z 40
_cell_length_a 17.650114
_cell_length_b 13.145678
_cell_length_c 10.325899
_cell_angle_alpha 90.000000
_cell_angle_beta 90.000000
_cell_angle_gamma 90.000000
_cell_volume 2395.843124
_symmetry_space_group_name_H-M "P M M A"
_symmetry_group_IT_number 51
_symmetry_cell_setting 'orthorhombic'
loop_
_space_group_symop_operation_xyz
x,y,z
1/2-x,-y,z
1/2+x,-y,-z
-x,y,-z
-x,-y,-z
1/2+x,y,-z
1/2-x,y,z
x,-y,z
loop_
_atom_site_type_symbol
_atom_site_label
_atom_site_fract_x
_atom_site_fract_y
_atom_site_fract_z
Si Si1 0.559706 0.117585 0.216496
Si Si2 0.836092 0.879212 0.975190
Si Si3 0.589224 0.617627 0.534271
Si Si4 0.660434 0.185987 0.449807
Si Si5 0.099870 0.214325 0.277231
O O1 0.616987 0.128799 0.336474
O O2 0.485585 0.182674 0.245506
O O3 0.536564 0.000000 0.202168
O O4 0.603955 0.147955 0.086356
O O5 0.750000 0.864340 0.021784
O O6 0.850858 0.816117 0.845492
O O7 0.845220 0.000000 0.947154
O O8 0.500000 0.627945 0.500000
O O9 0.610228 0.500000 0.526708
O O10 0.636771 0.694165 0.443193
O O11 0.602046 0.668673 0.675353
O O12 0.750000 0.172561 0.443550
O O13 0.628832 0.157046 0.592496
#
# Coordination Sequence:
#
# PCOD9402252 Si02
#       5
#     8   8   8   8   8
#     4  11  21  35  52  75 109 149 180 209 259 319
#     4  10  21  35  52  76 108 144 176 212 262 316
#     4   9  18  36  58  80 105 133 172 221 272 318
#     4  10  20  34  52  81 108 136 175 221 267 310
#     4  10  19  35  54  80 100 137 180 224 257 308
#
# _framework density 16.695582999999999
#
# number of rings (size 3 to 8) (size 9 to 14) (size 15 to 20)
#    1.200    0.800    2.000    3.000    0.000    5.600 
#    0.000    0.000    0.000    3.600    0.000    0.000 
#    0.000    0.000    0.000    0.000    0.000    0.000 
#
# Total GULP energy -222760.224358 kJ/mol
# GULP energy per Si atom -5569.005609 kJ/mol
# Density = 1.665758 g / cm^3
# Si number density = 16.695583 Si / 1000 Ang^3
#
#
#
# Elastic Constant Matrix: (Units=GPa)
#
#
# Indices 1 2 3 4 5 6 
#
# 1 57.2538 -9.6244 -13.2557 0.0000 0.0000 0.0000
# 2 -9.6244 29.4529 -5.4002 0.0000 0.0000 0.0000
# 3 -13.2557 -5.4002 43.1902 0.0000 0.0000 0.0000
# 4 0.0000 0.0000 0.0000 -3.8709 0.0000 0.0000
# 5 0.0000 0.0000 0.0000 0.0000 28.1719 0.0000
# 6 0.0000 0.0000 0.0000 0.0000 0.0000 16.6640
#
#
#
# Elastic Compliance Matrix: (Units=1/GPa)
#
#
# Indices 1 2 3 4 5 6 
#
# 1 0.020508 0.008040 0.007299 0.000000 0.000000 0.000000
# 2 0.008040 0.037901 0.007206 0.000000 0.000000 0.000000
# 3 0.007299 0.007206 0.026295 0.000000 0.000000 0.000000
# 4 0.000000 0.000000 0.000000 -0.258336 0.000000 0.000000
# 5 0.000000 0.000000 0.000000 0.000000 0.035496 0.000000
# 6 0.000000 0.000000 0.000000 0.000000 0.000000 0.060010
#
#
# Mechanical properties :
#
#
# Convention : Reuss Voigt Hill
#
# Bulk Modulus (GPa) = 7.70455 8.14848 7.92651
# Shear Modulus (GPa) = -62.53650 18.73815 -21.89918
#
# Velocity S-wave (km/s) = -6.12685 3.35377 -3.62563
# Velocity P-wave (km/s) = 6.73990 4.45963 3.57337
#
# Compressibility (1/GPa) = 0.12979351
#
# Stress axis : x y z
#
# Youngs Moduli (GPa) = 48.76259 26.38459 38.03053
#
# Poissons Ratio (x) = -0.21212 -0.27760
# Poissons Ratio (y) = -0.39203 -0.27406
# Poissons Ratio (z) = -0.35593 -0.19014
#
# Static dielectric constant tensor:
#      x y z
#    x 1.566630 0.000000 0.000000 
#    y 0.000000 1.548400 0.000000 
#    z 0.000000 0.000000 1.556720 
# 
# From -- ./inp_files/9432.got.cif
#   From: 2010.05.17/outbox.cif.g08.bks.cpg/sg51_5_cif.got.tgz:9432.got - 2010.06.03 11:52:47.
