data_PCOD9402450
_publ_section_title
;
Structure prediction by ZEFSAII (Michael W. Deem and Ramdas Pophale) SiO2 
 PCOD9402450
Probable space group: P M M A
;
_chemical_formula_sum "Si O2"
_cell_formula_units_Z 64
_cell_length_a 29.900041
_cell_length_b 7.871156
_cell_length_c 12.628719
_cell_angle_alpha 90.000000
_cell_angle_beta 90.000000
_cell_angle_gamma 90.000000
_cell_volume 2972.142334
_symmetry_space_group_name_H-M "P M M A"
_symmetry_group_IT_number 51
_symmetry_cell_setting 'orthorhombic'
loop_
_space_group_symop_operation_xyz
x,y,z
1/2-x,-y,z
1/2+x,-y,-z
-x,y,-z
-x,-y,-z
1/2+x,y,-z
1/2-x,y,z
x,-y,z
loop_
_atom_site_type_symbol
_atom_site_label
_atom_site_fract_x
_atom_site_fract_y
_atom_site_fract_z
Si Si1 0.700211 0.197526 0.905647
Si Si2 0.947900 0.693589 0.298525
Si Si3 0.303974 0.691082 0.862572
Si Si4 0.300988 0.204092 0.628443
Si Si5 0.951849 0.206760 0.659811
Si Si6 0.046769 0.205602 0.945328
Si Si7 0.113108 0.805215 0.522989
Si Si8 0.893778 0.792293 0.862539
O O1 0.750000 0.274072 0.892288
O O2 0.656881 0.271040 0.847601
O O3 0.703619 0.000000 0.875894
O O4 0.687611 0.206051 0.030525
O O5 0.934538 0.500000 0.316382
O O6 0.947959 0.731069 0.173670
O O7 0.914011 0.804067 0.367184
O O8 0.998144 0.723887 0.340323
O O9 0.250000 0.685874 0.856356
O O10 0.321047 0.500000 0.876343
O O11 0.317448 0.760278 0.748409
O O12 0.250000 0.268598 0.615322
O O13 0.338259 0.271613 0.547481
O O14 0.299241 0.000000 0.617774
O O15 0.920195 0.268632 0.564697
O O16 0.927343 0.254130 0.768993
O O17 0.955643 0.000000 0.655117
O O18 0.046549 0.000000 0.940597
O O19 0.085587 0.261412 0.025370
O O20 0.000000 0.257363 0.000000
O O21 0.120925 0.000000 0.488578
O O22 0.892320 0.000000 0.863352
#
# Coordination Sequence:
#
# PCOD9402450 Si02
#       8
#     8   8   8   8   8   8   8   8
#     4   9  17  30  49  76 109 144 180 219 267 325
#     4  12  25  38  56  84 118 146 179 232 285 331
#     4   9  17  29  46  70 102 140 178 218 265 315
#     4   9  18  34  54  78 108 140 177 223 274 323
#     4  10  20  40  62  80 105 145 193 231 272 330
#     4  10  19  36  60  82 107 145 185 222 270 333
#     4  10  22  38  60  84 108 146 192 230 271 331
#     4   9  18  33  56  81 107 142 183 226 270 324
#
# _framework density 21.533289
#
# number of rings (size 3 to 8) (size 9 to 14) (size 15 to 20)
#    0.000    2.250    1.250    1.875    1.750    4.250 
#    0.000    1.250    0.000    3.750    0.000    0.000 
#    0.000    5.000    0.000    0.000    0.000    0.000 
#
# Total GULP energy -357158.519747 kJ/mol
# GULP energy per Si atom -5580.601871 kJ/mol
# Density = 2.148428 g / cm^3
# Si number density = 21.533289 Si / 1000 Ang^3
#
#
#
# Elastic Constant Matrix: (Units=GPa)
#
#
# Indices 1 2 3 4 5 6 
#
# 1 103.2392 -6.4288 -0.2969 0.0000 0.0000 0.0000
# 2 -6.4288 33.8515 -9.6778 0.0000 0.0000 0.0000
# 3 -0.2969 -9.6778 33.6648 0.0000 0.0000 0.0000
# 4 0.0000 0.0000 0.0000 -14.2821 0.0000 0.0000
# 5 0.0000 0.0000 0.0000 0.0000 23.2208 0.0000
# 6 0.0000 0.0000 0.0000 0.0000 0.0000 -5.1421
#
#
#
# Elastic Compliance Matrix: (Units=1/GPa)
#
#
# Indices 1 2 3 4 5 6 
#
# 1 0.009816 0.002058 0.000678 0.000000 0.000000 0.000000
# 2 0.002058 0.032618 0.009395 0.000000 0.000000 0.000000
# 3 0.000678 0.009395 0.032411 0.000000 0.000000 0.000000
# 4 0.000000 0.000000 0.000000 -0.070018 0.000000 0.000000
# 5 0.000000 0.000000 0.000000 0.000000 0.043065 0.000000
# 6 0.000000 0.000000 0.000000 0.000000 0.000000 -0.194471
#
#
# Mechanical properties :
#
#
# Convention : Reuss Voigt Hill
#
# Bulk Modulus (GPa) = 10.09003 15.32763 12.70883
# Shear Modulus (GPa) = -36.28307 13.23657 -11.52325
#
# Velocity S-wave (km/s) = -4.10930 2.48201 -2.31581
# Velocity P-wave (km/s) = 4.22127 3.91757 1.11170
#
# Compressibility (1/GPa) = 0.09910773
#
# Stress axis : x y z
#
# Youngs Moduli (GPa) = 101.87080 30.65838 30.85337
#
# Poissons Ratio (x) = -0.06310 -0.02093
# Poissons Ratio (y) = -0.20966 -0.28986
# Poissons Ratio (z) = -0.06909 -0.28803
#
# Static dielectric constant tensor:
#      x y z
#    x 1.815640 0.000000 0.000000 
#    y 0.000000 1.789330 0.000000 
#    z 0.000000 0.000000 1.756920 
# 
# From -- ./inp_files/19633.got.cif
#   From: 2010.05.17/outbox.cif.g08.bks.cpg/sg51_10_cif.got.tgz:19633.got - 2010.06.03 11:52:47.
