data_PCOD9402026
_publ_section_title
;
Structure prediction by ZEFSAII (Michael W. Deem and Ramdas Pophale) SiO2 
 PCOD9402026
Probable space group: P M M A
;
_chemical_formula_sum "Si O2"
_cell_formula_units_Z 40
_cell_length_a 8.199174
_cell_length_b 27.640173
_cell_length_c 9.478437
_cell_angle_alpha 90.000000
_cell_angle_beta 90.000000
_cell_angle_gamma 90.000000
_cell_volume 2148.065835
_symmetry_space_group_name_H-M "P M M A"
_symmetry_group_IT_number 51
_symmetry_cell_setting 'orthorhombic'
loop_
_space_group_symop_operation_xyz
x,y,z
1/2-x,-y,z
1/2+x,-y,-z
-x,y,-z
-x,-y,-z
1/2+x,y,-z
1/2-x,y,z
x,-y,z
loop_
_atom_site_type_symbol
_atom_site_label
_atom_site_fract_x
_atom_site_fract_y
_atom_site_fract_z
Si Si1 0.053335 0.000000 0.336327
Si Si2 0.052541 0.197303 0.162722
Si Si3 0.444976 0.407756 0.162539
Si Si4 0.942560 0.500000 0.339141
Si Si5 0.053272 0.302403 0.163559
Si Si6 0.052556 0.105155 0.337298
O O1 0.997106 0.052304 0.279948
O O2 0.000000 0.000000 0.500000
O O3 0.250000 0.000000 0.329704
O O4 0.250000 0.196940 0.166801
O O5 0.997039 0.250131 0.220297
O O6 0.992133 0.151221 0.249977
O O7 0.000000 0.193456 0.000000
O O8 0.250000 0.406854 0.161850
O O9 0.499513 0.452272 0.257040
O O10 0.504358 0.354856 0.217449
O O11 0.500000 0.413852 0.000000
O O12 0.750000 0.500000 0.337563
O O13 0.000000 0.500000 0.500000
O O14 0.250000 0.302382 0.171204
O O15 0.000000 0.302182 0.000000
O O16 0.250000 0.105525 0.333157
O O17 0.000000 0.109015 0.500000
#
# Coordination Sequence:
#
# PCOD9402026 Si02
#       6
#     4   8   8   4   8   8
#     4   8  14  26  43  62  84 116 154 194 235 276
#     4   9  17  30  47  69  96 126 156 191 234 281
#     4  10  19  34  56  80 102 128 164 204 239 280
#     4  12  25  40  55  74 102 134 164 198 243 292
#     4   8  15  28  48  71  96 124 157 194 232 273
#     4   9  17  29  46  66  90 119 156 197 237 280
#
# _framework density 18.621403000000001
#
# number of rings (size 3 to 8) (size 9 to 14) (size 15 to 20)
#    0.000    2.800    0.000    1.800    0.000    1.600 
#    0.000    1.500    0.000    2.400    0.000    0.000 
#    0.000    0.000    0.000    0.000    0.000    0.000 
#
# Total GULP energy -222677.509648 kJ/mol
# GULP energy per Si atom -5566.937741 kJ/mol
# Density = 1.857902 g / cm^3
# Si number density = 18.621403 Si / 1000 Ang^3
#
#
#
# Elastic Constant Matrix: (Units=GPa)
#
#
# Indices 1 2 3 4 5 6 
#
# 1 23.2525 26.2695 8.1983 0.0000 0.0000 0.0000
# 2 26.2695 266.6156 81.4446 0.0000 0.0000 0.0000
# 3 8.1983 81.4446 56.0586 0.0000 0.0000 0.0000
# 4 0.0000 0.0000 0.0000 177.7748 0.0000 0.0000
# 5 0.0000 0.0000 0.0000 0.0000 21.6490 0.0000
# 6 0.0000 0.0000 0.0000 0.0000 0.0000 -66.1962
#
#
#
# Elastic Compliance Matrix: (Units=1/GPa)
#
#
# Indices 1 2 3 4 5 6 
#
# 1 0.048395 -0.004686 -0.000270 0.000000 0.000000 0.000000
# 2 -0.004686 0.007197 -0.009771 0.000000 0.000000 0.000000
# 3 -0.000270 -0.009771 0.032074 0.000000 0.000000 0.000000
# 4 0.000000 0.000000 0.000000 0.005625 0.000000 0.000000
# 5 0.000000 0.000000 0.000000 0.000000 0.046191 0.000000
# 6 0.000000 0.000000 0.000000 0.000000 0.000000 -0.015107
#
#
# Mechanical properties :
#
#
# Convention : Reuss Voigt Hill
#
# Bulk Modulus (GPa) = 17.17828 64.19460 40.68644
# Shear Modulus (GPa) = 28.86258 41.97981 35.42119
#
# Velocity S-wave (km/s) = 3.94123 4.75319 4.36613
# Velocity P-wave (km/s) = 5.47322 8.04190 6.87853
#
# Compressibility (1/GPa) = 0.05821304
#
# Stress axis : x y z
#
# Youngs Moduli (GPa) = 20.66317 138.94048 31.17780
#
# Poissons Ratio (x) = 0.65108 0.00840
# Poissons Ratio (y) = 0.09683 0.30465
# Poissons Ratio (z) = 0.00557 1.35763
#
# Static dielectric constant tensor:
#      x y z
#    x 1.636460 0.000000 0.000000 
#    y 0.000000 1.759020 0.000000 
#    z 0.000000 0.000000 1.573640 
# 
# From -- ./inp_files/5610.got.cif
#   From: 2010.05.17/outbox.cif.g08.bks.cpg/sg51_3_cif.got.tgz:5610.got - 2010.06.03 11:52:47.
