data_PCOD9402703
_publ_section_title
;
Structure prediction by ZEFSAII (Michael W. Deem and Ramdas Pophale) SiO2 
 PCOD9402703
Probable space group: P M M A
;
_chemical_formula_sum "Si O2"
_cell_formula_units_Z 40
_cell_length_a 9.434454
_cell_length_b 7.372756
_cell_length_c 26.721016
_cell_angle_alpha 90.000000
_cell_angle_beta 90.000000
_cell_angle_gamma 90.000000
_cell_volume 1858.658489
_symmetry_space_group_name_H-M "P M M A"
_symmetry_group_IT_number 51
_symmetry_cell_setting 'orthorhombic'
loop_
_space_group_symop_operation_xyz
x,y,z
1/2-x,-y,z
1/2+x,-y,-z
-x,y,-z
-x,-y,-z
1/2+x,y,-z
1/2-x,y,z
x,-y,z
loop_
_atom_site_type_symbol
_atom_site_label
_atom_site_fract_x
_atom_site_fract_y
_atom_site_fract_z
Si Si1 0.585250 0.779379 0.048067
Si Si2 0.413700 0.278773 0.450871
Si Si3 0.087555 0.781926 0.841156
Si Si4 0.909759 0.285639 0.742541
Si Si5 0.413246 0.278280 0.647465
O O1 0.750000 0.731251 0.043307
O O2 0.538402 0.720405 0.103620
O O3 0.577052 0.000000 0.047704
O O4 0.500000 0.713925 0.000000
O O5 0.500000 0.221613 0.500000
O O6 0.250000 0.220277 0.451418
O O7 0.412173 0.500000 0.451069
O O8 0.496485 0.222969 0.400908
O O9 0.250000 0.718557 0.832748
O O10 0.985693 0.734500 0.795802
O O11 0.093466 0.000000 0.842984
O O12 0.750000 0.211221 0.742360
O O13 0.898045 0.500000 0.733141
O O14 0.008931 0.215248 0.697935
O O15 0.250000 0.219677 0.645090
O O16 0.410933 0.500000 0.647627
#
# Coordination Sequence:
#
# PCOD9402703 Si02
#       5
#     8   8   8   8   8
#     4   8  14  25  42  65  91 116 143 178 221 268
#     4   9  15  22  33  51  77 108 142 181 224 269
#     4   9  18  32  49  70  95 121 151 188 228 271
#     4  10  20  32  46  66  92 122 156 192 229 272
#     4   9  16  26  40  57  79 111 149 185 224 271
#
# _framework density 21.520897999999999
#
# number of rings (size 3 to 8) (size 9 to 14) (size 15 to 20)
#    0.000    3.000    0.000    3.000    0.000    7.200 
#    0.000    2.000    0.000    0.600    0.000    0.000 
#    0.000    0.800    0.000    3.000    0.000    6.600 
#
# Total GULP energy -223351.900497 kJ/mol
# GULP energy per Si atom -5583.797512 kJ/mol
# Density = 2.147192 g / cm^3
# Si number density = 21.520898 Si / 1000 Ang^3
#
#
#
# Elastic Constant Matrix: (Units=GPa)
#
#
# Indices 1 2 3 4 5 6 
#
# 1 204.2474 5.5860 153.3526 0.0000 0.0000 0.0000
# 2 5.5860 74.9884 -0.0584 0.0000 0.0000 0.0000
# 3 153.3526 -0.0584 241.8127 0.0000 0.0000 0.0000
# 4 0.0000 0.0000 0.0000 14.6640 0.0000 0.0000
# 5 0.0000 0.0000 0.0000 0.0000 44.1682 0.0000
# 6 0.0000 0.0000 0.0000 0.0000 0.0000 0.2085
#
#
#
# Elastic Compliance Matrix: (Units=1/GPa)
#
#
# Indices 1 2 3 4 5 6 
#
# 1 0.009383 -0.000704 -0.005951 0.000000 0.000000 0.000000
# 2 -0.000704 0.013388 0.000449 0.000000 0.000000 0.000000
# 3 -0.005951 0.000449 0.007909 0.000000 0.000000 0.000000
# 4 0.000000 0.000000 0.000000 0.068194 0.000000 0.000000
# 5 0.000000 0.000000 0.000000 0.000000 0.022641 0.000000
# 6 0.000000 0.000000 0.000000 0.000000 0.000000 4.796785
#
#
# Mechanical properties :
#
#
# Convention : Reuss Voigt Hill
#
# Bulk Modulus (GPa) = 54.73194 93.20098 73.96646
# Shear Modulus (GPa) = 1.01280 35.95270 18.48275
#
# Velocity S-wave (km/s) = 0.68676 4.09173 2.93376
# Velocity P-wave (km/s) = 5.11039 8.10704 6.77644
#
# Compressibility (1/GPa) = 0.01827087
#
# Stress axis : x y z
#
# Youngs Moduli (GPa) = 106.57277 74.69282 126.43122
#
# Poissons Ratio (x) = 0.05255 0.75237
# Poissons Ratio (y) = 0.07499 -0.05682
# Poissons Ratio (z) = 0.63420 -0.03357
#
# Static dielectric constant tensor:
#      x y z
#    x 1.731010 0.000000 0.000000 
#    y 0.000000 1.885290 0.000000 
#    z 0.000000 0.000000 1.746060 
# 
# From -- ./inp_files/31378.got.cif
#   From: 2010.05.17/outbox.cif.g08.bks.cpg/sg51_16_cif.got.tgz:31378.got - 2010.06.03 11:52:47.
