data_PCOD9402538
_publ_section_title
;
Structure prediction by ZEFSAII (Michael W. Deem and Ramdas Pophale) SiO2 
 PCOD9402538
Probable space group: P M M A
;
_chemical_formula_sum "Si O2"
_cell_formula_units_Z 38
_cell_length_a 7.872588
_cell_length_b 10.165499
_cell_length_c 22.330484
_cell_angle_alpha 90.000000
_cell_angle_beta 90.000000
_cell_angle_gamma 90.000000
_cell_volume 1787.081513
_symmetry_space_group_name_H-M "P M M A"
_symmetry_group_IT_number 51
_symmetry_cell_setting 'orthorhombic'
loop_
_space_group_symop_operation_xyz
x,y,z
1/2-x,-y,z
1/2+x,-y,-z
-x,y,-z
-x,-y,-z
1/2+x,y,-z
1/2-x,y,z
x,-y,z
loop_
_atom_site_type_symbol
_atom_site_label
_atom_site_fract_x
_atom_site_fract_y
_atom_site_fract_z
Si Si1 0.556259 0.702965 0.401958
Si Si2 0.550899 0.000000 0.069373
Si Si3 0.948322 0.750342 0.854094
Si Si4 0.250000 0.500000 0.436874
Si Si5 0.450365 0.500000 0.930635
Si Si6 0.451501 0.346733 0.268642
Si Si7 0.547420 0.000000 0.569449
O O1 0.750000 0.671933 0.423745
O O2 0.404165 0.615951 0.431435
O O3 0.544238 0.670926 0.331286
O O4 0.523769 0.859906 0.407369
O O5 0.492410 0.125155 0.106561
O O6 0.750000 0.000000 0.069236
O O7 0.500000 0.000000 0.000000
O O8 0.750000 0.752685 0.842090
O O9 0.023621 0.735187 0.787428
O O10 0.985674 0.626118 0.895343
O O11 0.250000 0.500000 0.927844
O O12 0.500000 0.500000 0.000000
O O13 0.250000 0.318770 0.280249
O O14 0.460527 0.500000 0.250487
O O15 0.500000 0.000000 0.500000
O O16 0.750000 0.000000 0.578781
#
# Coordination Sequence:
#
# PCOD9402538 Si02
#       7
#     8   4   8   2   4   8   4
#     4  12  24  43  75 108 145 197 244 293 361 431
#     4  12  26  45  62  83 120 161 214 276 334 402
#     4  11  23  41  66  92 123 166 213 264 336 398
#     4  12  22  44  70 106 152 184 246 294 356 408
#     4  12  24  39  60  88 123 161 213 267 324 394
#     4  10  19  39  66  98 140 177 217 278 343 409
#     4  12  26  51  78 106 153 195 247 303 358 429
#
# _framework density 21.263718999999998
#
# number of rings (size 3 to 8) (size 9 to 14) (size 15 to 20)
#    0.000    0.632    4.211    4.421    0.000    2.526 
#    0.000    1.579    0.000    0.000    0.000    0.000 
#    0.000    0.000    0.000    0.000    0.000    0.000 
#
# Total GULP energy -211856.969321 kJ/mol
# GULP energy per Si atom -5575.183403 kJ/mol
# Density = 2.121532 g / cm^3
# Si number density = 21.263719 Si / 1000 Ang^3
#
#
#
# Elastic Constant Matrix: (Units=GPa)
#
#
# Indices 1 2 3 4 5 6 
#
# 1 142.1781 31.4186 7.1075 0.0000 0.0000 0.0000
# 2 31.4186 148.7162 17.1126 0.0000 0.0000 0.0000
# 3 7.1075 17.1126 84.3642 0.0000 0.0000 0.0000
# 4 0.0000 0.0000 0.0000 56.0532 0.0000 0.0000
# 5 0.0000 0.0000 0.0000 0.0000 27.1829 0.0000
# 6 0.0000 0.0000 0.0000 0.0000 0.0000 37.3326
#
#
#
# Elastic Compliance Matrix: (Units=1/GPa)
#
#
# Indices 1 2 3 4 5 6 
#
# 1 0.007386 -0.001524 -0.000313 0.000000 0.000000 0.000000
# 2 -0.001524 0.007200 -0.001332 0.000000 0.000000 0.000000
# 3 -0.000313 -0.001332 0.012150 0.000000 0.000000 0.000000
# 4 0.000000 0.000000 0.000000 0.017840 0.000000 0.000000
# 5 0.000000 0.000000 0.000000 0.000000 0.036788 0.000000
# 6 0.000000 0.000000 0.000000 0.000000 0.000000 0.026786
#
#
# Mechanical properties :
#
#
# Convention : Reuss Voigt Hill
#
# Bulk Modulus (GPa) = 49.02762 54.05955 51.54358
# Shear Modulus (GPa) = 41.22444 45.42172 43.32308
#
# Velocity S-wave (km/s) = 4.40787 4.62683 4.51867
# Velocity P-wave (km/s) = 7.00091 7.34996 7.17756
#
# Compressibility (1/GPa) = 0.02039667
#
# Stress axis : x y z
#
# Youngs Moduli (GPa) = 135.39247 138.89796 82.30504
#
# Poissons Ratio (x) = 0.21173 0.02577
# Poissons Ratio (y) = 0.20639 0.10963
# Poissons Ratio (z) = 0.04238 0.18500
#
# Static dielectric constant tensor:
#      x y z
#    x 1.787370 0.000000 0.000000 
#    y 0.000000 1.756360 0.000000 
#    z 0.000000 0.000000 1.677570 
# 
# From -- ./inp_files/34424.got.cif
#   From: 2010.05.17/outbox.cif.g08.bks.cpg/sg51_18_cif.got.tgz:34424.got - 2010.06.03 11:52:47.
