data_PCOD9402218
_publ_section_title
;
Structure prediction by ZEFSAII (Michael W. Deem and Ramdas Pophale) SiO2 
 PCOD9402218
Probable space group: P M M A
;
_chemical_formula_sum "Si O2"
_cell_formula_units_Z 64
_cell_length_a 24.224198
_cell_length_b 8.877860
_cell_length_c 15.816550
_cell_angle_alpha 90.000000
_cell_angle_beta 90.000000
_cell_angle_gamma 90.000000
_cell_volume 3401.492035
_symmetry_space_group_name_H-M "P M M A"
_symmetry_group_IT_number 51
_symmetry_cell_setting 'orthorhombic'
loop_
_space_group_symop_operation_xyz
x,y,z
1/2-x,-y,z
1/2+x,-y,-z
-x,y,-z
-x,-y,-z
1/2+x,y,-z
1/2-x,y,z
x,-y,z
loop_
_atom_site_type_symbol
_atom_site_label
_atom_site_fract_x
_atom_site_fract_y
_atom_site_fract_z
Si Si1 0.383054 0.679076 0.407917
Si Si2 0.314929 0.179648 0.253559
Si Si3 0.501106 0.679854 0.831190
Si Si4 0.121982 0.319102 0.096770
Si Si5 0.619945 0.180932 0.415772
Si Si6 0.117255 0.318901 0.905661
Si Si7 0.997144 0.179373 0.646157
Si Si8 0.186004 0.181690 0.752500
O O1 0.381930 0.500000 0.405019
O O2 0.347549 0.744944 0.330816
O O3 0.362505 0.739919 0.498009
O O4 0.445550 0.737647 0.395546
O O5 0.250000 0.214134 0.258350
O O6 0.340300 0.239937 0.166164
O O7 0.322287 0.000000 0.258330
O O8 0.499872 0.500000 0.812469
O O9 0.558009 0.710447 0.879721
O O10 0.446726 0.716369 0.885087
O O11 0.500076 0.769863 0.743665
O O12 0.129966 0.500000 0.102163
O O13 0.132402 0.270321 0.000480
O O14 0.555803 0.215519 0.396295
O O15 0.655329 0.227228 0.334033
O O16 0.624749 0.000000 0.425599
O O17 0.122505 0.500000 0.902426
O O18 0.154659 0.248003 0.833085
O O19 0.988591 0.000000 0.640231
O O20 0.250000 0.226588 0.751387
O O21 0.183119 0.000000 0.756682
#
# Coordination Sequence:
#
# PCOD9402218 Si02
#       8
#     8   8   8   8   8   8   8   8
#     4  12  25  40  62  92 123 155 194 242 300 361
#     4  11  25  44  64  86 116 157 203 250 299 352
#     4  10  19  34  59  89 122 158 195 239 297 356
#     4  10  21  38  61  90 122 159 197 242 298 354
#     4  10  22  40  61  88 121 158 200 245 297 352
#     4  10  21  37  60  90 125 159 196 242 297 358
#     4  11  21  36  61  90 123 158 196 242 293 353
#     4  10  22  41  62  84 115 157 204 250 295 345
#
# _framework density 18.815273000000001
#
# number of rings (size 3 to 8) (size 9 to 14) (size 15 to 20)
#    0.000    1.500    2.500    2.625    0.000    7.250 
#    0.000    3.750    0.000    2.250    0.000    0.000 
#    0.000    0.000    0.000    0.000    0.000    0.000 
#
# Total GULP energy -357763.283950 kJ/mol
# GULP energy per Si atom -5590.051312 kJ/mol
# Density = 1.877245 g / cm^3
# Si number density = 18.815273 Si / 1000 Ang^3
#
#
#
# Elastic Constant Matrix: (Units=GPa)
#
#
# Indices 1 2 3 4 5 6 
#
# 1 110.3605 49.2314 56.1977 0.0000 0.0000 0.0000
# 2 49.2314 40.5453 48.9182 0.0000 0.0000 0.0000
# 3 56.1977 48.9182 160.3908 0.0000 0.0000 0.0000
# 4 0.0000 0.0000 0.0000 37.6014 0.0000 0.0000
# 5 0.0000 0.0000 0.0000 0.0000 3.3248 0.0000
# 6 0.0000 0.0000 0.0000 0.0000 0.0000 22.2726
#
#
#
# Elastic Compliance Matrix: (Units=1/GPa)
#
#
# Indices 1 2 3 4 5 6 
#
# 1 0.019809 -0.024808 0.000625 0.000000 0.000000 0.000000
# 2 -0.024808 0.070091 -0.012685 0.000000 0.000000 0.000000
# 3 0.000625 -0.012685 0.009885 0.000000 0.000000 0.000000
# 4 0.000000 0.000000 0.000000 0.026595 0.000000 0.000000
# 5 0.000000 0.000000 0.000000 0.000000 0.300768 0.000000
# 6 0.000000 0.000000 0.000000 0.000000 0.000000 0.044898
#
#
# Mechanical properties :
#
#
# Convention : Reuss Voigt Hill
#
# Bulk Modulus (GPa) = 38.38799 68.88790 53.63795
# Shear Modulus (GPa) = 9.01772 23.10305 16.06039
#
# Velocity S-wave (km/s) = 2.19161 3.50793 2.92478
# Velocity P-wave (km/s) = 5.18180 7.28695 6.32261
#
# Compressibility (1/GPa) = 0.02604981
#
# Stress axis : x y z
#
# Youngs Moduli (GPa) = 50.48104 14.26718 101.16818
#
# Poissons Ratio (x) = 0.35394 -0.06327
# Poissons Ratio (y) = 1.25232 1.28333
# Poissons Ratio (z) = -0.03157 0.18098
#
# Static dielectric constant tensor:
#      x y z
#    x 1.635750 0.000000 0.000000 
#    y 0.000000 1.632570 0.000000 
#    z 0.000000 0.000000 1.632300 
# 
# From -- ./inp_files/26352.got.cif
#   From: 2010.05.17/outbox.cif.g08.bks.cpg/sg51_14_cif.got.tgz:26352.got - 2010.06.03 11:52:47.
