data_PCOD9402122
_publ_section_title
;
Structure prediction by ZEFSAII (Michael W. Deem and Ramdas Pophale) SiO2 
 PCOD9402122
Probable space group: P M M A
;
_chemical_formula_sum "Si O2"
_cell_formula_units_Z 64
_cell_length_a 26.151197
_cell_length_b 8.577252
_cell_length_c 14.800946
_cell_angle_alpha 90.000000
_cell_angle_beta 90.000000
_cell_angle_gamma 90.000000
_cell_volume 3319.932213
_symmetry_space_group_name_H-M "P M M A"
_symmetry_group_IT_number 51
_symmetry_cell_setting 'orthorhombic'
loop_
_space_group_symop_operation_xyz
x,y,z
1/2-x,-y,z
1/2+x,-y,-z
-x,y,-z
-x,-y,-z
1/2+x,y,-z
1/2-x,y,z
x,-y,z
loop_
_atom_site_type_symbol
_atom_site_label
_atom_site_fract_x
_atom_site_fract_y
_atom_site_fract_z
Si Si1 0.191611 0.688086 0.209654
Si Si2 0.493847 0.185048 0.213900
Si Si3 0.192501 0.309895 0.766726
Si Si4 0.097321 0.311424 0.090493
Si Si5 0.690521 0.813859 0.594378
Si Si6 0.020427 0.312004 0.598377
Si Si7 0.361515 0.311999 0.583524
Si Si8 0.095067 0.689098 0.882262
O O1 0.250000 0.742470 0.194009
O O2 0.192310 0.500000 0.210144
O O3 0.151026 0.739017 0.134712
O O4 0.175023 0.744856 0.308782
O O5 0.448507 0.251626 0.152492
O O6 0.490427 0.241115 0.317398
O O7 0.547345 0.247206 0.173792
O O8 0.493005 0.000000 0.210492
O O9 0.250000 0.256500 0.786808
O O10 0.193056 0.500000 0.767565
O O11 0.174562 0.262189 0.666422
O O12 0.148570 0.261973 0.836764
O O13 0.096072 0.500000 0.091062
O O14 0.091954 0.261520 0.986615
O O15 0.750000 0.767310 0.579450
O O16 0.657302 0.753842 0.511347
O O17 0.688090 0.000000 0.598937
O O18 0.017059 0.500000 0.604731
O O19 0.000000 0.265291 0.500000
O O20 0.080116 0.267367 0.604503
O O21 0.359950 0.500000 0.578642
O O22 0.092795 0.500000 0.878680
#
# Coordination Sequence:
#
# PCOD9402122 Si02
#       8
#     8   8   8   8   8   8   8   8
#     4   9  19  37  59  85 116 149 189 238 289 341
#     4  12  25  40  60  86 119 154 191 239 287 344
#     4   9  17  31  56  88 117 146 185 235 291 348
#     4  10  22  38  62  88 113 150 194 241 291 345
#     4  10  21  35  52  78 114 154 190 227 275 334
#     4  10  22  40  62  87 116 151 190 235 288 346
#     4  10  19  34  57  83 113 149 190 237 286 341
#     4  10  20  39  62  86 116 151 193 241 292 345
#
# _framework density 19.277501999999998
#
# number of rings (size 3 to 8) (size 9 to 14) (size 15 to 20)
#    0.000    2.000    1.250    2.250    1.750    5.000 
#    0.000    2.500    0.000    0.375    0.000    1.750 
#    0.000    0.000    0.000    0.000    0.000    0.000 
#
# Total GULP energy -357494.313506 kJ/mol
# GULP energy per Si atom -5585.848649 kJ/mol
# Density = 1.923363 g / cm^3
# Si number density = 19.277502 Si / 1000 Ang^3
#
#
#
# Elastic Constant Matrix: (Units=GPa)
#
#
# Indices 1 2 3 4 5 6 
#
# 1 100.6722 16.1705 61.5114 0.0000 0.0000 0.0000
# 2 16.1705 8.9810 22.4298 0.0000 0.0000 0.0000
# 3 61.5114 22.4298 149.0666 0.0000 0.0000 0.0000
# 4 0.0000 0.0000 0.0000 -12.5901 0.0000 0.0000
# 5 0.0000 0.0000 0.0000 0.0000 18.5382 0.0000
# 6 0.0000 0.0000 0.0000 0.0000 0.0000 2.6203
#
#
#
# Elastic Compliance Matrix: (Units=1/GPa)
#
#
# Indices 1 2 3 4 5 6 
#
# 1 0.014979 -0.018477 -0.003401 0.000000 0.000000 0.000000
# 2 -0.018477 0.201171 -0.022646 0.000000 0.000000 0.000000
# 3 -0.003401 -0.022646 0.011519 0.000000 0.000000 0.000000
# 4 0.000000 0.000000 0.000000 -0.079427 0.000000 0.000000
# 5 0.000000 0.000000 0.000000 0.000000 0.053943 0.000000
# 6 0.000000 0.000000 0.000000 0.000000 0.000000 0.381638
#
#
# Mechanical properties :
#
#
# Convention : Reuss Voigt Hill
#
# Bulk Modulus (GPa) = 7.21379 50.99369 29.10374
# Shear Modulus (GPa) = 6.95336 12.28754 9.62045
#
# Velocity S-wave (km/s) = 1.90127 2.52742 2.23637
# Velocity P-wave (km/s) = 2.92745 5.91836 4.66888
#
# Compressibility (1/GPa) = 0.13862335
#
# Stress axis : x y z
#
# Youngs Moduli (GPa) = 66.76024 4.97089 86.81141
#
# Poissons Ratio (x) = 0.09184 0.29523
# Poissons Ratio (y) = 1.23350 1.96591
# Poissons Ratio (z) = 0.22704 0.11257
#
# Static dielectric constant tensor:
#      x y z
#    x 1.669530 0.000000 0.000000 
#    y 0.000000 1.648970 0.000000 
#    z 0.000000 0.000000 1.647310 
# 
# From -- ./inp_files/26224.got.cif
#   From: 2010.05.17/outbox.cif.g08.bks.cpg/sg51_14_cif.got.tgz:26224.got - 2010.06.03 11:52:47.
