data_PCOD9402861
_publ_section_title
;
Structure prediction by ZEFSAII (Michael W. Deem and Ramdas Pophale) SiO2 
 PCOD9402861
Probable space group: P M M A
;
_chemical_formula_sum "Si O2"
_cell_formula_units_Z 48
_cell_length_a 14.340071
_cell_length_b 7.599062
_cell_length_c 21.526260
_cell_angle_alpha 90.000000
_cell_angle_beta 90.000000
_cell_angle_gamma 90.000000
_cell_volume 2345.739986
_symmetry_space_group_name_H-M "P M M A"
_symmetry_group_IT_number 51
_symmetry_cell_setting 'orthorhombic'
loop_
_space_group_symop_operation_xyz
x,y,z
1/2-x,-y,z
1/2+x,-y,-z
-x,y,-z
-x,-y,-z
1/2+x,y,-z
1/2-x,y,z
x,-y,z
loop_
_atom_site_type_symbol
_atom_site_label
_atom_site_fract_x
_atom_site_fract_y
_atom_site_fract_z
Si Si1 0.355609 0.209153 0.777699
Si Si2 0.142181 0.291743 0.549675
Si Si3 0.644034 0.212743 0.590029
Si Si4 0.522142 0.201902 0.334003
Si Si5 0.452822 0.712197 0.907320
Si Si6 0.355693 0.714802 0.035431
O O1 0.250000 0.280796 0.778819
O O2 0.418954 0.283428 0.721951
O O3 0.406696 0.232542 0.843197
O O4 0.347389 0.000000 0.766304
O O5 0.250000 0.232554 0.552154
O O6 0.138834 0.500000 0.561305
O O7 0.109971 0.259705 0.479178
O O8 0.084362 0.202194 0.603800
O O9 0.750000 0.276195 0.596275
O O10 0.575071 0.282026 0.642866
O O11 0.644653 0.000000 0.593001
O O12 0.501954 0.000000 0.315804
O O13 0.453923 0.500000 0.908466
O O14 0.559767 0.770721 0.919245
O O15 0.390229 0.767803 0.966451
O O16 0.250000 0.774368 0.048304
O O17 0.354124 0.500000 0.036437
#
# Coordination Sequence:
#
# PCOD9402861 Si02
#       6
#     8   8   8   8   8   8
#     4  10  21  35  49  68  98 131 158 192 241 287
#     4  10  20  32  48  73 101 124 150 193 246 289
#     4   9  18  33  52  71  91 120 159 198 236 282
#     4  10  20  34  51  69  92 126 164 196 230 280
#     4   9  17  30  51  76  98 126 164 199 231 275
#     4   8  14  27  49  76 103 128 157 196 238 277
#
# _framework density 20.462626
#
# number of rings (size 3 to 8) (size 9 to 14) (size 15 to 20)
#    0.000    2.667    0.000    3.000    0.000    6.000 
#    0.000    2.500    0.000    2.500    0.000    0.000 
#    0.000    0.000    0.000    0.000    0.000    0.000 
#
# Total GULP energy -267821.898478 kJ/mol
# GULP energy per Si atom -5579.622885 kJ/mol
# Density = 2.041605 g / cm^3
# Si number density = 20.462626 Si / 1000 Ang^3
#
#
#
# Elastic Constant Matrix: (Units=GPa)
#
#
# Indices 1 2 3 4 5 6 
#
# 1 148.2987 -3.0984 75.0054 0.0000 0.0000 0.0000
# 2 -3.0984 43.9478 -7.4478 0.0000 0.0000 0.0000
# 3 75.0054 -7.4478 120.0011 0.0000 0.0000 0.0000
# 4 0.0000 0.0000 0.0000 22.8732 0.0000 0.0000
# 5 0.0000 0.0000 0.0000 0.0000 24.3960 0.0000
# 6 0.0000 0.0000 0.0000 0.0000 0.0000 5.5914
#
#
#
# Elastic Compliance Matrix: (Units=1/GPa)
#
#
# Indices 1 2 3 4 5 6 
#
# 1 0.009866 -0.000353 -0.006188 0.000000 0.000000 0.000000
# 2 -0.000353 0.023009 0.001649 0.000000 0.000000 0.000000
# 3 -0.006188 0.001649 0.012304 0.000000 0.000000 0.000000
# 4 0.000000 0.000000 0.000000 0.043719 0.000000 0.000000
# 5 0.000000 0.000000 0.000000 0.000000 0.040990 0.000000
# 6 0.000000 0.000000 0.000000 0.000000 0.000000 0.178846
#
#
# Mechanical properties :
#
#
# Convention : Reuss Voigt Hill
#
# Bulk Modulus (GPa) = 28.25458 49.01845 38.63652
# Shear Modulus (GPa) = 15.13700 27.09135 21.11417
#
# Velocity S-wave (km/s) = 2.72276 3.64255 3.21571
# Velocity P-wave (km/s) = 4.87057 6.45740 5.71929
#
# Compressibility (1/GPa) = 0.03539249
#
# Stress axis : x y z
#
# Youngs Moduli (GPa) = 101.36171 43.46165 81.27742
#
# Poissons Ratio (x) = 0.01535 0.50297
# Poissons Ratio (y) = 0.03580 -0.13401
# Poissons Ratio (z) = 0.62726 -0.07166
#
# Static dielectric constant tensor:
#      x y z
#    x 1.766720 0.000000 0.000000 
#    y 0.000000 1.775540 0.000000 
#    z 0.000000 0.000000 1.686800 
# 
# From -- ./inp_files/29442.got.cif
#   From: 2010.05.17/outbox.cif.g08.bks.cpg/sg51_15_cif.got.tgz:29442.got - 2010.06.03 11:52:47.
