data_PCOD9402521
_publ_section_title
;
Structure prediction by ZEFSAII (Michael W. Deem and Ramdas Pophale) SiO2 
 PCOD9402521
Probable space group: P M M A
;
_chemical_formula_sum "Si O2"
_cell_formula_units_Z 32
_cell_length_a 23.705076
_cell_length_b 9.287621
_cell_length_c 7.761542
_cell_angle_alpha 90.000000
_cell_angle_beta 90.000000
_cell_angle_gamma 90.000000
_cell_volume 1708.810283
_symmetry_space_group_name_H-M "P M M A"
_symmetry_group_IT_number 51
_symmetry_cell_setting 'orthorhombic'
loop_
_space_group_symop_operation_xyz
x,y,z
1/2-x,-y,z
1/2+x,-y,-z
-x,y,-z
-x,-y,-z
1/2+x,y,-z
1/2-x,y,z
x,-y,z
loop_
_atom_site_type_symbol
_atom_site_label
_atom_site_fract_x
_atom_site_fract_y
_atom_site_fract_z
Si Si1 0.996245 0.667037 0.706661
Si Si2 0.114746 0.171206 0.188998
Si Si3 0.877151 0.669872 0.157654
Si Si4 0.817111 0.668967 0.514886
O O1 0.980410 0.500000 0.741410
O O2 0.948621 0.769728 0.781776
O O3 0.000000 0.684178 0.500000
O O4 0.057700 0.691960 0.786830
O O5 0.151631 0.235607 0.344205
O O6 0.115906 0.000000 0.188646
O O7 0.135861 0.236044 0.008540
O O8 0.869954 0.500000 0.117952
O O9 0.839416 0.704293 0.323981
O O10 0.750000 0.684525 0.524956
O O11 0.831706 0.500000 0.544885
#
# Coordination Sequence:
#
# PCOD9402521 Si02
#       4
#     8   8   8   8
#     4  10  19  37  64  90 119 156 202 252 296 346
#     4  12  25  38  58  91 131 163 192 236 301 372
#     4  10  21  39  64  91 119 155 204 253 297 346
#     4  10  22  43  68  89 112 152 209 260 297 343
#
# _framework density 18.726479999999999
#
# number of rings (size 3 to 8) (size 9 to 14) (size 15 to 20)
#    0.000    1.500    2.500    3.000    0.000    7.000 
#    0.000    2.500    0.000    0.000    0.000    0.000 
#    0.000    0.000    0.000    0.000    0.000    0.000 
#
# Total GULP energy -178950.384911 kJ/mol
# GULP energy per Si atom -5592.199528 kJ/mol
# Density = 1.868386 g / cm^3
# Si number density = 18.726480 Si / 1000 Ang^3
#
#
#
# Elastic Constant Matrix: (Units=GPa)
#
#
# Indices 1 2 3 4 5 6 
#
# 1 30.8880 24.4409 -0.6798 0.0000 0.0000 0.0000
# 2 24.4409 90.1925 59.8942 0.0000 0.0000 0.0000
# 3 -0.6798 59.8942 84.3250 0.0000 0.0000 0.0000
# 4 0.0000 0.0000 0.0000 -24.9229 0.0000 0.0000
# 5 0.0000 0.0000 0.0000 0.0000 -6.2067 0.0000
# 6 0.0000 0.0000 0.0000 0.0000 0.0000 2.5665
#
#
#
# Elastic Compliance Matrix: (Units=1/GPa)
#
#
# Indices 1 2 3 4 5 6 
#
# 1 0.056035 -0.029309 0.021269 0.000000 0.000000 0.000000
# 2 -0.029309 0.036316 -0.026031 0.000000 0.000000 0.000000
# 3 0.021269 -0.026031 0.030519 0.000000 0.000000 0.000000
# 4 0.000000 0.000000 0.000000 -0.040124 0.000000 0.000000
# 5 0.000000 0.000000 0.000000 0.000000 -0.161117 0.000000
# 6 0.000000 0.000000 0.000000 0.000000 0.000000 0.389641
#
#
# Mechanical properties :
#
#
# Convention : Reuss Voigt Hill
#
# Bulk Modulus (GPa) = 18.27179 41.41287 29.84233
# Shear Modulus (GPa) = 12.57376 2.40406 7.48891
#
# Velocity S-wave (km/s) = 2.59403 1.13427 2.00194
# Velocity P-wave (km/s) = 4.33017 4.88652 4.61673
#
# Compressibility (1/GPa) = 0.05472917
#
# Stress axis : x y z
#
# Youngs Moduli (GPa) = 17.84613 27.53618 32.76610
#
# Poissons Ratio (x) = 0.80705 -0.69691
# Poissons Ratio (y) = 0.52305 0.85292
# Poissons Ratio (z) = -0.37957 0.71678
#
# Static dielectric constant tensor:
#      x y z
#    x 1.631150 0.000000 0.000000 
#    y 0.000000 1.617820 0.000000 
#    z 0.000000 0.000000 1.643060 
# 
# From -- ./inp_files/10284.got.cif
#   From: 2010.05.17/outbox.cif.g08.bks.cpg/sg51_6_cif.got.tgz:10284.got - 2010.06.03 11:52:47.
