data_PCOD9402009
_publ_section_title
;
Structure prediction by ZEFSAII (Michael W. Deem and Ramdas Pophale) SiO2 
 PCOD9402009
Probable space group: P M M A
;
_chemical_formula_sum "Si O2"
_cell_formula_units_Z 64
_cell_length_a 18.179357
_cell_length_b 7.544507
_cell_length_c 22.375220
_cell_angle_alpha 90.000000
_cell_angle_beta 90.000000
_cell_angle_gamma 90.000000
_cell_volume 3068.857326
_symmetry_space_group_name_H-M "P M M A"
_symmetry_group_IT_number 51
_symmetry_cell_setting 'orthorhombic'
loop_
_space_group_symop_operation_xyz
x,y,z
1/2-x,-y,z
1/2+x,-y,-z
-x,y,-z
-x,-y,-z
1/2+x,y,-z
1/2-x,y,z
x,-y,z
loop_
_atom_site_type_symbol
_atom_site_label
_atom_site_fract_x
_atom_site_fract_y
_atom_site_fract_z
Si Si1 0.981091 0.217560 0.933134
Si Si2 0.062578 0.784671 0.603535
Si Si3 0.169466 0.212828 0.125327
Si Si4 0.334456 0.216682 0.715349
Si Si5 0.060351 0.205466 0.816391
Si Si6 0.606337 0.296733 0.622617
Si Si7 0.908143 0.289044 0.753866
Si Si8 0.169154 0.794078 0.502150
O O1 0.899635 0.276335 0.913426
O O2 0.036791 0.279603 0.880938
O O3 0.981858 0.000000 0.931645
O O4 0.000000 0.272528 0.000000
O O5 0.114542 0.734508 0.659211
O O6 0.104070 0.722384 0.543654
O O7 0.980916 0.711644 0.610183
O O8 0.054612 0.000000 0.603021
O O9 0.250000 0.281401 0.109213
O O10 0.149930 0.253687 0.193984
O O11 0.170603 0.000000 0.119348
O O12 0.250000 0.273754 0.709507
O O13 0.374341 0.280741 0.775941
O O14 0.334347 0.000000 0.716376
O O15 0.985958 0.212535 0.776465
O O16 0.078990 0.000000 0.826774
O O17 0.631308 0.500000 0.623837
O O18 0.615619 0.220078 0.689113
O O19 0.647803 0.211879 0.567094
O O20 0.919286 0.500000 0.748390
O O21 0.250000 0.714715 0.512171
O O22 0.174067 0.000000 0.520045
#
# Coordination Sequence:
#
# PCOD9402009 Si02
#       8
#     8   8   8   8   8   8   8   8
#     4   8  14  26  46  72 102 135 168 202 243 291
#     4  10  19  34  56  76  97 128 166 208 252 298
#     4   9  18  32  51  75 102 134 173 212 251 297
#     4   9  16  27  48  77 102 124 158 207 255 294
#     4   9  16  29  50  73  99 133 170 205 244 296
#     4  11  23  36  52  75 102 132 166 206 255 308
#     4  10  20  33  50  72  99 130 165 208 255 299
#     4  10  22  38  54  74  99 129 167 208 251 301
#
# _framework density 20.854668
#
# number of rings (size 3 to 8) (size 9 to 14) (size 15 to 20)
#    0.000    2.500    1.250    2.250    0.000    6.000 
#    0.000    3.125    0.000   12.000    0.000    0.000 
#    0.000    0.000    0.000    0.000    0.000    0.000 
#
# Total GULP energy -357199.031616 kJ/mol
# GULP energy per Si atom -5581.234869 kJ/mol
# Density = 2.080720 g / cm^3
# Si number density = 20.854668 Si / 1000 Ang^3
#
#
#
# Elastic Constant Matrix: (Units=GPa)
#
#
# Indices 1 2 3 4 5 6 
#
# 1 52.0775 -7.3673 9.7443 0.0000 0.0000 0.0000
# 2 -7.3673 49.9587 -4.8336 0.0000 0.0000 0.0000
# 3 9.7443 -4.8336 114.7907 0.0000 0.0000 0.0000
# 4 0.0000 0.0000 0.0000 396.1601 0.0000 0.0000
# 5 0.0000 0.0000 0.0000 0.0000 8.6065 0.0000
# 6 0.0000 0.0000 0.0000 0.0000 0.0000 76.3695
#
#
#
# Elastic Compliance Matrix: (Units=1/GPa)
#
#
# Indices 1 2 3 4 5 6 
#
# 1 0.019890 0.002781 -0.001571 0.000000 0.000000 0.000000
# 2 0.002781 0.020487 0.000627 0.000000 0.000000 0.000000
# 3 -0.001571 0.000627 0.008871 0.000000 0.000000 0.000000
# 4 0.000000 0.000000 0.000000 0.002524 0.000000 0.000000
# 5 0.000000 0.000000 0.000000 0.000000 0.116191 0.000000
# 6 0.000000 0.000000 0.000000 0.000000 0.000000 0.013094
#
#
# Mechanical properties :
#
#
# Convention : Reuss Voigt Hill
#
# Bulk Modulus (GPa) = 18.89613 23.54597 21.22105
# Shear Modulus (GPa) = 25.63768 110.84610 68.24189
#
# Velocity S-wave (km/s) = 3.51001 7.29843 5.72657
# Velocity P-wave (km/s) = 5.05049 9.07402 7.34320
#
# Compressibility (1/GPa) = 0.05292088
#
# Stress axis : x y z
#
# Youngs Moduli (GPa) = 50.27757 48.81081 112.72332
#
# Poissons Ratio (x) = -0.13575 0.17712
# Poissons Ratio (y) = -0.13982 -0.07063
# Poissons Ratio (z) = 0.07900 -0.03059
#
# Static dielectric constant tensor:
#      x y z
#    x 1.728010 0.000000 0.000000 
#    y 0.000000 1.790920 0.000000 
#    z 0.000000 0.000000 1.739180 
# 
# From -- ./inp_files/33832.got.cif
#   From: 2010.05.17/outbox.cif.g08.bks.cpg/sg51_17_cif.got.tgz:33832.got - 2010.06.03 11:52:47.
