data_PCOD9402013
_publ_section_title
;
Structure prediction by ZEFSAII (Michael W. Deem and Ramdas Pophale) SiO2 
 PCOD9402013
Probable space group: P M M A
;
_chemical_formula_sum "Si O2"
_cell_formula_units_Z 48
_cell_length_a 28.981801
_cell_length_b 7.511613
_cell_length_c 10.140788
_cell_angle_alpha 90.000000
_cell_angle_beta 90.000000
_cell_angle_gamma 90.000000
_cell_volume 2207.650289
_symmetry_space_group_name_H-M "P M M A"
_symmetry_group_IT_number 51
_symmetry_cell_setting 'orthorhombic'
loop_
_space_group_symop_operation_xyz
x,y,z
1/2-x,-y,z
1/2+x,-y,-z
-x,y,-z
-x,-y,-z
1/2+x,y,-z
1/2-x,y,z
x,-y,z
loop_
_atom_site_type_symbol
_atom_site_label
_atom_site_fract_x
_atom_site_fract_y
_atom_site_fract_z
Si Si1 0.600285 0.717881 0.544743
Si Si2 0.301564 0.215467 0.092522
Si Si3 0.450909 0.715544 0.187018
Si Si4 0.390525 0.794784 0.938161
Si Si5 0.547346 0.296901 0.294652
Si Si6 0.699377 0.290410 0.597791
O O1 0.600993 0.500000 0.538187
O O2 0.580945 0.763059 0.688448
O O3 0.566390 0.782831 0.429981
O O4 0.652962 0.781765 0.531889
O O5 0.250000 0.269097 0.049634
O O6 0.307213 0.274490 0.244055
O O7 0.303460 0.000000 0.094010
O O8 0.343323 0.279037 0.001109
O O9 0.451611 0.500000 0.172057
O O10 0.502183 0.779969 0.223892
O O11 0.428574 0.786234 0.053914
O O12 0.411398 0.702731 0.810377
O O13 0.382620 0.000000 0.902140
O O14 0.533744 0.500000 0.327520
O O15 0.750000 0.213506 0.566431
O O16 0.701170 0.500000 0.566806
#
# Coordination Sequence:
#
# PCOD9402013 Si02
#       6
#     8   8   8   8   8   8
#     4   9  17  32  53  77 103 131 167 209 250 298
#     4   9  18  33  52  73  98 130 168 207 248 299
#     4  10  19  34  56  77  98 133 179 215 247 297
#     4  11  22  35  52  76 105 135 168 212 260 300
#     4  10  21  35  52  74 104 141 174 206 249 303
#     4   9  16  28  51  80 103 124 158 209 260 299
#
# _framework density 21.742574000000001
#
# number of rings (size 3 to 8) (size 9 to 14) (size 15 to 20)
#    0.000    2.333    1.667    1.500    0.000    5.333 
#    0.000    2.500    0.000    3.000    0.000    0.000 
#    0.000    0.000    0.000    0.000    0.000    0.000 
#
# Total GULP energy -268000.419559 kJ/mol
# GULP energy per Si atom -5583.342074 kJ/mol
# Density = 2.169309 g / cm^3
# Si number density = 21.742574 Si / 1000 Ang^3
#
#
#
# Elastic Constant Matrix: (Units=GPa)
#
#
# Indices 1 2 3 4 5 6 
#
# 1 94.7917 -2.4718 -17.9933 0.0000 0.0000 0.0000
# 2 -2.4718 59.5031 -8.3789 0.0000 0.0000 0.0000
# 3 -17.9933 -8.3789 35.4015 0.0000 0.0000 0.0000
# 4 0.0000 0.0000 0.0000 30.1182 0.0000 0.0000
# 5 0.0000 0.0000 0.0000 0.0000 1.0149 0.0000
# 6 0.0000 0.0000 0.0000 0.0000 0.0000 11.0467
#
#
#
# Elastic Compliance Matrix: (Units=1/GPa)
#
#
# Indices 1 2 3 4 5 6 
#
# 1 0.011784 0.001379 0.006316 0.000000 0.000000 0.000000
# 2 0.001379 0.017547 0.004854 0.000000 0.000000 0.000000
# 3 0.006316 0.004854 0.032606 0.000000 0.000000 0.000000
# 4 0.000000 0.000000 0.000000 0.033203 0.000000 0.000000
# 5 0.000000 0.000000 0.000000 0.000000 0.985361 0.000000
# 6 0.000000 0.000000 0.000000 0.000000 0.000000 0.090525
#
#
# Mechanical properties :
#
#
# Convention : Reuss Voigt Hill
#
# Bulk Modulus (GPa) = 11.48972 14.66760 13.07866
# Shear Modulus (GPa) = 4.25554 23.00531 13.63042
#
# Velocity S-wave (km/s) = 1.40053 3.25634 2.50651
# Velocity P-wave (km/s) = 2.81269 4.57154 3.79541
#
# Compressibility (1/GPa) = 0.08703433
#
# Stress axis : x y z
#
# Youngs Moduli (GPa) = 84.85889 56.99104 30.66890
#
# Poissons Ratio (x) = -0.07858 -0.19370
# Poissons Ratio (y) = -0.11701 -0.14886
# Poissons Ratio (z) = -0.53596 -0.27662
#
# Static dielectric constant tensor:
#      x y z
#    x 1.832420 0.000000 0.000000 
#    y 0.000000 1.877700 0.000000 
#    z 0.000000 0.000000 1.725470 
# 
# From -- ./inp_files/12773.got.cif
#   From: 2010.05.17/outbox.cif.g08.bks.cpg/sg51_7_cif.got.tgz:12773.got - 2010.06.03 11:52:47.
