data_PCOD9402812
_publ_section_title
;
Structure prediction by ZEFSAII (Michael W. Deem and Ramdas Pophale) SiO2 
 PCOD9402812
Probable space group: P M M A
;
_chemical_formula_sum "Si O2"
_cell_formula_units_Z 48
_cell_length_a 27.292940
_cell_length_b 8.883316
_cell_length_c 11.795720
_cell_angle_alpha 90.000000
_cell_angle_beta 90.000000
_cell_angle_gamma 90.000000
_cell_volume 2859.893671
_symmetry_space_group_name_H-M "P M M A"
_symmetry_group_IT_number 51
_symmetry_cell_setting 'orthorhombic'
loop_
_space_group_symop_operation_xyz
x,y,z
1/2-x,-y,z
1/2+x,-y,-z
-x,y,-z
-x,-y,-z
1/2+x,y,-z
1/2-x,y,z
x,-y,z
loop_
_atom_site_type_symbol
_atom_site_label
_atom_site_fract_x
_atom_site_fract_y
_atom_site_fract_z
Si Si1 0.124967 0.173864 0.802227
Si Si2 0.943789 0.318093 0.016941
Si Si3 0.806903 0.665675 0.040865
Si Si4 0.193899 0.319708 0.617848
Si Si5 0.366681 0.672835 0.176767
Si Si6 0.694038 0.179114 0.630961
O O1 0.079443 0.251291 0.867720
O O2 0.150343 0.252021 0.694115
O O3 0.114899 0.000000 0.779623
O O4 0.167141 0.199229 0.896042
O O5 0.941218 0.500000 0.023347
O O6 0.911004 0.274885 0.906196
O O7 0.000000 0.273225 0.000000
O O8 0.750000 0.669666 0.058914
O O9 0.825289 0.500000 0.083339
O O10 0.821088 0.670770 0.910160
O O11 0.250000 0.277155 0.655871
O O12 0.191457 0.500000 0.621209
O O13 0.188793 0.260578 0.489861
O O14 0.377178 0.500000 0.211135
O O15 0.348016 0.767198 0.282917
O O16 0.750000 0.213391 0.672056
O O17 0.691063 0.000000 0.615136
#
# Coordination Sequence:
#
# PCOD9402812 Si02
#       6
#     8   8   8   8   8   8
#     4  11  21  31  47  73 103 130 159 201 253 303
#     4   9  19  37  58  76  96 127 168 211 253 299
#     4   9  17  29  45  66  95 131 168 202 236 284
#     4  10  20  34  52  72  98 136 177 209 238 282
#     4   9  17  30  49  72  96 125 163 203 244 291
#     4  10  20  32  47  71 104 138 169 201 240 288
#
# _framework density 16.783839
#
# number of rings (size 3 to 8) (size 9 to 14) (size 15 to 20)
#    0.000    2.333    0.000    4.500    0.000    8.000 
#    0.000    0.000    0.000    1.000    0.000    7.000 
#    0.000    0.000    0.000    0.000    0.000    0.000 
#
# Total GULP energy -267283.151860 kJ/mol
# GULP energy per Si atom -5568.398997 kJ/mol
# Density = 1.674564 g / cm^3
# Si number density = 16.783839 Si / 1000 Ang^3
#
#
#
# Elastic Constant Matrix: (Units=GPa)
#
#
# Indices 1 2 3 4 5 6 
#
# 1 80.8722 28.1672 48.2295 0.0000 0.0000 0.0000
# 2 28.1672 59.5240 38.3297 0.0000 0.0000 0.0000
# 3 48.2295 38.3297 86.3075 0.0000 0.0000 0.0000
# 4 0.0000 0.0000 0.0000 73.7354 0.0000 0.0000
# 5 0.0000 0.0000 0.0000 0.0000 20.0761 0.0000
# 6 0.0000 0.0000 0.0000 0.0000 0.0000 15.8916
#
#
#
# Elastic Compliance Matrix: (Units=1/GPa)
#
#
# Indices 1 2 3 4 5 6 
#
# 1 0.018922 -0.003004 -0.009239 0.000000 0.000000 0.000000
# 2 -0.003004 0.024006 -0.008982 0.000000 0.000000 0.000000
# 3 -0.009239 -0.008982 0.020739 0.000000 0.000000 0.000000
# 4 0.000000 0.000000 0.000000 0.013562 0.000000 0.000000
# 5 0.000000 0.000000 0.000000 0.000000 0.049810 0.000000
# 6 0.000000 0.000000 0.000000 0.000000 0.000000 0.062926
#
#
# Mechanical properties :
#
#
# Convention : Reuss Voigt Hill
#
# Bulk Modulus (GPa) = 47.13854 50.68405 48.91130
# Shear Modulus (GPa) = 20.87792 29.40579 25.14185
#
# Velocity S-wave (km/s) = 3.53077 4.19027 3.87457
# Velocity P-wave (km/s) = 6.69092 7.32631 7.01581
#
# Compressibility (1/GPa) = 0.02121406
#
# Stress axis : x y z
#
# Youngs Moduli (GPa) = 52.84958 41.65707 48.21927
#
# Poissons Ratio (x) = 0.12515 0.44552
# Poissons Ratio (y) = 0.15877 0.43311
# Poissons Ratio (z) = 0.48830 0.37417
#
# Static dielectric constant tensor:
#      x y z
#    x 1.579060 0.000000 0.000000 
#    y 0.000000 1.729310 0.000000 
#    z 0.000000 0.000000 1.569550 
# 
# From -- ./inp_files/18966.got.cif
#   From: 2010.05.17/outbox.cif.g08.bks.cpg/sg51_10_cif.got.tgz:18966.got - 2010.06.03 11:52:47.
