data_PCOD9402008
_publ_section_title
;
Structure prediction by ZEFSAII (Michael W. Deem and Ramdas Pophale) SiO2 
 PCOD9402008
Probable space group: P M M A
;
_chemical_formula_sum "Si O2"
_cell_formula_units_Z 64
_cell_length_a 21.951143
_cell_length_b 7.491241
_cell_length_c 17.334586
_cell_angle_alpha 90.000000
_cell_angle_beta 90.000000
_cell_angle_gamma 90.000000
_cell_volume 2850.521899
_symmetry_space_group_name_H-M "P M M A"
_symmetry_group_IT_number 51
_symmetry_cell_setting 'orthorhombic'
loop_
_space_group_symop_operation_xyz
x,y,z
1/2-x,-y,z
1/2+x,-y,-z
-x,y,-z
-x,-y,-z
1/2+x,y,-z
1/2-x,y,z
x,-y,z
loop_
_atom_site_type_symbol
_atom_site_label
_atom_site_fract_x
_atom_site_fract_y
_atom_site_fract_z
Si Si1 0.400952 0.701889 0.341870
Si Si2 0.320296 0.281794 0.199918
Si Si3 0.816591 0.214226 0.189120
Si Si4 0.520102 0.796143 0.417256
Si Si5 0.315106 0.215312 0.474947
Si Si6 0.936966 0.712869 0.090106
Si Si7 0.428237 0.282285 0.087141
Si Si8 0.647362 0.782194 0.357327
O O1 0.415859 0.500000 0.318093
O O2 0.353110 0.774194 0.279700
O O3 0.464224 0.796866 0.358278
O O4 0.367716 0.704089 0.424061
O O5 0.250000 0.221606 0.192484
O O6 0.317932 0.500000 0.199668
O O7 0.368684 0.224631 0.134400
O O8 0.750000 0.277793 0.159812
O O9 0.877475 0.251941 0.140792
O O10 0.826564 0.281471 0.276473
O O11 0.813188 0.000000 0.191759
O O12 0.500000 0.715526 0.500000
O O13 0.578696 0.719432 0.374645
O O14 0.538093 0.000000 0.436676
O O15 0.250000 0.268220 0.441706
O O16 0.318251 0.265527 0.564291
O O17 0.320765 0.000000 0.470905
O O18 0.942566 0.500000 0.085338
O O19 0.004437 0.774943 0.117593
O O20 0.926373 0.775443 0.002192
O O21 0.426744 0.500000 0.089340
O O22 0.648736 0.000000 0.352328
#
# Coordination Sequence:
#
# PCOD9402008 Si02
#       8
#     8   8   8   8   8   8   8   8
#     4  11  22  33  49  76 109 137 169 215 271 323
#     4   9  18  32  50  74 106 143 178 211 256 318
#     4  10  21  36  54  79 111 144 177 215 265 323
#     4  10  19  35  56  75  98 131 178 227 264 308
#     4  10  19  34  56  74  94 135 185 223 257 303
#     4   9  18  34  58  84 109 136 174 221 265 308
#     4   8  16  33  55  80 108 140 176 216 259 311
#     4   9  18  34  54  75 100 135 178 220 260 310
#
# _framework density 22.452029
#
# number of rings (size 3 to 8) (size 9 to 14) (size 15 to 20)
#    0.000    2.500    1.250    1.875    1.750    3.250 
#    0.000    3.125    0.000    3.000    0.000    1.750 
#    0.000    0.000    0.000    0.000    0.000    0.000 
#
# Total GULP energy -357060.223436 kJ/mol
# GULP energy per Si atom -5579.065991 kJ/mol
# Density = 2.240093 g / cm^3
# Si number density = 22.452029 Si / 1000 Ang^3
#
#
#
# Elastic Constant Matrix: (Units=GPa)
#
#
# Indices 1 2 3 4 5 6 
#
# 1 193.5642 2.0268 60.1900 0.0000 0.0000 0.0000
# 2 2.0268 56.0379 -2.1332 0.0000 0.0000 0.0000
# 3 60.1900 -2.1332 84.2348 0.0000 0.0000 0.0000
# 4 0.0000 0.0000 0.0000 3.5153 0.0000 0.0000
# 5 0.0000 0.0000 0.0000 0.0000 31.1702 0.0000
# 6 0.0000 0.0000 0.0000 0.0000 0.0000 -33.4807
#
#
#
# Elastic Compliance Matrix: (Units=1/GPa)
#
#
# Indices 1 2 3 4 5 6 
#
# 1 0.006652 -0.000422 -0.004764 0.000000 0.000000 0.000000
# 2 -0.000422 0.017889 0.000755 0.000000 0.000000 0.000000
# 3 -0.004764 0.000755 0.015295 0.000000 0.000000 0.000000
# 4 0.000000 0.000000 0.000000 0.284470 0.000000 0.000000
# 5 0.000000 0.000000 0.000000 0.000000 0.032082 0.000000
# 6 0.000000 0.000000 0.000000 0.000000 0.000000 -0.029868
#
#
# Mechanical properties :
#
#
# Convention : Reuss Voigt Hill
#
# Bulk Modulus (GPa) = 32.28600 50.44491 41.36546
# Shear Modulus (GPa) = 14.46313 18.49116 16.47715
#
# Velocity S-wave (km/s) = 2.54082 2.87293 2.71197
# Velocity P-wave (km/s) = 4.79780 5.78979 5.31698
#
# Compressibility (1/GPa) = 0.03097318
#
# Stress axis : x y z
#
# Youngs Moduli (GPa) = 150.33017 55.90014 65.38198
#
# Poissons Ratio (x) = 0.02359 0.31147
# Poissons Ratio (y) = 0.06343 -0.04933
# Poissons Ratio (z) = 0.71616 -0.04218
#
# Static dielectric constant tensor:
#      x y z
#    x 1.834620 0.000000 0.000000 
#    y 0.000000 1.952630 0.000000 
#    z 0.000000 0.000000 1.809380 
# 
# From -- ./inp_files/30832.got.cif
#   From: 2010.05.17/outbox.cif.g08.bks.cpg/sg51_16_cif.got.tgz:30832.got - 2010.06.03 11:52:47.
