data_PCOD9402862
_publ_section_title
;
Structure prediction by ZEFSAII (Michael W. Deem and Ramdas Pophale) SiO2 
 PCOD9402862
Probable space group: P M M A
;
_chemical_formula_sum "Si O2"
_cell_formula_units_Z 64
_cell_length_a 17.291489
_cell_length_b 9.332404
_cell_length_c 23.532335
_cell_angle_alpha 90.000000
_cell_angle_beta 90.000000
_cell_angle_gamma 90.000000
_cell_volume 3797.440223
_symmetry_space_group_name_H-M "P M M A"
_symmetry_group_IT_number 51
_symmetry_cell_setting 'orthorhombic'
loop_
_space_group_symop_operation_xyz
x,y,z
1/2-x,-y,z
1/2+x,-y,-z
-x,y,-z
-x,-y,-z
1/2+x,y,-z
1/2-x,y,z
x,-y,z
loop_
_atom_site_type_symbol
_atom_site_label
_atom_site_fract_x
_atom_site_fract_y
_atom_site_fract_z
Si Si1 0.666663 0.170697 0.201570
Si Si2 0.408849 0.165497 0.018841
Si Si3 0.627835 0.336452 0.089120
Si Si4 0.960482 0.172319 0.633175
Si Si5 0.552300 0.664169 0.872911
Si Si6 0.504397 0.171866 0.762069
Si Si7 0.659492 0.330836 0.552654
Si Si8 0.576287 0.163134 0.459584
O O1 0.750000 0.201450 0.229655
O O2 0.663999 0.252769 0.141837
O O3 0.587475 0.207274 0.234140
O O4 0.663198 0.000000 0.190941
O O5 0.403331 0.245996 0.078980
O O6 0.385178 0.000000 0.022572
O O7 0.500000 0.165892 0.000000
O O8 0.364671 0.250727 0.969459
O O9 0.654697 0.500000 0.084539
O O10 0.536302 0.340856 0.104374
O O11 0.892432 0.252097 0.599894
O O12 0.964840 0.206641 0.699524
O O13 0.041276 0.207459 0.601069
O O14 0.950808 0.000000 0.626673
O O15 0.579338 0.500000 0.867988
O O16 0.547081 0.744348 0.812607
O O17 0.511874 0.000000 0.770977
O O18 0.750000 0.307392 0.562915
O O19 0.643338 0.500000 0.553460
O O20 0.635216 0.265611 0.491667
O O21 0.500000 0.161089 0.500000
O O22 0.605958 0.000000 0.456631
#
# Coordination Sequence:
#
# PCOD9402862 Si02
#       8
#     8   8   8   8   8   8   8   8
#     4   9  17  29  44  61  84 117 155 194 236 281
#     4   9  15  23  37  57  81 108 137 173 220 270
#     4   9  16  25  38  57  81 108 140 182 229 274
#     4   9  18  32  50  72  97 126 161 198 235 278
#     4   9  16  25  38  59  86 114 145 181 223 270
#     4   9  17  30  46  65  91 122 158 197 233 274
#     4  10  20  32  48  73 101 126 155 192 234 281
#     4   8  15  29  48  70  95 123 155 190 230 275
#
# _framework density 16.853458
#
# number of rings (size 3 to 8) (size 9 to 14) (size 15 to 20)
#    0.000    3.000    0.000    2.250    0.000    8.500 
#    0.000    0.625    0.000    2.250    0.000    0.875 
#    0.000    3.000    0.000    0.000    0.000    0.000 
#
# Total GULP energy -356411.482534 kJ/mol
# GULP energy per Si atom -5568.929415 kJ/mol
# Density = 1.681510 g / cm^3
# Si number density = 16.853458 Si / 1000 Ang^3
#
#
#
# Elastic Constant Matrix: (Units=GPa)
#
#
# Indices 1 2 3 4 5 6 
#
# 1 41.7232 35.0512 26.2150 0.0000 0.0000 0.0000
# 2 35.0512 79.5412 63.4844 0.0000 0.0000 0.0000
# 3 26.2150 63.4844 124.9842 0.0000 0.0000 0.0000
# 4 0.0000 0.0000 0.0000 11.4077 0.0000 0.0000
# 5 0.0000 0.0000 0.0000 0.0000 8.9787 0.0000
# 6 0.0000 0.0000 0.0000 0.0000 0.0000 16.3891
#
#
#
# Elastic Compliance Matrix: (Units=1/GPa)
#
#
# Indices 1 2 3 4 5 6 
#
# 1 0.038116 -0.017517 0.000903 0.000000 0.000000 0.000000
# 2 -0.017517 0.029194 -0.011155 0.000000 0.000000 0.000000
# 3 0.000903 -0.011155 0.013478 0.000000 0.000000 0.000000
# 4 0.000000 0.000000 0.000000 0.087660 0.000000 0.000000
# 5 0.000000 0.000000 0.000000 0.000000 0.111374 0.000000
# 6 0.000000 0.000000 0.000000 0.000000 0.000000 0.061016
#
#
# Mechanical properties :
#
#
# Convention : Reuss Voigt Hill
#
# Bulk Modulus (GPa) = 39.60396 55.08331 47.34363
# Shear Modulus (GPa) = 12.35198 15.45497 13.90347
#
# Velocity S-wave (km/s) = 2.71016 3.03152 2.87533
# Velocity P-wave (km/s) = 5.77437 6.70881 6.25905
#
# Compressibility (1/GPa) = 0.02525000
#
# Stress axis : x y z
#
# Youngs Moduli (GPa) = 26.23560 34.25325 74.19737
#
# Poissons Ratio (x) = 0.60002 -0.06700
# Poissons Ratio (y) = 0.45957 0.82765
# Poissons Ratio (z) = -0.02369 0.38209
#
# Static dielectric constant tensor:
#      x y z
#    x 1.579580 0.000000 0.000000 
#    y 0.000000 1.566950 0.000000 
#    z 0.000000 0.000000 1.557110 
# 
# From -- ./inp_files/35902.got.cif
#   From: 2010.05.17/outbox.cif.g08.bks.cpg/sg51_18_cif.got.tgz:35902.got - 2010.06.03 11:52:47.
