data_PCOD9402475
_publ_section_title
;
Structure prediction by ZEFSAII (Michael W. Deem and Ramdas Pophale) SiO2 
 PCOD9402475
Probable space group: P M M A
;
_chemical_formula_sum "Si O2"
_cell_formula_units_Z 48
_cell_length_a 19.476380
_cell_length_b 8.626101
_cell_length_c 15.441961
_cell_angle_alpha 90.000000
_cell_angle_beta 90.000000
_cell_angle_gamma 90.000000
_cell_volume 2594.330070
_symmetry_space_group_name_H-M "P M M A"
_symmetry_group_IT_number 51
_symmetry_cell_setting 'orthorhombic'
loop_
_space_group_symop_operation_xyz
x,y,z
1/2-x,-y,z
1/2+x,-y,-z
-x,y,-z
-x,-y,-z
1/2+x,y,-z
1/2-x,y,z
x,-y,z
loop_
_atom_site_type_symbol
_atom_site_label
_atom_site_fract_x
_atom_site_fract_y
_atom_site_fract_z
Si Si1 0.574426 0.313728 0.217005
Si Si2 0.828615 0.688956 0.375160
Si Si3 0.329876 0.314196 0.127342
Si Si4 0.076486 0.313172 0.465120
Si Si5 0.922023 0.185728 0.026528
Si Si6 0.426848 0.184119 0.274759
O O1 0.575345 0.500000 0.211927
O O2 0.628276 0.263375 0.290792
O O3 0.590861 0.244133 0.123453
O O4 0.498780 0.260127 0.245646
O O5 0.750000 0.741815 0.373640
O O6 0.828341 0.500000 0.375033
O O7 0.869162 0.735506 0.461772
O O8 0.250000 0.269390 0.124523
O O9 0.334276 0.500000 0.132597
O O10 0.368271 0.242399 0.209823
O O11 0.369785 0.257673 0.042144
O O12 0.080526 0.500000 0.454241
O O13 0.087729 0.234668 0.372926
O O14 0.000000 0.278206 0.500000
O O15 0.917419 0.000000 0.023005
O O16 0.000000 0.229873 0.000000
O O17 0.433424 0.000000 0.268025
#
# Coordination Sequence:
#
# PCOD9402475 Si02
#       6
#     8   8   8   8   8   8
#     4  11  21  37  63  91 120 159 208 255 297 358
#     4   9  19  36  59  88 120 153 196 253 307 354
#     4  11  25  44  66  92 121 159 208 257 304 359
#     4  10  19  36  61  89 117 155 206 254 303 360
#     4  11  23  39  62  94 126 160 198 246 310 371
#     4  12  24  38  60  91 125 161 202 250 310 371
#
# _framework density 18.501887
#
# number of rings (size 3 to 8) (size 9 to 14) (size 15 to 20)
#    0.000    1.333    3.333    3.000    0.000    3.667 
#    0.000    3.333    0.000    3.500    0.000    0.000 
#    0.000    0.000    0.000    0.000    0.000    0.000 
#
# Total GULP energy -268343.821569 kJ/mol
# GULP energy per Si atom -5590.496283 kJ/mol
# Density = 1.845978 g / cm^3
# Si number density = 18.501887 Si / 1000 Ang^3
#
#
#
# Elastic Constant Matrix: (Units=GPa)
#
#
# Indices 1 2 3 4 5 6 
#
# 1 119.1936 1.5915 43.0752 0.0000 0.0000 0.0000
# 2 1.5915 10.3020 -3.2440 0.0000 0.0000 0.0000
# 3 43.0752 -3.2440 133.5096 0.0000 0.0000 0.0000
# 4 0.0000 0.0000 0.0000 -86.6548 0.0000 0.0000
# 5 0.0000 0.0000 0.0000 0.0000 34.0893 0.0000
# 6 0.0000 0.0000 0.0000 0.0000 0.0000 -4.2754
#
#
#
# Elastic Compliance Matrix: (Units=1/GPa)
#
#
# Indices 1 2 3 4 5 6 
#
# 1 0.009559 -0.002467 -0.003144 0.000000 0.000000 0.000000
# 2 -0.002467 0.098454 0.003188 0.000000 0.000000 0.000000
# 3 -0.003144 0.003188 0.008582 0.000000 0.000000 0.000000
# 4 0.000000 0.000000 0.000000 -0.011540 0.000000 0.000000
# 5 0.000000 0.000000 0.000000 0.000000 0.029335 0.000000
# 6 0.000000 0.000000 0.000000 0.000000 0.000000 -0.233896
#
#
# Mechanical properties :
#
#
# Convention : Reuss Voigt Hill
#
# Bulk Modulus (GPa) = 8.94860 38.42785 23.68823
# Shear Modulus (GPa) = -87.08986 3.40398 -41.84294
#
# Velocity S-wave (km/s) = -6.86826 1.35786 -4.76073
# Velocity P-wave (km/s) = 7.61907 4.82423 4.16996
#
# Compressibility (1/GPa) = 0.11174927
#
# Stress axis : x y z
#
# Youngs Moduli (GPa) = 104.61516 10.15706 116.52394
#
# Poissons Ratio (x) = 0.02505 0.36635
# Poissons Ratio (y) = 0.25806 -0.37149
# Poissons Ratio (z) = 0.32891 -0.03238
#
# Static dielectric constant tensor:
#      x y z
#    x 1.615180 0.000000 0.000000 
#    y 0.000000 1.620950 0.000000 
#    z 0.000000 0.000000 1.608070 
# 
# From -- ./inp_files/24826.got.cif
#   From: 2010.05.17/outbox.cif.g08.bks.cpg/sg51_13_cif.got.tgz:24826.got - 2010.06.03 11:52:47.
