data_PCOD9402443
_publ_section_title
;
Structure prediction by ZEFSAII (Michael W. Deem and Ramdas Pophale) SiO2 
 PCOD9402443
Probable space group: P M M A
;
_chemical_formula_sum "Si O2"
_cell_formula_units_Z 64
_cell_length_a 20.117137
_cell_length_b 7.776029
_cell_length_c 19.480805
_cell_angle_alpha 90.000000
_cell_angle_beta 90.000000
_cell_angle_gamma 90.000000
_cell_volume 3047.410392
_symmetry_space_group_name_H-M "P M M A"
_symmetry_group_IT_number 51
_symmetry_cell_setting 'orthorhombic'
loop_
_space_group_symop_operation_xyz
x,y,z
1/2-x,-y,z
1/2+x,-y,-z
-x,y,-z
-x,-y,-z
1/2+x,y,-z
1/2-x,y,z
x,-y,z
loop_
_atom_site_type_symbol
_atom_site_label
_atom_site_fract_x
_atom_site_fract_y
_atom_site_fract_z
Si Si1 0.175744 0.792580 0.464422
Si Si2 0.946707 0.202939 0.141839
Si Si3 0.473501 0.196777 0.707115
Si Si4 0.677790 0.706475 0.824888
Si Si5 0.075327 0.804115 0.067890
Si Si6 0.326324 0.701512 0.947307
Si Si7 0.944108 0.789300 0.444343
Si Si8 0.119795 0.701960 0.315975
O O1 0.250000 0.725605 0.471998
O O2 0.125686 0.736222 0.523441
O O3 0.146717 0.743853 0.390606
O O4 0.177383 0.000000 0.466800
O O5 0.954374 0.275428 0.218981
O O6 0.872804 0.221679 0.112389
O O7 0.002807 0.271296 0.087845
O O8 0.962983 0.000000 0.146378
O O9 0.452180 0.273960 0.633592
O O10 0.552995 0.197724 0.701358
O O11 0.448115 0.000000 0.708062
O O12 0.750000 0.761675 0.851307
O O13 0.672008 0.500000 0.836108
O O14 0.616784 0.796236 0.861712
O O15 0.672306 0.737389 0.743896
O O16 0.066640 0.000000 0.043511
O O17 0.127003 0.721705 0.014477
O O18 0.250000 0.768581 0.954390
O O19 0.320850 0.500000 0.933651
O O20 0.000000 0.735413 0.500000
O O21 0.948383 0.000000 0.441926
O O22 0.103322 0.500000 0.312504
#
# Coordination Sequence:
#
# PCOD9402443 Si02
#       8
#     8   8   8   8   8   8   8   8
#     4  10  20  34  53  78 107 143 188 234 281 337
#     4  10  22  39  61  89 119 148 187 240 290 337
#     4  10  19  36  59  84 114 147 188 236 285 336
#     4  10  21  35  50  74 113 156 192 226 272 335
#     4  11  22  37  60  90 119 146 184 234 284 337
#     4  11  25  43  62  85 115 153 195 235 281 341
#     4   9  16  30  56  81 107 143 182 227 277 325
#     4  11  21  33  52  78 113 151 188 230 279 335
#
# _framework density 21.001436999999999
#
# number of rings (size 3 to 8) (size 9 to 14) (size 15 to 20)
#    0.000    1.750    2.500    2.250    0.000    7.000 
#    0.000    1.875    0.000    2.250    0.000    0.000 
#    0.000    0.000    0.000    0.000    0.000    0.000 
#
# Total GULP energy -357180.941543 kJ/mol
# GULP energy per Si atom -5580.952212 kJ/mol
# Density = 2.095364 g / cm^3
# Si number density = 21.001437 Si / 1000 Ang^3
#
#
#
# Elastic Constant Matrix: (Units=GPa)
#
#
# Indices 1 2 3 4 5 6 
#
# 1 129.2137 7.0847 74.6953 0.0000 0.0000 0.0000
# 2 7.0847 27.8258 1.9665 0.0000 0.0000 0.0000
# 3 74.6953 1.9665 130.6316 0.0000 0.0000 0.0000
# 4 0.0000 0.0000 0.0000 17.7453 0.0000 0.0000
# 5 0.0000 0.0000 0.0000 0.0000 27.9550 0.0000
# 6 0.0000 0.0000 0.0000 0.0000 0.0000 22.4256
#
#
#
# Elastic Compliance Matrix: (Units=1/GPa)
#
#
# Indices 1 2 3 4 5 6 
#
# 1 0.011734 -0.002516 -0.006671 0.000000 0.000000 0.000000
# 2 -0.002516 0.036516 0.000889 0.000000 0.000000 0.000000
# 3 -0.006671 0.000889 0.011456 0.000000 0.000000 0.000000
# 4 0.000000 0.000000 0.000000 0.056353 0.000000 0.000000
# 5 0.000000 0.000000 0.000000 0.000000 0.035772 0.000000
# 6 0.000000 0.000000 0.000000 0.000000 0.000000 0.044592
#
#
# Mechanical properties :
#
#
# Convention : Reuss Voigt Hill
#
# Bulk Modulus (GPa) = 23.19711 50.57378 36.88544
# Shear Modulus (GPa) = 21.98875 27.22016 24.60446
#
# Velocity S-wave (km/s) = 3.23927 3.60406 3.42652
# Velocity P-wave (km/s) = 5.00599 6.43835 5.76681
#
# Compressibility (1/GPa) = 0.04310883
#
# Stress axis : x y z
#
# Youngs Moduli (GPa) = 85.22483 27.38549 87.28687
#
# Poissons Ratio (x) = 0.06890 0.58233
# Poissons Ratio (y) = 0.21443 -0.07759
# Poissons Ratio (z) = 0.56857 -0.02434
#
# Static dielectric constant tensor:
#      x y z
#    x 1.747460 0.000000 0.000000 
#    y 0.000000 1.788200 0.000000 
#    z 0.000000 0.000000 1.772290 
# 
# From -- ./inp_files/33853.got.cif
#   From: 2010.05.17/outbox.cif.g08.bks.cpg/sg51_17_cif.got.tgz:33853.got - 2010.06.03 11:52:47.
