data_PCOD9402919
_publ_section_title
;
Structure prediction by ZEFSAII (Michael W. Deem and Ramdas Pophale) SiO2 
 PCOD9402919
Probable space group: P M M A
;
_chemical_formula_sum "Si O2"
_cell_formula_units_Z 32
_cell_length_a 10.478301
_cell_length_b 20.266764
_cell_length_c 7.653056
_cell_angle_alpha 90.000000
_cell_angle_beta 90.000000
_cell_angle_gamma 90.000000
_cell_volume 1625.212565
_symmetry_space_group_name_H-M "P M M A"
_symmetry_group_IT_number 51
_symmetry_cell_setting 'orthorhombic'
loop_
_space_group_symop_operation_xyz
x,y,z
1/2-x,-y,z
1/2+x,-y,-z
-x,y,-z
-x,-y,-z
1/2+x,y,-z
1/2-x,y,z
x,-y,z
loop_
_atom_site_type_symbol
_atom_site_label
_atom_site_fract_x
_atom_site_fract_y
_atom_site_fract_z
Si Si1 0.099861 0.709184 0.342559
Si Si2 0.250000 0.077627 0.723251
Si Si3 0.391399 0.428116 0.143322
Si Si4 0.250000 0.925352 0.296286
Si Si5 0.504108 0.844778 0.714634
O O1 0.250000 0.725550 0.386650
O O2 0.100039 0.637531 0.256203
O O3 0.040495 0.770129 0.232411
O O4 0.000000 0.703869 0.500000
O O5 0.250000 0.075661 0.509520
O O6 0.374697 0.119968 0.774336
O O7 0.250000 0.000000 0.777787
O O8 0.250000 0.426981 0.061163
O O9 0.402334 0.500000 0.235910
O O10 0.500000 0.425797 0.000000
O O11 0.376598 0.889374 0.235320
O O12 0.250000 0.000000 0.238123
O O13 0.500000 0.843503 0.500000
#
# Coordination Sequence:
#
# PCOD9402919 Si02
#       5
#     8   4   8   4   8
#     4  10  20  32  49  74 105 137 167 204 249 299
#     4   9  16  24  36  56  86 125 166 202 241 289
#     4   9  19  37  57  77 102 131 166 208 249 293
#     4   9  14  22  36  54  82 123 162 194 237 289
#     4   9  16  25  37  58  90 126 160 201 241 290
#
# _framework density 19.689731999999999
#
# number of rings (size 3 to 8) (size 9 to 14) (size 15 to 20)
#    0.000    2.750    1.250    0.750    5.250    4.500 
#    0.000    0.000    0.000    0.000    0.000    0.000 
#    0.000    6.000    0.000    0.000    0.000    0.000 
#
# Total GULP energy -178162.979960 kJ/mol
# GULP energy per Si atom -5567.593124 kJ/mol
# Density = 1.964492 g / cm^3
# Si number density = 19.689732 Si / 1000 Ang^3
#
#
#
# Elastic Constant Matrix: (Units=GPa)
#
#
# Indices 1 2 3 4 5 6 
#
# 1 198.7109 110.2757 25.3889 0.0000 0.0000 0.0000
# 2 110.2757 201.9456 20.7752 0.0000 0.0000 0.0000
# 3 25.3889 20.7752 17.0941 0.0000 0.0000 0.0000
# 4 0.0000 0.0000 0.0000 82.6217 0.0000 0.0000
# 5 0.0000 0.0000 0.0000 0.0000 6.2543 0.0000
# 6 0.0000 0.0000 0.0000 0.0000 0.0000 43.3052
#
#
#
# Elastic Compliance Matrix: (Units=1/GPa)
#
#
# Indices 1 2 3 4 5 6 
#
# 1 0.007980 -0.003587 -0.007494 0.000000 0.000000 0.000000
# 2 -0.003587 0.007272 -0.003510 0.000000 0.000000 0.000000
# 3 -0.007494 -0.003510 0.073896 0.000000 0.000000 0.000000
# 4 0.000000 0.000000 0.000000 0.012103 0.000000 0.000000
# 5 0.000000 0.000000 0.000000 0.000000 0.159891 0.000000
# 6 0.000000 0.000000 0.000000 0.000000 0.000000 0.023092
#
#
# Mechanical properties :
#
#
# Convention : Reuss Voigt Hill
#
# Bulk Modulus (GPa) = 16.67595 81.18112 48.92853
# Shear Modulus (GPa) = 14.99683 43.85695 29.42689
#
# Velocity S-wave (km/s) = 2.76281 4.72466 3.87011
# Velocity P-wave (km/s) = 4.32033 8.43106 6.69881
#
# Compressibility (1/GPa) = 0.05996660
#
# Stress axis : x y z
#
# Youngs Moduli (GPa) = 125.30555 137.52044 13.53259
#
# Poissons Ratio (x) = 0.49328 0.10141
# Poissons Ratio (y) = 0.44947 0.04750
# Poissons Ratio (z) = 0.93899 0.48270
#
# Static dielectric constant tensor:
#      x y z
#    x 1.679330 0.000000 0.000000 
#    y 0.000000 1.730030 0.000000 
#    z 0.000000 0.000000 1.706270 
# 
# From -- ./inp_files/13926.got.cif
#   From: 2010.05.17/outbox.cif.g08.bks.cpg/sg51_7_cif.got.tgz:13926.got - 2010.06.03 11:52:47.
