data_PCOD9402023
_publ_section_title
;
Structure prediction by ZEFSAII (Michael W. Deem and Ramdas Pophale) SiO2 
 PCOD9402023
Probable space group: P M M A
;
_chemical_formula_sum "Si O2"
_cell_formula_units_Z 48
_cell_length_a 15.935875
_cell_length_b 8.111502
_cell_length_c 18.466967
_cell_angle_alpha 90.000000
_cell_angle_beta 90.000000
_cell_angle_gamma 90.000000
_cell_volume 2387.111842
_symmetry_space_group_name_H-M "P M M A"
_symmetry_group_IT_number 51
_symmetry_cell_setting 'orthorhombic'
loop_
_space_group_symop_operation_xyz
x,y,z
1/2-x,-y,z
1/2+x,-y,-z
-x,y,-z
-x,-y,-z
1/2+x,y,-z
1/2-x,y,z
x,-y,z
loop_
_atom_site_type_symbol
_atom_site_label
_atom_site_fract_x
_atom_site_fract_y
_atom_site_fract_z
Si Si1 0.750000 0.199337 0.543457
Si Si2 0.250000 0.302793 0.957494
Si Si3 0.917215 0.800972 0.292048
Si Si4 0.750000 0.695351 0.710254
Si Si5 0.917767 0.801357 0.792589
Si Si6 0.583124 0.199123 0.958186
Si Si7 0.250000 0.302674 0.791782
Si Si8 0.915926 0.798259 0.458495
O O1 0.750000 0.250895 0.626730
O O2 0.666695 0.255999 0.501589
O O3 0.750000 0.000000 0.541700
O O4 0.250000 0.500000 0.955466
O O5 0.250000 0.240285 0.874660
O O6 0.333037 0.246458 0.999405
O O7 0.833067 0.754316 0.249942
O O8 0.915357 0.743097 0.375194
O O9 0.999907 0.740418 0.249933
O O10 0.921594 0.000000 0.294246
O O11 0.750000 0.500000 0.713970
O O12 0.833166 0.759048 0.750269
O O13 0.915296 0.740406 0.875320
O O14 0.923627 0.000000 0.795438
O O15 0.579509 0.000000 0.956081
O O16 0.500000 0.258156 0.000000
O O17 0.250000 0.500000 0.793595
O O18 0.000000 0.746466 0.500000
O O19 0.915392 0.000000 0.458096
#
# Coordination Sequence:
#
# PCOD9402023 Si02
#       8
#     4   4   8   4   8   8   4   8
#     4  10  19  34  56  79 108 144 183 230 278 324
#     4  11  24  39  56  81 114 155 194 227 274 334
#     4  10  20  37  63  89 111 143 189 234 278 333
#     4  12  25  38  55  81 115 154 193 230 274 334
#     4  10  21  38  61  87 114 145 184 233 285 333
#     4  10  21  38  61  88 114 143 184 234 285 333
#     4  11  24  39  55  81 119 155 186 227 280 334
#     4   9  17  31  55  85 110 136 178 231 280 326
#
# _framework density 20.107980000000001
#
# number of rings (size 3 to 8) (size 9 to 14) (size 15 to 20)
#    0.000    1.833    0.000    4.250    0.000   10.333 
#    0.000    1.667    0.000    2.000    0.000    0.000 
#    0.000    0.000    0.000    0.000    0.000    0.000 
#
# Total GULP energy -268320.127512 kJ/mol
# GULP energy per Si atom -5590.002656 kJ/mol
# Density = 2.006221 g / cm^3
# Si number density = 20.107980 Si / 1000 Ang^3
#
#
#
# Elastic Constant Matrix: (Units=GPa)
#
#
# Indices 1 2 3 4 5 6 
#
# 1 238.5261 5.2253 149.5934 0.0000 0.0000 0.0000
# 2 5.2253 9.6761 13.1378 0.0000 0.0000 0.0000
# 3 149.5934 13.1378 253.0899 0.0000 0.0000 0.0000
# 4 0.0000 0.0000 0.0000 8.5538 0.0000 0.0000
# 5 0.0000 0.0000 0.0000 0.0000 33.8319 0.0000
# 6 0.0000 0.0000 0.0000 0.0000 0.0000 -160.6581
#
#
#
# Elastic Compliance Matrix: (Units=1/GPa)
#
#
# Indices 1 2 3 4 5 6 
#
# 1 0.006694 0.001890 -0.004055 0.000000 0.000000 0.000000
# 2 0.001890 0.111718 -0.006917 0.000000 0.000000 0.000000
# 3 -0.004055 -0.006917 0.006707 0.000000 0.000000 0.000000
# 4 0.000000 0.000000 0.000000 0.116908 0.000000 0.000000
# 5 0.000000 0.000000 0.000000 0.000000 0.029558 0.000000
# 6 0.000000 0.000000 0.000000 0.000000 0.000000 -0.006224
#
#
# Mechanical properties :
#
#
# Convention : Reuss Voigt Hill
#
# Bulk Modulus (GPa) = 9.34955 93.02278 51.18616
# Shear Modulus (GPa) = 15.66543 -1.43212 7.11666
#
# Velocity S-wave (km/s) = 2.79420 -0.84484 1.88332
# Velocity P-wave (km/s) = 3.88199 6.73872 5.49910
#
# Compressibility (1/GPa) = 0.10695705
#
# Stress axis : x y z
#
# Youngs Moduli (GPa) = 149.38883 8.95110 149.10218
#
# Poissons Ratio (x) = -0.01692 0.60457
# Poissons Ratio (y) = -0.28241 1.03128
# Poissons Ratio (z) = 0.60573 0.06191
#
# Static dielectric constant tensor:
#      x y z
#    x 1.670310 0.000000 0.000000 
#    y 0.000000 1.703310 0.000000 
#    z 0.000000 0.000000 1.694560 
# 
# From -- ./inp_files/29679.got.cif
#   From: 2010.05.17/outbox.cif.g08.bks.cpg/sg51_15_cif.got.tgz:29679.got - 2010.06.03 11:52:47.
