data_PCOD9402562
_publ_section_title
;
Structure prediction by ZEFSAII (Michael W. Deem and Ramdas Pophale) SiO2 
 PCOD9402562
Probable space group: P M M A
;
_chemical_formula_sum "Si O2"
_cell_formula_units_Z 48
_cell_length_a 9.450827
_cell_length_b 17.658848
_cell_length_c 17.858523
_cell_angle_alpha 90.000000
_cell_angle_beta 90.000000
_cell_angle_gamma 90.000000
_cell_volume 2980.421716
_symmetry_space_group_name_H-M "P M M A"
_symmetry_group_IT_number 51
_symmetry_cell_setting 'orthorhombic'
loop_
_space_group_symop_operation_xyz
x,y,z
1/2-x,-y,z
1/2+x,-y,-z
-x,y,-z
-x,-y,-z
1/2+x,y,-z
1/2-x,y,z
x,-y,z
loop_
_atom_site_type_symbol
_atom_site_label
_atom_site_fract_x
_atom_site_fract_y
_atom_site_fract_z
Si Si1 0.912274 0.187504 0.194441
Si Si2 0.414767 0.091077 0.077061
Si Si3 0.920401 0.413791 0.578839
Si Si4 0.593285 0.685890 0.066035
Si Si5 0.585216 0.705036 0.705447
Si Si6 0.589657 0.415107 0.840483
O O1 0.750000 0.162617 0.209612
O O2 0.902998 0.255538 0.134137
O O3 0.006538 0.126650 0.149149
O O4 0.989883 0.224777 0.266426
O O5 0.250000 0.116860 0.072032
O O6 0.414285 0.000000 0.084013
O O7 0.500000 0.108201 0.000000
O O8 0.750000 0.409840 0.569400
O O9 0.950516 0.500000 0.607796
O O10 0.961010 0.344850 0.633864
O O11 0.000000 0.406650 0.500000
O O12 0.750000 0.671476 0.039081
O O13 0.518713 0.611052 0.096798
O O14 0.500000 0.718638 0.000000
O O15 0.750000 0.728294 0.695913
O O16 0.582081 0.643407 0.772315
O O17 0.750000 0.411417 0.869719
O O18 0.562385 0.500000 0.814152
#
# Coordination Sequence:
#
# PCOD9402562 Si02
#       6
#     8   8   8   8   8   8
#     4  10  20  32  47  67  90 117 150 187 227 272
#     4  10  20  33  50  72  97 125 156 190 230 276
#     4   9  17  29  46  69  96 126 159 195 237 283
#     4  10  20  31  42  57  77 104 139 178 220 263
#     4   9  17  30  47  65  88 118 151 187 227 273
#     4   9  17  29  44  59  75 101 139 181 223 264
#
# _framework density 16.105104000000001
#
# number of rings (size 3 to 8) (size 9 to 14) (size 15 to 20)
#    0.000    2.500    0.000    2.500    0.000    7.667 
#    0.000    0.000    0.000    3.000    0.000    0.000 
#    0.000    0.667    0.000    2.167    0.000    2.667 
#
# Total GULP energy -267338.350245 kJ/mol
# GULP energy per Si atom -5569.548963 kJ/mol
# Density = 1.606845 g / cm^3
# Si number density = 16.105104 Si / 1000 Ang^3
#
#
#
# Elastic Constant Matrix: (Units=GPa)
#
#
# Indices 1 2 3 4 5 6 
#
# 1 102.8613 37.9866 37.6326 0.0000 0.0000 0.0000
# 2 37.9866 50.1129 23.0251 0.0000 0.0000 0.0000
# 3 37.6326 23.0251 64.3839 0.0000 0.0000 0.0000
# 4 0.0000 0.0000 0.0000 30.6207 0.0000 0.0000
# 5 0.0000 0.0000 0.0000 0.0000 22.6372 0.0000
# 6 0.0000 0.0000 0.0000 0.0000 0.0000 9.7478
#
#
#
# Elastic Compliance Matrix: (Units=1/GPa)
#
#
# Indices 1 2 3 4 5 6 
#
# 1 0.015038 -0.008808 -0.005640 0.000000 0.000000 0.000000
# 2 -0.008808 0.029037 -0.005236 0.000000 0.000000 0.000000
# 3 -0.005640 -0.005236 0.020701 0.000000 0.000000 0.000000
# 4 0.000000 0.000000 0.000000 0.032658 0.000000 0.000000
# 5 0.000000 0.000000 0.000000 0.000000 0.044175 0.000000
# 6 0.000000 0.000000 0.000000 0.000000 0.000000 0.102587
#
#
# Mechanical properties :
#
#
# Convention : Reuss Voigt Hill
#
# Bulk Modulus (GPa) = 39.35695 46.07186 42.71441
# Shear Modulus (GPa) = 17.12136 20.51540 18.81838
#
# Velocity S-wave (km/s) = 3.26406 3.57297 3.42200
# Velocity P-wave (km/s) = 6.22062 6.75948 6.49564
#
# Compressibility (1/GPa) = 0.02540847
#
# Stress axis : x y z
#
# Youngs Moduli (GPa) = 66.49858 34.43852 48.30699
#
# Poissons Ratio (x) = 0.30333 0.27245
# Poissons Ratio (y) = 0.58570 0.25295
# Poissons Ratio (z) = 0.37504 0.18033
#
# Static dielectric constant tensor:
#      x y z
#    x 1.577840 0.000000 0.000000 
#    y 0.000000 1.551030 0.000000 
#    z 0.000000 0.000000 1.535600 
# 
# From -- ./inp_files/27812.got.cif
#   From: 2010.05.17/outbox.cif.g08.bks.cpg/sg51_14_cif.got.tgz:27812.got - 2010.06.03 11:52:47.
