data_PCOD9402763
_publ_section_title
;
Structure prediction by ZEFSAII (Michael W. Deem and Ramdas Pophale) SiO2 
 PCOD9402763
Probable space group: P M M A
;
_chemical_formula_sum "Si O2"
_cell_formula_units_Z 52
_cell_length_a 8.916137
_cell_length_b 15.596815
_cell_length_c 23.592133
_cell_angle_alpha 90.000000
_cell_angle_beta 90.000000
_cell_angle_gamma 90.000000
_cell_volume 3280.800796
_symmetry_space_group_name_H-M "P M M A"
_symmetry_group_IT_number 51
_symmetry_cell_setting 'orthorhombic'
loop_
_space_group_symop_operation_xyz
x,y,z
1/2-x,-y,z
1/2+x,-y,-z
-x,y,-z
-x,-y,-z
1/2+x,y,-z
1/2-x,y,z
x,-y,z
loop_
_atom_site_type_symbol
_atom_site_label
_atom_site_fract_x
_atom_site_fract_y
_atom_site_fract_z
Si Si1 0.570168 0.600372 0.822172
Si Si2 0.421311 0.603746 0.942499
Si Si3 0.928475 0.500000 0.438611
Si Si4 0.070021 0.904402 0.679276
Si Si5 0.073457 0.850250 0.440073
Si Si6 0.927575 0.667690 0.612717
Si Si7 0.430188 0.727763 0.730208
O O1 0.750000 0.604120 0.819427
O O2 0.526451 0.500000 0.809707
O O3 0.513390 0.621315 0.885497
O O4 0.499831 0.669646 0.779579
O O5 0.250000 0.634406 0.937959
O O6 0.415800 0.500000 0.946609
O O7 0.500000 0.635134 0.000000
O O8 0.750000 0.500000 0.440864
O O9 0.000000 0.500000 0.500000
O O10 0.990352 0.584157 0.408802
O O11 0.250000 0.899184 0.671734
O O12 0.029247 0.828958 0.723546
O O13 0.997858 0.889546 0.617133
O O14 0.030832 0.000000 0.698918
O O15 0.250000 0.869966 0.441442
O O16 0.055036 0.747838 0.430009
O O17 0.000000 0.875369 0.500000
O O18 0.750000 0.653224 0.620361
O O19 0.004467 0.691938 0.671585
O O20 0.250000 0.720768 0.732550
#
# Coordination Sequence:
#
# PCOD9402763 Si02
#       7
#     8   8   4   8   8   8   8
#     4  10  20  32  47  69 100 138 174 207 241 280
#     4   9  16  27  44  67  97 133 172 210 245 282
#     4  12  24  36  50  68  88 116 155 196 237 284
#     4   9  19  36  55  73  94 121 153 193 243 296
#     4  10  20  33  51  72  93 118 147 185 234 290
#     4  10  21  36  51  67  90 120 154 194 239 285
#     4  10  20  34  52  73  97 125 160 201 243 289
#
# _framework density 15.849788999999999
#
# number of rings (size 3 to 8) (size 9 to 14) (size 15 to 20)
#    0.000    2.154    0.000    3.462    1.077    7.077 
#    0.000    0.000    0.000    0.000    0.000    0.000 
#    0.000    0.615    0.000    1.692    0.000    2.462 
#
# Total GULP energy -289956.345018 kJ/mol
# GULP energy per Si atom -5576.083558 kJ/mol
# Density = 1.581371 g / cm^3
# Si number density = 15.849789 Si / 1000 Ang^3
#
#
#
# Elastic Constant Matrix: (Units=GPa)
#
#
# Indices 1 2 3 4 5 6 
#
# 1 72.0260 49.9114 41.6225 0.0000 0.0000 0.0000
# 2 49.9114 107.3726 53.0363 0.0000 0.0000 0.0000
# 3 41.6225 53.0363 99.6120 0.0000 0.0000 0.0000
# 4 0.0000 0.0000 0.0000 7.2316 0.0000 0.0000
# 5 0.0000 0.0000 0.0000 0.0000 29.7727 0.0000
# 6 0.0000 0.0000 0.0000 0.0000 0.0000 14.5801
#
#
#
# Elastic Compliance Matrix: (Units=1/GPa)
#
#
# Indices 1 2 3 4 5 6 
#
# 1 0.022270 -0.007810 -0.005147 0.000000 0.000000 0.000000
# 2 -0.007810 0.015375 -0.004923 0.000000 0.000000 0.000000
# 3 -0.005147 -0.004923 0.014811 0.000000 0.000000 0.000000
# 4 0.000000 0.000000 0.000000 0.138283 0.000000 0.000000
# 5 0.000000 0.000000 0.000000 0.000000 0.033588 0.000000
# 6 0.000000 0.000000 0.000000 0.000000 0.000000 0.068587
#
#
# Mechanical properties :
#
#
# Convention : Reuss Voigt Hill
#
# Bulk Modulus (GPa) = 59.89354 63.12789 61.51072
# Shear Modulus (GPa) = 14.95933 19.27957 17.11945
#
# Velocity S-wave (km/s) = 3.07550 3.49147 3.29006
# Velocity P-wave (km/s) = 7.10506 7.49460 7.30243
#
# Compressibility (1/GPa) = 0.01669629
#
# Stress axis : x y z
#
# Youngs Moduli (GPa) = 44.90290 65.03921 67.51737
#
# Poissons Ratio (x) = 0.50793 0.34755
# Poissons Ratio (y) = 0.35067 0.33239
# Poissons Ratio (z) = 0.23114 0.32019
#
# Static dielectric constant tensor:
#      x y z
#    x 1.529670 0.000000 0.000000 
#    y 0.000000 1.537120 0.000000 
#    z 0.000000 0.000000 1.498140 
# 
# From -- ./inp_files/31787.got.cif
#   From: 2010.05.17/outbox.cif.g08.bks.cpg/sg51_16_cif.got.tgz:31787.got - 2010.06.03 11:52:47.
