data_PCOD9402754
_publ_section_title
;
Structure prediction by ZEFSAII (Michael W. Deem and Ramdas Pophale) SiO2 
 PCOD9402754
Probable space group: P M M A
;
_chemical_formula_sum "Si O2"
_cell_formula_units_Z 64
_cell_length_a 24.705799
_cell_length_b 9.063533
_cell_length_c 17.176532
_cell_angle_alpha 90.000000
_cell_angle_beta 90.000000
_cell_angle_gamma 90.000000
_cell_volume 3846.200385
_symmetry_space_group_name_H-M "P M M A"
_symmetry_group_IT_number 51
_symmetry_cell_setting 'orthorhombic'
loop_
_space_group_symop_operation_xyz
x,y,z
1/2-x,-y,z
1/2+x,-y,-z
-x,y,-z
-x,-y,-z
1/2+x,y,-z
1/2-x,y,z
x,-y,z
loop_
_atom_site_type_symbol
_atom_site_label
_atom_site_fract_x
_atom_site_fract_y
_atom_site_fract_z
Si Si1 0.589834 0.322979 0.637194
Si Si2 0.686229 0.677588 0.069011
Si Si3 0.187258 0.322069 0.253067
Si Si4 0.472471 0.676920 0.674859
Si Si5 0.315639 0.831172 0.091473
Si Si6 0.870860 0.322386 0.226663
Si Si7 0.189033 0.175206 0.631658
Si Si8 0.085887 0.175206 0.530098
O O1 0.592396 0.500000 0.626100
O O2 0.644513 0.276056 0.681058
O O3 0.535629 0.290713 0.686983
O O4 0.581952 0.247341 0.554041
O O5 0.750000 0.713701 0.083303
O O6 0.683174 0.500000 0.061730
O O7 0.649688 0.725954 0.141999
O O8 0.668272 0.750725 0.988183
O O9 0.250000 0.279440 0.269044
O O10 0.185826 0.500000 0.247399
O O11 0.169987 0.254312 0.170283
O O12 0.467014 0.500000 0.664851
O O13 0.430797 0.721561 0.743257
O O14 0.453024 0.753605 0.595062
O O15 0.250000 0.831897 0.090213
O O16 0.334381 0.000000 0.093455
O O17 0.868498 0.500000 0.227088
O O18 0.830536 0.260715 0.292090
O O19 0.250000 0.215702 0.610358
O O20 0.146113 0.203291 0.563671
O O21 0.187010 0.000000 0.648181
O O22 0.076389 0.000000 0.526151
#
# Coordination Sequence:
#
# PCOD9402754 Si02
#       8
#     8   8   8   8   8   8   8   8
#     4  10  20  33  50  70  90 116 151 190 233 277
#     4   9  16  26  43  68  95 120 147 180 218 261
#     4   9  18  33  51  70  93 119 148 186 232 278
#     4   9  18  33  50  67  91 121 153 191 231 269
#     4   9  17  29  46  69  95 121 149 181 220 267
#     4   9  17  29  46  68  92 120 155 191 224 262
#     4   9  18  31  44  61  91 127 155 183 226 274
#     4  10  20  32  47  68  92 120 156 194 229 268
#
# _framework density 16.639799
#
# number of rings (size 3 to 8) (size 9 to 14) (size 15 to 20)
#    0.000    2.750    0.000    1.500    0.000    6.250 
#    0.000    1.250    0.000    0.750    0.000    5.250 
#    0.000    0.000    0.000    0.000    0.000    0.000 
#
# Total GULP energy -356601.325214 kJ/mol
# GULP energy per Si atom -5571.895706 kJ/mol
# Density = 1.660193 g / cm^3
# Si number density = 16.639799 Si / 1000 Ang^3
#
#
#
# Elastic Constant Matrix: (Units=GPa)
#
#
# Indices 1 2 3 4 5 6 
#
# 1 95.2324 23.3119 40.9175 0.0000 0.0000 0.0000
# 2 23.3119 12.1584 18.6349 0.0000 0.0000 0.0000
# 3 40.9175 18.6349 73.3477 0.0000 0.0000 0.0000
# 4 0.0000 0.0000 0.0000 3.5266 0.0000 0.0000
# 5 0.0000 0.0000 0.0000 0.0000 13.9880 0.0000
# 6 0.0000 0.0000 0.0000 0.0000 0.0000 14.5479
#
#
#
# Elastic Compliance Matrix: (Units=1/GPa)
#
#
# Indices 1 2 3 4 5 6 
#
# 1 0.020026 -0.034842 -0.002320 0.000000 0.000000 0.000000
# 2 -0.034842 0.195316 -0.030186 0.000000 0.000000 0.000000
# 3 -0.002320 -0.030186 0.022597 0.000000 0.000000 0.000000
# 4 0.000000 0.000000 0.000000 0.283560 0.000000 0.000000
# 5 0.000000 0.000000 0.000000 0.000000 0.071490 0.000000
# 6 0.000000 0.000000 0.000000 0.000000 0.000000 0.068738
#
#
# Mechanical properties :
#
#
# Convention : Reuss Voigt Hill
#
# Bulk Modulus (GPa) = 9.68575 38.49632 24.09104
# Shear Modulus (GPa) = 6.01803 12.93744 9.47774
#
# Velocity S-wave (km/s) = 1.90381 2.79139 2.38918
# Velocity P-wave (km/s) = 3.26591 5.79435 4.70322
#
# Compressibility (1/GPa) = 0.10324450
#
# Stress axis : x y z
#
# Youngs Moduli (GPa) = 49.93456 5.11991 44.25391
#
# Poissons Ratio (x) = 0.17839 0.10266
# Poissons Ratio (y) = 1.73980 1.33584
# Poissons Ratio (z) = 0.11584 0.15455
#
# Static dielectric constant tensor:
#      x y z
#    x 1.579110 0.000000 0.000000 
#    y 0.000000 1.554360 0.000000 
#    z 0.000000 0.000000 1.533160 
# 
# From -- ./inp_files/30895.got.cif
#   From: 2010.05.17/outbox.cif.g08.bks.cpg/sg51_16_cif.got.tgz:30895.got - 2010.06.03 11:52:47.
