data_PCOD9402451
_publ_section_title
;
Structure prediction by ZEFSAII (Michael W. Deem and Ramdas Pophale) SiO2 
 PCOD9402451
Probable space group: P M M A
;
_chemical_formula_sum "Si O2"
_cell_formula_units_Z 56
_cell_length_a 19.262807
_cell_length_b 8.814877
_cell_length_c 17.048950
_cell_angle_alpha 90.000000
_cell_angle_beta 90.000000
_cell_angle_gamma 90.000000
_cell_volume 2894.899339
_symmetry_space_group_name_H-M "P M M A"
_symmetry_group_IT_number 51
_symmetry_cell_setting 'orthorhombic'
loop_
_space_group_symop_operation_xyz
x,y,z
1/2-x,-y,z
1/2+x,-y,-z
-x,y,-z
-x,-y,-z
1/2+x,y,-z
1/2-x,y,z
x,-y,z
loop_
_atom_site_type_symbol
_atom_site_label
_atom_site_fract_x
_atom_site_fract_y
_atom_site_fract_z
Si Si1 0.086641 0.179866 0.670896
Si Si2 0.332270 0.820927 0.978753
Si Si3 0.670430 0.684503 0.645417
Si Si4 0.081177 0.316812 0.506595
Si Si5 0.049837 0.682765 0.070810
Si Si6 0.454234 0.316729 0.248841
Si Si7 0.833524 0.326012 0.186986
O O1 0.108516 0.250843 0.588145
O O2 0.136448 0.232970 0.740941
O O3 0.011492 0.245690 0.694561
O O4 0.084317 0.000000 0.665542
O O5 0.250000 0.797816 0.987606
O O6 0.353946 0.744752 0.896435
O O7 0.345947 0.000000 0.975816
O O8 0.374761 0.743399 0.047792
O O9 0.750000 0.738802 0.647744
O O10 0.672891 0.500000 0.643843
O O11 0.627987 0.731139 0.567347
O O12 0.622068 0.725890 0.719460
O O13 0.082376 0.500000 0.509609
O O14 0.000000 0.270718 0.500000
O O15 0.049471 0.500000 0.070057
O O16 0.031743 0.730636 0.159142
O O17 0.000000 0.735884 0.000000
O O18 0.459935 0.500000 0.253452
O O19 0.750000 0.325425 0.190148
O O20 0.858432 0.500000 0.191181
#
# Coordination Sequence:
#
# PCOD9402451 Si02
#       7
#     8   8   8   8   8   8   8
#     4  12  24  36  57  87 120 152 188 232 288 356
#     4  10  21  37  57  82 116 155 191 233 292 356
#     4   9  18  34  58  86 111 142 192 249 296 338
#     4  10  19  36  60  82 109 148 192 238 286 342
#     4  10  21  35  55  84 115 150 197 248 289 338
#     4  10  20  37  59  83 114 152 196 243 290 342
#     4  10  21  38  60  84 112 149 195 243 290 342
#
# _framework density 19.344367999999999
#
# number of rings (size 3 to 8) (size 9 to 14) (size 15 to 20)
#    0.000    1.857    1.429    3.000    0.000    5.143 
#    0.000    2.857    0.000    1.286    0.000    0.000 
#    0.000    0.000    0.000    0.000    0.000    0.000 
#
# Total GULP energy -312766.796281 kJ/mol
# GULP energy per Si atom -5585.121362 kJ/mol
# Density = 1.930034 g / cm^3
# Si number density = 19.344368 Si / 1000 Ang^3
#
#
#
# Elastic Constant Matrix: (Units=GPa)
#
#
# Indices 1 2 3 4 5 6 
#
# 1 69.0796 11.6481 30.6915 0.0000 0.0000 0.0000
# 2 11.6481 6.7964 17.9544 0.0000 0.0000 0.0000
# 3 30.6915 17.9544 101.5263 0.0000 0.0000 0.0000
# 4 0.0000 0.0000 0.0000 5.0254 0.0000 0.0000
# 5 0.0000 0.0000 0.0000 0.0000 25.8214 0.0000
# 6 0.0000 0.0000 0.0000 0.0000 0.0000 18.4111
#
#
#
# Elastic Compliance Matrix: (Units=1/GPa)
#
#
# Indices 1 2 3 4 5 6 
#
# 1 0.020360 -0.034973 0.000030 0.000000 0.000000 0.000000
# 2 -0.034973 0.336221 -0.048887 0.000000 0.000000 0.000000
# 3 0.000030 -0.048887 0.018486 0.000000 0.000000 0.000000
# 4 0.000000 0.000000 0.000000 0.198988 0.000000 0.000000
# 5 0.000000 0.000000 0.000000 0.000000 0.038728 0.000000
# 6 0.000000 0.000000 0.000000 0.000000 0.000000 0.054315
#
#
# Mechanical properties :
#
#
# Convention : Reuss Voigt Hill
#
# Bulk Modulus (GPa) = 4.82143 33.11003 18.96573
# Shear Modulus (GPa) = 5.53163 17.65881 11.59522
#
# Velocity S-wave (km/s) = 1.69286 3.02464 2.45094
# Velocity P-wave (km/s) = 2.51373 5.41768 4.22316
#
# Compressibility (1/GPa) = 0.20740725
#
# Stress axis : x y z
#
# Youngs Moduli (GPa) = 49.11648 2.97424 54.09509
#
# Poissons Ratio (x) = 0.10402 -0.00162
# Poissons Ratio (y) = 1.71774 2.64453
# Poissons Ratio (z) = -0.00147 0.14540
#
# Static dielectric constant tensor:
#      x y z
#    x 1.696230 0.000000 0.000000 
#    y 0.000000 1.641180 0.000000 
#    z 0.000000 0.000000 1.660440 
# 
# From -- ./inp_files/25751.got.cif
#   From: 2010.05.17/outbox.cif.g08.bks.cpg/sg51_13_cif.got.tgz:25751.got - 2010.06.03 11:52:47.
