data_PCOD9402574
_publ_section_title
;
Structure prediction by ZEFSAII (Michael W. Deem and Ramdas Pophale) SiO2 
 PCOD9402574
Probable space group: P M M A
;
_chemical_formula_sum "Si O2"
_cell_formula_units_Z 48
_cell_length_a 8.935143
_cell_length_b 19.204550
_cell_length_c 20.299577
_cell_angle_alpha 90.000000
_cell_angle_beta 90.000000
_cell_angle_gamma 90.000000
_cell_volume 3483.314045
_symmetry_space_group_name_H-M "P M M A"
_symmetry_group_IT_number 51
_symmetry_cell_setting 'orthorhombic'
loop_
_space_group_symop_operation_xyz
x,y,z
1/2-x,-y,z
1/2+x,-y,-z
-x,y,-z
-x,-y,-z
1/2+x,y,-z
1/2-x,y,z
x,-y,z
loop_
_atom_site_type_symbol
_atom_site_label
_atom_site_fract_x
_atom_site_fract_y
_atom_site_fract_z
Si Si1 0.083039 0.418070 0.936657
Si Si2 0.921202 0.584380 0.566880
Si Si3 0.569638 0.219066 0.926145
Si Si4 0.427075 0.345147 0.173062
Si Si5 0.429194 0.418485 0.706058
Si Si6 0.570493 0.923555 0.073078
O O1 0.250000 0.388555 0.927394
O O2 0.099643 0.500000 0.947627
O O3 0.979080 0.407248 0.874431
O O4 0.000000 0.387515 0.000000
O O5 0.750000 0.608704 0.571275
O O6 0.917389 0.500000 0.562833
O O7 0.000000 0.609478 0.500000
O O8 0.011323 0.599778 0.633368
O O9 0.750000 0.217449 0.933043
O O10 0.530619 0.278376 0.872322
O O11 0.506841 0.145430 0.899049
O O12 0.500000 0.228908 0.000000
O O13 0.250000 0.343140 0.182916
O O14 0.506404 0.363745 0.241394
O O15 0.250000 0.417084 0.707933
O O16 0.474740 0.500000 0.719982
O O17 0.750000 0.914288 0.068988
O O18 0.541973 0.000000 0.104000
O O19 0.500000 0.927073 0.000000
#
# Coordination Sequence:
#
# PCOD9402574 Si02
#       6
#     8   8   8   8   8   8
#     4  10  20  32  44  56  69  90 124 165 207 246
#     4   9  16  27  44  64  84 104 127 159 198 239
#     4  10  20  31  43  59  78 102 132 165 202 243
#     4  11  22  32  42  57  77 102 132 165 202 242
#     4  10  20  32  45  61  80 104 135 169 206 246
#     4   9  16  26  42  62  80  98 122 154 193 236
#
# _framework density 13.77998
#
# number of rings (size 3 to 8) (size 9 to 14) (size 15 to 20)
#    0.000    2.167    0.000    5.000    0.000   11.000 
#    0.000    0.000    0.000    0.000    0.000    0.000 
#    0.000    0.000    0.000    0.000    0.000    0.833 
#
# Total GULP energy -267254.474848 kJ/mol
# GULP energy per Si atom -5567.801559 kJ/mol
# Density = 1.374862 g / cm^3
# Si number density = 13.779980 Si / 1000 Ang^3
#
#
#
# Elastic Constant Matrix: (Units=GPa)
#
#
# Indices 1 2 3 4 5 6 
#
# 1 66.0516 38.1925 36.6572 0.0000 0.0000 0.0000
# 2 38.1925 68.2563 32.5451 0.0000 0.0000 0.0000
# 3 36.6572 32.5451 91.6594 0.0000 0.0000 0.0000
# 4 0.0000 0.0000 0.0000 0.6226 0.0000 0.0000
# 5 0.0000 0.0000 0.0000 0.0000 22.6146 0.0000
# 6 0.0000 0.0000 0.0000 0.0000 0.0000 74.8372
#
#
#
# Elastic Compliance Matrix: (Units=1/GPa)
#
#
# Indices 1 2 3 4 5 6 
#
# 1 0.024868 -0.011042 -0.006025 0.000000 0.000000 0.000000
# 2 -0.011042 0.022540 -0.003587 0.000000 0.000000 0.000000
# 3 -0.006025 -0.003587 0.014593 0.000000 0.000000 0.000000
# 4 0.000000 0.000000 0.000000 1.606252 0.000000 0.000000
# 5 0.000000 0.000000 0.000000 0.000000 0.044219 0.000000
# 6 0.000000 0.000000 0.000000 0.000000 0.000000 0.013362
#
#
# Mechanical properties :
#
#
# Convention : Reuss Voigt Hill
#
# Bulk Modulus (GPa) = 48.32570 48.97297 48.64934
# Shear Modulus (GPa) = 2.81843 27.51971 15.16907
#
# Velocity S-wave (km/s) = 1.43169 4.47372 3.32144
# Velocity P-wave (km/s) = 6.15456 7.89316 7.07745
#
# Compressibility (1/GPa) = 0.02069292
#
# Stress axis : x y z
#
# Youngs Moduli (GPa) = 40.21206 44.36650 68.52589
#
# Poissons Ratio (x) = 0.48990 0.41285
# Poissons Ratio (y) = 0.44403 0.24580
# Poissons Ratio (z) = 0.24227 0.15914
#
# Static dielectric constant tensor:
#      x y z
#    x 1.481010 0.000000 0.000000 
#    y 0.000000 1.491360 0.000000 
#    z 0.000000 0.000000 1.434530 
# 
# From -- ./inp_files/28081.got.cif
#   From: 2010.05.17/outbox.cif.g08.bks.cpg/sg51_15_cif.got.tgz:28081.got - 2010.06.03 11:52:47.
