data_PCOD9402587
_publ_section_title
;
Structure prediction by ZEFSAII (Michael W. Deem and Ramdas Pophale) SiO2 
 PCOD9402587
Probable space group: P M M A
;
_chemical_formula_sum "Si O2"
_cell_formula_units_Z 40
_cell_length_a 9.972443
_cell_length_b 7.378440
_cell_length_c 26.330135
_cell_angle_alpha 90.000000
_cell_angle_beta 90.000000
_cell_angle_gamma 90.000000
_cell_volume 1937.399568
_symmetry_space_group_name_H-M "P M M A"
_symmetry_group_IT_number 51
_symmetry_cell_setting 'orthorhombic'
loop_
_space_group_symop_operation_xyz
x,y,z
1/2-x,-y,z
1/2+x,-y,-z
-x,y,-z
-x,-y,-z
1/2+x,y,-z
1/2-x,y,z
x,-y,z
loop_
_atom_site_type_symbol
_atom_site_label
_atom_site_fract_x
_atom_site_fract_y
_atom_site_fract_z
Si Si1 0.903676 0.279200 0.955319
Si Si2 0.901632 0.214234 0.252014
Si Si3 0.097668 0.717920 0.159320
Si Si4 0.096378 0.220744 0.455280
Si Si5 0.404054 0.221160 0.340342
O O1 0.750000 0.227517 0.965097
O O2 0.908459 0.500000 0.955293
O O3 0.937587 0.221196 0.897876
O O4 0.000000 0.215711 0.000000
O O5 0.750000 0.287034 0.248439
O O6 0.987933 0.233687 0.200861
O O7 0.991654 0.286953 0.298353
O O8 0.889636 0.000000 0.261312
O O9 0.250000 0.781012 0.171673
O O10 0.103421 0.500000 0.158057
O O11 0.250000 0.274670 0.464405
O O12 0.059970 0.275668 0.397871
O O13 0.000000 0.283810 0.500000
O O14 0.093357 0.000000 0.455557
O O15 0.250000 0.276668 0.329744
O O16 0.403458 0.000000 0.339384
#
# Coordination Sequence:
#
# PCOD9402587 Si02
#       5
#     8   8   8   8   8
#     4   8  14  25  42  65  90 113 139 173 214 260
#     4  10  20  31  44  65  91 119 152 188 225 264
#     4   9  18  32  49  69  92 118 149 183 219 263
#     4   8  13  20  31  49  73 102 136 173 214 258
#     4   8  14  25  39  54  76 110 148 180 214 261
#
# _framework density 20.646232000000001
#
# number of rings (size 3 to 8) (size 9 to 14) (size 15 to 20)
#    0.000    3.400    0.000    3.000    0.000    3.200 
#    0.000    6.000    0.000    0.600    0.000    0.000 
#    0.000    0.800    0.000    2.600    0.000    5.200 
#
# Total GULP energy -223134.085776 kJ/mol
# GULP energy per Si atom -5578.352144 kJ/mol
# Density = 2.059924 g / cm^3
# Si number density = 20.646232 Si / 1000 Ang^3
#
#
#
# Elastic Constant Matrix: (Units=GPa)
#
#
# Indices 1 2 3 4 5 6 
#
# 1 180.0319 5.8696 168.4494 0.0000 0.0000 0.0000
# 2 5.8696 71.6862 2.5310 0.0000 0.0000 0.0000
# 3 168.4494 2.5310 211.7120 0.0000 0.0000 0.0000
# 4 0.0000 0.0000 0.0000 11.9471 0.0000 0.0000
# 5 0.0000 0.0000 0.0000 0.0000 42.1819 0.0000
# 6 0.0000 0.0000 0.0000 0.0000 0.0000 3.2124
#
#
#
# Elastic Compliance Matrix: (Units=1/GPa)
#
#
# Indices 1 2 3 4 5 6 
#
# 1 0.021835 -0.001175 -0.017359 0.000000 0.000000 0.000000
# 2 -0.001175 0.014019 0.000767 0.000000 0.000000 0.000000
# 3 -0.017359 0.000767 0.018526 0.000000 0.000000 0.000000
# 4 0.000000 0.000000 0.000000 0.083702 0.000000 0.000000
# 5 0.000000 0.000000 0.000000 0.000000 0.023707 0.000000
# 6 0.000000 0.000000 0.000000 0.000000 0.000000 0.311289
#
#
# Mechanical properties :
#
#
# Convention : Reuss Voigt Hill
#
# Bulk Modulus (GPa) = 53.06069 90.79223 71.92646
# Shear Modulus (GPa) = 9.71072 30.57363 20.14218
#
# Velocity S-wave (km/s) = 2.17108 3.85233 3.12683
# Velocity P-wave (km/s) = 5.66044 7.99112 6.92454
#
# Compressibility (1/GPa) = 0.01884634
#
# Stress axis : x y z
#
# Youngs Moduli (GPa) = 45.79710 71.33280 53.97737
#
# Poissons Ratio (x) = 0.08381 0.93701
# Poissons Ratio (y) = 0.05381 -0.04142
# Poissons Ratio (z) = 0.79501 -0.05473
#
# Static dielectric constant tensor:
#      x y z
#    x 1.706520 0.000000 0.000000 
#    y 0.000000 1.859220 0.000000 
#    z 0.000000 0.000000 1.712780 
# 
# From -- ./inp_files/35976.got.cif
#   From: 2010.05.17/outbox.cif.g08.bks.cpg/sg51_18_cif.got.tgz:35976.got - 2010.06.03 11:52:47.
