data_PCOD9402487
_publ_section_title
;
Structure prediction by ZEFSAII (Michael W. Deem and Ramdas Pophale) SiO2 
 PCOD9402487
Probable space group: P M M A
;
_chemical_formula_sum "Si O2"
_cell_formula_units_Z 56
_cell_length_a 26.784574
_cell_length_b 14.012304
_cell_length_c 7.331513
_cell_angle_alpha 90.000000
_cell_angle_beta 90.000000
_cell_angle_gamma 90.000000
_cell_volume 2751.616489
_symmetry_space_group_name_H-M "P M M A"
_symmetry_group_IT_number 51
_symmetry_cell_setting 'orthorhombic'
loop_
_space_group_symop_operation_xyz
x,y,z
1/2-x,-y,z
1/2+x,-y,-z
-x,y,-z
-x,-y,-z
1/2+x,y,-z
1/2-x,y,z
x,-y,z
loop_
_atom_site_type_symbol
_atom_site_label
_atom_site_fract_x
_atom_site_fract_y
_atom_site_fract_z
Si Si1 0.646477 0.389383 0.470325
Si Si2 0.947380 0.109776 0.109142
Si Si3 0.192605 0.739974 0.808810
Si Si4 0.189673 0.390915 0.126565
Si Si5 0.554386 0.248209 0.454518
Si Si6 0.307779 0.887560 0.519241
Si Si7 0.395734 0.112628 0.256935
O O1 0.638867 0.500000 0.431023
O O2 0.688130 0.344384 0.339513
O O3 0.664959 0.378997 0.677214
O O4 0.596443 0.328720 0.440653
O O5 0.946935 0.184418 0.272344
O O6 0.941704 0.000000 0.175460
O O7 0.905407 0.129476 0.955655
O O8 0.000000 0.114620 0.000000
O O9 0.250000 0.764457 0.850212
O O10 0.172083 0.829939 0.694610
O O11 0.171073 0.690925 0.989094
O O12 0.250000 0.384102 0.141262
O O13 0.178872 0.500000 0.062674
O O14 0.500000 0.288791 0.500000
O O15 0.568740 0.177406 0.620009
O O16 0.250000 0.860291 0.489005
O O17 0.340973 0.868776 0.340946
O O18 0.309863 0.000000 0.556722
O O19 0.406671 0.000000 0.286619
#
# Coordination Sequence:
#
# PCOD9402487 Si02
#       7
#     8   8   8   8   8   8   8
#     4  11  24  41  61  86 120 162 207 255 309 368
#     4  10  21  38  65  97 124 154 199 254 309 363
#     4  10  19  36  64  95 125 159 201 253 306 359
#     4   9  19  37  63  93 121 152 200 260 313 362
#     4  12  24  40  62  89 122 160 201 258 315 368
#     4   9  18  35  60  92 131 170 202 237 292 368
#     4  10  20  38  63  92 124 162 204 248 300 359
#
# _framework density 20.351673999999999
#
# number of rings (size 3 to 8) (size 9 to 14) (size 15 to 20)
#    0.000    1.857    2.857    1.286    0.000    3.429 
#    0.000    0.000    0.000    3.857    0.000    8.000 
#    0.000    0.000    0.000    0.000    0.000    0.000 
#
# Total GULP energy -312799.238969 kJ/mol
# GULP energy per Si atom -5585.700696 kJ/mol
# Density = 2.030535 g / cm^3
# Si number density = 20.351674 Si / 1000 Ang^3
#
#
#
# Elastic Constant Matrix: (Units=GPa)
#
#
# Indices 1 2 3 4 5 6 
#
# 1 54.4220 12.3946 -3.6190 0.0000 0.0000 0.0000
# 2 12.3946 74.9856 21.2046 0.0000 0.0000 0.0000
# 3 -3.6190 21.2046 62.7135 0.0000 0.0000 0.0000
# 4 0.0000 0.0000 0.0000 31.6141 0.0000 0.0000
# 5 0.0000 0.0000 0.0000 0.0000 27.1112 0.0000
# 6 0.0000 0.0000 0.0000 0.0000 0.0000 20.3767
#
#
#
# Elastic Compliance Matrix: (Units=1/GPa)
#
#
# Indices 1 2 3 4 5 6 
#
# 1 0.019426 -0.003901 0.002440 0.000000 0.000000 0.000000
# 2 -0.003901 0.015529 -0.005476 0.000000 0.000000 0.000000
# 3 0.002440 -0.005476 0.017938 0.000000 0.000000 0.000000
# 4 0.000000 0.000000 0.000000 0.031631 0.000000 0.000000
# 5 0.000000 0.000000 0.000000 0.000000 0.036885 0.000000
# 6 0.000000 0.000000 0.000000 0.000000 0.000000 0.049076
#
#
# Mechanical properties :
#
#
# Convention : Reuss Voigt Hill
#
# Bulk Modulus (GPa) = 25.62848 28.00904 26.81876
# Shear Modulus (GPa) = 25.33383 26.62981 25.98182
#
# Velocity S-wave (km/s) = 3.53200 3.62122 3.57689
# Velocity P-wave (km/s) = 5.40866 5.59256 5.50138
#
# Compressibility (1/GPa) = 0.03901910
#
# Stress axis : x y z
#
# Youngs Moduli (GPa) = 51.47844 64.39506 55.74821
#
# Poissons Ratio (x) = 0.25120 -0.13602
# Poissons Ratio (y) = 0.20081 0.30527
# Poissons Ratio (z) = -0.12561 0.35261
#
# Static dielectric constant tensor:
#      x y z
#    x 1.779330 0.000000 0.000000 
#    y 0.000000 1.717730 0.000000 
#    z 0.000000 0.000000 1.711190 
# 
# From -- ./inp_files/3992.got.cif
#   From: 2010.05.17/outbox.cif.g08.bks.cpg/sg51_2_cif.got.tgz:3992.got - 2010.06.03 11:52:47.
