data_PCOD9402321
_publ_section_title
;
Structure prediction by ZEFSAII (Michael W. Deem and Ramdas Pophale) SiO2 
 PCOD9402321
Probable space group: P M M A
;
_chemical_formula_sum "Si O2"
_cell_formula_units_Z 56
_cell_length_a 15.417900
_cell_length_b 20.046095
_cell_length_c 9.425520
_cell_angle_alpha 90.000000
_cell_angle_beta 90.000000
_cell_angle_gamma 90.000000
_cell_volume 2913.133101
_symmetry_space_group_name_H-M "P M M A"
_symmetry_group_IT_number 51
_symmetry_cell_setting 'orthorhombic'
loop_
_space_group_symop_operation_xyz
x,y,z
1/2-x,-y,z
1/2+x,-y,-z
-x,y,-z
-x,-y,-z
1/2+x,y,-z
1/2-x,y,z
x,-y,z
loop_
_atom_site_type_symbol
_atom_site_label
_atom_site_fract_x
_atom_site_fract_y
_atom_site_fract_z
Si Si1 0.344175 0.075853 0.356288
Si Si2 0.911845 0.833803 0.406295
Si Si3 0.039731 0.574521 0.694093
Si Si4 0.347871 0.576924 0.969011
Si Si5 0.011738 0.078825 0.834413
Si Si6 0.150424 0.311759 0.547698
Si Si7 0.848314 0.619687 0.727802
O O1 0.250000 0.082218 0.288506
O O2 0.351059 0.123802 0.490128
O O3 0.419187 0.086806 0.243020
O O4 0.355228 0.000000 0.409213
O O5 0.927445 0.873052 0.259548
O O6 0.877387 0.759190 0.392130
O O7 0.000000 0.830462 0.500000
O O8 0.066051 0.500000 0.649127
O O9 0.078279 0.584773 0.852303
O O10 0.086469 0.631266 0.603768
O O11 0.935804 0.579499 0.692150
O O12 0.250000 0.583128 0.907523
O O13 0.354474 0.500000 0.023513
O O14 0.353944 0.626040 0.102500
O O15 0.036858 0.000000 0.823237
O O16 0.000000 0.095066 0.000000
O O17 0.250000 0.326298 0.587262
O O18 0.146230 0.316254 0.375461
O O19 0.750000 0.591424 0.701710
#
# Coordination Sequence:
#
# PCOD9402321 Si02
#       7
#     8   8   8   8   8   8   8
#     4   9  17  31  54  84 115 149 191 236 278 325
#     4  10  19  35  58  80 109 149 191 232 279 338
#     4  11  22  37  57  80 108 143 184 236 299 361
#     4   9  18  34  56  81 107 136 174 223 283 351
#     4   9  18  34  58  89 123 157 192 231 280 337
#     4  11  24  40  56  78 110 147 189 239 291 342
#     4  10  21  36  55  79 106 138 180 231 286 344
#
# _framework density 19.223289999999999
#
# number of rings (size 3 to 8) (size 9 to 14) (size 15 to 20)
#    0.000    2.143    0.000    3.429    0.000    6.286 
#    0.000    8.571    0.000    3.429    0.000    0.000 
#    0.000    0.000    0.000    0.000    0.000    0.000 
#
# Total GULP energy -312042.090800 kJ/mol
# GULP energy per Si atom -5572.180193 kJ/mol
# Density = 1.917954 g / cm^3
# Si number density = 19.223290 Si / 1000 Ang^3
#
#
#
# Elastic Constant Matrix: (Units=GPa)
#
#
# Indices 1 2 3 4 5 6 
#
# 1 109.3606 49.6488 36.5925 0.0000 0.0000 0.0000
# 2 49.6488 93.7868 62.5033 0.0000 0.0000 0.0000
# 3 36.5925 62.5033 114.6792 0.0000 0.0000 0.0000
# 4 0.0000 0.0000 0.0000 -2.9929 0.0000 0.0000
# 5 0.0000 0.0000 0.0000 0.0000 21.2750 0.0000
# 6 0.0000 0.0000 0.0000 0.0000 0.0000 -6.8452
#
#
#
# Elastic Compliance Matrix: (Units=1/GPa)
#
#
# Indices 1 2 3 4 5 6 
#
# 1 0.012061 -0.005999 -0.000579 0.000000 0.000000 0.000000
# 2 -0.005999 0.019729 -0.008838 0.000000 0.000000 0.000000
# 3 -0.000579 -0.008838 0.013722 0.000000 0.000000 0.000000
# 4 0.000000 0.000000 0.000000 -0.334123 0.000000 0.000000
# 5 0.000000 0.000000 0.000000 0.000000 0.047003 0.000000
# 6 0.000000 0.000000 0.000000 0.000000 0.000000 -0.146089
#
#
# Mechanical properties :
#
#
# Convention : Reuss Voigt Hill
#
# Bulk Modulus (GPa) = 68.12515 68.36841 68.24678
# Shear Modulus (GPa) = -14.20574 13.55953 -0.32310
#
# Velocity S-wave (km/s) = -2.72138 2.65876 -0.41042
# Velocity P-wave (km/s) = 5.06372 6.71327 5.94597
#
# Compressibility (1/GPa) = 0.01467887
#
# Stress axis : x y z
#
# Youngs Moduli (GPa) = 82.90938 50.68792 72.87672
#
# Poissons Ratio (x) = 0.30409 0.04218
# Poissons Ratio (y) = 0.49740 0.64411
# Poissons Ratio (z) = 0.04799 0.44800
#
# Static dielectric constant tensor:
#      x y z
#    x 1.707000 0.000000 0.000000 
#    y 0.000000 1.655850 0.000000 
#    z 0.000000 0.000000 1.683260 
# 
# From -- ./inp_files/8494.got.cif
#   From: 2010.05.17/outbox.cif.g08.bks.cpg/sg51_5_cif.got.tgz:8494.got - 2010.06.03 11:52:47.
