data_PCOD9402187
_publ_section_title
;
Structure prediction by ZEFSAII (Michael W. Deem and Ramdas Pophale) SiO2 
 PCOD9402187
Probable space group: P M M A
;
_chemical_formula_sum "Si O2"
_cell_formula_units_Z 64
_cell_length_a 31.641070
_cell_length_b 7.790492
_cell_length_c 12.218757
_cell_angle_alpha 90.000000
_cell_angle_beta 90.000000
_cell_angle_gamma 90.000000
_cell_volume 3011.917524
_symmetry_space_group_name_H-M "P M M A"
_symmetry_group_IT_number 51
_symmetry_cell_setting 'orthorhombic'
loop_
_space_group_symop_operation_xyz
x,y,z
1/2-x,-y,z
1/2+x,-y,-z
-x,y,-z
-x,-y,-z
1/2+x,y,-z
1/2-x,y,z
x,-y,z
loop_
_atom_site_type_symbol
_atom_site_label
_atom_site_fract_x
_atom_site_fract_y
_atom_site_fract_z
Si Si1 0.380597 0.199568 0.856966
Si Si2 0.583010 0.291550 0.509459
Si Si3 0.050280 0.707281 0.248791
Si Si4 0.680591 0.799512 0.499832
Si Si5 0.628116 0.202153 0.899198
Si Si6 0.296181 0.699452 0.738355
Si Si7 0.702818 0.790094 0.743100
Si Si8 0.958558 0.701073 0.289698
O O1 0.336368 0.212679 0.793196
O O2 0.418082 0.283607 0.787844
O O3 0.392485 0.000000 0.866167
O O4 0.375075 0.274480 0.978565
O O5 0.585824 0.500000 0.503243
O O6 0.564874 0.248008 0.628111
O O7 0.630023 0.219828 0.496849
O O8 0.554296 0.228610 0.408802
O O9 0.052286 0.500000 0.237312
O O10 0.083955 0.779325 0.163694
O O11 0.001961 0.769291 0.238339
O O12 0.699015 0.711328 0.392646
O O13 0.695504 0.732906 0.617894
O O14 0.692120 0.000000 0.492547
O O15 0.665654 0.272938 0.822548
O O16 0.637636 0.000000 0.912151
O O17 0.250000 0.769659 0.769473
O O18 0.297930 0.500000 0.769824
O O19 0.750000 0.742876 0.779302
O O20 0.700530 0.000000 0.740056
O O21 0.967306 0.500000 0.308666
#
# Coordination Sequence:
#
# PCOD9402187 Si02
#       8
#     8   8   8   8   8   8   8   8
#     4  11  24  40  60  85 114 152 198 246 291 339
#     4  10  19  34  58  86 118 152 188 234 291 349
#     4  10  21  37  60  88 116 152 195 237 287 349
#     4  11  20  33  59  90 120 151 187 232 285 345
#     4  10  22  40  59  82 114 152 195 244 294 340
#     4  11  24  41  61  86 119 156 191 233 288 346
#     4   9  18  34  57  84 114 148 185 229 283 340
#     4  10  21  38  60  85 117 155 192 236 290 347
#
# _framework density 21.248923000000001
#
# number of rings (size 3 to 8) (size 9 to 14) (size 15 to 20)
#    0.000    1.750    2.500    1.875    0.000    5.500 
#    0.000    3.750    0.000    3.375    0.000    0.000 
#    0.000    0.000    0.000    0.000    0.000    0.000 
#
# Total GULP energy -357592.588657 kJ/mol
# GULP energy per Si atom -5587.384198 kJ/mol
# Density = 2.120056 g / cm^3
# Si number density = 21.248923 Si / 1000 Ang^3
#
#
#
# Elastic Constant Matrix: (Units=GPa)
#
#
# Indices 1 2 3 4 5 6 
#
# 1 115.8634 -17.9218 23.4496 0.0000 0.0000 0.0000
# 2 -17.9218 24.8252 -9.6192 0.0000 0.0000 0.0000
# 3 23.4496 -9.6192 110.1064 0.0000 0.0000 0.0000
# 4 0.0000 0.0000 0.0000 33.7503 0.0000 0.0000
# 5 0.0000 0.0000 0.0000 0.0000 -0.8671 0.0000
# 6 0.0000 0.0000 0.0000 0.0000 0.0000 15.8231
#
#
#
# Elastic Compliance Matrix: (Units=1/GPa)
#
#
# Indices 1 2 3 4 5 6 
#
# 1 0.009964 0.006594 -0.001546 0.000000 0.000000 0.000000
# 2 0.006594 0.046057 0.002619 0.000000 0.000000 0.000000
# 3 -0.001546 0.002619 0.009640 0.000000 0.000000 0.000000
# 4 0.000000 0.000000 0.000000 0.029629 0.000000 0.000000
# 5 0.000000 0.000000 0.000000 0.000000 -1.153209 0.000000
# 6 0.000000 0.000000 0.000000 0.000000 0.000000 0.063199
#
#
# Mechanical properties :
#
#
# Convention : Reuss Voigt Hill
#
# Bulk Modulus (GPa) = 12.34638 26.95692 19.65165
# Shear Modulus (GPa) = -5.08618 26.73368 10.82375
#
# Velocity S-wave (km/s) = -1.54881 3.55085 2.25939
# Velocity P-wave (km/s) = 1.62005 5.43370 4.00934
#
# Compressibility (1/GPa) = 0.08099538
#
# Stress axis : x y z
#
# Youngs Moduli (GPa) = 100.36449 21.71232 103.73234
#
# Poissons Ratio (x) = -0.14317 0.16036
# Poissons Ratio (y) = -0.66180 -0.27171
# Poissons Ratio (z) = 0.15516 -0.05687
#
# Static dielectric constant tensor:
#      x y z
#    x 1.751090 0.000000 0.000000 
#    y 0.000000 1.790670 0.000000 
#    z 0.000000 0.000000 1.747920 
# 
# From -- ./inp_files/19613.got.cif
#   From: 2010.05.17/outbox.cif.g08.bks.cpg/sg51_10_cif.got.tgz:19613.got - 2010.06.03 11:52:47.
