data_PCOD9402570
_publ_section_title
;
Structure prediction by ZEFSAII (Michael W. Deem and Ramdas Pophale) SiO2 
 PCOD9402570
Probable space group: P M M A
;
_chemical_formula_sum "Si O2"
_cell_formula_units_Z 48
_cell_length_a 14.449390
_cell_length_b 7.335568
_cell_length_c 21.625845
_cell_angle_alpha 90.000000
_cell_angle_beta 90.000000
_cell_angle_gamma 90.000000
_cell_volume 2292.220258
_symmetry_space_group_name_H-M "P M M A"
_symmetry_group_IT_number 51
_symmetry_cell_setting 'orthorhombic'
loop_
_space_group_symop_operation_xyz
x,y,z
1/2-x,-y,z
1/2+x,-y,-z
-x,y,-z
-x,-y,-z
1/2+x,y,-z
1/2-x,y,z
x,-y,z
loop_
_atom_site_type_symbol
_atom_site_label
_atom_site_fract_x
_atom_site_fract_y
_atom_site_fract_z
Si Si1 0.354988 0.277648 0.466824
Si Si2 0.956733 0.281976 0.408448
Si Si3 0.855234 0.777923 0.898482
Si Si4 0.854830 0.783834 0.280139
Si Si5 0.036893 0.777097 0.840174
Si Si6 0.142188 0.220873 0.963138
O O1 0.250000 0.216537 0.454640
O O2 0.352736 0.500000 0.466000
O O3 0.391091 0.220749 0.534923
O O4 0.437832 0.219160 0.420884
O O5 0.959772 0.500000 0.413573
O O6 0.912305 0.239701 0.342832
O O7 0.750000 0.717945 0.888232
O O8 0.930300 0.721785 0.848206
O O9 0.853696 0.000000 0.899291
O O10 0.886054 0.721310 0.967813
O O11 0.750000 0.711420 0.285478
O O12 0.910221 0.712568 0.220637
O O13 0.846599 0.000000 0.270395
O O14 0.087287 0.717546 0.903207
O O15 0.038718 0.000000 0.839408
O O16 0.250000 0.267691 0.956243
O O17 0.135309 0.000000 0.963328
#
# Coordination Sequence:
#
# PCOD9402570 Si02
#       6
#     8   8   8   8   8   8
#     4   8  14  27  49  74  94 111 138 178 217 249
#     4   9  17  30  50  72  90 113 145 177 210 249
#     4   8  13  20  31  48  69  96 134 178 217 249
#     4  10  20  31  42  60  89 121 147 173 212 261
#     4   9  15  23  34  48  73 109 140 165 203 257
#     4   8  12  18  30  48  68  93 130 173 212 249
#
# _framework density 20.940397000000001
#
# number of rings (size 3 to 8) (size 9 to 14) (size 15 to 20)
#    0.000    3.333    0.000    3.500    0.000    5.000 
#    0.000    2.500    0.000    2.500    0.000    0.000 
#    0.000    2.667    0.000    4.000    0.000    3.333 
#
# Total GULP energy -267751.056335 kJ/mol
# GULP energy per Si atom -5578.147007 kJ/mol
# Density = 2.089274 g / cm^3
# Si number density = 20.940397 Si / 1000 Ang^3
#
#
#
# Elastic Constant Matrix: (Units=GPa)
#
#
# Indices 1 2 3 4 5 6 
#
# 1 203.2079 5.8466 129.6127 0.0000 0.0000 0.0000
# 2 5.8466 78.0822 2.3209 0.0000 0.0000 0.0000
# 3 129.6127 2.3209 143.8655 0.0000 0.0000 0.0000
# 4 0.0000 0.0000 0.0000 20.4166 0.0000 0.0000
# 5 0.0000 0.0000 0.0000 0.0000 25.1341 0.0000
# 6 0.0000 0.0000 0.0000 0.0000 0.0000 -6.1619
#
#
#
# Elastic Compliance Matrix: (Units=1/GPa)
#
#
# Indices 1 2 3 4 5 6 
#
# 1 0.011594 -0.000558 -0.010436 0.000000 0.000000 0.000000
# 2 -0.000558 0.012840 0.000295 0.000000 0.000000 0.000000
# 3 -0.010436 0.000295 0.016348 0.000000 0.000000 0.000000
# 4 0.000000 0.000000 0.000000 0.048980 0.000000 0.000000
# 5 0.000000 0.000000 0.000000 0.000000 0.039787 0.000000
# 6 0.000000 0.000000 0.000000 0.000000 0.000000 -0.162288
#
#
# Mechanical properties :
#
#
# Convention : Reuss Voigt Hill
#
# Bulk Modulus (GPa) = 51.58618 77.85733 64.72175
# Shear Modulus (GPa) = -1024.29183 27.03612 -498.62785
#
# Velocity S-wave (km/s) = -22.14065 3.59708 -15.44780
# Velocity P-wave (km/s) = 25.07833 7.38330 16.94712
#
# Compressibility (1/GPa) = 0.01938504
#
# Stress axis : x y z
#
# Youngs Moduli (GPa) = 86.25515 77.88160 61.16870
#
# Poissons Ratio (x) = 0.04345 0.63835
# Poissons Ratio (y) = 0.04812 -0.01807
# Poissons Ratio (z) = 0.90015 -0.02301
#
# Static dielectric constant tensor:
#      x y z
#    x 1.762290 0.000000 0.000000 
#    y 0.000000 1.849290 0.000000 
#    z 0.000000 0.000000 1.707700 
# 
# From -- ./inp_files/29477.got.cif
#   From: 2010.05.17/outbox.cif.g08.bks.cpg/sg51_15_cif.got.tgz:29477.got - 2010.06.03 11:52:47.
