data_PCOD9402470
_publ_section_title
;
Structure prediction by ZEFSAII (Michael W. Deem and Ramdas Pophale) SiO2 
 PCOD9402470
Probable space group: P M M A
;
_chemical_formula_sum "Si O2"
_cell_formula_units_Z 48
_cell_length_a 18.642001
_cell_length_b 8.203689
_cell_length_c 16.458467
_cell_angle_alpha 90.000000
_cell_angle_beta 90.000000
_cell_angle_gamma 90.000000
_cell_volume 2517.045672
_symmetry_space_group_name_H-M "P M M A"
_symmetry_group_IT_number 51
_symmetry_cell_setting 'orthorhombic'
loop_
_space_group_symop_operation_xyz
x,y,z
1/2-x,-y,z
1/2+x,-y,-z
-x,y,-z
-x,-y,-z
1/2+x,y,-z
1/2-x,y,z
x,-y,z
loop_
_atom_site_type_symbol
_atom_site_label
_atom_site_fract_x
_atom_site_fract_y
_atom_site_fract_z
Si Si1 0.527954 0.802869 0.134148
Si Si2 0.537881 0.691807 0.319236
Si Si3 0.606192 0.801451 0.977903
Si Si4 0.750000 0.800043 0.894132
Si Si5 0.332498 0.196080 0.572386
Si Si6 0.612135 0.196999 0.603386
Si Si7 0.750000 0.800853 0.707554
O O1 0.532410 0.734807 0.224109
O O2 0.455955 0.755190 0.085531
O O3 0.528451 0.000000 0.140823
O O4 0.589135 0.751137 0.069957
O O5 0.540518 0.500000 0.329341
O O6 0.610849 0.762296 0.357667
O O7 0.466073 0.753038 0.365063
O O8 0.680399 0.744547 0.941934
O O9 0.605547 0.000000 0.979094
O O10 0.750000 0.748205 0.800747
O O11 0.750000 0.000000 0.893381
O O12 0.250000 0.255157 0.582431
O O13 0.367004 0.254237 0.487078
O O14 0.328352 0.000000 0.567362
O O15 0.677260 0.251045 0.662109
O O16 0.612744 0.000000 0.602716
O O17 0.750000 0.000000 0.706041
#
# Coordination Sequence:
#
# PCOD9402470 Si02
#       7
#     8   8   8   4   8   8   4
#     4   9  17  34  55  76 104 142 185 231 275 320
#     4  12  25  37  53  82 116 154 193 225 271 337
#     4   8  15  28  51  79 107 136 174 229 288 329
#     4   9  14  22  42  80 113 130 158 213 281 337
#     4  10  21  40  63  85 109 141 187 239 286 329
#     4  10  19  36  61  87 112 141 183 234 284 332
#     4   9  16  28  55  90 117 138 170 227 289 335
#
# _framework density 19.069976
#
# number of rings (size 3 to 8) (size 9 to 14) (size 15 to 20)
#    0.000    2.333    0.833    4.000    0.000    5.667 
#    1.500    2.083    0.000    0.000    0.000    1.167 
#    0.000    0.000    0.000    0.000    0.000    0.000 
#
# Total GULP energy -267780.924277 kJ/mol
# GULP energy per Si atom -5578.769256 kJ/mol
# Density = 1.902657 g / cm^3
# Si number density = 19.069976 Si / 1000 Ang^3
#
#
#
# Elastic Constant Matrix: (Units=GPa)
#
#
# Indices 1 2 3 4 5 6 
#
# 1 138.3862 14.8155 95.8211 0.0000 0.0000 0.0000
# 2 14.8155 17.2585 10.3611 0.0000 0.0000 0.0000
# 3 95.8211 10.3611 125.1515 0.0000 0.0000 0.0000
# 4 0.0000 0.0000 0.0000 -13.0428 0.0000 0.0000
# 5 0.0000 0.0000 0.0000 0.0000 25.4884 0.0000
# 6 0.0000 0.0000 0.0000 0.0000 0.0000 -16.6530
#
#
#
# Elastic Compliance Matrix: (Units=1/GPa)
#
#
# Indices 1 2 3 4 5 6 
#
# 1 0.016094 -0.006754 -0.011763 0.000000 0.000000 0.000000
# 2 -0.006754 0.063807 -0.000111 0.000000 0.000000 0.000000
# 3 -0.011763 -0.000111 0.017006 0.000000 0.000000 0.000000
# 4 0.000000 0.000000 0.000000 -0.076671 0.000000 0.000000
# 5 0.000000 0.000000 0.000000 0.000000 0.039234 0.000000
# 6 0.000000 0.000000 0.000000 0.000000 0.000000 -0.060049
#
#
# Mechanical properties :
#
#
# Convention : Reuss Voigt Hill
#
# Bulk Modulus (GPa) = 16.76444 58.08796 37.42620
# Shear Modulus (GPa) = 88.39865 9.81176 49.10520
#
# Velocity S-wave (km/s) = 6.81583 2.27075 5.07995
# Velocity P-wave (km/s) = 8.41135 6.11569 7.35365
#
# Compressibility (1/GPa) = 0.05965008
#
# Stress axis : x y z
#
# Youngs Moduli (GPa) = 62.13343 15.67223 58.80258
#
# Poissons Ratio (x) = 0.10585 0.69172
# Poissons Ratio (y) = 0.41965 0.00655
# Poissons Ratio (z) = 0.73090 0.00175
#
# Static dielectric constant tensor:
#      x y z
#    x 1.660830 0.000000 0.000000 
#    y 0.000000 1.663290 0.000000 
#    z 0.000000 0.000000 1.644280 
# 
# From -- ./inp_files/24863.got.cif
#   From: 2010.05.17/outbox.cif.g08.bks.cpg/sg51_13_cif.got.tgz:24863.got - 2010.06.03 11:52:47.
