data_PCOD9402899
_publ_section_title
;
Structure prediction by ZEFSAII (Michael W. Deem and Ramdas Pophale) SiO2 
 PCOD9402899
Probable space group: P M M A
;
_chemical_formula_sum "Si O2"
_cell_formula_units_Z 64
_cell_length_a 9.800213
_cell_length_b 17.565274
_cell_length_c 18.385417
_cell_angle_alpha 90.000000
_cell_angle_beta 90.000000
_cell_angle_gamma 90.000000
_cell_volume 3164.928682
_symmetry_space_group_name_H-M "P M M A"
_symmetry_group_IT_number 51
_symmetry_cell_setting 'orthorhombic'
loop_
_space_group_symop_operation_xyz
x,y,z
1/2-x,-y,z
1/2+x,-y,-z
-x,y,-z
-x,-y,-z
1/2+x,y,-z
1/2-x,y,z
x,-y,z
loop_
_atom_site_type_symbol
_atom_site_label
_atom_site_fract_x
_atom_site_fract_y
_atom_site_fract_z
Si Si1 0.900470 0.410421 0.438748
Si Si2 0.087021 0.910464 0.300655
Si Si3 0.597536 0.813894 0.193018
Si Si4 0.599614 0.086101 0.055302
Si Si5 0.594506 0.411717 0.827253
Si Si6 0.094336 0.347128 0.329649
Si Si7 0.409256 0.197072 0.428147
Si Si8 0.585584 0.318841 0.074077
O O1 0.750000 0.375937 0.439820
O O2 0.887133 0.500000 0.453294
O O3 0.000000 0.377596 0.500000
O O4 0.978784 0.399657 0.363984
O O5 0.250000 0.904403 0.286226
O O6 0.063972 0.880233 0.382715
O O7 0.007152 0.849328 0.250504
O O8 0.048480 0.000000 0.290847
O O9 0.750000 0.799276 0.224671
O O10 0.606996 0.880431 0.134061
O O11 0.564111 0.744492 0.137904
O O12 0.750000 0.087645 0.022247
O O13 0.552565 0.000000 0.064636
O O14 0.500000 0.127213 0.000000
O O15 0.750000 0.401364 0.855722
O O16 0.582702 0.500000 0.803508
O O17 0.582304 0.356672 0.756796
O O18 0.482660 0.392211 0.887703
O O19 0.250000 0.371523 0.348386
O O20 0.072484 0.266022 0.369289
O O21 0.500000 0.203434 0.500000
O O22 0.250000 0.199062 0.448890
O O23 0.750000 0.322734 0.061171
O O24 0.500000 0.304489 0.000000
#
# Coordination Sequence:
#
# PCOD9402899 Si02
#       8
#     8   8   8   8   8   8   8   8
#     4  10  20  32  48  74 110 151 193 238 288 345
#     4  10  22  40  62  88 118 155 200 248 297 351
#     4  10  21  37  58  86 118 152 192 240 296 355
#     4   9  17  29  46  71 106 146 186 228 274 329
#     4  10  22  41  65  91 120 158 202 247 299 359
#     4  10  20  36  59  85 114 149 190 239 295 354
#     4  10  22  39  59  86 119 154 195 243 293 348
#     4  11  24  41  63  91 123 160 202 249 300 355
#
# _framework density 20.221623999999998
#
# number of rings (size 3 to 8) (size 9 to 14) (size 15 to 20)
#    0.000    2.000    0.000    3.000    0.000    7.750 
#    0.000    1.250    0.000    0.000    0.000    0.000 
#    0.000    0.000    0.000    0.000    0.000    0.000 
#
# Total GULP energy -356483.802731 kJ/mol
# GULP energy per Si atom -5570.059418 kJ/mol
# Density = 2.017560 g / cm^3
# Si number density = 20.221624 Si / 1000 Ang^3
#
#
#
# Elastic Constant Matrix: (Units=GPa)
#
#
# Indices 1 2 3 4 5 6 
#
# 1 115.2471 40.8520 80.5862 0.0000 0.0000 0.0000
# 2 40.8520 56.1400 44.1562 0.0000 0.0000 0.0000
# 3 80.5862 44.1562 93.6028 0.0000 0.0000 0.0000
# 4 0.0000 0.0000 0.0000 27.0504 0.0000 0.0000
# 5 0.0000 0.0000 0.0000 0.0000 35.2900 0.0000
# 6 0.0000 0.0000 0.0000 0.0000 0.0000 20.4499
#
#
#
# Elastic Compliance Matrix: (Units=1/GPa)
#
#
# Indices 1 2 3 4 5 6 
#
# 1 0.021911 -0.001760 -0.018034 0.000000 0.000000 0.000000
# 2 -0.001760 0.028462 -0.011911 0.000000 0.000000 0.000000
# 3 -0.018034 -0.011911 0.031828 0.000000 0.000000 0.000000
# 4 0.000000 0.000000 0.000000 0.036968 0.000000 0.000000
# 5 0.000000 0.000000 0.000000 0.000000 0.028337 0.000000
# 6 0.000000 0.000000 0.000000 0.000000 0.000000 0.048900
#
#
# Mechanical properties :
#
#
# Convention : Reuss Voigt Hill
#
# Bulk Modulus (GPa) = 53.21646 66.24209 59.72927
# Shear Modulus (GPa) = 18.79135 23.18443 20.98789
#
# Velocity S-wave (km/s) = 3.05170 3.38970 3.22513
# Velocity P-wave (km/s) = 6.22823 6.93897 6.59318
#
# Compressibility (1/GPa) = 0.01879118
#
# Stress axis : x y z
#
# Youngs Moduli (GPa) = 45.63957 35.13435 31.41853
#
# Poissons Ratio (x) = 0.06184 0.56659
# Poissons Ratio (y) = 0.08033 0.37424
# Poissons Ratio (z) = 0.82304 0.41850
#
# Static dielectric constant tensor:
#      x y z
#    x 1.759670 0.000000 0.000000 
#    y 0.000000 1.777620 0.000000 
#    z 0.000000 0.000000 1.718140 
# 
# From -- ./inp_files/32393.got.cif
#   From: 2010.05.17/outbox.cif.g08.bks.cpg/sg51_17_cif.got.tgz:32393.got - 2010.06.03 11:52:47.
