data_PCOD9402194
_publ_section_title
;
Structure prediction by ZEFSAII (Michael W. Deem and Ramdas Pophale) SiO2 
 PCOD9402194
Probable space group: P M M A
;
_chemical_formula_sum "Si O2"
_cell_formula_units_Z 64
_cell_length_a 9.121749
_cell_length_b 24.954810
_cell_length_c 14.788516
_cell_angle_alpha 90.000000
_cell_angle_beta 90.000000
_cell_angle_gamma 90.000000
_cell_volume 3366.332275
_symmetry_space_group_name_H-M "P M M A"
_symmetry_group_IT_number 51
_symmetry_cell_setting 'orthorhombic'
loop_
_space_group_symop_operation_xyz
x,y,z
1/2-x,-y,z
1/2+x,-y,-z
-x,y,-z
-x,-y,-z
1/2+x,y,-z
1/2-x,y,z
x,-y,z
loop_
_atom_site_type_symbol
_atom_site_label
_atom_site_fract_x
_atom_site_fract_y
_atom_site_fract_z
Si Si1 0.419199 0.648778 0.591122
Si Si2 0.079093 0.250238 0.723027
Si Si3 0.081016 0.565418 0.089607
Si Si4 0.428273 0.939635 0.284623
Si Si5 0.077577 0.106181 0.092457
Si Si6 0.072997 0.838133 0.402240
Si Si7 0.422634 0.235562 0.093215
Si Si8 0.073465 0.436986 0.289397
O O1 0.500000 0.665742 0.500000
O O2 0.250000 0.636973 0.571390
O O3 0.426603 0.696291 0.663598
O O4 0.498131 0.597707 0.634267
O O5 0.250000 0.234486 0.733957
O O6 0.990082 0.205261 0.667867
O O7 0.003790 0.258688 0.819666
O O8 0.250000 0.581704 0.084305
O O9 0.077643 0.500000 0.089010
O O10 0.022687 0.580820 0.188591
O O11 0.000000 0.584545 0.000000
O O12 0.250000 0.939583 0.281340
O O13 0.478191 0.920503 0.184992
O O14 0.467339 0.896002 0.359995
O O15 0.477655 0.000000 0.303719
O O16 0.250000 0.094298 0.084550
O O17 0.062523 0.170636 0.100768
O O18 0.000000 0.089008 0.000000
O O19 0.250000 0.833655 0.407917
O O20 0.000000 0.830636 0.500000
O O21 0.250000 0.248241 0.092735
O O22 0.500000 0.251909 0.000000
O O23 0.250000 0.430897 0.291950
O O24 0.041523 0.500000 0.299435
#
# Coordination Sequence:
#
# PCOD9402194 Si02
#       8
#     8   8   8   8   8   8   8   8
#     4  11  25  42  61  86 114 147 190 238 292 344
#     4  11  23  40  62  88 116 149 190 239 288 343
#     4   8  14  26  47  77 111 146 184 224 266 315
#     4   9  18  34  54  77 111 151 189 232 284 344
#     4   9  17  31  51  79 110 146 186 225 274 333
#     4  11  22  38  59  84 109 144 191 238 295 352
#     4  10  19  34  58  89 120 154 191 233 284 341
#     4   9  19  37  60  86 118 156 195 234 281 337
#
# _framework density 19.011787999999999
#
# number of rings (size 3 to 8) (size 9 to 14) (size 15 to 20)
#    0.000    2.250    1.250    2.625    0.000    5.000 
#    0.000    1.875    0.000    4.125    0.000    0.000 
#    0.000    0.000    0.000    0.000    0.000    0.000 
#
# Total GULP energy -357254.674246 kJ/mol
# GULP energy per Si atom -5582.104285 kJ/mol
# Density = 1.896852 g / cm^3
# Si number density = 19.011788 Si / 1000 Ang^3
#
#
#
# Elastic Constant Matrix: (Units=GPa)
#
#
# Indices 1 2 3 4 5 6 
#
# 1 81.6691 32.8073 60.7958 0.0000 0.0000 0.0000
# 2 32.8073 31.1363 23.8987 0.0000 0.0000 0.0000
# 3 60.7958 23.8987 135.8227 0.0000 0.0000 0.0000
# 4 0.0000 0.0000 0.0000 11.5697 0.0000 0.0000
# 5 0.0000 0.0000 0.0000 0.0000 36.5587 0.0000
# 6 0.0000 0.0000 0.0000 0.0000 0.0000 8.2921
#
#
#
# Elastic Compliance Matrix: (Units=1/GPa)
#
#
# Indices 1 2 3 4 5 6 
#
# 1 0.027545 -0.022614 -0.008350 0.000000 0.000000 0.000000
# 2 -0.022614 0.055697 0.000322 0.000000 0.000000 0.000000
# 3 -0.008350 0.000322 0.011044 0.000000 0.000000 0.000000
# 4 0.000000 0.000000 0.000000 0.086432 0.000000 0.000000
# 5 0.000000 0.000000 0.000000 0.000000 0.027353 0.000000
# 6 0.000000 0.000000 0.000000 0.000000 0.000000 0.120597
#
#
# Mechanical properties :
#
#
# Convention : Reuss Voigt Hill
#
# Bulk Modulus (GPa) = 30.30187 53.73685 42.01936
# Shear Modulus (GPa) = 12.47028 20.02585 16.24806
#
# Velocity S-wave (km/s) = 2.56388 3.24904 2.92658
# Velocity P-wave (km/s) = 4.97370 6.51163 5.79392
#
# Compressibility (1/GPa) = 0.03300126
#
# Stress axis : x y z
#
# Youngs Moduli (GPa) = 36.30441 17.95424 90.55015
#
# Poissons Ratio (x) = 0.40601 0.75613
# Poissons Ratio (y) = 0.82098 -0.02915
# Poissons Ratio (z) = 0.30316 -0.00578
#
# Static dielectric constant tensor:
#      x y z
#    x 1.639610 0.000000 0.000000 
#    y 0.000000 1.663640 0.000000 
#    z 0.000000 0.000000 1.650660 
# 
# From -- ./inp_files/22310.got.cif
#   From: 2010.05.17/outbox.cif.g08.bks.cpg/sg51_12_cif.got.tgz:22310.got - 2010.06.03 11:52:47.
