data_PCOD9402505
_publ_section_title
;
Structure prediction by ZEFSAII (Michael W. Deem and Ramdas Pophale) SiO2 
 PCOD9402505
Probable space group: P M M A
;
_chemical_formula_sum "Si O2"
_cell_formula_units_Z 22
_cell_length_a 7.528440
_cell_length_b 15.423100
_cell_length_c 7.338263
_cell_angle_alpha 90.000000
_cell_angle_beta 90.000000
_cell_angle_gamma 90.000000
_cell_volume 852.059535
_symmetry_space_group_name_H-M "P M M A"
_symmetry_group_IT_number 51
_symmetry_cell_setting 'orthorhombic'
loop_
_space_group_symop_operation_xyz
x,y,z
1/2-x,-y,z
1/2+x,-y,-z
-x,y,-z
-x,-y,-z
1/2+x,y,-z
1/2-x,y,z
x,-y,z
loop_
_atom_site_type_symbol
_atom_site_label
_atom_site_fract_x
_atom_site_fract_y
_atom_site_fract_z
Si Si1 0.961682 0.186496 0.784094
Si Si2 0.462935 0.000000 0.217578
Si Si3 0.250000 0.500000 0.144889
Si Si4 0.549768 0.378903 0.294106
O O1 0.750000 0.190415 0.755305
O O2 0.041803 0.274879 0.710800
O O3 0.030287 0.093104 0.713429
O O4 0.000000 0.187339 0.000000
O O5 0.250000 0.000000 0.240403
O O6 0.500000 0.000000 0.000000
O O7 0.404598 0.424392 0.170163
O O8 0.500000 0.404826 0.500000
O O9 0.750000 0.405864 0.247725
#
# Coordination Sequence:
#
# PCOD9402505 Si02
#       4
#     8   4   2   8
#     4  10  19  37  60  91 126 159 197 244 295 354
#     4   8  16  30  57  86 119 160 196 231 285 355
#     4  12  24  44  64  86 120 150 212 242 308 350
#     4  12  24  40  65  90 117 157 202 249 300 354
#
# _framework density 25.819792
#
# number of rings (size 3 to 8) (size 9 to 14) (size 15 to 20)
#    0.000    1.455    3.636    2.182    0.000    1.455 
#    0.000    1.818    0.000    0.000    0.000    0.000 
#    0.000    0.000    0.000    0.000    0.000    0.000 
#
# Total GULP energy -122720.988162 kJ/mol
# GULP energy per Si atom -5578.226735 kJ/mol
# Density = 2.576103 g / cm^3
# Si number density = 25.819792 Si / 1000 Ang^3
#
#
#
# Elastic Constant Matrix: (Units=GPa)
#
#
# Indices 1 2 3 4 5 6 
#
# 1 228.7458 55.5350 10.0361 0.0000 0.0000 0.0000
# 2 55.5350 292.1062 7.5926 0.0000 0.0000 0.0000
# 3 10.0361 7.5926 88.5183 0.0000 0.0000 0.0000
# 4 0.0000 0.0000 0.0000 211.8817 0.0000 0.0000
# 5 0.0000 0.0000 0.0000 0.0000 19.2362 0.0000
# 6 0.0000 0.0000 0.0000 0.0000 0.0000 53.9071
#
#
#
# Elastic Compliance Matrix: (Units=1/GPa)
#
#
# Indices 1 2 3 4 5 6 
#
# 1 0.004601 -0.000863 -0.000448 0.000000 0.000000 0.000000
# 2 -0.000863 0.003593 -0.000210 0.000000 0.000000 0.000000
# 3 -0.000448 -0.000210 0.011366 0.000000 0.000000 0.000000
# 4 0.000000 0.000000 0.000000 0.004720 0.000000 0.000000
# 5 0.000000 0.000000 0.000000 0.000000 0.051985 0.000000
# 6 0.000000 0.000000 0.000000 0.000000 0.000000 0.018550
#
#
# Mechanical properties :
#
#
# Convention : Reuss Voigt Hill
#
# Bulk Modulus (GPa) = 60.54123 83.96640 72.25382
# Shear Modulus (GPa) = 48.37324 92.75211 70.56268
#
# Velocity S-wave (km/s) = 4.33308 6.00007 5.23338
# Velocity P-wave (km/s) = 6.96654 8.97730 8.03507
#
# Compressibility (1/GPa) = 0.01651767
#
# Stress axis : x y z
#
# Youngs Moduli (GPa) = 217.35156 278.32155 87.98260
#
# Poissons Ratio (x) = 0.24021 0.03938
# Poissons Ratio (y) = 0.18759 0.01851
# Poissons Ratio (z) = 0.09729 0.05854
#
# Static dielectric constant tensor:
#      x y z
#    x 1.907550 0.000000 0.000000 
#    y 0.000000 2.035310 0.000000 
#    z 0.000000 0.000000 2.079230 
# 
# From -- ./inp_files/4479.got.cif
#   From: 2010.05.17/outbox.cif.g08.bks.cpg/sg51_3_cif.got.tgz:4479.got - 2010.06.03 11:52:47.
