data_PCOD9402439
_publ_section_title
;
Structure prediction by ZEFSAII (Michael W. Deem and Ramdas Pophale) SiO2 
 PCOD9402439
Probable space group: P M M A
;
_chemical_formula_sum "Si O2"
_cell_formula_units_Z 48
_cell_length_a 18.626858
_cell_length_b 8.064868
_cell_length_c 16.540325
_cell_angle_alpha 90.000000
_cell_angle_beta 90.000000
_cell_angle_gamma 90.000000
_cell_volume 2484.739740
_symmetry_space_group_name_H-M "P M M A"
_symmetry_group_IT_number 51
_symmetry_cell_setting 'orthorhombic'
loop_
_space_group_symop_operation_xyz
x,y,z
1/2-x,-y,z
1/2+x,-y,-z
-x,y,-z
-x,-y,-z
1/2+x,y,-z
1/2-x,y,z
x,-y,z
loop_
_atom_site_type_symbol
_atom_site_label
_atom_site_fract_x
_atom_site_fract_y
_atom_site_fract_z
Si Si1 0.250000 0.297051 0.288714
Si Si2 0.667447 0.300148 0.430128
Si Si3 0.027454 0.797358 0.867273
Si Si4 0.613072 0.700314 0.605747
Si Si5 0.250000 0.303268 0.105247
Si Si6 0.461981 0.801883 0.683256
Si Si7 0.105238 0.801163 0.023143
O O1 0.250000 0.500000 0.289811
O O2 0.177354 0.244800 0.334620
O O3 0.250000 0.236499 0.196771
O O4 0.750000 0.241117 0.419260
O O5 0.670793 0.500000 0.434079
O O6 0.634608 0.241571 0.515911
O O7 0.610391 0.254671 0.361369
O O8 0.034156 0.737474 0.775718
O O9 0.954570 0.743615 0.912408
O O10 0.027296 0.000000 0.863806
O O11 0.087837 0.744833 0.931993
O O12 0.613595 0.500000 0.604711
O O13 0.534387 0.752022 0.635584
O O14 0.250000 0.500000 0.112294
O O15 0.318953 0.248612 0.056363
O O16 0.460716 0.000000 0.686091
O O17 0.099441 0.000000 0.021478
#
# Coordination Sequence:
#
# PCOD9402439 Si02
#       7
#     4   8   8   8   4   8   8
#     4   9  18  33  55  80 109 142 176 221 271 315
#     4  10  21  39  59  77 103 144 191 226 255 309
#     4   8  17  35  57  78 100 135 183 222 253 305
#     4  10  19  36  59  80 104 142 187 222 258 315
#     4  11  21  31  47  82 117 134 160 213 275 321
#     4  11  22  35  54  84 114 138 172 224 279 322
#     4   9  17  35  59  75  98 141 184 215 250 309
#
# _framework density 19.317917999999999
#
# number of rings (size 3 to 8) (size 9 to 14) (size 15 to 20)
#    0.000    2.333    0.833    3.250    0.000    3.000 
#    1.500    5.417    0.000    0.000    0.000    0.000 
#    0.000    0.000    0.000    0.000    0.000    0.000 
#
# Total GULP energy -267818.607888 kJ/mol
# GULP energy per Si atom -5579.554331 kJ/mol
# Density = 1.927395 g / cm^3
# Si number density = 19.317918 Si / 1000 Ang^3
#
#
#
# Elastic Constant Matrix: (Units=GPa)
#
#
# Indices 1 2 3 4 5 6 
#
# 1 164.5551 13.4497 125.4344 0.0000 0.0000 0.0000
# 2 13.4497 12.0476 13.9346 0.0000 0.0000 0.0000
# 3 125.4344 13.9346 163.0060 0.0000 0.0000 0.0000
# 4 0.0000 0.0000 0.0000 20.9905 0.0000 0.0000
# 5 0.0000 0.0000 0.0000 0.0000 26.7664 0.0000
# 6 0.0000 0.0000 0.0000 0.0000 0.0000 7.0204
#
#
#
# Elastic Compliance Matrix: (Units=1/GPa)
#
#
# Indices 1 2 3 4 5 6 
#
# 1 0.014848 -0.003730 -0.011107 0.000000 0.000000 0.000000
# 2 -0.003730 0.093049 -0.005084 0.000000 0.000000 0.000000
# 3 -0.011107 -0.005084 0.015116 0.000000 0.000000 0.000000
# 4 0.000000 0.000000 0.000000 0.047641 0.000000 0.000000
# 5 0.000000 0.000000 0.000000 0.000000 0.037360 0.000000
# 6 0.000000 0.000000 0.000000 0.000000 0.000000 0.142442
#
#
# Mechanical properties :
#
#
# Convention : Reuss Voigt Hill
#
# Bulk Modulus (GPa) = 12.02337 71.69399 41.85868
# Shear Modulus (GPa) = 11.96108 23.40812 17.68460
#
# Velocity S-wave (km/s) = 2.49101 3.48477 3.02892
# Velocity P-wave (km/s) = 3.80933 7.30649 5.82648
#
# Compressibility (1/GPa) = 0.08317134
#
# Stress axis : x y z
#
# Youngs Moduli (GPa) = 67.34737 10.74707 66.15333
#
# Poissons Ratio (x) = 0.04008 0.73477
# Poissons Ratio (y) = 0.25118 0.33634
# Poissons Ratio (z) = 0.74804 0.05464
#
# Static dielectric constant tensor:
#      x y z
#    x 1.639790 0.000000 0.000000 
#    y 0.000000 1.699090 0.000000 
#    z 0.000000 0.000000 1.682630 
# 
# From -- ./inp_files/24835.got.cif
#   From: 2010.05.17/outbox.cif.g08.bks.cpg/sg51_13_cif.got.tgz:24835.got - 2010.06.03 11:52:47.
