data_PCOD9402211
_publ_section_title
;
Structure prediction by ZEFSAII (Michael W. Deem and Ramdas Pophale) SiO2 
 PCOD9402211
Probable space group: P M M A
;
_chemical_formula_sum "Si O2"
_cell_formula_units_Z 56
_cell_length_a 15.262637
_cell_length_b 8.817521
_cell_length_c 22.522188
_cell_angle_alpha 90.000000
_cell_angle_beta 90.000000
_cell_angle_gamma 90.000000
_cell_volume 3031.005031
_symmetry_space_group_name_H-M "P M M A"
_symmetry_group_IT_number 51
_symmetry_cell_setting 'orthorhombic'
loop_
_space_group_symop_operation_xyz
x,y,z
1/2-x,-y,z
1/2+x,-y,-z
-x,y,-z
-x,-y,-z
1/2+x,y,-z
1/2-x,y,z
x,-y,z
loop_
_atom_site_type_symbol
_atom_site_label
_atom_site_fract_x
_atom_site_fract_y
_atom_site_fract_z
Si Si1 0.650505 0.320663 0.879896
Si Si2 0.604046 0.676342 0.010474
Si Si3 0.944114 0.182770 0.440813
Si Si4 0.652434 0.817373 0.135897
Si Si5 0.986315 0.181186 0.790234
Si Si6 0.250000 0.816724 0.520140
Si Si7 0.061240 0.318180 0.336594
Si Si8 0.250000 0.316833 0.387892
O O1 0.750000 0.308097 0.858593
O O2 0.625682 0.500000 0.879081
O O3 0.585814 0.228294 0.838658
O O4 0.645444 0.270422 0.948532
O O5 0.628676 0.500000 0.018933
O O6 0.630044 0.764244 0.069414
O O7 0.500000 0.684667 0.000000
O O8 0.842072 0.228089 0.449043
O O9 0.000000 0.221543 0.500000
O O10 0.993125 0.256646 0.385331
O O11 0.946700 0.000000 0.434470
O O12 0.750000 0.765045 0.151465
O O13 0.578738 0.765661 0.182070
O O14 0.651197 0.000000 0.136261
O O15 0.963609 0.255994 0.727787
O O16 0.988343 0.000000 0.783335
O O17 0.250000 0.751271 0.453769
O O18 0.250000 0.000000 0.516650
O O19 0.059080 0.500000 0.336130
O O20 0.160237 0.270741 0.354982
O O21 0.250000 0.500000 0.391941
#
# Coordination Sequence:
#
# PCOD9402211 Si02
#       8
#     8   8   8   8   8   4   8   4
#     4  10  21  37  57  83 117 152 187 232 290 351
#     4  10  19  34  59  87 115 148 188 237 291 347
#     4  10  20  37  62  91 122 154 193 238 285 337
#     4  10  22  40  61  84 112 150 195 245 298 349
#     4  11  24  41  60  83 114 152 198 244 289 345
#     4  10  20  36  62  94 124 156 191 236 289 340
#     4  11  24  41  61  86 120 159 197 239 291 345
#     4  10  22  38  60  90 120 154 191 232 287 346
#
# _framework density 18.475719999999999
#
# number of rings (size 3 to 8) (size 9 to 14) (size 15 to 20)
#    0.000    1.714    2.857    1.286    1.000    4.000 
#    1.286    0.000    0.000    0.000    0.000    0.000 
#    0.000    0.000    0.000    0.000    0.000    0.000 
#
# Total GULP energy -312744.628027 kJ/mol
# GULP energy per Si atom -5584.725500 kJ/mol
# Density = 1.843367 g / cm^3
# Si number density = 18.475720 Si / 1000 Ang^3
#
#
#
# Elastic Constant Matrix: (Units=GPa)
#
#
# Indices 1 2 3 4 5 6 
#
# 1 168.2456 38.9534 92.4068 0.0000 0.0000 0.0000
# 2 38.9534 19.2418 34.2754 0.0000 0.0000 0.0000
# 3 92.4068 34.2754 139.1138 0.0000 0.0000 0.0000
# 4 0.0000 0.0000 0.0000 44.8301 0.0000 0.0000
# 5 0.0000 0.0000 0.0000 0.0000 -5.6686 0.0000
# 6 0.0000 0.0000 0.0000 0.0000 0.0000 32.4767
#
#
#
# Elastic Compliance Matrix: (Units=1/GPa)
#
#
# Indices 1 2 3 4 5 6 
#
# 1 0.012107 -0.018149 -0.003570 0.000000 0.000000 0.000000
# 2 -0.018149 0.119827 -0.017468 0.000000 0.000000 0.000000
# 3 -0.003570 -0.017468 0.013864 0.000000 0.000000 0.000000
# 4 0.000000 0.000000 0.000000 0.022306 0.000000 0.000000
# 5 0.000000 0.000000 0.000000 0.000000 -0.176409 0.000000
# 6 0.000000 0.000000 0.000000 0.000000 0.000000 0.030791
#
#
# Mechanical properties :
#
#
# Convention : Reuss Voigt Hill
#
# Bulk Modulus (GPa) = 14.83171 73.09694 43.96432
# Shear Modulus (GPa) = 40.53986 25.05867 32.79926
#
# Velocity S-wave (km/s) = 4.68934 3.68680 4.21796
# Velocity P-wave (km/s) = 6.11269 7.60085 6.89702
#
# Compressibility (1/GPa) = 0.06742312
#
# Stress axis : x y z
#
# Youngs Moduli (GPa) = 82.59947 8.34533 72.13110
#
# Poissons Ratio (x) = 0.15146 0.25752
# Poissons Ratio (y) = 1.49912 1.25997
# Poissons Ratio (z) = 0.29489 0.14577
#
# Static dielectric constant tensor:
#      x y z
#    x 1.667200 0.000000 0.000000 
#    y 0.000000 1.628290 0.000000 
#    z 0.000000 0.000000 1.595170 
# 
# From -- ./inp_files/33590.got.cif
#   From: 2010.05.17/outbox.cif.g08.bks.cpg/sg51_17_cif.got.tgz:33590.got - 2010.06.03 11:52:47.
