data_PCOD9402090
_publ_section_title
;
Structure prediction by ZEFSAII (Michael W. Deem and Ramdas Pophale) SiO2 
 PCOD9402090
Probable space group: P M M A
;
_chemical_formula_sum "Si O2"
_cell_formula_units_Z 46
_cell_length_a 24.573019
_cell_length_b 11.239704
_cell_length_c 9.703758
_cell_angle_alpha 90.000000
_cell_angle_beta 90.000000
_cell_angle_gamma 90.000000
_cell_volume 2680.114497
_symmetry_space_group_name_H-M "P M M A"
_symmetry_group_IT_number 51
_symmetry_cell_setting 'orthorhombic'
loop_
_space_group_symop_operation_xyz
x,y,z
1/2-x,-y,z
1/2+x,-y,-z
-x,y,-z
-x,-y,-z
1/2+x,y,-z
1/2-x,y,z
x,-y,z
loop_
_atom_site_type_symbol
_atom_site_label
_atom_site_fract_x
_atom_site_fract_y
_atom_site_fract_z
Si Si1 0.250000 0.742700 0.988843
Si Si2 0.250000 0.644604 0.301552
Si Si3 0.188482 0.000000 0.585993
Si Si4 0.953106 0.635019 0.612972
Si Si5 0.151706 0.642143 0.806762
Si Si6 0.972685 0.644379 0.144824
Si Si7 0.343999 0.260046 0.502226
Si Si8 0.750000 0.000000 0.136799
O O1 0.250000 0.700434 0.147596
O O2 0.196459 0.693062 0.910830
O O3 0.250000 0.883436 0.957135
O O4 0.250000 0.500000 0.293548
O O5 0.198628 0.691731 0.389830
O O6 0.161520 0.120510 0.534313
O O7 0.199569 0.000000 0.752308
O O8 0.250000 0.000000 0.528238
O O9 0.933568 0.500000 0.645207
O O10 0.903264 0.707391 0.553347
O O11 0.000000 0.625095 0.500000
O O12 0.984644 0.688972 0.742228
O O13 0.152354 0.500000 0.819215
O O14 0.089696 0.684377 0.837267
O O15 0.165740 0.676801 0.649781
O O16 0.970933 0.500000 0.161688
O O17 0.000000 0.671136 0.000000
#
# Coordination Sequence:
#
# PCOD9402090 Si02
#       8
#     4   4   4   8   8   8   8   2
#     4  12  25  39  58  88 122 157 203 253 300 363
#     4  12  26  39  58  96 129 149 187 259 326 365
#     4  10  20  43  63  86 111 161 222 250 282 358
#     4  10  19  34  56  88 120 152 199 249 307 368
#     4  11  20  36  60  87 119 160 200 247 312 370
#     4   9  19  33  54  82 120 162 194 236 302 375
#     4  12  22  39  64  85 120 161 202 252 299 365
#     4  10  20  44  64  78 112 168 212 242 280 356
#
# _framework density 17.163446
#
# number of rings (size 3 to 8) (size 9 to 14) (size 15 to 20)
#    0.261    1.043    4.348    2.870    2.435    0.696 
#    0.000    0.435    0.000    0.000    0.000    3.043 
#    0.000    0.000    0.000    0.000    0.000    0.000 
#
# Total GULP energy -256539.761740 kJ/mol
# GULP energy per Si atom -5576.951342 kJ/mol
# Density = 1.712438 g / cm^3
# Si number density = 17.163446 Si / 1000 Ang^3
#
#
#
# Elastic Constant Matrix: (Units=GPa)
#
#
# Indices 1 2 3 4 5 6 
#
# 1 115.3657 46.3553 62.3025 0.0000 0.0000 0.0000
# 2 46.3553 111.2788 36.4839 0.0000 0.0000 0.0000
# 3 62.3025 36.4839 140.3010 0.0000 0.0000 0.0000
# 4 0.0000 0.0000 0.0000 4.0151 0.0000 0.0000
# 5 0.0000 0.0000 0.0000 0.0000 26.3959 0.0000
# 6 0.0000 0.0000 0.0000 0.0000 0.0000 11.5409
#
#
#
# Elastic Compliance Matrix: (Units=1/GPa)
#
#
# Indices 1 2 3 4 5 6 
#
# 1 0.012696 -0.003761 -0.004660 0.000000 0.000000 0.000000
# 2 -0.003761 0.010938 -0.001174 0.000000 0.000000 0.000000
# 3 -0.004660 -0.001174 0.009502 0.000000 0.000000 0.000000
# 4 0.000000 0.000000 0.000000 0.249063 0.000000 0.000000
# 5 0.000000 0.000000 0.000000 0.000000 0.037885 0.000000
# 6 0.000000 0.000000 0.000000 0.000000 0.000000 0.086648
#
#
# Mechanical properties :
#
#
# Convention : Reuss Voigt Hill
#
# Bulk Modulus (GPa) = 71.70438 73.02542 72.36490
# Shear Modulus (GPa) = 11.61251 23.17730 17.39491
#
# Velocity S-wave (km/s) = 2.60394 3.67875 3.18698
# Velocity P-wave (km/s) = 7.13504 7.78997 7.46969
#
# Compressibility (1/GPa) = 0.01394615
#
# Stress axis : x y z
#
# Youngs Moduli (GPa) = 78.76679 91.42345 105.24000
#
# Poissons Ratio (x) = 0.34383 0.49039
# Poissons Ratio (y) = 0.29623 0.12358
# Poissons Ratio (z) = 0.36703 0.10736
#
# Static dielectric constant tensor:
#      x y z
#    x 1.591890 0.000000 0.000000 
#    y 0.000000 1.702990 0.000000 
#    z 0.000000 0.000000 1.410900 
# 
# From -- ./inp_files/11725.got.cif
#   From: 2010.05.17/outbox.cif.g08.bks.cpg/sg51_6_cif.got.tgz:11725.got - 2010.06.03 11:52:47.
