data_PCOD9402109
_publ_section_title
;
Structure prediction by ZEFSAII (Michael W. Deem and Ramdas Pophale) SiO2 
 PCOD9402109
Probable space group: P M M A
;
_chemical_formula_sum "Si O2"
_cell_formula_units_Z 48
_cell_length_a 31.740114
_cell_length_b 9.126469
_cell_length_c 9.148047
_cell_angle_alpha 90.000000
_cell_angle_beta 90.000000
_cell_angle_gamma 90.000000
_cell_volume 2649.962038
_symmetry_space_group_name_H-M "P M M A"
_symmetry_group_IT_number 51
_symmetry_cell_setting 'orthorhombic'
loop_
_space_group_symop_operation_xyz
x,y,z
1/2-x,-y,z
1/2+x,-y,-z
-x,y,-z
-x,-y,-z
1/2+x,y,-z
1/2-x,y,z
x,-y,z
loop_
_atom_site_type_symbol
_atom_site_label
_atom_site_fract_x
_atom_site_fract_y
_atom_site_fract_z
Si Si1 0.916562 0.326232 0.179241
Si Si2 0.331975 0.323856 0.643408
Si Si3 0.250000 0.824389 0.148230
Si Si4 0.412027 0.674245 0.168322
Si Si5 0.750000 0.675699 0.166239
Si Si6 0.666149 0.824105 0.671213
Si Si7 0.998072 0.831745 0.822262
O O1 0.924851 0.500000 0.194122
O O2 0.875042 0.289202 0.270627
O O3 0.957957 0.238382 0.227392
O O4 0.908676 0.298992 0.006618
O O5 0.330978 0.500000 0.619056
O O6 0.291713 0.285173 0.742451
O O7 0.330450 0.240633 0.490774
O O8 0.291818 0.784319 0.238427
O O9 0.250000 0.000000 0.130387
O O10 0.250000 0.750140 0.990847
O O11 0.410153 0.500000 0.192522
O O12 0.374250 0.754732 0.249834
O O13 0.457079 0.738085 0.218257
O O14 0.750000 0.500000 0.146854
O O15 0.662692 0.000000 0.667315
O O16 0.993818 0.000000 0.775430
O O17 0.000000 0.829622 0.000000
#
# Coordination Sequence:
#
# PCOD9402109 Si02
#       7
#     8   8   4   8   4   8   8
#     4   9  18  33  54  80 109 142 182 226 273 324
#     4  10  21  37  56  81 112 144 180 224 272 321
#     4  10  23  40  58  82 112 144 179 222 270 320
#     4  10  19  34  57  82 109 143 182 227 276 322
#     4  10  21  38  62  88 110 138 183 230 268 318
#     4  11  23  38  55  79 112 148 184 221 267 325
#     4   9  17  30  51  80 111 142 179 224 271 321
#
# _framework density 18.113467
#
# number of rings (size 3 to 8) (size 9 to 14) (size 15 to 20)
#    0.000    2.167    0.000    3.000    0.000    6.667 
#    0.000    0.833    0.000    5.000    0.000    0.000 
#    0.000    0.000    0.000    0.000    0.000    0.000 
#
# Total GULP energy -268054.359011 kJ/mol
# GULP energy per Si atom -5584.465813 kJ/mol
# Density = 1.807224 g / cm^3
# Si number density = 18.113467 Si / 1000 Ang^3
#
#
#
# Elastic Constant Matrix: (Units=GPa)
#
#
# Indices 1 2 3 4 5 6 
#
# 1 202.8367 89.0357 94.4543 0.0000 0.0000 0.0000
# 2 89.0357 73.7306 69.9629 0.0000 0.0000 0.0000
# 3 94.4543 69.9629 108.8947 0.0000 0.0000 0.0000
# 4 0.0000 0.0000 0.0000 28.5767 0.0000 0.0000
# 5 0.0000 0.0000 0.0000 0.0000 -15.4191 0.0000
# 6 0.0000 0.0000 0.0000 0.0000 0.0000 31.2393
#
#
#
# Elastic Compliance Matrix: (Units=1/GPa)
#
#
# Indices 1 2 3 4 5 6 
#
# 1 0.010755 -0.010594 -0.002522 0.000000 0.000000 0.000000
# 2 -0.010594 0.045181 -0.019839 0.000000 0.000000 0.000000
# 3 -0.002522 -0.019839 0.024117 0.000000 0.000000 0.000000
# 4 0.000000 0.000000 0.000000 0.034994 0.000000 0.000000
# 5 0.000000 0.000000 0.000000 0.000000 -0.064855 0.000000
# 6 0.000000 0.000000 0.000000 0.000000 0.000000 0.032011
#
#
# Mechanical properties :
#
#
# Convention : Reuss Voigt Hill
#
# Bulk Modulus (GPa) = 70.70731 99.15197 84.92964
# Shear Modulus (GPa) = 32.71650 17.67998 25.19824
#
# Velocity S-wave (km/s) = 4.25455 3.12760 3.73384
# Velocity P-wave (km/s) = 7.95333 8.24019 8.09803
#
# Compressibility (1/GPa) = 0.01414281
#
# Stress axis : x y z
#
# Youngs Moduli (GPa) = 92.98114 22.13301 41.46446
#
# Poissons Ratio (x) = 0.23448 0.10458
# Poissons Ratio (y) = 0.98505 0.82261
# Poissons Ratio (z) = 0.23451 0.43910
#
# Static dielectric constant tensor:
#      x y z
#    x 1.601190 0.000000 0.000000 
#    y 0.000000 1.605170 0.000000 
#    z 0.000000 0.000000 1.590850 
# 
# From -- ./inp_files/12909.got.cif
#   From: 2010.05.17/outbox.cif.g08.bks.cpg/sg51_7_cif.got.tgz:12909.got - 2010.06.03 11:52:47.
