data_PCOD9402641
_publ_section_title
;
Structure prediction by ZEFSAII (Michael W. Deem and Ramdas Pophale) SiO2 
 PCOD9402641
Probable space group: P M M A
;
_chemical_formula_sum "Si O2"
_cell_formula_units_Z 48
_cell_length_a 14.445652
_cell_length_b 7.345180
_cell_length_c 21.344127
_cell_angle_alpha 90.000000
_cell_angle_beta 90.000000
_cell_angle_gamma 90.000000
_cell_volume 2264.738107
_symmetry_space_group_name_H-M "P M M A"
_symmetry_group_IT_number 51
_symmetry_cell_setting 'orthorhombic'
loop_
_space_group_symop_operation_xyz
x,y,z
1/2-x,-y,z
1/2+x,-y,-z
-x,y,-z
-x,-y,-z
1/2+x,y,-z
1/2-x,y,z
x,-y,z
loop_
_atom_site_type_symbol
_atom_site_label
_atom_site_fract_x
_atom_site_fract_y
_atom_site_fract_z
Si Si1 0.645336 0.783139 0.782620
Si Si2 0.946577 0.281754 0.649173
Si Si3 0.963013 0.778284 0.903288
Si Si4 0.608450 0.293134 0.518175
Si Si5 0.855016 0.221602 0.028827
Si Si6 0.651060 0.277298 0.382509
O O1 0.750000 0.711293 0.786846
O O2 0.603063 0.754316 0.714163
O O3 0.578724 0.714094 0.837772
O O4 0.651057 0.000000 0.791909
O O5 0.950048 0.500000 0.640643
O O6 0.891628 0.211239 0.587683
O O7 0.053780 0.218194 0.647601
O O8 0.066966 0.720121 0.921310
O O9 0.965007 0.000000 0.902697
O O10 0.895356 0.726712 0.960668
O O11 0.500000 0.301913 0.500000
O O12 0.644053 0.500000 0.523075
O O13 0.650598 0.213843 0.455026
O O14 0.750000 0.283768 0.038680
O O15 0.853284 0.000000 0.029742
O O16 0.750000 0.224534 0.353574
O O17 0.648590 0.500000 0.383520
#
# Coordination Sequence:
#
# PCOD9402641 Si02
#       6
#     8   8   8   8   8   8
#     4  10  20  32  44  59  85 120 148 170 209 265
#     4   9  17  29  45  66  89 111 142 182 214 246
#     4   8  14  24  38  58  84 111 137 168 208 252
#     4   7  11  21  38  61  85 105 131 174 220 251
#     4   8  12  20  38  62  83 103 134 177 215 242
#     4   8  13  23  42  66  88 110 138 175 220 262
#
# _framework density 21.194503000000001
#
# number of rings (size 3 to 8) (size 9 to 14) (size 15 to 20)
#    0.000    3.667    0.000    3.500    0.000    3.000 
#    0.000    2.500    0.000    6.000    0.000    2.333 
#    0.000    1.333    0.000    0.000    0.000    0.000 
#
# Total GULP energy -267451.945897 kJ/mol
# GULP energy per Si atom -5571.915540 kJ/mol
# Density = 2.114626 g / cm^3
# Si number density = 21.194503 Si / 1000 Ang^3
#
#
#
# Elastic Constant Matrix: (Units=GPa)
#
#
# Indices 1 2 3 4 5 6 
#
# 1 172.6820 2.6495 72.5468 0.0000 0.0000 0.0000
# 2 2.6495 78.1629 -1.5535 0.0000 0.0000 0.0000
# 3 72.5468 -1.5535 140.8062 0.0000 0.0000 0.0000
# 4 0.0000 0.0000 0.0000 10.9633 0.0000 0.0000
# 5 0.0000 0.0000 0.0000 0.0000 17.8799 0.0000
# 6 0.0000 0.0000 0.0000 0.0000 0.0000 -6.0331
#
#
#
# Elastic Compliance Matrix: (Units=1/GPa)
#
#
# Indices 1 2 3 4 5 6 
#
# 1 0.007399 -0.000327 -0.003816 0.000000 0.000000 0.000000
# 2 -0.000327 0.012811 0.000310 0.000000 0.000000 0.000000
# 3 -0.003816 0.000310 0.009071 0.000000 0.000000 0.000000
# 4 0.000000 0.000000 0.000000 0.091213 0.000000 0.000000
# 5 0.000000 0.000000 0.000000 0.000000 0.055929 0.000000
# 6 0.000000 0.000000 0.000000 0.000000 0.000000 -0.165751
#
#
# Mechanical properties :
#
#
# Convention : Reuss Voigt Hill
#
# Bulk Modulus (GPa) = 46.26228 59.88183 53.07206
# Shear Modulus (GPa) = 195.74724 25.76257 110.75490
#
# Velocity S-wave (km/s) = 9.62071 3.49023 7.23670
# Velocity P-wave (km/s) = 12.05345 6.67511 9.74276
#
# Compressibility (1/GPa) = 0.02161588
#
# Stress axis : x y z
#
# Youngs Moduli (GPa) = 135.15183 78.05775 110.23697
#
# Poissons Ratio (x) = 0.02550 0.42064
# Poissons Ratio (y) = 0.04415 -0.03413
# Poissons Ratio (z) = 0.51571 -0.02417
#
# Static dielectric constant tensor:
#      x y z
#    x 1.776530 0.000000 0.000000 
#    y 0.000000 1.859510 0.000000 
#    z 0.000000 0.000000 1.739130 
# 
# From -- ./inp_files/33190.got.cif
#   From: 2010.05.17/outbox.cif.g08.bks.cpg/sg51_17_cif.got.tgz:33190.got - 2010.06.03 11:52:47.
