data_PCOD9402910
_publ_section_title
;
Structure prediction by ZEFSAII (Michael W. Deem and Ramdas Pophale) SiO2 
 PCOD9402910
Probable space group: P M M A
;
_chemical_formula_sum "Si O2"
_cell_formula_units_Z 40
_cell_length_a 21.390667
_cell_length_b 7.415445
_cell_length_c 14.692612
_cell_angle_alpha 90.000000
_cell_angle_beta 90.000000
_cell_angle_gamma 90.000000
_cell_volume 2330.561431
_symmetry_space_group_name_H-M "P M M A"
_symmetry_group_IT_number 51
_symmetry_cell_setting 'orthorhombic'
loop_
_space_group_symop_operation_xyz
x,y,z
1/2-x,-y,z
1/2+x,-y,-z
-x,y,-z
-x,-y,-z
1/2+x,y,-z
1/2-x,y,z
x,-y,z
loop_
_atom_site_type_symbol
_atom_site_label
_atom_site_fract_x
_atom_site_fract_y
_atom_site_fract_z
Si Si1 0.987347 0.208001 0.243950
Si Si2 0.961837 0.500000 0.093110
Si Si3 0.681307 0.500000 0.137027
Si Si4 0.843113 0.207695 0.288446
Si Si5 0.317574 0.219754 0.507224
Si Si6 0.551657 0.220370 0.574507
O O1 0.981795 0.329506 0.154962
O O2 0.918389 0.211769 0.288761
O O3 0.032982 0.274962 0.323577
O O4 0.002000 0.000000 0.221501
O O5 0.885490 0.500000 0.083988
O O6 0.000000 0.500000 0.000000
O O7 0.750000 0.500000 0.090458
O O8 0.678353 0.670549 0.205173
O O9 0.821411 0.273389 0.386905
O O10 0.823860 0.000000 0.276635
O O11 0.250000 0.274714 0.469737
O O12 0.379544 0.279777 0.455446
O O13 0.319604 0.000000 0.507546
O O14 0.500000 0.277323 0.500000
O O15 0.550238 0.000000 0.574506
#
# Coordination Sequence:
#
# PCOD9402910 Si02
#       6
#     8   4   4   8   8   8
#     4   9  17  31  52  74  96 128 164 197 239 287
#     4  10  22  38  54  74  97 119 158 210 252 293
#     4  10  20  32  49  73  96 120 151 191 246 301
#     4   9  16  28  45  68  99 130 158 189 230 284
#     4   9  15  22  37  63  96 134 167 195 230 269
#     4   9  14  24  43  66  96 132 165 192 224 276
#
# _framework density 17.163246000000001
#
# number of rings (size 3 to 8) (size 9 to 14) (size 15 to 20)
#    0.000    2.800    2.000    0.600    0.000    1.600 
#    0.000    1.500    0.000    1.200    0.000    0.000 
#    0.000    0.000    0.000    0.000    0.000    0.000 
#
# Total GULP energy -223004.231977 kJ/mol
# GULP energy per Si atom -5575.105799 kJ/mol
# Density = 1.712418 g / cm^3
# Si number density = 17.163246 Si / 1000 Ang^3
#
#
#
# Elastic Constant Matrix: (Units=GPa)
#
#
# Indices 1 2 3 4 5 6 
#
# 1 153.4399 22.1456 70.2480 0.0000 0.0000 0.0000
# 2 22.1456 69.0040 24.3641 0.0000 0.0000 0.0000
# 3 70.2480 24.3641 83.2268 0.0000 0.0000 0.0000
# 4 0.0000 0.0000 0.0000 15.1614 0.0000 0.0000
# 5 0.0000 0.0000 0.0000 0.0000 17.4794 0.0000
# 6 0.0000 0.0000 0.0000 0.0000 0.0000 2.9697
#
#
#
# Elastic Compliance Matrix: (Units=1/GPa)
#
#
# Indices 1 2 3 4 5 6 
#
# 1 0.010626 -0.000272 -0.008890 0.000000 0.000000 0.000000
# 2 -0.000272 0.016169 -0.004504 0.000000 0.000000 0.000000
# 3 -0.008890 -0.004504 0.020837 0.000000 0.000000 0.000000
# 4 0.000000 0.000000 0.000000 0.065957 0.000000 0.000000
# 5 0.000000 0.000000 0.000000 0.000000 0.057210 0.000000
# 6 0.000000 0.000000 0.000000 0.000000 0.000000 0.336734
#
#
# Mechanical properties :
#
#
# Convention : Reuss Voigt Hill
#
# Bulk Modulus (GPa) = 49.25619 59.90960 54.58289
# Shear Modulus (GPa) = 9.23135 19.71630 14.47382
#
# Velocity S-wave (km/s) = 2.32169 3.39300 2.90712
# Velocity P-wave (km/s) = 5.99566 7.09447 6.56808
#
# Compressibility (1/GPa) = 0.02030202
#
# Stress axis : x y z
#
# Youngs Moduli (GPa) = 94.10629 61.84504 47.99073
#
# Poissons Ratio (x) = 0.01679 0.42662
# Poissons Ratio (y) = 0.02555 0.21617
# Poissons Ratio (z) = 0.83658 0.27857
#
# Static dielectric constant tensor:
#      x y z
#    x 1.625140 0.000000 0.000000 
#    y 0.000000 1.640810 0.000000 
#    z 0.000000 0.000000 1.526550 
# 
# From -- ./inp_files/17959.got.cif
#   From: 2010.05.17/outbox.cif.g08.bks.cpg/sg51_9_cif.got.tgz:17959.got - 2010.06.03 11:52:47.
