data_PCOD9402969
_publ_section_title
;
Structure prediction by ZEFSAII (Michael W. Deem and Ramdas Pophale) SiO2 
 PCOD9402969
Probable space group: P M M A
;
_chemical_formula_sum "Si O2"
_cell_formula_units_Z 56
_cell_length_a 14.965371
_cell_length_b 24.292589
_cell_length_c 9.056692
_cell_angle_alpha 90.000000
_cell_angle_beta 90.000000
_cell_angle_gamma 90.000000
_cell_volume 3292.538703
_symmetry_space_group_name_H-M "P M M A"
_symmetry_group_IT_number 51
_symmetry_cell_setting 'orthorhombic'
loop_
_space_group_symop_operation_xyz
x,y,z
1/2-x,-y,z
1/2+x,-y,-z
-x,y,-z
-x,-y,-z
1/2+x,y,-z
1/2-x,y,z
x,-y,z
loop_
_atom_site_type_symbol
_atom_site_label
_atom_site_fract_x
_atom_site_fract_y
_atom_site_fract_z
Si Si1 0.517331 0.938588 0.827768
Si Si2 0.646832 0.063367 0.387674
Si Si3 0.644571 0.140327 0.666690
Si Si4 0.649946 0.343583 0.388453
Si Si5 0.591052 0.561917 0.595700
Si Si6 0.518721 0.645450 0.825676
Si Si7 0.143357 0.730720 0.332854
O O1 0.424820 0.930025 0.740897
O O2 0.586799 0.892174 0.784507
O O3 0.550752 0.000000 0.786706
O O4 0.500000 0.937824 0.000000
O O5 0.750000 0.070033 0.339629
O O6 0.627743 0.107920 0.513767
O O7 0.638152 0.000000 0.443245
O O8 0.750000 0.135402 0.696877
O O9 0.622483 0.204732 0.663022
O O10 0.750000 0.335416 0.329321
O O11 0.648956 0.397691 0.493424
O O12 0.574438 0.347836 0.264082
O O13 0.627107 0.295425 0.505147
O O14 0.500000 0.558612 0.500000
O O15 0.625328 0.500000 0.616602
O O16 0.567203 0.592758 0.748726
O O17 0.582653 0.696762 0.781891
O O18 0.500000 0.640595 0.000000
O O19 0.250000 0.723641 0.302519
#
# Coordination Sequence:
#
# PCOD9402969 Si02
#       7
#     8   8   8   8   8   8   8
#     4  10  21  34  49  73 104 135 162 193 243 306
#     4   9  18  33  52  73  96 124 162 207 251 296
#     4  10  20  34  54  76  96 124 166 214 256 294
#     4   9  18  33  52  73  99 133 173 211 248 297
#     4   8  15  30  51  73  98 131 170 207 242 285
#     4  10  20  32  50  77 107 137 166 204 256 304
#     4   9  19  36  54  72  96 129 171 214 253 297
#
# _framework density 17.008151999999999
#
# number of rings (size 3 to 8) (size 9 to 14) (size 15 to 20)
#    0.000    2.714    0.000    2.143    0.000    6.571 
#    0.000    1.429    0.000    3.429    0.000    4.000 
#    0.000    0.000    0.000    0.000    0.000    0.000 
#
# Total GULP energy -312054.572084 kJ/mol
# GULP energy per Si atom -5572.403073 kJ/mol
# Density = 1.696944 g / cm^3
# Si number density = 17.008152 Si / 1000 Ang^3
#
#
#
# Elastic Constant Matrix: (Units=GPa)
#
#
# Indices 1 2 3 4 5 6 
#
# 1 53.7355 48.4690 50.5302 0.0000 0.0000 0.0000
# 2 48.4690 140.9711 59.9109 0.0000 0.0000 0.0000
# 3 50.5302 59.9109 110.6187 0.0000 0.0000 0.0000
# 4 0.0000 0.0000 0.0000 27.7785 0.0000 0.0000
# 5 0.0000 0.0000 0.0000 0.0000 421.8174 0.0000
# 6 0.0000 0.0000 0.0000 0.0000 0.0000 1.0713
#
#
#
# Elastic Compliance Matrix: (Units=1/GPa)
#
#
# Indices 1 2 3 4 5 6 
#
# 1 0.037664 -0.007324 -0.013238 0.000000 0.000000 0.000000
# 2 -0.007324 0.010639 -0.002416 0.000000 0.000000 0.000000
# 3 -0.013238 -0.002416 0.016396 0.000000 0.000000 0.000000
# 4 0.000000 0.000000 0.000000 0.035999 0.000000 0.000000
# 5 0.000000 0.000000 0.000000 0.000000 0.002371 0.000000
# 6 0.000000 0.000000 0.000000 0.000000 0.000000 0.933435
#
#
# Mechanical properties :
#
#
# Convention : Reuss Voigt Hill
#
# Bulk Modulus (GPa) = 53.35623 69.23838 61.29731
# Shear Modulus (GPa) = 4.59260 99.89445 52.24353
#
# Velocity S-wave (km/s) = 1.64502 7.67208 5.54828
# Velocity P-wave (km/s) = 5.92007 10.92146 8.78423
#
# Compressibility (1/GPa) = 0.01874195
#
# Stress axis : x y z
#
# Youngs Moduli (GPa) = 26.55026 93.99682 60.99014
#
# Poissons Ratio (x) = 0.68840 0.80742
# Poissons Ratio (y) = 0.19445 0.14738
# Poissons Ratio (z) = 0.35149 0.22714
#
# Static dielectric constant tensor:
#      x y z
#    x 1.582260 0.000000 0.000000 
#    y 0.000000 1.589510 0.000000 
#    z 0.000000 0.000000 1.538980 
# 
# From -- ./inp_files/8478.got.cif
#   From: 2010.05.17/outbox.cif.g08.bks.cpg/sg51_5_cif.got.tgz:8478.got - 2010.06.03 11:52:47.
