data_PCOD9402581
_publ_section_title
;
Structure prediction by ZEFSAII (Michael W. Deem and Ramdas Pophale) SiO2 
 PCOD9402581
Probable space group: P M M A
;
_chemical_formula_sum "Si O2"
_cell_formula_units_Z 56
_cell_length_a 18.999263
_cell_length_b 9.253194
_cell_length_c 18.617280
_cell_angle_alpha 90.000000
_cell_angle_beta 90.000000
_cell_angle_gamma 90.000000
_cell_volume 3272.989806
_symmetry_space_group_name_H-M "P M M A"
_symmetry_group_IT_number 51
_symmetry_cell_setting 'orthorhombic'
loop_
_space_group_symop_operation_xyz
x,y,z
1/2-x,-y,z
1/2+x,-y,-z
-x,y,-z
-x,-y,-z
1/2+x,y,-z
1/2-x,y,z
x,-y,z
loop_
_atom_site_type_symbol
_atom_site_label
_atom_site_fract_x
_atom_site_fract_y
_atom_site_fract_z
Si Si1 0.666721 0.174788 0.345168
Si Si2 0.044934 0.166264 0.309625
Si Si3 0.041453 0.327788 0.573408
Si Si4 0.065192 0.673227 0.948080
Si Si5 0.833752 0.667500 0.927783
Si Si6 0.416845 0.165737 0.797883
Si Si7 0.830674 0.173006 0.786191
O O1 0.750000 0.208278 0.352861
O O2 0.614794 0.248569 0.403885
O O3 0.637447 0.215803 0.265167
O O4 0.658197 0.000000 0.350417
O O5 0.120698 0.210742 0.280619
O O6 0.012445 0.275710 0.365627
O O7 0.991924 0.164905 0.242254
O O8 0.046551 0.000000 0.337404
O O9 0.053053 0.500000 0.573906
O O10 0.000000 0.289306 0.500000
O O11 0.059896 0.500000 0.938198
O O12 0.074295 0.745070 0.870666
O O13 0.132277 0.709239 0.997211
O O14 0.000000 0.716903 0.000000
O O15 0.750000 0.680861 0.931877
O O16 0.852250 0.500000 0.914676
O O17 0.858553 0.758975 0.859850
O O18 0.397904 0.000000 0.815777
O O19 0.750000 0.219572 0.776380
O O20 0.832327 0.000000 0.793046
#
# Coordination Sequence:
#
# PCOD9402581 Si02
#       7
#     8   8   8   8   8   8   8
#     4   9  19  37  59  82 108 138 173 213 258 309
#     4   9  18  33  52  73  99 130 163 202 248 298
#     4  10  21  36  55  81 110 138 169 205 245 293
#     4  10  20  31  43  63  92 126 166 211 255 300
#     4   9  18  31  44  60  87 123 159 196 244 300
#     4   9  18  31  48  71  96 125 164 209 255 302
#     4   9  17  30  49  72  95 121 160 208 251 293
#
# _framework density 17.109738
#
# number of rings (size 3 to 8) (size 9 to 14) (size 15 to 20)
#    0.000    2.714    0.000    2.143    0.000    5.714 
#    0.000    0.714    0.000    2.571    0.000    0.000 
#    0.000    0.000    0.000    0.000    0.000    0.000 
#
# Total GULP energy -311808.604605 kJ/mol
# GULP energy per Si atom -5568.010797 kJ/mol
# Density = 1.707080 g / cm^3
# Si number density = 17.109738 Si / 1000 Ang^3
#
#
#
# Elastic Constant Matrix: (Units=GPa)
#
#
# Indices 1 2 3 4 5 6 
#
# 1 87.8679 38.2054 64.4263 0.0000 0.0000 0.0000
# 2 38.2054 30.5586 42.9013 0.0000 0.0000 0.0000
# 3 64.4263 42.9013 96.2745 0.0000 0.0000 0.0000
# 4 0.0000 0.0000 0.0000 31.1530 0.0000 0.0000
# 5 0.0000 0.0000 0.0000 0.0000 20.2667 0.0000
# 6 0.0000 0.0000 0.0000 0.0000 0.0000 18.0418
#
#
#
# Elastic Compliance Matrix: (Units=1/GPa)
#
#
# Indices 1 2 3 4 5 6 
#
# 1 0.027121 -0.022510 -0.008118 0.000000 0.000000 0.000000
# 2 -0.022510 0.106087 -0.032210 0.000000 0.000000 0.000000
# 3 -0.008118 -0.032210 0.030173 0.000000 0.000000 0.000000
# 4 0.000000 0.000000 0.000000 0.032100 0.000000 0.000000
# 5 0.000000 0.000000 0.000000 0.000000 0.049342 0.000000
# 6 0.000000 0.000000 0.000000 0.000000 0.000000 0.055427
#
#
# Mechanical properties :
#
#
# Convention : Reuss Voigt Hill
#
# Bulk Modulus (GPa) = 26.52265 56.19632 41.35948
# Shear Modulus (GPa) = 11.40267 18.50349 14.95308
#
# Velocity S-wave (km/s) = 2.58436 3.29212 2.95947
# Velocity P-wave (km/s) = 4.94372 6.88235 5.99196
#
# Compressibility (1/GPa) = 0.03770363
#
# Stress axis : x y z
#
# Youngs Moduli (GPa) = 36.87246 9.42622 33.14230
#
# Poissons Ratio (x) = 0.21218 0.26905
# Poissons Ratio (y) = 0.83000 1.06752
# Poissons Ratio (z) = 0.29933 0.30362
#
# Static dielectric constant tensor:
#      x y z
#    x 1.611270 0.000000 0.000000 
#    y 0.000000 1.584630 0.000000 
#    z 0.000000 0.000000 1.571990 
# 
# From -- ./inp_files/25733.got.cif
#   From: 2010.05.17/outbox.cif.g08.bks.cpg/sg51_13_cif.got.tgz:25733.got - 2010.06.03 11:52:47.
