data_PCOD9402434
_publ_section_title
;
Structure prediction by ZEFSAII (Michael W. Deem and Ramdas Pophale) SiO2 
 PCOD9402434
Probable space group: P M M A
;
_chemical_formula_sum "Si O2"
_cell_formula_units_Z 32
_cell_length_a 16.309207
_cell_length_b 12.033401
_cell_length_c 7.554186
_cell_angle_alpha 90.000000
_cell_angle_beta 90.000000
_cell_angle_gamma 90.000000
_cell_volume 1482.548494
_symmetry_space_group_name_H-M "P M M A"
_symmetry_group_IT_number 51
_symmetry_cell_setting 'orthorhombic'
loop_
_space_group_symop_operation_xyz
x,y,z
1/2-x,-y,z
1/2+x,-y,-z
-x,y,-z
-x,-y,-z
1/2+x,y,-z
1/2-x,y,z
x,-y,z
loop_
_atom_site_type_symbol
_atom_site_label
_atom_site_fract_x
_atom_site_fract_y
_atom_site_fract_z
Si Si1 0.842868 0.500000 0.239797
Si Si2 0.750000 0.870531 0.738727
Si Si3 0.084593 0.500000 0.117038
Si Si4 0.908705 0.257529 0.308006
Si Si5 0.750000 0.872074 0.304824
Si Si6 0.412832 0.743142 0.271455
O O1 0.750000 0.500000 0.310418
O O2 0.890002 0.388371 0.292070
O O3 0.844093 0.500000 0.027973
O O4 0.750000 0.866694 0.521451
O O5 0.666702 0.808149 0.797962
O O6 0.750000 0.000000 0.789109
O O7 0.092030 0.387809 0.228854
O O8 0.000000 0.500000 0.000000
O O9 0.830781 0.190587 0.239532
O O10 0.913065 0.237135 0.517819
O O11 0.994301 0.225523 0.216906
O O12 0.750000 0.000000 0.254204
#
# Coordination Sequence:
#
# PCOD9402434 Si02
#       6
#     4   4   4   8   4   8
#     4  12  23  35  55  82 116 148 183 224 281 341
#     4   9  20  37  57  82 112 147 188 233 274 327
#     4  12  23  37  54  85 116 149 182 232 274 338
#     4  10  19  36  58  83 112 147 181 230 280 333
#     4   9  18  33  55  86 112 137 184 237 284 325
#     4  10  21  36  58  84 114 146 187 226 279 333
#
# _framework density 21.584454999999998
#
# number of rings (size 3 to 8) (size 9 to 14) (size 15 to 20)
#    0.000    1.750    3.750    0.750    1.750    3.000 
#    0.000    5.000    0.000    3.750    0.000    0.000 
#    0.000    0.000    0.000    0.000    0.000    0.000 
#
# Total GULP energy -178643.876660 kJ/mol
# GULP energy per Si atom -5582.621146 kJ/mol
# Density = 2.153533 g / cm^3
# Si number density = 21.584455 Si / 1000 Ang^3
#
#
#
# Elastic Constant Matrix: (Units=GPa)
#
#
# Indices 1 2 3 4 5 6 
#
# 1 246.5244 116.0200 11.3980 0.0000 0.0000 0.0000
# 2 116.0200 151.1602 -6.8574 0.0000 0.0000 0.0000
# 3 11.3980 -6.8574 43.8359 0.0000 0.0000 0.0000
# 4 0.0000 0.0000 0.0000 -45.6278 0.0000 0.0000
# 5 0.0000 0.0000 0.0000 0.0000 10.9937 0.0000
# 6 0.0000 0.0000 0.0000 0.0000 0.0000 4.6405
#
#
#
# Elastic Compliance Matrix: (Units=1/GPa)
#
#
# Indices 1 2 3 4 5 6 
#
# 1 0.006618 -0.005195 -0.002533 0.000000 0.000000 0.000000
# 2 -0.005195 0.010740 0.003031 0.000000 0.000000 0.000000
# 3 -0.002533 0.003031 0.023945 0.000000 0.000000 0.000000
# 4 0.000000 0.000000 0.000000 -0.021916 0.000000 0.000000
# 5 0.000000 0.000000 0.000000 0.000000 0.090961 0.000000
# 6 0.000000 0.000000 0.000000 0.000000 0.000000 0.215493
#
#
# Mechanical properties :
#
#
# Convention : Reuss Voigt Hill
#
# Bulk Modulus (GPa) = 31.33927 75.84907 53.59417
# Shear Modulus (GPa) = 14.45624 15.39862 14.92743
#
# Velocity S-wave (km/s) = 2.59077 2.67388 2.63265
# Velocity P-wave (km/s) = 4.84771 6.68952 5.84166
#
# Compressibility (1/GPa) = 0.03190885
#
# Stress axis : x y z
#
# Youngs Moduli (GPa) = 151.09765 93.10966 41.76204
#
# Poissons Ratio (x) = 0.48367 0.10580
# Poissons Ratio (y) = 0.78490 -0.12657
# Poissons Ratio (z) = 0.38280 -0.28220
#
# Static dielectric constant tensor:
#      x y z
#    x 1.831440 0.000000 0.000000 
#    y 0.000000 1.746830 0.000000 
#    z 0.000000 0.000000 1.795660 
# 
# From -- ./inp_files/7644.got.cif
#   From: 2010.05.17/outbox.cif.g08.bks.cpg/sg51_4_cif.got.tgz:7644.got - 2010.06.03 11:52:47.
