data_PCOD9402646
_publ_section_title
;
Structure prediction by ZEFSAII (Michael W. Deem and Ramdas Pophale) SiO2 
 PCOD9402646
Probable space group: P M M A
;
_chemical_formula_sum "Si O2"
_cell_formula_units_Z 44
_cell_length_a 8.295451
_cell_length_b 17.033769
_cell_length_c 16.532833
_cell_angle_alpha 90.000000
_cell_angle_beta 90.000000
_cell_angle_gamma 90.000000
_cell_volume 2336.135530
_symmetry_space_group_name_H-M "P M M A"
_symmetry_group_IT_number 51
_symmetry_cell_setting 'orthorhombic'
loop_
_space_group_symop_operation_xyz
x,y,z
1/2-x,-y,z
1/2+x,-y,-z
-x,y,-z
-x,-y,-z
1/2+x,y,-z
1/2-x,y,z
x,-y,z
loop_
_atom_site_type_symbol
_atom_site_label
_atom_site_fract_x
_atom_site_fract_y
_atom_site_fract_z
Si Si1 0.061730 0.413771 0.115737
Si Si2 0.561322 0.638135 0.701498
Si Si3 0.944864 0.908668 0.411510
Si Si4 0.944541 0.500000 0.590492
Si Si5 0.940944 0.239505 0.086123
Si Si6 0.060433 0.193833 0.739164
O O1 0.250000 0.410813 0.091224
O O2 0.995679 0.500000 0.092561
O O3 0.056036 0.406669 0.212893
O O4 0.981068 0.332791 0.088348
O O5 0.750000 0.658098 0.686925
O O6 0.498875 0.578355 0.635028
O O7 0.462389 0.717594 0.707979
O O8 0.750000 0.905341 0.411076
O O9 0.005139 0.862392 0.331818
O O10 0.000000 0.878500 0.500000
O O11 0.994541 0.000000 0.406110
O O12 0.750000 0.500000 0.597725
O O13 0.000000 0.500000 0.500000
O O14 0.750000 0.232122 0.088923
O O15 0.007787 0.198812 0.168548
O O16 0.000000 0.207865 0.000000
O O17 0.250000 0.175035 0.746766
#
# Coordination Sequence:
#
# PCOD9402646 Si02
#       6
#     8   8   8   4   8   8
#     4   9  16  29  49  67  86 118 160 207 253 295
#     4   9  17  31  48  65  89 124 165 205 245 289
#     4   9  18  34  56  81 108 134 160 196 244 298
#     4  10  20  32  44  62  89 124 165 206 247 292
#     4  10  20  33  48  69  97 129 166 207 248 294
#     4   9  19  34  52  75 101 130 165 203 246 296
#
# _framework density 18.834526
#
# number of rings (size 3 to 8) (size 9 to 14) (size 15 to 20)
#    0.000    2.727    0.909    0.545    0.000    3.636 
#    0.000    3.636    0.000    0.545    0.000    0.000 
#    0.000    0.000    0.000    0.000    0.000    0.545 
#
# Total GULP energy -245079.822783 kJ/mol
# GULP energy per Si atom -5569.995972 kJ/mol
# Density = 1.879166 g / cm^3
# Si number density = 18.834526 Si / 1000 Ang^3
#
#
#
# Elastic Constant Matrix: (Units=GPa)
#
#
# Indices 1 2 3 4 5 6 
#
# 1 9.4634 3.2431 14.1370 0.0000 0.0000 0.0000
# 2 3.2431 57.1315 57.7040 0.0000 0.0000 0.0000
# 3 14.1370 57.7040 176.3110 0.0000 0.0000 0.0000
# 4 0.0000 0.0000 0.0000 190.3496 0.0000 0.0000
# 5 0.0000 0.0000 0.0000 0.0000 26.1483 0.0000
# 6 0.0000 0.0000 0.0000 0.0000 0.0000 16.5797
#
#
#
# Elastic Compliance Matrix: (Units=1/GPa)
#
#
# Indices 1 2 3 4 5 6 
#
# 1 0.120776 0.004370 -0.011114 0.000000 0.000000 0.000000
# 2 0.004370 0.026305 -0.008960 0.000000 0.000000 0.000000
# 3 -0.011114 -0.008960 0.009495 0.000000 0.000000 0.000000
# 4 0.000000 0.000000 0.000000 0.005253 0.000000 0.000000
# 5 0.000000 0.000000 0.000000 0.000000 0.038243 0.000000
# 6 0.000000 0.000000 0.000000 0.000000 0.000000 0.060315
#
#
# Mechanical properties :
#
#
# Convention : Reuss Voigt Hill
#
# Bulk Modulus (GPa) = 7.98928 43.67490 25.83209
# Shear Modulus (GPa) = 14.99170 57.80365 36.39768
#
# Velocity S-wave (km/s) = 2.82435 5.54589 4.40079
# Velocity P-wave (km/s) = 3.85837 8.01550 6.29028
#
# Compressibility (1/GPa) = 0.12516775
#
# Stress axis : x y z
#
# Youngs Moduli (GPa) = 8.27981 38.01598 105.31551
#
# Poissons Ratio (x) = -0.16612 1.17050
# Poissons Ratio (y) = -0.03618 0.94358
# Poissons Ratio (z) = 0.09202 0.34061
#
# Static dielectric constant tensor:
#      x y z
#    x 1.680620 0.000000 0.000000 
#    y 0.000000 1.637090 0.000000 
#    z 0.000000 0.000000 1.700260 
# 
# From -- ./inp_files/20869.got.cif
#   From: 2010.05.17/outbox.cif.g08.bks.cpg/sg51_11_cif.got.tgz:20869.got - 2010.06.03 11:52:47.
