data_PCOD9402786
_publ_section_title
;
Structure prediction by ZEFSAII (Michael W. Deem and Ramdas Pophale) SiO2 
 PCOD9402786
Probable space group: P M M A
;
_chemical_formula_sum "Si O2"
_cell_formula_units_Z 40
_cell_length_a 9.423700
_cell_length_b 7.382700
_cell_length_c 27.236525
_cell_angle_alpha 90.000000
_cell_angle_beta 90.000000
_cell_angle_gamma 90.000000
_cell_volume 1894.909050
_symmetry_space_group_name_H-M "P M M A"
_symmetry_group_IT_number 51
_symmetry_cell_setting 'orthorhombic'
loop_
_space_group_symop_operation_xyz
x,y,z
1/2-x,-y,z
1/2+x,-y,-z
-x,y,-z
-x,-y,-z
1/2+x,y,-z
1/2-x,y,z
x,-y,z
loop_
_atom_site_type_symbol
_atom_site_label
_atom_site_fract_x
_atom_site_fract_y
_atom_site_fract_z
Si Si1 0.585352 0.221513 0.952359
Si Si2 0.914869 0.221769 0.738461
Si Si3 0.089191 0.283924 0.453735
Si Si4 0.922450 0.787517 0.845823
Si Si5 0.589211 0.217106 0.355742
O O1 0.750000 0.272746 0.956948
O O2 0.530646 0.284751 0.898850
O O3 0.581143 0.000000 0.951336
O O4 0.500000 0.281141 0.000000
O O5 0.750000 0.273935 0.731313
O O6 0.964973 0.284845 0.792472
O O7 0.010990 0.282986 0.693408
O O8 0.916006 0.000000 0.739395
O O9 0.250000 0.212713 0.451568
O O10 0.099794 0.500000 0.460303
O O11 0.000000 0.212237 0.500000
O O12 0.004575 0.254321 0.403534
O O13 0.750000 0.777168 0.846319
O O14 0.960524 0.000000 0.845581
O O15 0.750000 0.285494 0.360971
O O16 0.596988 0.000000 0.351256
#
# Coordination Sequence:
#
# PCOD9402786 Si02
#       5
#     8   8   8   8   8
#     4   8  12  17  24  35  53  79 115 159 203 246
#     4   8  13  23  39  56  75 103 139 177 216 257
#     4  10  21  37  56  75  94 119 151 184 219 261
#     4   7  10  17  29  43  60  87 124 164 206 251
#     4  10  20  32  47  70  98 124 150 183 223 265
#
# _framework density 21.109193000000001
#
# number of rings (size 3 to 8) (size 9 to 14) (size 15 to 20)
#    0.000    3.400    0.000    3.600    0.000    2.800 
#    0.000    1.000    0.000    6.000    0.000    0.000 
#    0.000    0.000    0.000    0.000    0.000    1.000 
#
# Total GULP energy -223021.094642 kJ/mol
# GULP energy per Si atom -5575.527366 kJ/mol
# Density = 2.106115 g / cm^3
# Si number density = 21.109193 Si / 1000 Ang^3
#
#
#
# Elastic Constant Matrix: (Units=GPa)
#
#
# Indices 1 2 3 4 5 6 
#
# 1 133.7757 5.6350 124.3387 0.0000 0.0000 0.0000
# 2 5.6350 72.9338 6.3610 0.0000 0.0000 0.0000
# 3 124.3387 6.3610 269.6019 0.0000 0.0000 0.0000
# 4 0.0000 0.0000 0.0000 51.1959 0.0000 0.0000
# 5 0.0000 0.0000 0.0000 0.0000 39.5390 0.0000
# 6 0.0000 0.0000 0.0000 0.0000 0.0000 -1.8578
#
#
#
# Elastic Compliance Matrix: (Units=1/GPa)
#
#
# Indices 1 2 3 4 5 6 
#
# 1 0.013101 -0.000486 -0.006031 0.000000 0.000000 0.000000
# 2 -0.000486 0.013757 -0.000100 0.000000 0.000000 0.000000
# 3 -0.006031 -0.000100 0.006493 0.000000 0.000000 0.000000
# 4 0.000000 0.000000 0.000000 0.019533 0.000000 0.000000
# 5 0.000000 0.000000 0.000000 0.000000 0.025291 0.000000
# 6 0.000000 0.000000 0.000000 0.000000 0.000000 -0.538265
#
#
# Mechanical properties :
#
#
# Convention : Reuss Voigt Hill
#
# Bulk Modulus (GPa) = 49.70983 83.22008 66.46496
# Shear Modulus (GPa) = -11.35978 40.44053 14.54038
#
# Velocity S-wave (km/s) = -2.32231 4.38171 2.62738
# Velocity P-wave (km/s) = 4.05083 8.06898 6.38426
#
# Compressibility (1/GPa) = 0.02011675
#
# Stress axis : x y z
#
# Youngs Moduli (GPa) = 76.33119 72.68825 154.01712
#
# Poissons Ratio (x) = 0.03534 0.92881
# Poissons Ratio (y) = 0.03711 0.01545
# Poissons Ratio (z) = 0.46032 0.00729
#
# Static dielectric constant tensor:
#      x y z
#    x 1.720150 0.000000 0.000000 
#    y 0.000000 1.842150 0.000000 
#    z 0.000000 0.000000 1.768090 
# 
# From -- ./inp_files/36116.got.cif
#   From: 2010.05.17/outbox.cif.g08.bks.cpg/sg51_19_cif.got.tgz:36116.got - 2010.06.03 11:52:47.
