data_PCOD9402328
_publ_section_title
;
Structure prediction by ZEFSAII (Michael W. Deem and Ramdas Pophale) SiO2 
 PCOD9402328
Probable space group: P M M A
;
_chemical_formula_sum "Si O2"
_cell_formula_units_Z 48
_cell_length_a 14.711042
_cell_length_b 16.748775
_cell_length_c 10.066613
_cell_angle_alpha 90.000000
_cell_angle_beta 90.000000
_cell_angle_gamma 90.000000
_cell_volume 2480.332231
_symmetry_space_group_name_H-M "P M M A"
_symmetry_group_IT_number 51
_symmetry_cell_setting 'orthorhombic'
loop_
_space_group_symop_operation_xyz
x,y,z
1/2-x,-y,z
1/2+x,-y,-z
-x,y,-z
-x,-y,-z
1/2+x,y,-z
1/2-x,y,z
x,-y,z
loop_
_atom_site_type_symbol
_atom_site_label
_atom_site_fract_x
_atom_site_fract_y
_atom_site_fract_z
Si Si1 0.853574 0.587638 0.361478
Si Si2 0.356048 0.803431 0.810148
Si Si3 0.353116 0.763339 0.223034
Si Si4 0.607531 0.244101 0.482815
Si Si5 0.983589 0.345982 0.146049
Si Si6 0.860081 0.911535 0.957350
O O1 0.750000 0.592292 0.306794
O O2 0.863430 0.500000 0.424342
O O3 0.864427 0.663911 0.456228
O O4 0.929889 0.598511 0.248700
O O5 0.250000 0.786818 0.836656
O O6 0.368045 0.803464 0.651241
O O7 0.416939 0.731020 0.864404
O O8 0.380935 0.881913 0.893309
O O9 0.250000 0.744402 0.179946
O O10 0.351894 0.784126 0.378830
O O11 0.422463 0.690254 0.202203
O O12 0.387822 0.839978 0.140590
O O13 0.500000 0.241838 0.500000
O O14 0.000000 0.380047 0.000000
O O15 0.750000 0.915066 0.946108
O O16 0.895536 0.000000 0.928866
#
# Coordination Sequence:
#
# PCOD9402328 Si02
#       6
#     8   8   8   8   8   8
#     4  10  22  40  61  85 115 152 192 236 289 345
#     4  10  19  35  58  82 111 151 197 238 280 342
#     4  11  21  35  56  85 117 152 190 238 291 341
#     4  11  20  36  60  83 114 149 194 241 283 339
#     4  11  20  34  58  86 115 150 193 235 281 340
#     4   9  19  36  59  86 115 151 195 241 292 345
#
# _framework density 19.352245
#
# number of rings (size 3 to 8) (size 9 to 14) (size 15 to 20)
#    0.000    1.667    5.000    3.000    0.000    1.333 
#    0.000    2.500    0.000    5.500    0.000    0.000 
#    0.000    0.000    0.000    0.000    0.000    0.000 
#
# Total GULP energy -267743.213686 kJ/mol
# GULP energy per Si atom -5577.983618 kJ/mol
# Density = 1.930820 g / cm^3
# Si number density = 19.352245 Si / 1000 Ang^3
#
#
#
# Elastic Constant Matrix: (Units=GPa)
#
#
# Indices 1 2 3 4 5 6 
#
# 1 110.0436 17.1894 6.5289 0.0000 0.0000 0.0000
# 2 17.1894 69.6948 34.6302 0.0000 0.0000 0.0000
# 3 6.5289 34.6302 116.6790 0.0000 0.0000 0.0000
# 4 0.0000 0.0000 0.0000 10.8047 0.0000 0.0000
# 5 0.0000 0.0000 0.0000 0.0000 19.6974 0.0000
# 6 0.0000 0.0000 0.0000 0.0000 0.0000 4.1477
#
#
#
# Elastic Compliance Matrix: (Units=1/GPa)
#
#
# Indices 1 2 3 4 5 6 
#
# 1 0.009455 -0.002427 0.000191 0.000000 0.000000 0.000000
# 2 -0.002427 0.017453 -0.005044 0.000000 0.000000 0.000000
# 3 0.000191 -0.005044 0.010057 0.000000 0.000000 0.000000
# 4 0.000000 0.000000 0.000000 0.092552 0.000000 0.000000
# 5 0.000000 0.000000 0.000000 0.000000 0.050768 0.000000
# 6 0.000000 0.000000 0.000000 0.000000 0.000000 0.241095
#
#
# Mechanical properties :
#
#
# Convention : Reuss Voigt Hill
#
# Bulk Modulus (GPa) = 44.63246 45.90159 45.26703
# Shear Modulus (GPa) = 11.27628 22.80124 17.03876
#
# Velocity S-wave (km/s) = 2.41651 3.43625 2.97046
# Velocity P-wave (km/s) = 5.55871 6.28603 5.93353
#
# Compressibility (1/GPa) = 0.02240522
#
# Stress axis : x y z
#
# Youngs Moduli (GPa) = 105.76328 57.29570 99.43358
#
# Poissons Ratio (x) = 0.13906 -0.01902
# Poissons Ratio (y) = 0.25669 0.50157
# Poissons Ratio (z) = -0.02023 0.28902
#
# Static dielectric constant tensor:
#      x y z
#    x 1.716510 0.000000 0.000000 
#    y 0.000000 1.663260 0.000000 
#    z 0.000000 0.000000 1.697990 
# 
# From -- ./inp_files/16472.got.cif
#   From: 2010.05.17/outbox.cif.g08.bks.cpg/sg51_9_cif.got.tgz:16472.got - 2010.06.03 11:52:47.
