data_PCOD9402586
_publ_section_title
;
Structure prediction by ZEFSAII (Michael W. Deem and Ramdas Pophale) SiO2 
 PCOD9402586
Probable space group: P M M A
;
_chemical_formula_sum "Si O2"
_cell_formula_units_Z 64
_cell_length_a 9.252976
_cell_length_b 15.625025
_cell_length_c 30.198698
_cell_angle_alpha 90.000000
_cell_angle_beta 90.000000
_cell_angle_gamma 90.000000
_cell_volume 4366.066795
_symmetry_space_group_name_H-M "P M M A"
_symmetry_group_IT_number 51
_symmetry_cell_setting 'orthorhombic'
loop_
_space_group_symop_operation_xyz
x,y,z
1/2-x,-y,z
1/2+x,-y,-z
-x,y,-z
-x,-y,-z
1/2+x,y,-z
1/2-x,y,z
x,-y,z
loop_
_atom_site_type_symbol
_atom_site_label
_atom_site_fract_x
_atom_site_fract_y
_atom_site_fract_z
Si Si1 0.917711 0.095650 0.786007
Si Si2 0.583581 0.603970 0.366950
Si Si3 0.919416 0.734061 0.107408
Si Si4 0.922217 0.398454 0.723891
Si Si5 0.578982 0.399464 0.953416
Si Si6 0.082743 0.604332 0.455443
Si Si7 0.419694 0.733233 0.786152
Si Si8 0.082483 0.904407 0.106448
O O1 0.750000 0.109412 0.773313
O O2 0.920889 0.094542 0.839781
O O3 0.016249 0.174654 0.771877
O O4 0.962033 0.000000 0.771389
O O5 0.750000 0.632937 0.365551
O O6 0.586021 0.500000 0.368410
O O7 0.496513 0.626467 0.322646
O O8 0.501484 0.632407 0.411353
O O9 0.750000 0.727404 0.097065
O O10 0.936254 0.727371 0.160607
O O11 0.008533 0.660242 0.083432
O O12 0.982212 0.826113 0.092635
O O13 0.750000 0.385891 0.721734
O O14 0.948771 0.500000 0.731053
O O15 0.992764 0.341441 0.762032
O O16 0.750000 0.383544 0.957371
O O17 0.558342 0.500000 0.942885
O O18 0.500000 0.382761 0.000000
O O19 0.250000 0.631219 0.455324
O O20 0.082570 0.500000 0.455210
O O21 0.000000 0.631032 0.500000
O O22 0.250000 0.727156 0.775838
O O23 0.250000 0.889920 0.093717
O O24 0.039112 0.000000 0.091637
#
# Coordination Sequence:
#
# PCOD9402586 Si02
#       8
#     8   8   8   8   8   8   8   8
#     4   8  14  26  44  64  86 112 141 174 211 250
#     4   9  16  26  39  53  71  98 133 173 217 262
#     4  10  20  32  48  71  96 119 143 174 211 251
#     4  10  20  32  44  57  77 110 150 187 220 257
#     4  10  21  37  56  74  91 113 142 176 214 256
#     4   9  15  22  33  50  71  94 125 168 215 258
#     4  10  20  31  44  65  91 117 145 178 214 251
#     4   8  14  26  45  68  93 120 147 173 203 242
#
# _framework density 14.658503
#
# number of rings (size 3 to 8) (size 9 to 14) (size 15 to 20)
#    0.000    2.750    0.000    3.000    0.000    7.000 
#    0.000    5.000    0.000    0.375    0.000    0.000 
#    0.000    0.000    0.000    0.000    0.000    0.625 
#
# Total GULP energy -356541.478072 kJ/mol
# GULP energy per Si atom -5570.960595 kJ/mol
# Density = 1.462514 g / cm^3
# Si number density = 14.658503 Si / 1000 Ang^3
#
#
#
# Elastic Constant Matrix: (Units=GPa)
#
#
# Indices 1 2 3 4 5 6 
#
# 1 123.0818 65.2182 50.3104 0.0000 0.0000 0.0000
# 2 65.2182 66.8654 39.4114 0.0000 0.0000 0.0000
# 3 50.3104 39.4114 39.3505 0.0000 0.0000 0.0000
# 4 0.0000 0.0000 0.0000 -2.3160 0.0000 0.0000
# 5 0.0000 0.0000 0.0000 0.0000 25.0866 0.0000
# 6 0.0000 0.0000 0.0000 0.0000 0.0000 19.8542
#
#
#
# Elastic Compliance Matrix: (Units=1/GPa)
#
#
# Indices 1 2 3 4 5 6 
#
# 1 0.019712 -0.010672 -0.014514 0.000000 0.000000 0.000000
# 2 -0.010672 0.042283 -0.028705 0.000000 0.000000 0.000000
# 3 -0.014514 -0.028705 0.072718 0.000000 0.000000 0.000000
# 4 0.000000 0.000000 0.000000 -0.431778 0.000000 0.000000
# 5 0.000000 0.000000 0.000000 0.000000 0.039862 0.000000
# 6 0.000000 0.000000 0.000000 0.000000 0.000000 0.050367
#
#
# Mechanical properties :
#
#
# Convention : Reuss Voigt Hill
#
# Bulk Modulus (GPa) = 37.12960 59.90861 48.51911
# Shear Modulus (GPa) = -55.50799 13.48215 -21.01292
#
# Velocity S-wave (km/s) = -6.16033 3.03603 -3.79026
# Velocity P-wave (km/s) = 5.02143 7.29714 3.74389
#
# Compressibility (1/GPa) = 0.02693269
#
# Stress axis : x y z
#
# Youngs Moduli (GPa) = 50.73040 23.65016 13.75171
#
# Poissons Ratio (x) = 0.25239 0.19959
# Poissons Ratio (y) = 0.54138 0.39474
# Poissons Ratio (z) = 0.73631 0.67887
#
# Static dielectric constant tensor:
#      x y z
#    x 1.488200 0.000000 0.000000 
#    y 0.000000 1.474900 0.000000 
#    z 0.000000 0.000000 1.471190 
# 
# From -- ./inp_files/37537.got.cif
#   From: 2010.05.17/outbox.cif.g08.bks.cpg/sg51_19_cif.got.tgz:37537.got - 2010.06.03 11:52:47.
