data_PCOD9402766
_publ_section_title
;
Structure prediction by ZEFSAII (Michael W. Deem and Ramdas Pophale) SiO2 
 PCOD9402766
Probable space group: P M M A
;
_chemical_formula_sum "Si O2"
_cell_formula_units_Z 48
_cell_length_a 7.550287
_cell_length_b 9.785820
_cell_length_c 32.379253
_cell_angle_alpha 90.000000
_cell_angle_beta 90.000000
_cell_angle_gamma 90.000000
_cell_volume 2392.365377
_symmetry_space_group_name_H-M "P M M A"
_symmetry_group_IT_number 51
_symmetry_cell_setting 'orthorhombic'
loop_
_space_group_symop_operation_xyz
x,y,z
1/2-x,-y,z
1/2+x,-y,-z
-x,y,-z
-x,-y,-z
1/2+x,y,-z
1/2-x,y,z
x,-y,z
loop_
_atom_site_type_symbol
_atom_site_label
_atom_site_fract_x
_atom_site_fract_y
_atom_site_fract_z
Si Si1 0.036673 0.155699 0.713160
Si Si2 0.462408 0.655554 0.545808
Si Si3 0.039285 0.654492 0.209685
Si Si4 0.466450 0.159361 0.134785
Si Si5 0.961645 0.156583 0.955718
Si Si6 0.033785 0.842953 0.620222
O O1 0.250000 0.150951 0.712291
O O2 0.977550 0.194277 0.666799
O O3 0.985899 0.262196 0.748133
O O4 0.975055 0.000000 0.722179
O O5 0.500000 0.711239 0.500000
O O6 0.250000 0.649448 0.549746
O O7 0.531140 0.500000 0.547530
O O8 0.529656 0.745949 0.583636
O O9 0.250000 0.644122 0.203199
O O10 0.968242 0.500000 0.211496
O O11 0.968773 0.745140 0.171666
O O12 0.250000 0.159289 0.135890
O O13 0.521515 0.209860 0.088959
O O14 0.519128 0.000000 0.139770
O O15 0.750000 0.149580 0.953322
O O16 0.030947 0.000000 0.957765
O O17 0.000000 0.223913 0.000000
O O18 0.250000 0.839259 0.620028
O O19 0.982380 0.000000 0.612960
#
# Coordination Sequence:
#
# PCOD9402766 Si02
#       6
#     8   8   8   8   8   8
#     4   9  18  33  52  72  93 119 153 192 234 279
#     4   9  17  29  45  65  89 118 150 181 215 257
#     4  10  20  32  47  69  95 123 156 192 230 273
#     4   8  14  26  44  63  85 117 152 183 221 270
#     4   8  13  22  38  60  83 107 139 180 223 264
#     4   8  15  29  48  68  89 114 146 183 221 265
#
# _framework density 20.063822999999999
#
# number of rings (size 3 to 8) (size 9 to 14) (size 15 to 20)
#    0.000    3.333    0.000    2.500    0.000    2.333 
#    0.000    3.333    0.000    6.500    0.000    0.000 
#    0.000    0.000    0.000    0.000    0.000    0.000 
#
# Total GULP energy -267442.950264 kJ/mol
# GULP energy per Si atom -5571.728131 kJ/mol
# Density = 2.001816 g / cm^3
# Si number density = 20.063823 Si / 1000 Ang^3
#
#
#
# Elastic Constant Matrix: (Units=GPa)
#
#
# Indices 1 2 3 4 5 6 
#
# 1 45.9720 4.9833 2.7259 0.0000 0.0000 0.0000
# 2 4.9833 104.6323 121.6579 0.0000 0.0000 0.0000
# 3 2.7259 121.6579 228.1812 0.0000 0.0000 0.0000
# 4 0.0000 0.0000 0.0000 -13.9875 0.0000 0.0000
# 5 0.0000 0.0000 0.0000 0.0000 22.8788 0.0000
# 6 0.0000 0.0000 0.0000 0.0000 0.0000 8.2948
#
#
#
# Elastic Compliance Matrix: (Units=1/GPa)
#
#
# Indices 1 2 3 4 5 6 
#
# 1 0.021917 -0.001945 0.000775 0.000000 0.000000 0.000000
# 2 -0.001945 0.025318 -0.013475 0.000000 0.000000 0.000000
# 3 0.000775 -0.013475 0.011558 0.000000 0.000000 0.000000
# 4 0.000000 0.000000 0.000000 -0.071493 0.000000 0.000000
# 5 0.000000 0.000000 0.000000 0.000000 0.043709 0.000000
# 6 0.000000 0.000000 0.000000 0.000000 0.000000 0.120557
#
#
# Mechanical properties :
#
#
# Convention : Reuss Voigt Hill
#
# Bulk Modulus (GPa) = 33.89572 70.83553 52.36562
# Shear Modulus (GPa) = 26.22045 20.06513 23.14279
#
# Velocity S-wave (km/s) = 3.61896 3.16581 3.39994
# Velocity P-wave (km/s) = 5.86457 6.98175 6.44740
#
# Compressibility (1/GPa) = 0.02950225
#
# Stress axis : x y z
#
# Youngs Moduli (GPa) = 45.62609 39.49757 86.52161
#
# Poissons Ratio (x) = 0.07684 -0.06709
# Poissons Ratio (y) = 0.08876 1.16591
# Poissons Ratio (z) = -0.03538 0.53225
#
# Static dielectric constant tensor:
#      x y z
#    x 1.770360 0.000000 0.000000 
#    y 0.000000 1.684900 0.000000 
#    z 0.000000 0.000000 1.728470 
# 
# From -- ./inp_files/37686.got.cif
#   From: 2010.05.17/outbox.cif.g08.bks.cpg/sg51_19_cif.got.tgz:37686.got - 2010.06.03 11:52:47.
