data_PCOD9402514
_publ_section_title
;
Structure prediction by ZEFSAII (Michael W. Deem and Ramdas Pophale) SiO2 
 PCOD9402514
Probable space group: P M M A
;
_chemical_formula_sum "Si O2"
_cell_formula_units_Z 48
_cell_length_a 18.891915
_cell_length_b 15.794511
_cell_length_c 8.876045
_cell_angle_alpha 90.000000
_cell_angle_beta 90.000000
_cell_angle_gamma 90.000000
_cell_volume 2648.510280
_symmetry_space_group_name_H-M "P M M A"
_symmetry_group_IT_number 51
_symmetry_cell_setting 'orthorhombic'
loop_
_space_group_symop_operation_xyz
x,y,z
1/2-x,-y,z
1/2+x,-y,-z
-x,y,-z
-x,-y,-z
1/2+x,y,-z
1/2-x,y,z
x,-y,z
loop_
_atom_site_type_symbol
_atom_site_label
_atom_site_fract_x
_atom_site_fract_y
_atom_site_fract_z
Si Si1 0.333609 0.000000 0.541511
Si Si2 0.832310 0.816835 0.328006
Si Si3 0.036992 0.828697 0.163024
Si Si4 0.046771 0.692442 0.639259
Si Si5 0.332437 0.757773 0.017940
Si Si6 0.578557 0.596738 0.070301
Si Si7 0.540344 0.000000 0.659544
O O1 0.350758 0.913492 0.631086
O O2 0.250000 0.000000 0.515494
O O3 0.377704 0.000000 0.388840
O O4 0.750000 0.802207 0.368860
O O5 0.886149 0.751109 0.405312
O O6 0.838595 0.799965 0.148667
O O7 0.119434 0.810218 0.133034
O O8 0.024263 0.916663 0.246001
O O9 0.002385 0.755141 0.262307
O O10 0.000000 0.827753 0.000000
O O11 0.072374 0.620067 0.753146
O O12 0.000000 0.662406 0.500000
O O13 0.250000 0.753096 0.056970
O O14 0.368884 0.665659 0.001304
O O15 0.601023 0.500000 0.047676
O O16 0.500000 0.606756 0.000000
O O17 0.500000 0.000000 0.500000
#
# Coordination Sequence:
#
# PCOD9402514 Si02
#       7
#     4   8   8   8   8   8   4
#     4  10  20  36  51  73 112 149 183 225 282 343
#     4   9  18  33  54  78 108 149 195 236 279 337
#     4  12  21  39  56  82 113 150 195 245 286 336
#     4  11  20  35  58  83 118 149 190 233 285 347
#     4  10  20  36  59  86 112 146 193 239 288 339
#     4  10  19  37  62  87 117 148 186 234 284 343
#     4  12  27  36  55  84 114 152 195 242 294 343
#
# _framework density 18.123397000000001
#
# number of rings (size 3 to 8) (size 9 to 14) (size 15 to 20)
#    0.000    1.500    5.000    2.750    0.000    2.000 
#    0.000    1.667    0.000    0.000    0.000    0.000 
#    0.000    0.000    0.000    0.000    0.000    0.000 
#
# Total GULP energy -268016.150053 kJ/mol
# GULP energy per Si atom -5583.669793 kJ/mol
# Density = 1.808215 g / cm^3
# Si number density = 18.123397 Si / 1000 Ang^3
#
#
#
# Elastic Constant Matrix: (Units=GPa)
#
#
# Indices 1 2 3 4 5 6 
#
# 1 89.1146 -5.0841 9.6718 0.0000 0.0000 0.0000
# 2 -5.0841 40.3970 8.3332 0.0000 0.0000 0.0000
# 3 9.6718 8.3332 40.1310 0.0000 0.0000 0.0000
# 4 0.0000 0.0000 0.0000 14.0296 0.0000 0.0000
# 5 0.0000 0.0000 0.0000 0.0000 26.2367 0.0000
# 6 0.0000 0.0000 0.0000 0.0000 0.0000 20.8036
#
#
#
# Elastic Compliance Matrix: (Units=1/GPa)
#
#
# Indices 1 2 3 4 5 6 
#
# 1 0.011698 0.002146 -0.003265 0.000000 0.000000 0.000000
# 2 0.002146 0.026256 -0.005969 0.000000 0.000000 0.000000
# 3 -0.003265 -0.005969 0.026945 0.000000 0.000000 0.000000
# 4 0.000000 0.000000 0.000000 0.071278 0.000000 0.000000
# 5 0.000000 0.000000 0.000000 0.000000 0.038115 0.000000
# 6 0.000000 0.000000 0.000000 0.000000 0.000000 0.048069
#
#
# Mechanical properties :
#
#
# Convention : Reuss Voigt Hill
#
# Bulk Modulus (GPa) = 19.71527 21.72050 20.71789
# Shear Modulus (GPa) = 19.72826 22.66209 21.19518
#
# Velocity S-wave (km/s) = 3.30290 3.53998 3.42349
# Velocity P-wave (km/s) = 5.04455 5.35905 5.20418
#
# Compressibility (1/GPa) = 0.05072210
#
# Stress axis : x y z
#
# Youngs Moduli (GPa) = 85.48269 38.08696 37.11301
#
# Poissons Ratio (x) = -0.08173 0.12117
# Poissons Ratio (y) = -0.18342 0.22153
# Poissons Ratio (z) = 0.27909 0.22735
#
# Static dielectric constant tensor:
#      x y z
#    x 1.654620 0.000000 0.000000 
#    y 0.000000 1.603850 0.000000 
#    z 0.000000 0.000000 1.612690 
# 
# From -- ./inp_files/9695.got.cif
#   From: 2010.05.17/outbox.cif.g08.bks.cpg/sg51_5_cif.got.tgz:9695.got - 2010.06.03 11:52:47.
