data_PCOD9402833
_publ_section_title
;
Structure prediction by ZEFSAII (Michael W. Deem and Ramdas Pophale) SiO2 
 PCOD9402833
Probable space group: P M M A
;
_chemical_formula_sum "Si O2"
_cell_formula_units_Z 64
_cell_length_a 8.868883
_cell_length_b 25.200816
_cell_length_c 15.197385
_cell_angle_alpha 90.000000
_cell_angle_beta 90.000000
_cell_angle_gamma 90.000000
_cell_volume 3396.662486
_symmetry_space_group_name_H-M "P M M A"
_symmetry_group_IT_number 51
_symmetry_cell_setting 'orthorhombic'
loop_
_space_group_symop_operation_xyz
x,y,z
1/2-x,-y,z
1/2+x,-y,-z
-x,y,-z
-x,-y,-z
1/2+x,y,-z
1/2-x,y,z
x,-y,z
loop_
_atom_site_type_symbol
_atom_site_label
_atom_site_fract_x
_atom_site_fract_y
_atom_site_fract_z
Si Si1 0.079591 0.796555 0.637624
Si Si2 0.571988 0.688456 0.593325
Si Si3 0.570536 0.940278 0.778515
Si Si4 0.427155 0.082523 0.590263
Si Si5 0.571388 0.733705 0.908898
Si Si6 0.431127 0.347198 0.772151
Si Si7 0.431177 0.561228 0.906319
Si Si8 0.924789 0.165339 0.159991
O O1 0.250000 0.776759 0.619936
O O2 0.060149 0.853278 0.591738
O O3 0.068772 0.811087 0.740642
O O4 0.966172 0.750768 0.610017
O O5 0.500000 0.673618 0.500000
O O6 0.750000 0.680758 0.592465
O O7 0.497996 0.657315 0.674858
O O8 0.750000 0.930714 0.778691
O O9 0.510680 0.936712 0.678047
O O10 0.487319 0.894139 0.832389
O O11 0.541371 0.000000 0.810936
O O12 0.500000 0.062921 0.500000
O O13 0.250000 0.069375 0.595631
O O14 0.750000 0.727230 0.908844
O O15 0.497512 0.700979 0.829569
O O16 0.525139 0.795033 0.896713
O O17 0.500000 0.714245 0.000000
O O18 0.250000 0.342837 0.768698
O O19 0.473222 0.400022 0.826636
O O20 0.250000 0.562948 0.914214
O O21 0.476658 0.500000 0.890749
O O22 0.500000 0.578092 0.000000
O O23 0.750000 0.166397 0.131993
#
# Coordination Sequence:
#
# PCOD9402833 Si02
#       8
#     8   8   8   8   8   8   8   8
#     4   9  18  33  52  74 104 140 183 230 281 338
#     4  12  24  36  54  79 112 155 201 246 293 345
#     4  10  21  36  54  75 100 135 180 227 278 339
#     4  10  20  32  48  70  98 133 175 227 282 341
#     4  12  24  38  59  88 122 157 192 231 284 349
#     4  11  22  38  59  86 124 160 198 246 291 344
#     4   9  19  36  60  90 123 161 201 243 292 345
#     4  10  20  36  58  81 110 144 182 228 280 340
#
# _framework density 18.842025
#
# number of rings (size 3 to 8) (size 9 to 14) (size 15 to 20)
#    0.000    1.625    1.250    5.250    0.000    6.750 
#    0.000    0.000    0.000    0.750    0.000    0.000 
#    0.000    0.000    0.000    0.000    0.000    0.000 
#
# Total GULP energy -357666.898809 kJ/mol
# GULP energy per Si atom -5588.545294 kJ/mol
# Density = 1.879914 g / cm^3
# Si number density = 18.842025 Si / 1000 Ang^3
#
#
#
# Elastic Constant Matrix: (Units=GPa)
#
#
# Indices 1 2 3 4 5 6 
#
# 1 111.5619 43.1562 47.9706 0.0000 0.0000 0.0000
# 2 43.1562 96.9741 45.5824 0.0000 0.0000 0.0000
# 3 47.9706 45.5824 99.0509 0.0000 0.0000 0.0000
# 4 0.0000 0.0000 0.0000 -6.4747 0.0000 0.0000
# 5 0.0000 0.0000 0.0000 0.0000 28.5370 0.0000
# 6 0.0000 0.0000 0.0000 0.0000 0.0000 20.4189
#
#
#
# Elastic Compliance Matrix: (Units=1/GPa)
#
#
# Indices 1 2 3 4 5 6 
#
# 1 0.012124 -0.003363 -0.004324 0.000000 0.000000 0.000000
# 2 -0.003363 0.014091 -0.004856 0.000000 0.000000 0.000000
# 3 -0.004324 -0.004856 0.014425 0.000000 0.000000 0.000000
# 4 0.000000 0.000000 0.000000 -0.154446 0.000000 0.000000
# 5 0.000000 0.000000 0.000000 0.000000 0.035042 0.000000
# 6 0.000000 0.000000 0.000000 0.000000 0.000000 0.048974
#
#
# Mechanical properties :
#
#
# Convention : Reuss Voigt Hill
#
# Bulk Modulus (GPa) = 64.29300 64.55616 64.42458
# Shear Modulus (GPa) = 10412.08978 19.88808 5215.98893
#
# Velocity S-wave (km/s) = 74.41767 3.25240 52.67147
# Velocity P-wave (km/s) = 86.12887 6.95991 61.10083
#
# Compressibility (1/GPa) = 0.01555379
#
# Stress axis : x y z
#
# Youngs Moduli (GPa) = 82.48220 70.96644 69.32598
#
# Poissons Ratio (x) = 0.23866 0.29976
# Poissons Ratio (y) = 0.27739 0.33664
# Poissons Ratio (z) = 0.35665 0.34461
#
# Static dielectric constant tensor:
#      x y z
#    x 1.616330 0.000000 0.000000 
#    y 0.000000 1.667140 0.000000 
#    z 0.000000 0.000000 1.676610 
# 
# From -- ./inp_files/22251.got.cif
#   From: 2010.05.17/outbox.cif.g08.bks.cpg/sg51_12_cif.got.tgz:22251.got - 2010.06.03 11:52:47.
