data_PCOD9402789
_publ_section_title
;
Structure prediction by ZEFSAII (Michael W. Deem and Ramdas Pophale) SiO2 
 PCOD9402789
Probable space group: P M M A
;
_chemical_formula_sum "Si O2"
_cell_formula_units_Z 64
_cell_length_a 8.150583
_cell_length_b 16.301451
_cell_length_c 23.393137
_cell_angle_alpha 90.000000
_cell_angle_beta 90.000000
_cell_angle_gamma 90.000000
_cell_volume 3108.160246
_symmetry_space_group_name_H-M "P M M A"
_symmetry_group_IT_number 51
_symmetry_cell_setting 'orthorhombic'
loop_
_space_group_symop_operation_xyz
x,y,z
1/2-x,-y,z
1/2+x,-y,-z
-x,y,-z
-x,-y,-z
1/2+x,y,-z
1/2-x,y,z
x,-y,z
loop_
_atom_site_type_symbol
_atom_site_label
_atom_site_fract_x
_atom_site_fract_y
_atom_site_fract_z
Si Si1 0.056909 0.733786 0.061737
Si Si2 0.937810 0.404515 0.711713
Si Si3 0.557923 0.592127 0.414434
Si Si4 0.441117 0.687673 0.182014
Si Si5 0.553945 0.773192 0.438760
Si Si6 0.557952 0.912502 0.092884
Si Si7 0.551891 0.092264 0.653833
Si Si8 0.559780 0.877268 0.783670
O O1 0.250000 0.722611 0.065036
O O2 0.984661 0.690758 0.118530
O O3 0.023690 0.830932 0.068609
O O4 0.000000 0.705238 0.000000
O O5 0.750000 0.371933 0.701985
O O6 0.923051 0.500000 0.723739
O O7 0.017058 0.363850 0.767019
O O8 0.038151 0.397198 0.653653
O O9 0.750000 0.589142 0.430097
O O10 0.488194 0.500000 0.428586
O O11 0.486058 0.678885 0.436238
O O12 0.250000 0.659826 0.177442
O O13 0.439591 0.780131 0.205374
O O14 0.500000 0.808158 0.500000
O O15 0.750000 0.767115 0.436373
O O16 0.501887 0.833855 0.387561
O O17 0.750000 0.907904 0.079306
O O18 0.535767 0.910974 0.161659
O O19 0.490425 0.000000 0.072205
O O20 0.750000 0.094213 0.654939
O O21 0.497672 0.104039 0.720005
O O22 0.501005 0.000000 0.635085
O O23 0.750000 0.904946 0.787413
#
# Coordination Sequence:
#
# PCOD9402789 Si02
#       8
#     8   8   8   8   8   8   8   8
#     4  10  20  34  50  66  89 125 168 211 251 294
#     4   9  16  28  51  81 107 132 164 200 242 299
#     4   9  19  36  56  81 113 142 168 206 261 320
#     4   8  15  28  47  72 100 128 159 200 247 292
#     4  11  24  40  58  79 105 141 182 224 268 314
#     4  10  20  32  47  70  99 127 157 198 247 299
#     4  10  21  37  58  82 108 141 180 223 270 317
#     4   9  17  31  52  75 100 131 166 204 249 302
#
# _framework density 20.590958000000001
#
# number of rings (size 3 to 8) (size 9 to 14) (size 15 to 20)
#    0.000    2.500    0.000    3.000    0.000    5.000 
#    0.000    4.375    0.000    0.375    0.000    0.000 
#    0.000    0.000    0.000    0.000    0.000    0.500 
#
# Total GULP energy -356687.741615 kJ/mol
# GULP energy per Si atom -5573.245963 kJ/mol
# Density = 2.054409 g / cm^3
# Si number density = 20.590958 Si / 1000 Ang^3
#
#
#
# Elastic Constant Matrix: (Units=GPa)
#
#
# Indices 1 2 3 4 5 6 
#
# 1 19.1461 2.9819 -3.2633 0.0000 0.0000 0.0000
# 2 2.9819 47.8342 39.3434 0.0000 0.0000 0.0000
# 3 -3.2633 39.3434 106.0311 0.0000 0.0000 0.0000
# 4 0.0000 0.0000 0.0000 -4.3644 0.0000 0.0000
# 5 0.0000 0.0000 0.0000 0.0000 24.1893 0.0000
# 6 0.0000 0.0000 0.0000 0.0000 0.0000 15.6979
#
#
#
# Elastic Compliance Matrix: (Units=1/GPa)
#
#
# Indices 1 2 3 4 5 6 
#
# 1 0.054005 -0.006813 0.004190 0.000000 0.000000 0.000000
# 2 -0.006813 0.030948 -0.011693 0.000000 0.000000 0.000000
# 3 0.004190 -0.011693 0.013899 0.000000 0.000000 0.000000
# 4 0.000000 0.000000 0.000000 -0.229128 0.000000 0.000000
# 5 0.000000 0.000000 0.000000 0.000000 0.041341 0.000000
# 6 0.000000 0.000000 0.000000 0.000000 0.000000 0.063703
#
#
# Mechanical properties :
#
#
# Convention : Reuss Voigt Hill
#
# Bulk Modulus (GPa) = 14.24093 27.90393 21.07243
# Shear Modulus (GPa) = 186.53217 16.03453 101.28335
#
# Velocity S-wave (km/s) = 9.52817 2.79358 7.02104
# Velocity P-wave (km/s) = 11.31279 4.89759 8.71681
#
# Compressibility (1/GPa) = 0.07022012
#
# Stress axis : x y z
#
# Youngs Moduli (GPa) = 18.51676 32.31261 71.94818
#
# Poissons Ratio (x) = 0.22014 -0.30147
# Poissons Ratio (y) = 0.12615 0.84129
# Poissons Ratio (z) = -0.07759 0.37783
#
# Static dielectric constant tensor:
#      x y z
#    x 1.748460 0.000000 0.000000 
#    y 0.000000 1.766820 0.000000 
#    z 0.000000 0.000000 1.766060 
# 
# From -- ./inp_files/32348.got.cif
#   From: 2010.05.17/outbox.cif.g08.bks.cpg/sg51_17_cif.got.tgz:32348.got - 2010.06.03 11:52:47.
