data_PCOD9402713
_publ_section_title
;
Structure prediction by ZEFSAII (Michael W. Deem and Ramdas Pophale) SiO2 
 PCOD9402713
Probable space group: P M M A
;
_chemical_formula_sum "Si O2"
_cell_formula_units_Z 64
_cell_length_a 8.965966
_cell_length_b 14.492892
_cell_length_c 31.752386
_cell_angle_alpha 90.000000
_cell_angle_beta 90.000000
_cell_angle_gamma 90.000000
_cell_volume 4125.993210
_symmetry_space_group_name_H-M "P M M A"
_symmetry_group_IT_number 51
_symmetry_cell_setting 'orthorhombic'
loop_
_space_group_symop_operation_xyz
x,y,z
1/2-x,-y,z
1/2+x,-y,-z
-x,y,-z
-x,-y,-z
1/2+x,y,-z
1/2-x,y,z
x,-y,z
loop_
_atom_site_type_symbol
_atom_site_label
_atom_site_fract_x
_atom_site_fract_y
_atom_site_fract_z
Si Si1 0.421871 0.612210 0.956942
Si Si2 0.070663 0.392828 0.455729
Si Si3 0.427779 0.609529 0.130974
Si Si4 0.928649 0.716936 0.208509
Si Si5 0.427297 0.106296 0.663067
Si Si6 0.928686 0.608559 0.294720
Si Si7 0.070964 0.282199 0.372358
Si Si8 0.927834 0.106290 0.755409
O O1 0.250000 0.641736 0.955164
O O2 0.422956 0.500000 0.958043
O O3 0.508921 0.638302 0.914605
O O4 0.500000 0.643825 0.000000
O O5 0.250000 0.389697 0.459186
O O6 0.027622 0.500000 0.448283
O O7 0.026438 0.331328 0.415910
O O8 0.000000 0.363483 0.500000
O O9 0.250000 0.621640 0.132146
O O10 0.459572 0.500000 0.136280
O O11 0.505198 0.665524 0.168198
O O12 0.750000 0.722465 0.205581
O O13 0.965883 0.658496 0.250734
O O14 0.998896 0.817785 0.214787
O O15 0.250000 0.121817 0.666502
O O16 0.500442 0.181295 0.632840
O O17 0.500369 0.118494 0.709134
O O18 0.452425 0.000000 0.650228
O O19 0.750000 0.617960 0.300962
O O20 0.964324 0.500000 0.292705
O O21 0.011968 0.657474 0.333168
O O22 0.250000 0.277065 0.370572
O O23 0.750000 0.120048 0.752693
O O24 0.955694 0.000000 0.768198
#
# Coordination Sequence:
#
# PCOD9402713 Si02
#       8
#     8   8   8   8   8   8   8   8
#     4   9  16  27  44  65  90 122 163 210 255 297
#     4   9  19  35  53  75 101 129 160 195 237 285
#     4  10  20  32  46  66  95 133 173 209 249 296
#     4  11  21  33  49  69  97 132 168 203 242 291
#     4  10  20  34  52  74  99 127 161 199 240 288
#     4  10  21  34  47  67  97 133 169 200 234 281
#     4  11  21  33  52  76 101 127 160 201 244 288
#     4  10  20  34  52  73  96 124 161 204 248 291
#
# _framework density 15.511417
#
# number of rings (size 3 to 8) (size 9 to 14) (size 15 to 20)
#    0.000    2.000    1.250    3.000    0.000    6.500 
#    0.000    1.250    0.000    0.375    0.000    0.000 
#    0.000    0.500    0.000    1.875    0.000    2.875 
#
# Total GULP energy -357197.800184 kJ/mol
# GULP energy per Si atom -5581.215628 kJ/mol
# Density = 1.547611 g / cm^3
# Si number density = 15.511417 Si / 1000 Ang^3
#
#
#
# Elastic Constant Matrix: (Units=GPa)
#
#
# Indices 1 2 3 4 5 6 
#
# 1 72.8852 56.9926 66.2327 0.0000 0.0000 0.0000
# 2 56.9926 96.8339 73.4177 0.0000 0.0000 0.0000
# 3 66.2327 73.4177 143.8661 0.0000 0.0000 0.0000
# 4 0.0000 0.0000 0.0000 7.6150 0.0000 0.0000
# 5 0.0000 0.0000 0.0000 0.0000 30.1474 0.0000
# 6 0.0000 0.0000 0.0000 0.0000 0.0000 25.3219
#
#
#
# Elastic Compliance Matrix: (Units=1/GPa)
#
#
# Indices 1 2 3 4 5 6 
#
# 1 0.030001 -0.011720 -0.007831 0.000000 0.000000 0.000000
# 2 -0.011720 0.021423 -0.005537 0.000000 0.000000 0.000000
# 3 -0.007831 -0.005537 0.013381 0.000000 0.000000 0.000000
# 4 0.000000 0.000000 0.000000 0.131320 0.000000 0.000000
# 5 0.000000 0.000000 0.000000 0.000000 0.033170 0.000000
# 6 0.000000 0.000000 0.000000 0.000000 0.000000 0.039491
#
#
# Mechanical properties :
#
#
# Convention : Reuss Voigt Hill
#
# Bulk Modulus (GPa) = 68.35333 78.54124 73.44729
# Shear Modulus (GPa) = 15.43977 20.41301 17.92639
#
# Velocity S-wave (km/s) = 3.15839 3.63161 3.40323
# Velocity P-wave (km/s) = 7.58041 8.26614 7.93069
#
# Compressibility (1/GPa) = 0.01462987
#
# Stress axis : x y z
#
# Youngs Moduli (GPa) = 33.33261 46.67899 74.73009
#
# Poissons Ratio (x) = 0.54709 0.58518
# Poissons Ratio (y) = 0.39066 0.41377
# Poissons Ratio (z) = 0.26101 0.25845
#
# Static dielectric constant tensor:
#      x y z
#    x 1.515650 0.000000 0.000000 
#    y 0.000000 1.512840 0.000000 
#    z 0.000000 0.000000 1.489440 
# 
# From -- ./inp_files/37666.got.cif
#   From: 2010.05.17/outbox.cif.g08.bks.cpg/sg51_19_cif.got.tgz:37666.got - 2010.06.03 11:52:47.
