data_PCOD9402856
_publ_section_title
;
Structure prediction by ZEFSAII (Michael W. Deem and Ramdas Pophale) SiO2 
 PCOD9402856
Probable space group: P M M A
;
_chemical_formula_sum "Si O2"
_cell_formula_units_Z 40
_cell_length_a 13.780308
_cell_length_b 8.331408
_cell_length_c 15.734801
_cell_angle_alpha 90.000000
_cell_angle_beta 90.000000
_cell_angle_gamma 90.000000
_cell_volume 1806.502563
_symmetry_space_group_name_H-M "P M M A"
_symmetry_group_IT_number 51
_symmetry_cell_setting 'orthorhombic'
loop_
_space_group_symop_operation_xyz
x,y,z
1/2-x,-y,z
1/2+x,-y,-z
-x,y,-z
-x,-y,-z
1/2+x,y,-z
1/2-x,y,z
x,-y,z
loop_
_atom_site_type_symbol
_atom_site_label
_atom_site_fract_x
_atom_site_fract_y
_atom_site_fract_z
Si Si1 0.070020 0.809835 0.803128
Si Si2 0.145716 0.312416 0.164593
Si Si3 0.385280 0.185202 0.984081
Si Si4 0.064984 0.307037 0.623196
Si Si5 0.356983 0.304287 0.440109
O O1 0.955329 0.766531 0.808188
O O2 0.106191 0.750807 0.712387
O O3 0.123807 0.748674 0.888396
O O4 0.078532 0.000000 0.808116
O O5 0.250000 0.250804 0.198394
O O6 0.139097 0.500000 0.186572
O O7 0.150366 0.288746 0.062722
O O8 0.351222 0.000000 0.990132
O O9 0.500000 0.177164 0.000000
O O10 0.063468 0.500000 0.624132
O O11 0.952731 0.251507 0.610891
O O12 0.122831 0.259264 0.538480
O O13 0.250000 0.249294 0.413230
O O14 0.356798 0.500000 0.436272
#
# Coordination Sequence:
#
# PCOD9402856 Si02
#       5
#     8   8   8   8   8
#     4  10  20  33  49  70  98 130 161 196 241 292
#     4  10  20  32  48  72  98 124 160 205 246 285
#     4   8  16  31  48  65  89 125 161 190 230 283
#     4   9  17  30  51  76  98 126 165 206 248 293
#     4   8  15  30  51  73  98 128 162 202 250 301
#
# _framework density 22.142233000000001
#
# number of rings (size 3 to 8) (size 9 to 14) (size 15 to 20)
#    0.000    3.000    0.000    3.600    0.000    6.800 
#    0.000    5.000    0.000    5.400    0.000    0.000 
#    0.000    0.000    0.000    0.000    0.000    0.000 
#
# Total GULP energy -223014.582417 kJ/mol
# GULP energy per Si atom -5575.364560 kJ/mol
# Density = 2.209184 g / cm^3
# Si number density = 22.142233 Si / 1000 Ang^3
#
#
#
# Elastic Constant Matrix: (Units=GPa)
#
#
# Indices 1 2 3 4 5 6 
#
# 1 65.9841 -4.5594 -18.0009 0.0000 0.0000 0.0000
# 2 -4.5594 7.4107 -0.0391 0.0000 0.0000 0.0000
# 3 -18.0009 -0.0391 120.7094 0.0000 0.0000 0.0000
# 4 0.0000 0.0000 0.0000 34.6477 0.0000 0.0000
# 5 0.0000 0.0000 0.0000 0.0000 -9.8570 0.0000
# 6 0.0000 0.0000 0.0000 0.0000 0.0000 14.5054
#
#
#
# Elastic Compliance Matrix: (Units=1/GPa)
#
#
# Indices 1 2 3 4 5 6 
#
# 1 0.016532 0.010184 0.002469 0.000000 0.000000 0.000000
# 2 0.010184 0.141214 0.001564 0.000000 0.000000 0.000000
# 3 0.002469 0.001564 0.008653 0.000000 0.000000 0.000000
# 4 0.000000 0.000000 0.000000 0.028862 0.000000 0.000000
# 5 0.000000 0.000000 0.000000 0.000000 -0.101450 0.000000
# 6 0.000000 0.000000 0.000000 0.000000 0.000000 0.068940
#
#
# Mechanical properties :
#
#
# Convention : Reuss Voigt Hill
#
# Bulk Modulus (GPa) = 5.13257 16.54506 10.83881
# Shear Modulus (GPa) = 25.09280 22.30612 23.69946
#
# Velocity S-wave (km/s) = 3.37004 3.17740 3.27514
# Velocity P-wave (km/s) = 4.17922 4.57707 4.38266
#
# Compressibility (1/GPa) = 0.19483431
#
# Stress axis : x y z
#
# Youngs Moduli (GPa) = 60.48743 7.08146 115.56670
#
# Poissons Ratio (x) = -0.07212 -0.28530
# Poissons Ratio (y) = -0.61603 -0.18080
# Poissons Ratio (z) = -0.14933 -0.01108
#
# Static dielectric constant tensor:
#      x y z
#    x 1.710300 0.000000 0.000000 
#    y 0.000000 1.758290 0.000000 
#    z 0.000000 0.000000 1.855390 
# 
# From -- ./inp_files/29249.got.cif
#   From: 2010.05.17/outbox.cif.g08.bks.cpg/sg51_15_cif.got.tgz:29249.got - 2010.06.03 11:52:47.
