data_PCOD9402215
_publ_section_title
;
Structure prediction by ZEFSAII (Michael W. Deem and Ramdas Pophale) SiO2 
 PCOD9402215
Probable space group: P M M A
;
_chemical_formula_sum "Si O2"
_cell_formula_units_Z 64
_cell_length_a 15.048526
_cell_length_b 13.820365
_cell_length_c 14.756918
_cell_angle_alpha 90.000000
_cell_angle_beta 90.000000
_cell_angle_gamma 90.000000
_cell_volume 3069.086579
_symmetry_space_group_name_H-M "P M M A"
_symmetry_group_IT_number 51
_symmetry_cell_setting 'orthorhombic'
loop_
_space_group_symop_operation_xyz
x,y,z
1/2-x,-y,z
1/2+x,-y,-z
-x,y,-z
-x,-y,-z
1/2+x,y,-z
1/2-x,y,z
x,-y,z
loop_
_atom_site_type_symbol
_atom_site_label
_atom_site_fract_x
_atom_site_fract_y
_atom_site_fract_z
Si Si1 0.141491 0.393954 0.118547
Si Si2 0.850982 0.608550 0.569268
Si Si3 0.926546 0.274747 0.419498
Si Si4 0.853358 0.315983 0.068202
Si Si5 0.146063 0.614499 0.739633
Si Si6 0.143199 0.750713 0.273585
Si Si7 0.483403 0.112430 0.713636
Si Si8 0.078434 0.891571 0.924540
O O1 0.250000 0.396433 0.118185
O O2 0.111886 0.500000 0.151306
O O3 0.120018 0.302459 0.180153
O O4 0.108893 0.372578 0.017447
O O5 0.750000 0.593346 0.596734
O O6 0.889869 0.500000 0.553688
O O7 0.850283 0.678578 0.482569
O O8 0.886815 0.672639 0.651215
O O9 0.919954 0.351918 0.338452
O O10 0.000000 0.270590 0.500000
O O11 0.928953 0.175814 0.360939
O O12 0.750000 0.343761 0.072960
O O13 0.889977 0.345044 0.165443
O O14 0.861868 0.201299 0.054796
O O15 0.250000 0.648946 0.725299
O O16 0.149939 0.500000 0.743807
O O17 0.250000 0.767857 0.278671
O O18 0.083102 0.844450 0.287755
O O19 0.451553 0.119866 0.818891
O O20 0.480554 0.000000 0.689236
O O21 0.118024 0.000000 0.931941
O O22 0.000000 0.887895 0.000000
#
# Coordination Sequence:
#
# PCOD9402215 Si02
#       8
#     8   8   8   8   8   8   8   8
#     4   9  17  31  55  87 121 155 186 223 281 347
#     4  10  21  38  60  86 119 158 198 242 292 346
#     4  12  23  40  59  85 116 155 198 248 297 354
#     4  10  19  34  59  88 120 155 197 241 289 357
#     4  10  21  38  61  88 122 161 198 241 294 355
#     4  10  20  38  61  87 117 152 197 245 289 349
#     4  11  24  43  62  84 115 152 192 243 304 354
#     4  10  21  39  62  84 114 155 195 241 299 350
#
# _framework density 20.853110999999998
#
# number of rings (size 3 to 8) (size 9 to 14) (size 15 to 20)
#    0.000    1.750    2.500    2.250    0.000    5.750 
#    0.000    0.000    0.000    7.500    0.000    0.000 
#    0.000    0.000    0.000    0.000    0.000    0.000 
#
# Total GULP energy -356354.395759 kJ/mol
# GULP energy per Si atom -5568.037434 kJ/mol
# Density = 2.080565 g / cm^3
# Si number density = 20.853111 Si / 1000 Ang^3
#
#
#
# Elastic Constant Matrix: (Units=GPa)
#
#
# Indices 1 2 3 4 5 6 
#
# 1 21.0831 -0.4565 -7.1186 0.0000 0.0000 0.0000
# 2 -0.4565 84.7900 0.2923 0.0000 0.0000 0.0000
# 3 -7.1186 0.2923 96.9676 0.0000 0.0000 0.0000
# 4 0.0000 0.0000 0.0000 18.3871 0.0000 0.0000
# 5 0.0000 0.0000 0.0000 0.0000 8.7883 0.0000
# 6 0.0000 0.0000 0.0000 0.0000 0.0000 29.1186
#
#
#
# Elastic Compliance Matrix: (Units=1/GPa)
#
#
# Indices 1 2 3 4 5 6 
#
# 1 0.048642 0.000250 0.003570 0.000000 0.000000 0.000000
# 2 0.000250 0.011795 -0.000017 0.000000 0.000000 0.000000
# 3 0.003570 -0.000017 0.010575 0.000000 0.000000 0.000000
# 4 0.000000 0.000000 0.000000 0.054386 0.000000 0.000000
# 5 0.000000 0.000000 0.000000 0.000000 0.113788 0.000000
# 6 0.000000 0.000000 0.000000 0.000000 0.000000 0.034342
#
#
# Mechanical properties :
#
#
# Convention : Reuss Voigt Hill
#
# Bulk Modulus (GPa) = 12.71983 20.91947 16.81965
# Shear Modulus (GPa) = 17.11573 25.26704 21.19139
#
# Velocity S-wave (km/s) = 2.86803 3.48468 3.19128
# Velocity P-wave (km/s) = 4.13285 5.12291 4.65428
#
# Compressibility (1/GPa) = 0.07861740
#
# Stress axis : x y z
#
# Youngs Moduli (GPa) = 20.55826 84.77994 94.56388
#
# Poissons Ratio (x) = -0.02116 -0.33761
# Poissons Ratio (y) = -0.00513 0.00163
# Poissons Ratio (z) = -0.07340 0.00146
#
# Static dielectric constant tensor:
#      x y z
#    x 1.819300 0.000000 0.000000 
#    y 0.000000 1.740060 0.000000 
#    z 0.000000 0.000000 1.795870 
# 
# From -- ./inp_files/25215.got.cif
#   From: 2010.05.17/outbox.cif.g08.bks.cpg/sg51_13_cif.got.tgz:25215.got - 2010.06.03 11:52:47.
