data_PCOD9402117
_publ_section_title
;
Structure prediction by ZEFSAII (Michael W. Deem and Ramdas Pophale) SiO2 
 PCOD9402117
Probable space group: P M M A
;
_chemical_formula_sum "Si O2"
_cell_formula_units_Z 48
_cell_length_a 8.676005
_cell_length_b 10.557128
_cell_length_c 28.928386
_cell_angle_alpha 90.000000
_cell_angle_beta 90.000000
_cell_angle_gamma 90.000000
_cell_volume 2649.657773
_symmetry_space_group_name_H-M "P M M A"
_symmetry_group_IT_number 51
_symmetry_cell_setting 'orthorhombic'
loop_
_space_group_symop_operation_xyz
x,y,z
1/2-x,-y,z
1/2+x,-y,-z
-x,y,-z
-x,-y,-z
1/2+x,y,-z
1/2-x,y,z
x,-y,z
loop_
_atom_site_type_symbol
_atom_site_label
_atom_site_fract_x
_atom_site_fract_y
_atom_site_fract_z
Si Si1 0.934450 0.148677 0.050252
Si Si2 0.066888 0.000000 0.804481
Si Si3 0.064328 0.751679 0.357216
Si Si4 0.064841 0.244847 0.143564
Si Si5 0.438160 0.500000 0.302896
Si Si6 0.562126 0.500000 0.803879
Si Si7 0.565746 0.147380 0.450239
Si Si8 0.935686 0.000000 0.702175
O O1 0.750000 0.157679 0.050125
O O2 0.003657 0.230968 0.091520
O O3 0.975492 0.000000 0.058638
O O4 0.000000 0.182792 0.000000
O O5 0.997783 0.875592 0.828477
O O6 0.250000 0.000000 0.810407
O O7 0.019294 0.000000 0.751042
O O8 0.250000 0.748401 0.361207
O O9 0.013657 0.625731 0.330337
O O10 0.994997 0.769870 0.407907
O O11 0.024176 0.875193 0.326978
O O12 0.250000 0.241040 0.143309
O O13 0.014479 0.373585 0.169028
O O14 0.250000 0.500000 0.301956
O O15 0.489563 0.500000 0.249525
O O16 0.750000 0.500000 0.803023
O O17 0.500000 0.186366 0.500000
O O18 0.750000 0.150530 0.451625
O O19 0.516756 0.000000 0.442561
O O20 0.750000 0.000000 0.709761
#
# Coordination Sequence:
#
# PCOD9402117 Si02
#       8
#     8   4   8   8   4   4   8   4
#     4  10  20  35  57  86 120 152 189 235 286 342
#     4  12  24  36  53  82 117 150 190 240 287 338
#     4  10  19  34  57  83 110 143 185 229 278 333
#     4  11  21  37  61  86 114 150 193 239 289 342
#     4   9  18  34  56  81 112 147 184 229 278 329
#     4   9  20  38  60  85 114 151 196 239 284 341
#     4  10  20  34  55  82 113 145 180 227 279 332
#     4  10  20  34  55  80 107 144 189 236 281 332
#
# _framework density 18.115546999999999
#
# number of rings (size 3 to 8) (size 9 to 14) (size 15 to 20)
#    0.000    1.833    1.667    3.250    0.000    4.667 
#    0.000    2.917    0.000    2.000    0.000    0.000 
#    0.000    0.000    0.000    0.000    0.000    0.000 
#
# Total GULP energy -268128.649764 kJ/mol
# GULP energy per Si atom -5586.013537 kJ/mol
# Density = 1.807432 g / cm^3
# Si number density = 18.115547 Si / 1000 Ang^3
#
#
#
# Elastic Constant Matrix: (Units=GPa)
#
#
# Indices 1 2 3 4 5 6 
#
# 1 39.2344 37.6888 49.3221 0.0000 0.0000 0.0000
# 2 37.6888 154.0308 103.7376 0.0000 0.0000 0.0000
# 3 49.3221 103.7376 201.0805 0.0000 0.0000 0.0000
# 4 0.0000 0.0000 0.0000 32.4300 0.0000 0.0000
# 5 0.0000 0.0000 0.0000 0.0000 34.3845 0.0000
# 6 0.0000 0.0000 0.0000 0.0000 0.0000 5.3346
#
#
#
# Elastic Compliance Matrix: (Units=1/GPa)
#
#
# Indices 1 2 3 4 5 6 
#
# 1 0.038994 -0.004750 -0.007114 0.000000 0.000000 0.000000
# 2 -0.004750 0.010528 -0.004266 0.000000 0.000000 0.000000
# 3 -0.007114 -0.004266 0.008919 0.000000 0.000000 0.000000
# 4 0.000000 0.000000 0.000000 0.030836 0.000000 0.000000
# 5 0.000000 0.000000 0.000000 0.000000 0.029083 0.000000
# 6 0.000000 0.000000 0.000000 0.000000 0.000000 0.187456
#
#
# Mechanical properties :
#
#
# Convention : Reuss Voigt Hill
#
# Bulk Modulus (GPa) = 38.19679 86.20474 62.20076
# Shear Modulus (GPa) = 14.41743 28.00295 21.21019
#
# Velocity S-wave (km/s) = 2.82416 3.93593 3.42545
# Velocity P-wave (km/s) = 5.63608 8.26709 7.07496
#
# Compressibility (1/GPa) = 0.02618021
#
# Stress axis : x y z
#
# Youngs Moduli (GPa) = 25.64501 94.98837 112.11987
#
# Poissons Ratio (x) = 0.45119 0.79764
# Poissons Ratio (y) = 0.12181 0.47832
# Poissons Ratio (z) = 0.18244 0.40523
#
# Static dielectric constant tensor:
#      x y z
#    x 1.611260 0.000000 0.000000 
#    y 0.000000 1.606760 0.000000 
#    z 0.000000 0.000000 1.600970 
# 
# From -- ./inp_files/37275.got.cif
#   From: 2010.05.17/outbox.cif.g08.bks.cpg/sg51_19_cif.got.tgz:37275.got - 2010.06.03 11:52:47.
