data_PCOD9402414
_publ_section_title
;
Structure prediction by ZEFSAII (Michael W. Deem and Ramdas Pophale) SiO2 
 PCOD9402414
Probable space group: P M M A
;
_chemical_formula_sum "Si O2"
_cell_formula_units_Z 54
_cell_length_a 15.200193
_cell_length_b 12.694025
_cell_length_c 15.710874
_cell_angle_alpha 90.000000
_cell_angle_beta 90.000000
_cell_angle_gamma 90.000000
_cell_volume 3031.438746
_symmetry_space_group_name_H-M "P M M A"
_symmetry_group_IT_number 51
_symmetry_cell_setting 'orthorhombic'
loop_
_space_group_symop_operation_xyz
x,y,z
1/2-x,-y,z
1/2+x,-y,-z
-x,y,-z
-x,-y,-z
1/2+x,y,-z
1/2-x,y,z
x,-y,z
loop_
_atom_site_type_symbol
_atom_site_label
_atom_site_fract_x
_atom_site_fract_y
_atom_site_fract_z
Si Si1 0.146957 0.800181 0.768995
Si Si2 0.250000 0.500000 0.539097
Si Si3 0.000000 0.281452 0.000000
Si Si4 0.650574 0.626715 0.697528
Si Si5 0.399876 0.330180 0.491950
Si Si6 0.146593 0.120163 0.958695
Si Si7 0.856048 0.883317 0.415455
Si Si8 0.513020 0.623130 0.184772
O O1 0.250000 0.771681 0.764653
O O2 0.133794 0.863390 0.857001
O O3 0.125434 0.865503 0.684762
O O4 0.087830 0.696352 0.774959
O O5 0.327788 0.407754 0.533289
O O6 0.084505 0.204754 0.003495
O O7 0.007012 0.350015 0.914957
O O8 0.750000 0.656546 0.721296
O O9 0.650372 0.500000 0.682669
O O10 0.624581 0.676417 0.607666
O O11 0.578887 0.649039 0.769129
O O12 0.500000 0.369764 0.500000
O O13 0.394614 0.215409 0.534440
O O14 0.250000 0.137934 0.976010
O O15 0.124634 0.000000 0.981562
O O16 0.750000 0.879664 0.425476
O O17 0.886096 0.000000 0.441731
O O18 0.531629 0.500000 0.197512
#
# Coordination Sequence:
#
# PCOD9402414 Si02
#       8
#     8   2   4   8   8   8   8   8
#     4   9  18  34  51  78 108 140 179 223 272 334
#     4  12  22  40  54  86 116 146 192 252 304 328
#     4  10  20  34  52  78 110 130 172 228 278 338
#     4  10  19  36  55  75 104 141 188 230 270 329
#     4  12  22  37  59  84 113 151 195 247 291 338
#     4   9  17  31  54  77 100 133 172 218 273 330
#     4  10  20  36  56  81 116 152 187 231 287 344
#     4  10  21  35  53  77 105 144 180 221 280 339
#
# _framework density 17.813324000000001
#
# number of rings (size 3 to 8) (size 9 to 14) (size 15 to 20)
#    0.000    1.926    2.222    2.000    0.000    2.963 
#    1.333    0.000    0.000    4.444    0.000    2.074 
#    0.000    0.000    0.000    0.000    0.000    0.000 
#
# Total GULP energy -300808.867072 kJ/mol
# GULP energy per Si atom -5570.534575 kJ/mol
# Density = 1.777278 g / cm^3
# Si number density = 17.813324 Si / 1000 Ang^3
#
#
#
# Elastic Constant Matrix: (Units=GPa)
#
#
# Indices 1 2 3 4 5 6 
#
# 1 77.3322 42.2311 4.4774 0.0000 0.0000 0.0000
# 2 42.2311 95.5061 11.5855 0.0000 0.0000 0.0000
# 3 4.4774 11.5855 25.7259 0.0000 0.0000 0.0000
# 4 0.0000 0.0000 0.0000 15.4439 0.0000 0.0000
# 5 0.0000 0.0000 0.0000 0.0000 22.6476 0.0000
# 6 0.0000 0.0000 0.0000 0.0000 0.0000 21.2077
#
#
#
# Elastic Compliance Matrix: (Units=1/GPa)
#
#
# Indices 1 2 3 4 5 6 
#
# 1 0.017053 -0.007595 0.000453 0.000000 0.000000 0.000000
# 2 -0.007595 0.014459 -0.005189 0.000000 0.000000 0.000000
# 3 0.000453 -0.005189 0.041130 0.000000 0.000000 0.000000
# 4 0.000000 0.000000 0.000000 0.064751 0.000000 0.000000
# 5 0.000000 0.000000 0.000000 0.000000 0.044155 0.000000
# 6 0.000000 0.000000 0.000000 0.000000 0.000000 0.047153
#
#
# Mechanical properties :
#
#
# Convention : Reuss Voigt Hill
#
# Bulk Modulus (GPa) = 20.84348 35.01692 27.93020
# Shear Modulus (GPa) = 18.56282 21.21118 19.88700
#
# Velocity S-wave (km/s) = 3.23162 3.45447 3.34490
# Velocity P-wave (km/s) = 5.06468 5.96754 5.53455
#
# Compressibility (1/GPa) = 0.04797664
#
# Stress axis : x y z
#
# Youngs Moduli (GPa) = 58.64121 69.16306 24.31343
#
# Poissons Ratio (x) = 0.52532 -0.01101
# Poissons Ratio (y) = 0.44540 0.12617
# Poissons Ratio (z) = -0.02654 0.35892
#
# Static dielectric constant tensor:
#      x y z
#    x 1.608330 0.000000 0.000000 
#    y 0.000000 1.595940 0.000000 
#    z 0.000000 0.000000 1.602970 
# 
# From -- ./inp_files/24205.got.cif
#   From: 2010.05.17/outbox.cif.g08.bks.cpg/sg51_13_cif.got.tgz:24205.got - 2010.06.03 11:52:47.
