data_PCOD9402168
_publ_section_title
;
Structure prediction by ZEFSAII (Michael W. Deem and Ramdas Pophale) SiO2 
 PCOD9402168
Probable space group: P M M A
;
_chemical_formula_sum "Si O2"
_cell_formula_units_Z 56
_cell_length_a 15.846529
_cell_length_b 8.754395
_cell_length_c 21.870189
_cell_angle_alpha 90.000000
_cell_angle_beta 90.000000
_cell_angle_gamma 90.000000
_cell_volume 3033.980772
_symmetry_space_group_name_H-M "P M M A"
_symmetry_group_IT_number 51
_symmetry_cell_setting 'orthorhombic'
loop_
_space_group_symop_operation_xyz
x,y,z
1/2-x,-y,z
1/2+x,-y,-z
-x,y,-z
-x,-y,-z
1/2+x,y,-z
1/2-x,y,z
x,-y,z
loop_
_atom_site_type_symbol
_atom_site_label
_atom_site_fract_x
_atom_site_fract_y
_atom_site_fract_z
Si Si1 0.399795 0.317536 0.498965
Si Si2 0.000588 0.815305 0.710557
Si Si3 0.846562 0.684152 0.073193
Si Si4 0.843352 0.815947 0.628694
Si Si5 0.998360 0.817042 0.851797
Si Si6 0.653535 0.315887 0.930576
Si Si7 0.154952 0.315574 0.634533
O O1 0.500000 0.287381 0.500000
O O2 0.387474 0.500000 0.492912
O O3 0.360141 0.238067 0.440263
O O4 0.361807 0.269447 0.564074
O O5 0.918837 0.761635 0.672331
O O6 0.996355 0.766997 0.781071
O O7 0.083952 0.754487 0.677474
O O8 0.001759 0.000000 0.708948
O O9 0.750000 0.727694 0.088963
O O10 0.852080 0.500000 0.077331
O O11 0.917365 0.756968 0.115380
O O12 0.861021 0.724946 0.001881
O O13 0.750000 0.764879 0.648401
O O14 0.844680 0.000000 0.629723
O O15 0.916997 0.756111 0.887941
O O16 0.997929 0.000000 0.853430
O O17 0.750000 0.271475 0.914876
O O18 0.648358 0.500000 0.926747
O O19 0.250000 0.272470 0.652347
O O20 0.148186 0.500000 0.636540
#
# Coordination Sequence:
#
# PCOD9402168 Si02
#       7
#     8   8   8   8   8   8   8
#     4  10  19  34  58  84 110 137 168 218 280 330
#     4  10  23  40  54  74 109 149 185 223 265 316
#     4   9  19  37  60  84 111 145 183 225 274 325
#     4  10  21  37  57  79 104 140 184 224 265 318
#     4  11  23  36  54  82 114 149 185 225 276 325
#     4   9  19  37  60  85 112 143 182 226 271 324
#     4  10  21  37  57  81 108 139 178 224 273 324
#
# _framework density 18.457599999999999
#
# number of rings (size 3 to 8) (size 9 to 14) (size 15 to 20)
#    0.000    2.143    1.429    2.143    0.000    7.143 
#    0.000    5.714    0.000    0.000    0.000    0.000 
#    0.000    0.000    0.000    0.000    0.000    0.000 
#
# Total GULP energy -312690.705453 kJ/mol
# GULP energy per Si atom -5583.762597 kJ/mol
# Density = 1.841559 g / cm^3
# Si number density = 18.457600 Si / 1000 Ang^3
#
#
#
# Elastic Constant Matrix: (Units=GPa)
#
#
# Indices 1 2 3 4 5 6 
#
# 1 172.2611 38.1291 108.4738 0.0000 0.0000 0.0000
# 2 38.1291 10.9859 31.5061 0.0000 0.0000 0.0000
# 3 108.4738 31.5061 139.6065 0.0000 0.0000 0.0000
# 4 0.0000 0.0000 0.0000 40.3342 0.0000 0.0000
# 5 0.0000 0.0000 0.0000 0.0000 -5.4652 0.0000
# 6 0.0000 0.0000 0.0000 0.0000 0.0000 15.0607
#
#
#
# Elastic Compliance Matrix: (Units=1/GPa)
#
#
# Indices 1 2 3 4 5 6 
#
# 1 0.025057 -0.088243 0.000445 0.000000 0.000000 0.000000
# 2 -0.088243 0.568789 -0.059798 0.000000 0.000000 0.000000
# 3 0.000445 -0.059798 0.020312 0.000000 0.000000 0.000000
# 4 0.000000 0.000000 0.000000 0.024793 0.000000 0.000000
# 5 0.000000 0.000000 0.000000 0.000000 -0.182974 0.000000
# 6 0.000000 0.000000 0.000000 0.000000 0.000000 0.066398
#
#
# Mechanical properties :
#
#
# Convention : Reuss Voigt Hill
#
# Bulk Modulus (GPa) = 3.13513 75.45238 39.29376
# Shear Modulus (GPa) = 5.41191 19.63556 12.52373
#
# Velocity S-wave (km/s) = 1.71419 3.26516 2.60766
# Velocity P-wave (km/s) = 2.37069 7.42850 5.51374
#
# Compressibility (1/GPa) = 0.31896568
#
# Stress axis : x y z
#
# Youngs Moduli (GPa) = 39.90916 1.75812 49.23212
#
# Poissons Ratio (x) = 0.15514 -0.02193
# Poissons Ratio (y) = 3.52172 2.94398
# Poissons Ratio (z) = -0.01778 0.10513
#
# Static dielectric constant tensor:
#      x y z
#    x 1.630850 0.000000 0.000000 
#    y 0.000000 1.627140 0.000000 
#    z 0.000000 0.000000 1.608580 
# 
# From -- ./inp_files/33316.got.cif
#   From: 2010.05.17/outbox.cif.g08.bks.cpg/sg51_17_cif.got.tgz:33316.got - 2010.06.03 11:52:47.
