data_PCOD9402849
_publ_section_title
;
Structure prediction by ZEFSAII (Michael W. Deem and Ramdas Pophale) SiO2 
 PCOD9402849
Probable space group: P M M A
;
_chemical_formula_sum "Si O2"
_cell_formula_units_Z 36
_cell_length_a 9.310152
_cell_length_b 7.595953
_cell_length_c 26.518755
_cell_angle_alpha 90.000000
_cell_angle_beta 90.000000
_cell_angle_gamma 90.000000
_cell_volume 1875.392485
_symmetry_space_group_name_H-M "P M M A"
_symmetry_group_IT_number 51
_symmetry_cell_setting 'orthorhombic'
loop_
_space_group_symop_operation_xyz
x,y,z
1/2-x,-y,z
1/2+x,-y,-z
-x,y,-z
-x,-y,-z
1/2+x,y,-z
1/2-x,y,z
x,-y,z
loop_
_atom_site_type_symbol
_atom_site_label
_atom_site_fract_x
_atom_site_fract_y
_atom_site_fract_z
Si Si1 0.425152 0.203136 0.867349
Si Si2 0.411262 0.710219 0.452333
Si Si3 0.423719 0.500000 0.946391
Si Si4 0.415400 0.212225 0.648250
Si Si5 0.580825 0.213510 0.242423
O O1 0.250000 0.203618 0.864724
O O2 0.465001 0.330488 0.912760
O O3 0.476350 0.270236 0.812164
O O4 0.469436 0.000000 0.874758
O O5 0.500000 0.781214 0.500000
O O6 0.250000 0.781980 0.450993
O O7 0.401232 0.500000 0.459223
O O8 0.492094 0.738950 0.399857
O O9 0.250000 0.500000 0.952246
O O10 0.500000 0.500000 0.000000
O O11 0.250000 0.273592 0.642330
O O12 0.475547 0.272228 0.702947
O O13 0.410423 0.000000 0.650463
O O14 0.750000 0.259059 0.244007
O O15 0.572524 0.000000 0.240663
#
# Coordination Sequence:
#
# PCOD9402849 Si02
#       5
#     8   8   4   8   8
#     4   8  14  27  47  70  98 130 163 204 249 290
#     4  10  21  36  51  66  90 126 166 204 242 287
#     4  10  20  32  48  72 100 130 169 208 245 290
#     4   9  17  30  50  76 101 122 149 192 246 298
#     4   7  11  23  44  69  96 121 147 187 236 282
#
# _framework density 19.195982999999998
#
# number of rings (size 3 to 8) (size 9 to 14) (size 15 to 20)
#    0.000    3.333    0.000    3.333    0.000    2.667 
#    2.000    0.000    0.000    1.333    0.000    3.111 
#    0.000    0.000    0.000    0.000    0.000    0.000 
#
# Total GULP energy -200469.360830 kJ/mol
# GULP energy per Si atom -5568.593356 kJ/mol
# Density = 1.915229 g / cm^3
# Si number density = 19.195983 Si / 1000 Ang^3
#
#
#
# Elastic Constant Matrix: (Units=GPa)
#
#
# Indices 1 2 3 4 5 6 
#
# 1 55.6905 17.8287 70.1982 0.0000 0.0000 0.0000
# 2 17.8287 61.1227 48.7937 0.0000 0.0000 0.0000
# 3 70.1982 48.7937 241.9911 0.0000 0.0000 0.0000
# 4 0.0000 0.0000 0.0000 32.3279 0.0000 0.0000
# 5 0.0000 0.0000 0.0000 0.0000 26.2762 0.0000
# 6 0.0000 0.0000 0.0000 0.0000 0.0000 10.3130
#
#
#
# Elastic Compliance Matrix: (Units=1/GPa)
#
#
# Indices 1 2 3 4 5 6 
#
# 1 0.028519 -0.002043 -0.007861 0.000000 0.000000 0.000000
# 2 -0.002043 0.019646 -0.003368 0.000000 0.000000 0.000000
# 3 -0.007861 -0.003368 0.007092 0.000000 0.000000 0.000000
# 4 0.000000 0.000000 0.000000 0.030933 0.000000 0.000000
# 5 0.000000 0.000000 0.000000 0.000000 0.038057 0.000000
# 6 0.000000 0.000000 0.000000 0.000000 0.000000 0.096965
#
#
# Mechanical properties :
#
#
# Convention : Reuss Voigt Hill
#
# Bulk Modulus (GPa) = 34.82956 70.27172 52.55064
# Shear Modulus (GPa) = 19.43038 28.58231 24.00635
#
# Velocity S-wave (km/s) = 3.18498 3.86291 3.54021
# Velocity P-wave (km/s) = 5.63108 7.52217 6.64425
#
# Compressibility (1/GPa) = 0.02871125
#
# Stress axis : x y z
#
# Youngs Moduli (GPa) = 35.06378 50.90202 141.00440
#
# Poissons Ratio (x) = 0.10401 1.10845
# Poissons Ratio (y) = 0.07165 0.47497
# Poissons Ratio (z) = 0.27564 0.17146
#
# Static dielectric constant tensor:
#      x y z
#    x 1.654560 0.000000 0.000000 
#    y 0.000000 1.713190 0.000000 
#    z 0.000000 0.000000 1.693110 
# 
# From -- ./inp_files/34295.got.cif
#   From: 2010.05.17/outbox.cif.g08.bks.cpg/sg51_18_cif.got.tgz:34295.got - 2010.06.03 11:52:47.
