data_PCOD9402345
_publ_section_title
;
Structure prediction by ZEFSAII (Michael W. Deem and Ramdas Pophale) SiO2 
 PCOD9402345
Probable space group: P M M A
;
_chemical_formula_sum "Si O2"
_cell_formula_units_Z 30
_cell_length_a 7.412432
_cell_length_b 13.205242
_cell_length_c 13.388354
_cell_angle_alpha 90.000000
_cell_angle_beta 90.000000
_cell_angle_gamma 90.000000
_cell_volume 1310.491697
_symmetry_space_group_name_H-M "P M M A"
_symmetry_group_IT_number 51
_symmetry_cell_setting 'orthorhombic'
loop_
_space_group_symop_operation_xyz
x,y,z
1/2-x,-y,z
1/2+x,-y,-z
-x,y,-z
-x,-y,-z
1/2+x,y,-z
1/2-x,y,z
x,-y,z
loop_
_atom_site_type_symbol
_atom_site_label
_atom_site_fract_x
_atom_site_fract_y
_atom_site_fract_z
Si Si1 0.964648 0.776830 0.382473
Si Si2 0.457586 0.325879 0.192441
Si Si3 0.465067 0.000000 0.619328
Si Si4 0.250000 0.500000 0.848252
Si Si5 0.464665 0.108313 0.118151
O O1 0.750000 0.776903 0.369380
O O2 0.000000 0.763860 0.500000
O O3 0.041445 0.689164 0.312496
O O4 0.035486 0.888943 0.349666
O O5 0.250000 0.341059 0.158505
O O6 0.591324 0.411929 0.157143
O O7 0.529207 0.215904 0.157195
O O8 0.500000 0.000000 0.500000
O O9 0.250000 0.000000 0.633532
O O10 0.250000 0.107743 0.133850
O O11 0.536828 0.000000 0.158123
O O12 0.500000 0.107566 0.000000
#
# Coordination Sequence:
#
# PCOD9402345 Si02
#       5
#     8   8   4   2   8
#     4  10  19  35  58  91 129 169 215 265 326 395
#     4  11  24  43  68  93 131 170 219 276 327 382
#     4   8  16  28  48  82 123 158 195 244 309 385
#     4  12  26  48  66  90 124 178 232 280 316 372
#     4   9  20  39  67 104 138 168 206 258 328 404
#
# _framework density 22.892171000000001
#
# number of rings (size 3 to 8) (size 9 to 14) (size 15 to 20)
#    0.000    2.133    1.333    1.200    3.733    1.067 
#    0.000    1.333    0.000    0.000    0.000    0.000 
#    0.000    0.000    0.000    0.000    0.000    0.000 
#
# Total GULP energy -167083.853928 kJ/mol
# GULP energy per Si atom -5569.461798 kJ/mol
# Density = 2.284007 g / cm^3
# Si number density = 22.892171 Si / 1000 Ang^3
#
#
#
# Elastic Constant Matrix: (Units=GPa)
#
#
# Indices 1 2 3 4 5 6 
#
# 1 152.5749 54.2195 3.4687 0.0000 0.0000 0.0000
# 2 54.2195 187.0191 20.9100 0.0000 0.0000 0.0000
# 3 3.4687 20.9100 41.8878 0.0000 0.0000 0.0000
# 4 0.0000 0.0000 0.0000 -9.3291 0.0000 0.0000
# 5 0.0000 0.0000 0.0000 0.0000 24.9813 0.0000
# 6 0.0000 0.0000 0.0000 0.0000 0.0000 17.3901
#
#
#
# Elastic Compliance Matrix: (Units=1/GPa)
#
#
# Indices 1 2 3 4 5 6 
#
# 1 0.007316 -0.002175 0.000480 0.000000 0.000000 0.000000
# 2 -0.002175 0.006310 -0.002970 0.000000 0.000000 0.000000
# 3 0.000480 -0.002970 0.025316 0.000000 0.000000 0.000000
# 4 0.000000 0.000000 0.000000 -0.107192 0.000000 0.000000
# 5 0.000000 0.000000 0.000000 0.000000 0.040030 0.000000
# 6 0.000000 0.000000 0.000000 0.000000 0.000000 0.057504
#
#
# Mechanical properties :
#
#
# Convention : Reuss Voigt Hill
#
# Bulk Modulus (GPa) = 33.76948 59.85313 46.81131
# Shear Modulus (GPa) = 103.12726 26.80070 64.96398
#
# Velocity S-wave (km/s) = 6.71915 3.42531 5.33290
# Velocity P-wave (km/s) = 8.65907 6.46886 7.64283
#
# Compressibility (1/GPa) = 0.02961254
#
# Stress axis : x y z
#
# Youngs Moduli (GPa) = 136.68587 158.49043 39.50074
#
# Poissons Ratio (x) = 0.34466 -0.01895
# Poissons Ratio (y) = 0.29725 0.11730
# Poissons Ratio (z) = -0.06557 0.47065
#
# Static dielectric constant tensor:
#      x y z
#    x 1.842270 0.000000 0.000000 
#    y 0.000000 1.845020 0.000000 
#    z 0.000000 0.000000 2.003810 
# 
# From -- ./inp_files/20040.got.cif
#   From: 2010.05.17/outbox.cif.g08.bks.cpg/sg51_11_cif.got.tgz:20040.got - 2010.06.03 11:52:47.
