data_PCOD9402518
_publ_section_title
;
Structure prediction by ZEFSAII (Michael W. Deem and Ramdas Pophale) SiO2 
 PCOD9402518
Probable space group: P M M A
;
_chemical_formula_sum "Si O2"
_cell_formula_units_Z 48
_cell_length_a 8.573843
_cell_length_b 15.534762
_cell_length_c 19.511018
_cell_angle_alpha 90.000000
_cell_angle_beta 90.000000
_cell_angle_gamma 90.000000
_cell_volume 2598.723420
_symmetry_space_group_name_H-M "P M M A"
_symmetry_group_IT_number 51
_symmetry_cell_setting 'orthorhombic'
loop_
_space_group_symop_operation_xyz
x,y,z
1/2-x,-y,z
1/2+x,-y,-z
-x,y,-z
-x,-y,-z
1/2+x,y,-z
1/2-x,y,z
x,-y,z
loop_
_atom_site_type_symbol
_atom_site_label
_atom_site_fract_x
_atom_site_fract_y
_atom_site_fract_z
Si Si1 0.064382 0.500000 0.076762
Si Si2 0.438225 0.000000 0.076807
Si Si3 0.938835 0.841165 0.827788
Si Si4 0.935446 0.348180 0.170814
Si Si5 0.061546 0.748602 0.423219
Si Si6 0.559952 0.902062 0.675171
Si Si7 0.438500 0.598787 0.319824
O O1 0.250000 0.500000 0.075536
O O2 0.006059 0.416531 0.118027
O O3 0.000000 0.500000 0.000000
O O4 0.486870 0.084745 0.119123
O O5 0.250000 0.000000 0.075615
O O6 0.500000 0.000000 0.000000
O O7 0.750000 0.835236 0.828446
O O8 0.985367 0.869665 0.750876
O O9 0.008204 0.748393 0.844167
O O10 0.750000 0.353222 0.168098
O O11 0.992839 0.372921 0.247004
O O12 0.250000 0.749350 0.424863
O O13 0.009112 0.833758 0.381894
O O14 0.013039 0.665449 0.378721
O O15 0.000000 0.746370 0.500000
O O16 0.750000 0.902897 0.674614
O O17 0.507170 0.000000 0.663728
O O18 0.250000 0.603131 0.314164
O O19 0.481822 0.500000 0.334596
#
# Coordination Sequence:
#
# PCOD9402518 Si02
#       7
#     4   4   8   8   8   8   8
#     4  12  26  46  68  92 125 162 201 250 302 356
#     4  10  22  38  62  90 121 158 200 249 300 355
#     4  10  19  37  63  88 114 158 210 249 295 356
#     4  12  24  38  61  95 127 158 199 248 302 360
#     4  10  21  36  55  83 118 154 195 246 303 360
#     4   9  16  31  58  85 108 145 203 252 290 351
#     4  10  20  37  62  86 111 154 205 246 293 356
#
# _framework density 18.470607000000001
#
# number of rings (size 3 to 8) (size 9 to 14) (size 15 to 20)
#    0.000    1.667    3.333    2.250    0.000    2.667 
#    0.000    1.667    0.000    1.000    0.000    0.000 
#    0.000    0.000    0.000    0.000    0.000    0.000 
#
# Total GULP energy -268169.932541 kJ/mol
# GULP energy per Si atom -5586.873595 kJ/mol
# Density = 1.842857 g / cm^3
# Si number density = 18.470607 Si / 1000 Ang^3
#
#
#
# Elastic Constant Matrix: (Units=GPa)
#
#
# Indices 1 2 3 4 5 6 
#
# 1 32.2230 51.8912 42.4409 0.0000 0.0000 0.0000
# 2 51.8912 225.1223 123.3417 0.0000 0.0000 0.0000
# 3 42.4409 123.3417 195.7898 0.0000 0.0000 0.0000
# 4 0.0000 0.0000 0.0000 32.3944 0.0000 0.0000
# 5 0.0000 0.0000 0.0000 0.0000 33.0244 0.0000
# 6 0.0000 0.0000 0.0000 0.0000 0.0000 -4.7247
#
#
#
# Elastic Compliance Matrix: (Units=1/GPa)
#
#
# Indices 1 2 3 4 5 6 
#
# 1 0.053388 -0.009110 -0.005834 0.000000 0.000000 0.000000
# 2 -0.009110 0.008338 -0.003278 0.000000 0.000000 0.000000
# 3 -0.005834 -0.003278 0.008437 0.000000 0.000000 0.000000
# 4 0.000000 0.000000 0.000000 0.030870 0.000000 0.000000
# 5 0.000000 0.000000 0.000000 0.000000 0.030281 0.000000
# 6 0.000000 0.000000 0.000000 0.000000 0.000000 -0.211655
#
#
# Mechanical properties :
#
#
# Convention : Reuss Voigt Hill
#
# Bulk Modulus (GPa) = 29.65635 98.72029 64.18832
# Shear Modulus (GPa) = -153.09222 27.83624 -62.62799
#
# Velocity S-wave (km/s) = -9.11395 3.88629 -5.82927
# Velocity P-wave (km/s) = 9.72941 8.58493 3.23732
#
# Compressibility (1/GPa) = 0.03371959
#
# Stress axis : x y z
#
# Youngs Moduli (GPa) = 18.73095 119.93712 118.52478
#
# Poissons Ratio (x) = 1.09258 0.69146
# Poissons Ratio (y) = 0.17063 0.38850
# Poissons Ratio (z) = 0.10927 0.39313
#
# Static dielectric constant tensor:
#      x y z
#    x 1.629660 0.000000 0.000000 
#    y 0.000000 1.632460 0.000000 
#    z 0.000000 0.000000 1.592490 
# 
# From -- ./inp_files/27656.got.cif
#   From: 2010.05.17/outbox.cif.g08.bks.cpg/sg51_14_cif.got.tgz:27656.got - 2010.06.03 11:52:47.
