data_PCOD9402255
_publ_section_title
;
Structure prediction by ZEFSAII (Michael W. Deem and Ramdas Pophale) SiO2 
 PCOD9402255
Probable space group: P M M A
;
_chemical_formula_sum "Si O2"
_cell_formula_units_Z 64
_cell_length_a 8.776539
_cell_length_b 16.617065
_cell_length_c 23.805810
_cell_angle_alpha 90.000000
_cell_angle_beta 90.000000
_cell_angle_gamma 90.000000
_cell_volume 3471.846925
_symmetry_space_group_name_H-M "P M M A"
_symmetry_group_IT_number 51
_symmetry_cell_setting 'orthorhombic'
loop_
_space_group_symop_operation_xyz
x,y,z
1/2-x,-y,z
1/2+x,-y,-z
-x,y,-z
-x,-y,-z
1/2+x,y,-z
1/2-x,y,z
x,-y,z
loop_
_atom_site_type_symbol
_atom_site_label
_atom_site_fract_x
_atom_site_fract_y
_atom_site_fract_z
Si Si1 0.069700 0.314956 0.137647
Si Si2 0.934908 0.249621 0.624983
Si Si3 0.931281 0.909885 0.834525
Si Si4 0.933576 0.091604 0.436985
Si Si5 0.431410 0.171455 0.937586
Si Si6 0.917859 0.593824 0.054232
Si Si7 0.566418 0.407656 0.436938
Si Si8 0.065487 0.233269 0.246522
O O1 0.250000 0.305134 0.134419
O O2 0.021674 0.301839 0.201698
O O3 0.994323 0.249299 0.096211
O O4 0.016337 0.396342 0.109687
O O5 0.750000 0.250424 0.621538
O O6 0.986039 0.244993 0.690207
O O7 0.996092 0.167782 0.595784
O O8 0.997915 0.332255 0.597527
O O9 0.750000 0.895943 0.843845
O O10 0.982877 0.847328 0.786699
O O11 0.013782 0.896970 0.893918
O O12 0.952729 0.000000 0.814231
O O13 0.750000 0.099252 0.438159
O O14 0.000000 0.095181 0.500000
O O15 0.969183 0.000000 0.415439
O O16 0.250000 0.172840 0.941520
O O17 0.500000 0.164776 0.000000
O O18 0.750000 0.628808 0.061288
O O19 0.900981 0.500000 0.043003
O O20 0.000000 0.630359 0.000000
O O21 0.500000 0.401737 0.500000
O O22 0.750000 0.400370 0.438287
O O23 0.530388 0.500000 0.416941
O O24 0.250000 0.230953 0.249411
#
# Coordination Sequence:
#
# PCOD9402255 Si02
#       8
#     8   8   8   8   8   8   8   8
#     4  10  19  35  55  72  96 130 170 212 254 302
#     4  11  21  35  58  85 114 148 187 230 274 324
#     4   9  18  35  56  75  99 132 171 217 264 309
#     4  10  21  37  56  81 115 152 189 229 274 325
#     4  11  21  33  50  73 100 129 165 208 259 318
#     4  10  20  33  50  75 104 131 162 202 252 310
#     4  10  21  38  60  86 116 149 185 226 274 327
#     4   8  18  35  54  77 102 135 178 217 255 306
#
# _framework density 18.433990999999999
#
# number of rings (size 3 to 8) (size 9 to 14) (size 15 to 20)
#    0.000    2.125    0.000    4.500    0.000    3.250 
#    0.000    8.125    0.000    3.750    0.000    0.000 
#    0.000    0.000    0.000    0.000    0.000    0.000 
#
# Total GULP energy -356593.663341 kJ/mol
# GULP energy per Si atom -5571.775990 kJ/mol
# Density = 1.839203 g / cm^3
# Si number density = 18.433991 Si / 1000 Ang^3
#
#
#
# Elastic Constant Matrix: (Units=GPa)
#
#
# Indices 1 2 3 4 5 6 
#
# 1 86.1240 47.4375 47.0953 0.0000 0.0000 0.0000
# 2 47.4375 108.2727 71.6098 0.0000 0.0000 0.0000
# 3 47.0953 71.6098 145.2490 0.0000 0.0000 0.0000
# 4 0.0000 0.0000 0.0000 41.6289 0.0000 0.0000
# 5 0.0000 0.0000 0.0000 0.0000 22.1532 0.0000
# 6 0.0000 0.0000 0.0000 0.0000 0.0000 25.2120
#
#
#
# Elastic Compliance Matrix: (Units=1/GPa)
#
#
# Indices 1 2 3 4 5 6 
#
# 1 0.015920 -0.005284 -0.002557 0.000000 0.000000 0.000000
# 2 -0.005284 0.015458 -0.005908 0.000000 0.000000 0.000000
# 3 -0.002557 -0.005908 0.010626 0.000000 0.000000 0.000000
# 4 0.000000 0.000000 0.000000 0.024022 0.000000 0.000000
# 5 0.000000 0.000000 0.000000 0.000000 0.045140 0.000000
# 6 0.000000 0.000000 0.000000 0.000000 0.000000 0.039664
#
#
# Mechanical properties :
#
#
# Convention : Reuss Voigt Hill
#
# Bulk Modulus (GPa) = 68.93079 74.65898 71.79489
# Shear Modulus (GPa) = 27.29808 29.36570 28.33189
#
# Velocity S-wave (km/s) = 3.85236 3.99559 3.92463
# Velocity P-wave (km/s) = 7.56717 7.86607 7.71807
#
# Compressibility (1/GPa) = 0.01450730
#
# Stress axis : x y z
#
# Youngs Moduli (GPa) = 62.81548 64.68978 94.10500
#
# Poissons Ratio (x) = 0.34181 0.24060
# Poissons Ratio (y) = 0.33191 0.55597
# Poissons Ratio (z) = 0.16060 0.38218
#
# Static dielectric constant tensor:
#      x y z
#    x 1.650220 0.000000 0.000000 
#    y 0.000000 1.715570 0.000000 
#    z 0.000000 0.000000 1.614520 
# 
# From -- ./inp_files/32417.got.cif
#   From: 2010.05.17/outbox.cif.g08.bks.cpg/sg51_17_cif.got.tgz:32417.got - 2010.06.03 11:52:47.
