data_PCOD9402642
_publ_section_title
;
Structure prediction by ZEFSAII (Michael W. Deem and Ramdas Pophale) SiO2 
 PCOD9402642
Probable space group: P M M A
;
_chemical_formula_sum "Si O2"
_cell_formula_units_Z 64
_cell_length_a 14.114500
_cell_length_b 14.580667
_cell_length_c 21.351278
_cell_angle_alpha 90.000000
_cell_angle_beta 90.000000
_cell_angle_gamma 90.000000
_cell_volume 4394.067911
_symmetry_space_group_name_H-M "P M M A"
_symmetry_group_IT_number 51
_symmetry_cell_setting 'orthorhombic'
loop_
_space_group_symop_operation_xyz
x,y,z
1/2-x,-y,z
1/2+x,-y,-z
-x,y,-z
-x,-y,-z
1/2+x,y,-z
1/2-x,y,z
x,-y,z
loop_
_atom_site_type_symbol
_atom_site_label
_atom_site_fract_x
_atom_site_fract_y
_atom_site_fract_z
Si Si1 0.143886 0.715850 0.399641
Si Si2 0.856033 0.611585 0.968177
Si Si3 0.608502 0.395870 0.477686
Si Si4 0.635272 0.105892 0.386797
Si Si5 0.454590 0.611429 0.902729
Si Si6 0.864653 0.899854 0.531717
Si Si7 0.440998 0.296330 0.648963
Si Si8 0.638339 0.610183 0.227030
O O1 0.250000 0.717418 0.371131
O O2 0.151998 0.657154 0.463537
O O3 0.113335 0.816743 0.423173
O O4 0.053724 0.684369 0.359303
O O5 0.750000 0.643409 0.954091
O O6 0.855233 0.500000 0.967228
O O7 0.938821 0.640592 0.920626
O O8 0.888595 0.637982 0.038362
O O9 0.500000 0.401221 0.500000
O O10 0.642819 0.500000 0.469261
O O11 0.609696 0.339918 0.412861
O O12 0.750000 0.117524 0.383531
O O13 0.605591 0.115847 0.460017
O O14 0.584959 0.188495 0.350747
O O15 0.615409 0.000000 0.368381
O O16 0.453881 0.500000 0.901846
O O17 0.415286 0.641636 0.835976
O O18 0.750000 0.902571 0.529398
O O19 0.898539 0.000000 0.552374
O O20 0.402455 0.343450 0.711081
O O21 0.750000 0.629318 0.220909
O O22 0.627358 0.500000 0.232288
#
# Coordination Sequence:
#
# PCOD9402642 Si02
#       8
#     8   8   8   8   8   8   8   8
#     4  10  20  32  44  60  81 103 131 171 217 258
#     4   8  12  20  38  62  86 111 138 169 204 239
#     4   9  18  31  44  57  73  96 132 177 216 248
#     4   9  17  29  46  67  86 101 124 165 216 266
#     4   8  14  24  38  59  85 111 141 173 202 235
#     4   8  14  26  44  64  83  99 119 156 210 268
#     4  11  20  31  46  62  80 107 140 171 206 254
#     4  10  20  32  45  60  81 111 145 179 209 240
#
# _framework density 14.565091000000001
#
# number of rings (size 3 to 8) (size 9 to 14) (size 15 to 20)
#    0.000    2.875    1.250    2.625    0.000    3.250 
#    0.000    1.875    0.000    0.750    0.000    0.000 
#    0.000    0.000    0.000    2.250    0.000    4.250 
#
# Total GULP energy -356401.520827 kJ/mol
# GULP energy per Si atom -5568.773763 kJ/mol
# Density = 1.453194 g / cm^3
# Si number density = 14.565091 Si / 1000 Ang^3
#
#
#
# Elastic Constant Matrix: (Units=GPa)
#
#
# Indices 1 2 3 4 5 6 
#
# 1 106.3829 23.3251 49.3955 0.0000 0.0000 0.0000
# 2 23.3251 48.0144 25.9658 0.0000 0.0000 0.0000
# 3 49.3955 25.9658 88.3284 0.0000 0.0000 0.0000
# 4 0.0000 0.0000 0.0000 3.6012 0.0000 0.0000
# 5 0.0000 0.0000 0.0000 0.0000 15.1133 0.0000
# 6 0.0000 0.0000 0.0000 0.0000 0.0000 16.1830
#
#
#
# Elastic Compliance Matrix: (Units=1/GPa)
#
#
# Indices 1 2 3 4 5 6 
#
# 1 0.013014 -0.002837 -0.006444 0.000000 0.000000 0.000000
# 2 -0.002837 0.025383 -0.005875 0.000000 0.000000 0.000000
# 3 -0.006444 -0.005875 0.016652 0.000000 0.000000 0.000000
# 4 0.000000 0.000000 0.000000 0.277687 0.000000 0.000000
# 5 0.000000 0.000000 0.000000 0.000000 0.066167 0.000000
# 6 0.000000 0.000000 0.000000 0.000000 0.000000 0.061793
#
#
# Mechanical properties :
#
#
# Convention : Reuss Voigt Hill
#
# Bulk Modulus (GPa) = 40.42615 48.89983 44.66299
# Shear Modulus (GPa) = 10.01496 16.58212 13.29854
#
# Velocity S-wave (km/s) = 2.62506 3.37780 3.02494
# Velocity P-wave (km/s) = 6.08306 6.98992 6.55220
#
# Compressibility (1/GPa) = 0.02473646
#
# Stress axis : x y z
#
# Youngs Moduli (GPa) = 76.84008 39.39711 60.05325
#
# Poissons Ratio (x) = 0.11179 0.38696
# Poissons Ratio (y) = 0.21803 0.35281
# Poissons Ratio (z) = 0.49513 0.23145
#
# Static dielectric constant tensor:
#      x y z
#    x 1.540430 0.000000 0.000000 
#    y 0.000000 1.495270 0.000000 
#    z 0.000000 0.000000 1.449290 
# 
# From -- ./inp_files/29970.got.cif
#   From: 2010.05.17/outbox.cif.g08.bks.cpg/sg51_15_cif.got.tgz:29970.got - 2010.06.03 11:52:47.
