data_PCOD9402067
_publ_section_title
;
Structure prediction by ZEFSAII (Michael W. Deem and Ramdas Pophale) SiO2 
 PCOD9402067
Probable space group: P M M A
;
_chemical_formula_sum "Si O2"
_cell_formula_units_Z 48
_cell_length_a 31.826856
_cell_length_b 8.824585
_cell_length_c 9.225938
_cell_angle_alpha 90.000000
_cell_angle_beta 90.000000
_cell_angle_gamma 90.000000
_cell_volume 2591.185839
_symmetry_space_group_name_H-M "P M M A"
_symmetry_group_IT_number 51
_symmetry_cell_setting 'orthorhombic'
loop_
_space_group_symop_operation_xyz
x,y,z
1/2-x,-y,z
1/2+x,-y,-z
-x,y,-z
-x,-y,-z
1/2+x,y,-z
1/2-x,y,z
x,-y,z
loop_
_atom_site_type_symbol
_atom_site_label
_atom_site_fract_x
_atom_site_fract_y
_atom_site_fract_z
Si Si1 0.498157 0.825701 0.323909
Si Si2 0.332382 0.182124 0.164013
Si Si3 0.750000 0.182762 0.322298
Si Si4 0.085604 0.318636 0.673160
Si Si5 0.750000 0.183782 0.657163
Si Si6 0.329811 0.682199 0.843613
Si Si7 0.089367 0.319583 0.331918
O O1 0.500000 0.819957 0.500000
O O2 0.542679 0.759005 0.274643
O O3 0.457018 0.731388 0.281862
O O4 0.493399 0.000000 0.280093
O O5 0.291936 0.231204 0.258486
O O6 0.374459 0.235632 0.244141
O O7 0.331778 0.000000 0.151592
O O8 0.329723 0.255714 0.006219
O O9 0.750000 0.232310 0.490288
O O10 0.791120 0.246304 0.243320
O O11 0.750000 0.000000 0.315687
O O12 0.079891 0.500000 0.680487
O O13 0.126358 0.276525 0.765427
O O14 0.092820 0.280746 0.503356
O O15 0.750000 0.000000 0.656304
O O16 0.326207 0.500000 0.843079
O O17 0.093957 0.500000 0.316663
#
# Coordination Sequence:
#
# PCOD9402067 Si02
#       7
#     8   8   4   8   4   8   8
#     4   9  17  30  52  82 112 143 183 231 279 328
#     4  11  22  38  58  82 113 149 187 227 275 330
#     4  11  22  39  62  86 110 141 182 227 274 322
#     4   9  19  35  56  81 111 147 187 231 279 331
#     4   9  21  39  60  84 110 141 180 227 274 322
#     4  11  23  39  57  82 115 149 184 224 274 330
#     4  10  19  34  56  82 112 147 186 230 280 331
#
# _framework density 18.524336000000002
#
# number of rings (size 3 to 8) (size 9 to 14) (size 15 to 20)
#    0.000    2.000    0.000    3.750    0.000    4.667 
#    0.000    4.583    0.000    5.000    0.000    0.000 
#    0.000    0.000    0.000    0.000    0.000    0.000 
#
# Total GULP energy -268108.241679 kJ/mol
# GULP energy per Si atom -5585.588368 kJ/mol
# Density = 1.848217 g / cm^3
# Si number density = 18.524336 Si / 1000 Ang^3
#
#
#
# Elastic Constant Matrix: (Units=GPa)
#
#
# Indices 1 2 3 4 5 6 
#
# 1 177.9968 57.8038 83.0225 0.0000 0.0000 0.0000
# 2 57.8038 60.9689 43.7420 0.0000 0.0000 0.0000
# 3 83.0225 43.7420 110.8297 0.0000 0.0000 0.0000
# 4 0.0000 0.0000 0.0000 26.6081 0.0000 0.0000
# 5 0.0000 0.0000 0.0000 0.0000 -20.1515 0.0000
# 6 0.0000 0.0000 0.0000 0.0000 0.0000 37.4566
#
#
#
# Elastic Compliance Matrix: (Units=1/GPa)
#
#
# Indices 1 2 3 4 5 6 
#
# 1 0.009856 -0.005646 -0.005155 0.000000 0.000000 0.000000
# 2 -0.005646 0.026115 -0.006078 0.000000 0.000000 0.000000
# 3 -0.005155 -0.006078 0.015283 0.000000 0.000000 0.000000
# 4 0.000000 0.000000 0.000000 0.037583 0.000000 0.000000
# 5 0.000000 0.000000 0.000000 0.000000 -0.049624 0.000000
# 6 0.000000 0.000000 0.000000 0.000000 0.000000 0.026698
#
#
# Mechanical properties :
#
#
# Convention : Reuss Voigt Hill
#
# Bulk Modulus (GPa) = 57.15180 79.88134 68.51657
# Shear Modulus (GPa) = 47.39381 19.79777 33.59579
#
# Velocity S-wave (km/s) = 5.06361 3.27271 4.26326
# Velocity P-wave (km/s) = 8.06884 7.58267 7.82953
#
# Compressibility (1/GPa) = 0.01749726
#
# Stress axis : x y z
#
# Youngs Moduli (GPa) = 101.46222 38.29208 65.43254
#
# Poissons Ratio (x) = 0.21620 0.33728
# Poissons Ratio (y) = 0.57286 0.39767
# Poissons Ratio (z) = 0.52301 0.23272
#
# Static dielectric constant tensor:
#      x y z
#    x 1.615370 0.000000 0.000000 
#    y 0.000000 1.622760 0.000000 
#    z 0.000000 0.000000 1.617500 
# 
# From -- ./inp_files/12929.got.cif
#   From: 2010.05.17/outbox.cif.g08.bks.cpg/sg51_7_cif.got.tgz:12929.got - 2010.06.03 11:52:47.
