data_PCOD9402419
_publ_section_title
;
Structure prediction by ZEFSAII (Michael W. Deem and Ramdas Pophale) SiO2 
 PCOD9402419
Probable space group: P M M A
;
_chemical_formula_sum "Si O2"
_cell_formula_units_Z 52
_cell_length_a 9.092990
_cell_length_b 15.205660
_cell_length_c 20.502417
_cell_angle_alpha 90.000000
_cell_angle_beta 90.000000
_cell_angle_gamma 90.000000
_cell_volume 2834.764930
_symmetry_space_group_name_H-M "P M M A"
_symmetry_group_IT_number 51
_symmetry_cell_setting 'orthorhombic'
loop_
_space_group_symop_operation_xyz
x,y,z
1/2-x,-y,z
1/2+x,-y,-z
-x,y,-z
-x,-y,-z
1/2+x,y,-z
1/2-x,y,z
x,-y,z
loop_
_atom_site_type_symbol
_atom_site_label
_atom_site_fract_x
_atom_site_fract_y
_atom_site_fract_z
Si Si1 0.415908 0.000000 0.066146
Si Si2 0.422435 0.658568 0.929207
Si Si3 0.928793 0.288197 0.314075
Si Si4 0.424106 0.399504 0.199630
Si Si5 0.575936 0.604916 0.569342
Si Si6 0.578411 0.100028 0.283900
Si Si7 0.913123 0.146636 0.131779
O O1 0.460991 0.914313 0.104940
O O2 0.250000 0.000000 0.050313
O O3 0.500000 0.000000 0.000000
O O4 0.250000 0.633174 0.934449
O O5 0.507674 0.605682 0.872889
O O6 0.426266 0.757561 0.899541
O O7 0.500000 0.654086 0.000000
O O8 0.750000 0.290292 0.311514
O O9 0.980384 0.186150 0.320917
O O10 0.992294 0.333434 0.248340
O O11 0.992325 0.343618 0.373892
O O12 0.250000 0.378482 0.197603
O O13 0.440084 0.500000 0.223788
O O14 0.500000 0.624256 0.500000
O O15 0.750000 0.625990 0.568437
O O16 0.562628 0.500000 0.580607
O O17 0.750000 0.092170 0.302400
O O18 0.577729 0.134947 0.209330
O O19 0.516094 0.000000 0.288330
O O20 0.750000 0.112890 0.113157
#
# Coordination Sequence:
#
# PCOD9402419 Si02
#       7
#     4   8   8   8   8   8   8
#     4  12  24  34  48  74 102 136 179 228 291 356
#     4  11  23  39  58  79 104 141 188 240 299 359
#     4  11  21  36  61  92 121 156 196 237 287 341
#     4  11  24  40  58  82 113 150 192 240 293 349
#     4  10  21  38  61  92 129 166 199 235 282 335
#     4   9  17  33  58  84 112 147 188 233 283 339
#     4  10  19  36  57  76 102 138 181 233 292 350
#
# _framework density 18.343672000000002
#
# number of rings (size 3 to 8) (size 9 to 14) (size 15 to 20)
#    0.000    1.538    2.308    3.462    0.000    6.769 
#    0.000    0.000    0.000    0.462    0.000    0.000 
#    0.000    0.000    0.000    0.000    0.000    0.000 
#
# Total GULP energy -290005.235624 kJ/mol
# GULP energy per Si atom -5577.023762 kJ/mol
# Density = 1.830192 g / cm^3
# Si number density = 18.343672 Si / 1000 Ang^3
#
#
#
# Elastic Constant Matrix: (Units=GPa)
#
#
# Indices 1 2 3 4 5 6 
#
# 1 114.3892 49.1321 43.1907 0.0000 0.0000 0.0000
# 2 49.1321 100.8304 47.5443 0.0000 0.0000 0.0000
# 3 43.1907 47.5443 96.4226 0.0000 0.0000 0.0000
# 4 0.0000 0.0000 0.0000 25.7088 0.0000 0.0000
# 5 0.0000 0.0000 0.0000 0.0000 30.0772 0.0000
# 6 0.0000 0.0000 0.0000 0.0000 0.0000 35.8790
#
#
#
# Elastic Compliance Matrix: (Units=1/GPa)
#
#
# Indices 1 2 3 4 5 6 
#
# 1 0.011760 -0.004230 -0.003182 0.000000 0.000000 0.000000
# 2 -0.004230 0.014444 -0.005227 0.000000 0.000000 0.000000
# 3 -0.003182 -0.005227 0.014374 0.000000 0.000000 0.000000
# 4 0.000000 0.000000 0.000000 0.038897 0.000000 0.000000
# 5 0.000000 0.000000 0.000000 0.000000 0.033248 0.000000
# 6 0.000000 0.000000 0.000000 0.000000 0.000000 0.027871
#
#
# Mechanical properties :
#
#
# Convention : Reuss Voigt Hill
#
# Bulk Modulus (GPa) = 65.36275 65.70848 65.53562
# Shear Modulus (GPa) = 29.24446 29.78468 29.51457
#
# Velocity S-wave (km/s) = 3.99714 4.03389 4.01556
# Velocity P-wave (km/s) = 7.55066 7.58913 7.56992
#
# Compressibility (1/GPa) = 0.01529923
#
# Stress axis : x y z
#
# Youngs Moduli (GPa) = 85.03054 69.23488 69.57134
#
# Poissons Ratio (x) = 0.29287 0.22138
# Poissons Ratio (y) = 0.35969 0.36365
# Poissons Ratio (z) = 0.27057 0.36189
#
# Static dielectric constant tensor:
#      x y z
#    x 1.621500 0.000000 0.000000 
#    y 0.000000 1.674000 0.000000 
#    z 0.000000 0.000000 1.782780 
# 
# From -- ./inp_files/31683.got.cif
#   From: 2010.05.17/outbox.cif.g08.bks.cpg/sg51_16_cif.got.tgz:31683.got - 2010.06.03 11:52:47.
