data_PCOD9402228
_publ_section_title
;
Structure prediction by ZEFSAII (Michael W. Deem and Ramdas Pophale) SiO2 
 PCOD9402228
Probable space group: P M M A
;
_chemical_formula_sum "Si O2"
_cell_formula_units_Z 64
_cell_length_a 25.696668
_cell_length_b 8.640892
_cell_length_c 14.806756
_cell_angle_alpha 90.000000
_cell_angle_beta 90.000000
_cell_angle_gamma 90.000000
_cell_volume 3287.723684
_symmetry_space_group_name_H-M "P M M A"
_symmetry_group_IT_number 51
_symmetry_cell_setting 'orthorhombic'
loop_
_space_group_symop_operation_xyz
x,y,z
1/2-x,-y,z
1/2+x,-y,-z
-x,y,-z
-x,-y,-z
1/2+x,y,-z
1/2-x,y,z
x,-y,z
loop_
_atom_site_type_symbol
_atom_site_label
_atom_site_fract_x
_atom_site_fract_y
_atom_site_fract_z
Si Si1 0.912266 0.814815 0.722081
Si Si2 0.333516 0.181075 0.982342
Si Si3 0.550497 0.173972 0.061470
Si Si4 0.482080 0.323205 0.766771
Si Si5 0.190229 0.315510 0.785160
Si Si6 0.604198 0.818770 0.351435
Si Si7 0.193327 0.188738 0.181093
Si Si8 0.940371 0.684449 0.526936
O O1 0.959363 0.735972 0.776447
O O2 0.856420 0.762911 0.760550
O O3 0.922597 0.766117 0.618923
O O4 0.915916 0.000000 0.731339
O O5 0.395992 0.188633 0.991749
O O6 0.318915 0.262717 0.888760
O O7 0.318870 0.000000 0.972560
O O8 0.310960 0.240644 0.076610
O O9 0.546738 0.301111 0.138566
O O10 0.551103 0.000000 0.103470
O O11 0.500000 0.183840 0.000000
O O12 0.480768 0.500000 0.735444
O O13 0.450426 0.217572 0.697815
O O14 0.250000 0.276273 0.761304
O O15 0.183693 0.500000 0.780253
O O16 0.149208 0.239347 0.716365
O O17 0.598412 0.730526 0.446081
O O18 0.610301 0.000000 0.367183
O O19 0.250000 0.234567 0.217388
O O20 0.191623 0.000000 0.178462
O O21 0.940143 0.500000 0.540305
O O22 0.000000 0.728580 0.500000
#
# Coordination Sequence:
#
# PCOD9402228 Si02
#       8
#     8   8   8   8   8   8   8   8
#     4  11  22  38  63  92 121 159 204 252 303 363
#     4  10  19  34  60  88 117 159 208 253 294 349
#     4  10  20  34  53  82 119 160 205 251 300 358
#     4  12  23  36  56  85 123 161 195 244 307 366
#     4  11  24  41  61  88 125 165 203 250 306 361
#     4  12  24  40  64  91 120 156 200 250 300 361
#     4   9  19  37  61  90 122 158 204 255 300 343
#     4  11  23  40  64  92 124 159 195 246 306 370
#
# _framework density 19.466356000000001
#
# number of rings (size 3 to 8) (size 9 to 14) (size 15 to 20)
#    0.000    1.250    2.500    4.500    0.000    4.250 
#    0.000    3.125    0.000    5.250    0.000    0.000 
#    0.000    0.000    0.000    0.000    0.000    0.000 
#
# Total GULP energy -357571.246627 kJ/mol
# GULP energy per Si atom -5587.050729 kJ/mol
# Density = 1.942205 g / cm^3
# Si number density = 19.466356 Si / 1000 Ang^3
#
#
#
# Elastic Constant Matrix: (Units=GPa)
#
#
# Indices 1 2 3 4 5 6 
#
# 1 122.7744 13.8679 27.3838 0.0000 0.0000 0.0000
# 2 13.8679 32.6233 3.0759 0.0000 0.0000 0.0000
# 3 27.3838 3.0759 63.1136 0.0000 0.0000 0.0000
# 4 0.0000 0.0000 0.0000 -12.9988 0.0000 0.0000
# 5 0.0000 0.0000 0.0000 0.0000 14.7164 0.0000
# 6 0.0000 0.0000 0.0000 0.0000 0.0000 16.8157
#
#
#
# Elastic Compliance Matrix: (Units=1/GPa)
#
#
# Indices 1 2 3 4 5 6 
#
# 1 0.009429 -0.003639 -0.003914 0.000000 0.000000 0.000000
# 2 -0.003639 0.032199 0.000010 0.000000 0.000000 0.000000
# 3 -0.003914 0.000010 0.017542 0.000000 0.000000 0.000000
# 4 0.000000 0.000000 0.000000 -0.076930 0.000000 0.000000
# 5 0.000000 0.000000 0.000000 0.000000 0.067951 0.000000
# 6 0.000000 0.000000 0.000000 0.000000 0.000000 0.059468
#
#
# Mechanical properties :
#
#
# Convention : Reuss Voigt Hill
#
# Bulk Modulus (GPa) = 22.68407 34.12960 28.40684
# Shear Modulus (GPa) = 35.85758 15.31890 25.58824
#
# Velocity S-wave (km/s) = 4.29654 2.80829 3.62952
# Velocity P-wave (km/s) = 6.02428 5.29962 5.67353
#
# Compressibility (1/GPa) = 0.04408379
#
# Stress axis : x y z
#
# Youngs Moduli (GPa) = 106.05579 31.05682 57.00587
#
# Poissons Ratio (x) = 0.11302 0.22310
# Poissons Ratio (y) = 0.38596 -0.00056
# Poissons Ratio (z) = 0.41507 -0.00030
#
# Static dielectric constant tensor:
#      x y z
#    x 1.690050 0.000000 0.000000 
#    y 0.000000 1.670990 0.000000 
#    z 0.000000 0.000000 1.685090 
# 
# From -- ./inp_files/26186.got.cif
#   From: 2010.05.17/outbox.cif.g08.bks.cpg/sg51_14_cif.got.tgz:26186.got - 2010.06.03 11:52:47.
