data_PCOD9402068
_publ_section_title
;
Structure prediction by ZEFSAII (Michael W. Deem and Ramdas Pophale) SiO2 
 PCOD9402068
Probable space group: P M M A
;
_chemical_formula_sum "Si O2"
_cell_formula_units_Z 56
_cell_length_a 23.470806
_cell_length_b 8.884252
_cell_length_c 15.567809
_cell_angle_alpha 90.000000
_cell_angle_beta 90.000000
_cell_angle_gamma 90.000000
_cell_volume 3246.208175
_symmetry_space_group_name_H-M "P M M A"
_symmetry_group_IT_number 51
_symmetry_cell_setting 'orthorhombic'
loop_
_space_group_symop_operation_xyz
x,y,z
1/2-x,-y,z
1/2+x,-y,-z
-x,y,-z
-x,-y,-z
1/2+x,y,-z
1/2-x,y,z
x,-y,z
loop_
_atom_site_type_symbol
_atom_site_label
_atom_site_fract_x
_atom_site_fract_y
_atom_site_fract_z
Si Si1 0.133786 0.820241 0.346811
Si Si2 0.250000 0.819836 0.585299
Si Si3 0.065575 0.177941 0.522651
Si Si4 0.750000 0.321269 0.605583
Si Si5 0.568947 0.327283 0.992744
Si Si6 0.862344 0.321615 0.331783
Si Si7 0.922202 0.820190 0.171567
Si Si8 0.944365 0.180821 0.814548
O O1 0.103189 0.793347 0.438093
O O2 0.193167 0.733486 0.346568
O O3 0.091192 0.777591 0.269858
O O4 0.144232 0.000000 0.340800
O O5 0.250000 0.755698 0.488505
O O6 0.305766 0.759940 0.633870
O O7 0.250000 0.000000 0.581499
O O8 0.088464 0.275827 0.600745
O O9 0.000000 0.206046 0.500000
O O10 0.071118 0.000000 0.545122
O O11 0.750000 0.500000 0.595097
O O12 0.588070 0.500000 0.997663
O O13 0.589887 0.233318 0.074544
O O14 0.500000 0.325936 0.000000
O O15 0.580949 0.255523 0.900206
O O16 0.853909 0.500000 0.330632
O O17 0.881868 0.260791 0.239596
O O18 0.988506 0.779499 0.192073
O O19 0.916942 0.000000 0.178733
O O20 0.942262 0.000000 0.824101
#
# Coordination Sequence:
#
# PCOD9402068 Si02
#       8
#     8   4   8   4   8   8   8   8
#     4  10  20  35  56  78 106 144 185 227 268 320
#     4  12  24  42  62  77 100 143 192 232 272 326
#     4  10  20  35  55  79 109 147 184 219 265 325
#     4  12  24  38  56  79 106 139 184 234 278 324
#     4   9  17  30  50  79 114 148 179 221 274 327
#     4  12  24  37  55  82 112 142 180 231 281 326
#     4  10  19  34  56  82 112 148 185 223 268 330
#     4   9  18  33  55  83 111 145 187 225 266 325
#
# _framework density 17.250896000000001
#
# number of rings (size 3 to 8) (size 9 to 14) (size 15 to 20)
#    0.000    1.714    1.429    4.286    0.000    5.429 
#    0.000    1.429    0.000    0.857    0.000    3.000 
#    0.000    0.000    0.000    0.000    0.000    0.000 
#
# Total GULP energy -312768.553309 kJ/mol
# GULP energy per Si atom -5585.152738 kJ/mol
# Density = 1.721163 g / cm^3
# Si number density = 17.250896 Si / 1000 Ang^3
#
#
#
# Elastic Constant Matrix: (Units=GPa)
#
#
# Indices 1 2 3 4 5 6 
#
# 1 38.2422 10.7525 -7.3093 0.0000 0.0000 0.0000
# 2 10.7525 58.9909 20.2158 0.0000 0.0000 0.0000
# 3 -7.3093 20.2158 65.8579 0.0000 0.0000 0.0000
# 4 0.0000 0.0000 0.0000 19.1161 0.0000 0.0000
# 5 0.0000 0.0000 0.0000 0.0000 11.1743 0.0000
# 6 0.0000 0.0000 0.0000 0.0000 0.0000 15.0125
#
#
#
# Elastic Compliance Matrix: (Units=1/GPa)
#
#
# Indices 1 2 3 4 5 6 
#
# 1 0.029213 -0.007192 0.005450 0.000000 0.000000 0.000000
# 2 -0.007192 0.020715 -0.007157 0.000000 0.000000 0.000000
# 3 0.005450 -0.007157 0.017986 0.000000 0.000000 0.000000
# 4 0.000000 0.000000 0.000000 0.052312 0.000000 0.000000
# 5 0.000000 0.000000 0.000000 0.000000 0.089491 0.000000
# 6 0.000000 0.000000 0.000000 0.000000 0.000000 0.066611
#
#
# Mechanical properties :
#
#
# Convention : Reuss Voigt Hill
#
# Bulk Modulus (GPa) = 19.95390 23.37879 21.66635
# Shear Modulus (GPa) = 16.08583 18.35606 17.22094
#
# Velocity S-wave (km/s) = 3.05694 3.26554 3.16296
# Velocity P-wave (km/s) = 4.90427 5.27257 5.09175
#
# Compressibility (1/GPa) = 0.05011552
#
# Stress axis : x y z
#
# Youngs Moduli (GPa) = 34.23121 48.27309 55.59869
#
# Poissons Ratio (x) = 0.34720 -0.30302
# Poissons Ratio (y) = 0.24621 0.39793
# Poissons Ratio (z) = -0.18656 0.34550
#
# Static dielectric constant tensor:
#      x y z
#    x 1.572720 0.000000 0.000000 
#    y 0.000000 1.578700 0.000000 
#    z 0.000000 0.000000 1.568090 
# 
# From -- ./inp_files/25905.got.cif
#   From: 2010.05.17/outbox.cif.g08.bks.cpg/sg51_13_cif.got.tgz:25905.got - 2010.06.03 11:52:47.
