data_PCOD9402176
_publ_section_title
;
Structure prediction by ZEFSAII (Michael W. Deem and Ramdas Pophale) SiO2 
 PCOD9402176
Probable space group: P M M A
;
_chemical_formula_sum "Si O2"
_cell_formula_units_Z 56
_cell_length_a 21.607313
_cell_length_b 10.432810
_cell_length_c 12.053015
_cell_angle_alpha 90.000000
_cell_angle_beta 90.000000
_cell_angle_gamma 90.000000
_cell_volume 2717.050800
_symmetry_space_group_name_H-M "P M M A"
_symmetry_group_IT_number 51
_symmetry_cell_setting 'orthorhombic'
loop_
_space_group_symop_operation_xyz
x,y,z
1/2-x,-y,z
1/2+x,-y,-z
-x,y,-z
-x,-y,-z
1/2+x,y,-z
1/2-x,y,z
x,-y,z
loop_
_atom_site_type_symbol
_atom_site_label
_atom_site_fract_x
_atom_site_fract_y
_atom_site_fract_z
Si Si1 0.509217 0.771905 0.681195
Si Si2 0.985158 0.500000 0.802378
Si Si3 0.598330 0.152144 0.491521
Si Si4 0.324084 0.353228 0.622863
Si Si5 0.904089 0.500000 0.018291
Si Si6 0.818528 0.147245 0.927128
Si Si7 0.544797 0.146171 0.908776
Si Si8 0.821328 0.708528 0.129203
O O1 0.512441 0.625137 0.723812
O O2 0.452759 0.807625 0.600883
O O3 0.568695 0.814011 0.609965
O O4 0.507892 0.849770 0.794956
O O5 0.042209 0.500000 0.888659
O O6 0.928939 0.500000 0.892392
O O7 0.653558 0.249284 0.465252
O O8 0.611227 0.000000 0.483964
O O9 0.250000 0.358243 0.621408
O O10 0.347306 0.500000 0.607483
O O11 0.343864 0.303092 0.745235
O O12 0.861140 0.618702 0.050565
O O13 0.750000 0.204978 0.898410
O O14 0.885650 0.197023 0.886305
O O15 0.815575 0.000000 0.891812
O O16 0.822815 0.159082 0.061754
O O17 0.554939 0.000000 0.946843
O O18 0.500000 0.212090 0.000000
O O19 0.750000 0.665169 0.131954
#
# Coordination Sequence:
#
# PCOD9402176 Si02
#       8
#     8   4   8   8   4   8   8   8
#     4  11  24  42  61  89 126 163 215 263 325 384
#     4  11  26  35  58  91 122 165 203 269 312 378
#     4  11  25  43  69  91 124 168 213 272 321 381
#     4  10  22  40  65  96 127 163 208 259 319 378
#     4  11  21  36  54  89 129 157 210 250 312 379
#     4   9  19  34  53  83 119 159 204 249 305 379
#     4  10  21  36  59  86 120 165 206 256 320 389
#     4  10  19  34  58  84 121 164 197 246 308 375
#
# _framework density 20.610582999999998
#
# number of rings (size 3 to 8) (size 9 to 14) (size 15 to 20)
#    0.000    1.714    0.714    3.643    8.000    1.429 
#    0.000    2.143    0.000    3.429    0.000    0.000 
#    0.000    0.000    0.000    0.000    0.000    0.000 
#
# Total GULP energy -312016.739529 kJ/mol
# GULP energy per Si atom -5571.727492 kJ/mol
# Density = 2.056367 g / cm^3
# Si number density = 20.610583 Si / 1000 Ang^3
#
#
#
# Elastic Constant Matrix: (Units=GPa)
#
#
# Indices 1 2 3 4 5 6 
#
# 1 65.6270 7.7005 15.7040 0.0000 0.0000 0.0000
# 2 7.7005 85.7641 17.0295 0.0000 0.0000 0.0000
# 3 15.7040 17.0295 89.2638 0.0000 0.0000 0.0000
# 4 0.0000 0.0000 0.0000 18.1318 0.0000 0.0000
# 5 0.0000 0.0000 0.0000 0.0000 31.8967 0.0000
# 6 0.0000 0.0000 0.0000 0.0000 0.0000 26.7543
#
#
#
# Elastic Compliance Matrix: (Units=1/GPa)
#
#
# Indices 1 2 3 4 5 6 
#
# 1 0.015975 -0.000911 -0.002637 0.000000 0.000000 0.000000
# 2 -0.000911 0.012171 -0.002162 0.000000 0.000000 0.000000
# 3 -0.002637 -0.002162 0.012079 0.000000 0.000000 0.000000
# 4 0.000000 0.000000 0.000000 0.055152 0.000000 0.000000
# 5 0.000000 0.000000 0.000000 0.000000 0.031351 0.000000
# 6 0.000000 0.000000 0.000000 0.000000 0.000000 0.037377
#
#
# Mechanical properties :
#
#
# Convention : Reuss Voigt Hill
#
# Bulk Modulus (GPa) = 34.71399 35.72477 35.21938
# Shear Modulus (GPa) = 27.00858 28.70462 27.85660
#
# Velocity S-wave (km/s) = 3.62390 3.73596 3.68036
# Velocity P-wave (km/s) = 5.86426 5.99839 5.93171
#
# Compressibility (1/GPa) = 0.02880683
#
# Stress axis : x y z
#
# Youngs Moduli (GPa) = 62.59606 82.16313 82.78810
#
# Poissons Ratio (x) = 0.07484 0.21829
# Poissons Ratio (y) = 0.05701 0.17896
# Poissons Ratio (z) = 0.16505 0.17761
#
# Static dielectric constant tensor:
#      x y z
#    x 1.821980 0.000000 0.000000 
#    y 0.000000 1.793610 0.000000 
#    z 0.000000 0.000000 1.705600 
# 
# From -- ./inp_files/18818.got.cif
#   From: 2010.05.17/outbox.cif.g08.bks.cpg/sg51_10_cif.got.tgz:18818.got - 2010.06.03 11:52:47.
