data_PCOD9402063
_publ_section_title
;
Structure prediction by ZEFSAII (Michael W. Deem and Ramdas Pophale) SiO2 
 PCOD9402063
Probable space group: P M M A
;
_chemical_formula_sum "Si O2"
_cell_formula_units_Z 44
_cell_length_a 10.293511
_cell_length_b 27.581672
_cell_length_c 8.515114
_cell_angle_alpha 90.000000
_cell_angle_beta 90.000000
_cell_angle_gamma 90.000000
_cell_volume 2417.545125
_symmetry_space_group_name_H-M "P M M A"
_symmetry_group_IT_number 51
_symmetry_cell_setting 'orthorhombic'
loop_
_space_group_symop_operation_xyz
x,y,z
1/2-x,-y,z
1/2+x,-y,-z
-x,y,-z
-x,-y,-z
1/2+x,y,-z
1/2-x,y,z
x,-y,z
loop_
_atom_site_type_symbol
_atom_site_label
_atom_site_fract_x
_atom_site_fract_y
_atom_site_fract_z
Si Si1 0.900103 0.000000 0.142291
Si Si2 0.750000 0.443433 0.797236
Si Si3 0.601537 0.811383 0.140230
Si Si4 0.095468 0.284074 0.645886
Si Si5 0.250000 0.445657 0.820957
Si Si6 0.599530 0.094727 0.357388
Si Si7 0.503865 0.382392 0.190035
O O1 0.918625 0.952332 0.248382
O O2 0.750000 0.000000 0.086436
O O3 0.000000 0.000000 0.000000
O O4 0.750000 0.500000 0.742062
O O5 0.624763 0.410984 0.756384
O O6 0.750000 0.446824 0.988194
O O7 0.750000 0.814831 0.080481
O O8 0.590213 0.761897 0.238556
O O9 0.579787 0.857015 0.254474
O O10 0.500000 0.812005 0.000000
O O11 0.250000 0.291558 0.606376
O O12 0.035845 0.331284 0.731068
O O13 0.000000 0.274340 0.500000
O O14 0.250000 0.500000 0.761869
O O15 0.376882 0.417329 0.771370
O O16 0.500000 0.093600 0.500000
O O17 0.750000 0.094685 0.412234
O O18 0.500000 0.376174 0.000000
#
# Coordination Sequence:
#
# PCOD9402063 Si02
#       7
#     4   4   8   8   4   8   8
#     4  10  21  36  56  86 120 160 207 254 296 342
#     4   9  18  30  53  87 113 137 177 224 275 332
#     4  10  22  40  61  87 116 147 189 238 287 342
#     4  11  24  40  57  80 110 146 187 229 279 336
#     4   9  16  30  53  81 111 141 175 224 275 320
#     4  10  21  37  58  86 122 158 199 244 292 348
#     4  10  19  34  56  82 111 141 180 227 274 326
#
# _framework density 18.200279999999999
#
# number of rings (size 3 to 8) (size 9 to 14) (size 15 to 20)
#    0.000    2.000    0.909    2.455    1.273    4.364 
#    0.000    0.000    0.000    3.273    0.000    0.000 
#    0.000    0.000    0.000    0.000    0.000    0.000 
#
# Total GULP energy -245585.497756 kJ/mol
# GULP energy per Si atom -5581.488585 kJ/mol
# Density = 1.815886 g / cm^3
# Si number density = 18.200280 Si / 1000 Ang^3
#
#
#
# Elastic Constant Matrix: (Units=GPa)
#
#
# Indices 1 2 3 4 5 6 
#
# 1 201.0447 89.5493 96.1527 0.0000 0.0000 0.0000
# 2 89.5493 152.2941 43.8499 0.0000 0.0000 0.0000
# 3 96.1527 43.8499 77.3070 0.0000 0.0000 0.0000
# 4 0.0000 0.0000 0.0000 37.7290 0.0000 0.0000
# 5 0.0000 0.0000 0.0000 0.0000 58.5385 0.0000
# 6 0.0000 0.0000 0.0000 0.0000 0.0000 29.3588
#
#
#
# Elastic Compliance Matrix: (Units=1/GPa)
#
#
# Indices 1 2 3 4 5 6 
#
# 1 0.013921 -0.003825 -0.015145 0.000000 0.000000 0.000000
# 2 -0.003825 0.008899 -0.000290 0.000000 0.000000 0.000000
# 3 -0.015145 -0.000290 0.031937 0.000000 0.000000 0.000000
# 4 0.000000 0.000000 0.000000 0.026505 0.000000 0.000000
# 5 0.000000 0.000000 0.000000 0.000000 0.017083 0.000000
# 6 0.000000 0.000000 0.000000 0.000000 0.000000 0.034061
#
#
# Mechanical properties :
#
#
# Convention : Reuss Voigt Hill
#
# Bulk Modulus (GPa) = 61.58928 98.86106 80.22517
# Shear Modulus (GPa) = 28.35437 38.53151 33.44294
#
# Velocity S-wave (km/s) = 3.95132 4.60617 4.29125
# Velocity P-wave (km/s) = 7.39800 9.09535 8.29023
#
# Compressibility (1/GPa) = 0.01623659
#
# Stress axis : x y z
#
# Youngs Moduli (GPa) = 71.83298 112.37376 31.31118
#
# Poissons Ratio (x) = 0.42982 0.47422
# Poissons Ratio (y) = 0.27476 0.00909
# Poissons Ratio (z) = 1.08793 0.03262
#
# Static dielectric constant tensor:
#      x y z
#    x 1.616240 0.000000 0.000000 
#    y 0.000000 1.602960 0.000000 
#    z 0.000000 0.000000 1.596810 
# 
# From -- ./inp_files/5919.got.cif
#   From: 2010.05.17/outbox.cif.g08.bks.cpg/sg51_3_cif.got.tgz:5919.got - 2010.06.03 11:52:47.
