data_PCOD9402592
_publ_section_title
;
Structure prediction by ZEFSAII (Michael W. Deem and Ramdas Pophale) SiO2 
 PCOD9402592
Probable space group: P M M A
;
_chemical_formula_sum "Si O2"
_cell_formula_units_Z 56
_cell_length_a 9.247084
_cell_length_b 15.631539
_cell_length_c 24.836198
_cell_angle_alpha 90.000000
_cell_angle_beta 90.000000
_cell_angle_gamma 90.000000
_cell_volume 3589.976905
_symmetry_space_group_name_H-M "P M M A"
_symmetry_group_IT_number 51
_symmetry_cell_setting 'orthorhombic'
loop_
_space_group_symop_operation_xyz
x,y,z
1/2-x,-y,z
1/2+x,-y,-z
-x,y,-z
-x,-y,-z
1/2+x,y,-z
1/2-x,y,z
x,-y,z
loop_
_atom_site_type_symbol
_atom_site_label
_atom_site_fract_x
_atom_site_fract_y
_atom_site_fract_z
Si Si1 0.080467 0.265915 0.130641
Si Si2 0.422335 0.601463 0.664234
Si Si3 0.417840 0.904402 0.739758
Si Si4 0.921167 0.600457 0.056676
Si Si5 0.083379 0.603967 0.446429
Si Si6 0.417650 0.904473 0.870522
Si Si7 0.419822 0.266753 0.260054
O O1 0.250000 0.272582 0.118110
O O2 0.063485 0.272601 0.195322
O O3 0.991420 0.339712 0.101450
O O4 0.017765 0.173876 0.112670
O O5 0.250000 0.614006 0.661388
O O6 0.448821 0.500000 0.673123
O O7 0.497181 0.626127 0.607710
O O8 0.492482 0.658659 0.710607
O O9 0.250000 0.890696 0.724335
O O10 0.421065 0.905522 0.805141
O O11 0.516326 0.825381 0.722573
O O12 0.462250 0.000000 0.721968
O O13 0.750000 0.616173 0.051875
O O14 0.942169 0.500000 0.069520
O O15 0.000000 0.617179 0.000000
O O16 0.250000 0.632836 0.445013
O O17 0.085857 0.500000 0.448453
O O18 0.000000 0.633266 0.500000
O O19 0.250000 0.890092 0.885988
O O20 0.461199 0.000000 0.888534
O O21 0.250000 0.272924 0.272556
#
# Coordination Sequence:
#
# PCOD9402592 Si02
#       7
#     8   8   8   8   8   8   8
#     4  10  20  32  48  71  97 124 153 186 226 274
#     4  10  20  32  45  62  88 124 162 197 233 273
#     4   8  14  26  44  64  87 117 152 189 227 267
#     4  10  21  37  56  74  91 114 148 191 234 273
#     4   9  16  27  44  64  86 114 151 193 233 273
#     4   8  14  26  45  68  93 121 152 184 219 263
#     4  10  20  31  44  66  96 127 156 188 228 274
#
# _framework density 15.598985000000001
#
# number of rings (size 3 to 8) (size 9 to 14) (size 15 to 20)
#    0.000    2.714    0.000    3.000    0.000    6.286 
#    0.000    5.714    0.000    0.429    0.000    0.000 
#    0.000    0.571    0.000    2.143    0.000    3.286 
#
# Total GULP energy -312030.572487 kJ/mol
# GULP energy per Si atom -5571.974509 kJ/mol
# Density = 1.556348 g / cm^3
# Si number density = 15.598985 Si / 1000 Ang^3
#
#
#
# Elastic Constant Matrix: (Units=GPa)
#
#
# Indices 1 2 3 4 5 6 
#
# 1 122.1210 76.1134 48.0940 0.0000 0.0000 0.0000
# 2 76.1134 84.4546 41.6842 0.0000 0.0000 0.0000
# 3 48.0940 41.6842 34.0453 0.0000 0.0000 0.0000
# 4 0.0000 0.0000 0.0000 -4.0762 0.0000 0.0000
# 5 0.0000 0.0000 0.0000 0.0000 25.3143 0.0000
# 6 0.0000 0.0000 0.0000 0.0000 0.0000 23.9685
#
#
#
# Elastic Compliance Matrix: (Units=1/GPa)
#
#
# Indices 1 2 3 4 5 6 
#
# 1 0.022075 -0.011381 -0.017250 0.000000 0.000000 0.000000
# 2 -0.011381 0.035792 -0.027745 0.000000 0.000000 0.000000
# 3 -0.017250 -0.027745 0.087711 0.000000 0.000000 0.000000
# 4 0.000000 0.000000 0.000000 -0.245324 0.000000 0.000000
# 5 0.000000 0.000000 0.000000 0.000000 0.039503 0.000000
# 6 0.000000 0.000000 0.000000 0.000000 0.000000 0.041722
#
#
# Mechanical properties :
#
#
# Convention : Reuss Voigt Hill
#
# Bulk Modulus (GPa) = 30.46371 63.60046 47.03209
# Shear Modulus (GPa) = 47.54019 14.02326 30.78172
#
# Velocity S-wave (km/s) = 5.52654 3.00156 4.44702
# Velocity P-wave (km/s) = 7.76500 7.27140 7.52225
#
# Compressibility (1/GPa) = 0.03282594
#
# Stress axis : x y z
#
# Youngs Moduli (GPa) = 45.29912 27.93932 11.40102
#
# Poissons Ratio (x) = 0.31798 0.19667
# Poissons Ratio (y) = 0.51555 0.31632
# Poissons Ratio (z) = 0.78142 0.77518
#
# Static dielectric constant tensor:
#      x y z
#    x 1.518770 0.000000 0.000000 
#    y 0.000000 1.518570 0.000000 
#    z 0.000000 0.000000 1.501600 
# 
# From -- ./inp_files/31995.got.cif
#   From: 2010.05.17/outbox.cif.g08.bks.cpg/sg51_16_cif.got.tgz:31995.got - 2010.06.03 11:52:47.
