data_PCOD9402511
_publ_section_title
;
Structure prediction by ZEFSAII (Michael W. Deem and Ramdas Pophale) SiO2 
 PCOD9402511
Probable space group: P M M A
;
_chemical_formula_sum "Si O2"
_cell_formula_units_Z 40
_cell_length_a 14.749637
_cell_length_b 8.611674
_cell_length_c 17.668336
_cell_angle_alpha 90.000000
_cell_angle_beta 90.000000
_cell_angle_gamma 90.000000
_cell_volume 2244.215527
_symmetry_space_group_name_H-M "P M M A"
_symmetry_group_IT_number 51
_symmetry_cell_setting 'orthorhombic'
loop_
_space_group_symop_operation_xyz
x,y,z
1/2-x,-y,z
1/2+x,-y,-z
-x,y,-z
-x,-y,-z
1/2+x,y,-z
1/2-x,y,z
x,-y,z
loop_
_atom_site_type_symbol
_atom_site_label
_atom_site_fract_x
_atom_site_fract_y
_atom_site_fract_z
Si Si1 0.513181 0.312156 0.377712
Si Si2 0.445253 0.687285 0.076790
Si Si3 0.938521 0.815841 0.214300
Si Si4 0.353485 0.310976 0.487724
Si Si5 0.750000 0.686406 0.154129
Si Si6 0.750000 0.310895 0.978260
O O1 0.513560 0.500000 0.372714
O O2 0.527841 0.243196 0.295479
O O3 0.419164 0.264874 0.418543
O O4 0.594315 0.266577 0.435183
O O5 0.447894 0.500000 0.085692
O O6 0.493221 0.761778 0.148525
O O7 0.341818 0.737427 0.063251
O O8 0.500000 0.723919 0.000000
O O9 0.840466 0.744879 0.194542
O O10 0.931508 0.000000 0.214556
O O11 0.250000 0.255693 0.483494
O O12 0.351528 0.500000 0.487226
O O13 0.750000 0.500000 0.154251
O O14 0.750000 0.738889 0.066098
O O15 0.750000 0.500000 0.979770
#
# Coordination Sequence:
#
# PCOD9402511 Si02
#       6
#     8   8   8   8   4   4
#     4   9  18  34  57  83 110 144 187 231 278 332
#     4  10  19  37  62  84 109 146 195 241 283 331
#     4  12  25  38  53  84 123 153 184 229 286 346
#     4   8  15  31  57  86 109 135 185 242 280 319
#     4  11  21  39  63  85 108 143 192 241 285 332
#     4   9  18  35  61  87 104 135 194 249 283 326
#
# _framework density 17.823599000000002
#
# number of rings (size 3 to 8) (size 9 to 14) (size 15 to 20)
#    0.000    2.200    2.000    3.300    1.400    0.400 
#    1.800    2.500    0.000    1.200    0.000    0.000 
#    0.000    0.000    0.000    0.000    0.000    0.000 
#
# Total GULP energy -223254.600227 kJ/mol
# GULP energy per Si atom -5581.365006 kJ/mol
# Density = 1.778303 g / cm^3
# Si number density = 17.823599 Si / 1000 Ang^3
#
#
#
# Elastic Constant Matrix: (Units=GPa)
#
#
# Indices 1 2 3 4 5 6 
#
# 1 193.3985 44.0395 104.9092 0.0000 0.0000 0.0000
# 2 44.0395 43.3496 51.9653 0.0000 0.0000 0.0000
# 3 104.9092 51.9653 179.5926 0.0000 0.0000 0.0000
# 4 0.0000 0.0000 0.0000 -23.9184 0.0000 0.0000
# 5 0.0000 0.0000 0.0000 0.0000 11.7037 0.0000
# 6 0.0000 0.0000 0.0000 0.0000 0.0000 9.7676
#
#
#
# Elastic Compliance Matrix: (Units=1/GPa)
#
#
# Indices 1 2 3 4 5 6 
#
# 1 0.007968 -0.003851 -0.003540 0.000000 0.000000 0.000000
# 2 -0.003851 0.037180 -0.008509 0.000000 0.000000 0.000000
# 3 -0.003540 -0.008509 0.010098 0.000000 0.000000 0.000000
# 4 0.000000 0.000000 0.000000 -0.041809 0.000000 0.000000
# 5 0.000000 0.000000 0.000000 0.000000 0.085443 0.000000
# 6 0.000000 0.000000 0.000000 0.000000 0.000000 0.102379
#
#
# Mechanical properties :
#
#
# Convention : Reuss Voigt Hill
#
# Bulk Modulus (GPa) = 42.64982 90.90765 66.77874
# Shear Modulus (GPa) = 20.75767 13.87236 17.31502
#
# Velocity S-wave (km/s) = 3.41635 2.79285 3.12022
# Velocity P-wave (km/s) = 6.28830 7.84314 7.10836
#
# Compressibility (1/GPa) = 0.02344676
#
# Stress axis : x y z
#
# Youngs Moduli (GPa) = 125.50215 26.89610 99.02809
#
# Poissons Ratio (x) = 0.10358 0.35058
# Poissons Ratio (y) = 0.48330 0.84259
# Poissons Ratio (z) = 0.44431 0.22885
#
# Static dielectric constant tensor:
#      x y z
#    x 1.607020 0.000000 0.000000 
#    y 0.000000 1.593170 0.000000 
#    z 0.000000 0.000000 1.575800 
# 
# From -- ./inp_files/23761.got.cif
#   From: 2010.05.17/outbox.cif.g08.bks.cpg/sg51_12_cif.got.tgz:23761.got - 2010.06.03 11:52:47.
