data_PCOD9402220
_publ_section_title
;
Structure prediction by ZEFSAII (Michael W. Deem and Ramdas Pophale) SiO2 
 PCOD9402220
Probable space group: P M M A
;
_chemical_formula_sum "Si O2"
_cell_formula_units_Z 34
_cell_length_a 21.619573
_cell_length_b 7.531083
_cell_length_c 10.256353
_cell_angle_alpha 90.000000
_cell_angle_beta 90.000000
_cell_angle_gamma 90.000000
_cell_volume 1669.927074
_symmetry_space_group_name_H-M "P M M A"
_symmetry_group_IT_number 51
_symmetry_cell_setting 'orthorhombic'
loop_
_space_group_symop_operation_xyz
x,y,z
1/2-x,-y,z
1/2+x,-y,-z
-x,y,-z
-x,-y,-z
1/2+x,y,-z
1/2-x,y,z
x,-y,z
loop_
_atom_site_type_symbol
_atom_site_label
_atom_site_fract_x
_atom_site_fract_y
_atom_site_fract_z
Si Si1 0.682468 0.284486 0.498999
Si Si2 0.661238 0.295854 0.196429
Si Si3 0.051659 0.286534 0.396915
Si Si4 0.250000 0.000000 0.904936
Si Si5 0.478238 0.210680 0.859582
O O1 0.750000 0.222481 0.546380
O O2 0.682479 0.500000 0.507627
O O3 0.676845 0.242128 0.345607
O O4 0.620529 0.220089 0.570191
O O5 0.680501 0.500000 0.177325
O O6 0.587580 0.288949 0.180855
O O7 0.696238 0.156752 0.105878
O O8 0.053487 0.500000 0.411209
O O9 0.000000 0.220623 0.500000
O O10 0.028110 0.245471 0.252833
O O11 0.469283 0.000000 0.869460
O O12 0.500000 0.278353 0.000000
#
# Coordination Sequence:
#
# PCOD9402220 Si02
#       5
#     8   8   8   2   8
#     4   9  17  32  56  86 123 160 200 253 313 377
#     4  11  21  37  62  91 123 164 206 254 315 374
#     4  10  19  34  59  90 120 154 206 264 315 374
#     4  12  22  36  58  96 130 160 204 264 302 378
#     4  11  24  41  60  87 124 166 215 269 315 367
#
# _framework density 20.360171999999999
#
# number of rings (size 3 to 8) (size 9 to 14) (size 15 to 20)
#    0.000    1.647    4.706    1.059    0.000    2.353 
#    2.118    0.000    2.588    0.000    0.000    0.000 
#    0.000    0.000    0.000    0.000    0.000    0.000 
#
# Total GULP energy -189384.292583 kJ/mol
# GULP energy per Si atom -5570.126252 kJ/mol
# Density = 2.031383 g / cm^3
# Si number density = 20.360172 Si / 1000 Ang^3
#
#
#
# Elastic Constant Matrix: (Units=GPa)
#
#
# Indices 1 2 3 4 5 6 
#
# 1 185.6057 14.7150 58.9569 0.0000 0.0000 0.0000
# 2 14.7150 86.2497 -2.4224 0.0000 0.0000 0.0000
# 3 58.9569 -2.4224 87.6943 0.0000 0.0000 0.0000
# 4 0.0000 0.0000 0.0000 12.8093 0.0000 0.0000
# 5 0.0000 0.0000 0.0000 0.0000 29.8477 0.0000
# 6 0.0000 0.0000 0.0000 0.0000 0.0000 6.6393
#
#
#
# Elastic Compliance Matrix: (Units=1/GPa)
#
#
# Indices 1 2 3 4 5 6 
#
# 1 0.006999 -0.001327 -0.004742 0.000000 0.000000 0.000000
# 2 -0.001327 0.011855 0.001220 0.000000 0.000000 0.000000
# 3 -0.004742 0.001220 0.014625 0.000000 0.000000 0.000000
# 4 0.000000 0.000000 0.000000 0.078068 0.000000 0.000000
# 5 0.000000 0.000000 0.000000 0.000000 0.033503 0.000000
# 6 0.000000 0.000000 0.000000 0.000000 0.000000 0.150618
#
#
# Mechanical properties :
#
#
# Convention : Reuss Voigt Hill
#
# Bulk Modulus (GPa) = 42.05235 55.78318 48.91776
# Shear Modulus (GPa) = 15.95940 29.07929 22.51934
#
# Velocity S-wave (km/s) = 2.80278 3.78331 3.32934
# Velocity P-wave (km/s) = 5.58329 6.82219 6.23359
#
# Compressibility (1/GPa) = 0.02377989
#
# Stress axis : x y z
#
# Youngs Moduli (GPa) = 142.86962 84.35284 68.37494
#
# Poissons Ratio (x) = 0.11197 0.32426
# Poissons Ratio (y) = 0.18964 -0.08341
# Poissons Ratio (z) = 0.67754 -0.10290
#
# Static dielectric constant tensor:
#      x y z
#    x 1.744570 0.000000 0.000000 
#    y 0.000000 1.747460 0.000000 
#    z 0.000000 0.000000 1.695710 
# 
# From -- ./inp_files/10420.got.cif
#   From: 2010.05.17/outbox.cif.g08.bks.cpg/sg51_6_cif.got.tgz:10420.got - 2010.06.03 11:52:47.
