data_PCOD9402803
_publ_section_title
;
Structure prediction by ZEFSAII (Michael W. Deem and Ramdas Pophale) SiO2 
 PCOD9402803
Probable space group: P M M A
;
_chemical_formula_sum "Si O2"
_cell_formula_units_Z 64
_cell_length_a 14.567694
_cell_length_b 9.259416
_cell_length_c 23.771452
_cell_angle_alpha 90.000000
_cell_angle_beta 90.000000
_cell_angle_gamma 90.000000
_cell_volume 3206.491674
_symmetry_space_group_name_H-M "P M M A"
_symmetry_group_IT_number 51
_symmetry_cell_setting 'orthorhombic'
loop_
_space_group_symop_operation_xyz
x,y,z
1/2-x,-y,z
1/2+x,-y,-z
-x,y,-z
-x,-y,-z
1/2+x,y,-z
1/2-x,y,z
x,-y,z
loop_
_atom_site_type_symbol
_atom_site_label
_atom_site_fract_x
_atom_site_fract_y
_atom_site_fract_z
Si Si1 0.143921 0.173119 0.190964
Si Si2 0.528079 0.172473 0.698621
Si Si3 0.882357 0.333998 0.048211
Si Si4 0.645971 0.674854 0.471599
Si Si5 0.401341 0.335733 0.076415
Si Si6 0.859839 0.667148 0.260897
Si Si7 0.043455 0.674052 0.413474
Si Si8 0.145305 0.157790 0.844432
O O1 0.250000 0.211873 0.201943
O O2 0.081322 0.215833 0.244123
O O3 0.115714 0.241089 0.131162
O O4 0.138040 0.000000 0.185981
O O5 0.423626 0.229938 0.702499
O O6 0.569908 0.246831 0.643662
O O7 0.530402 0.000000 0.694529
O O8 0.850928 0.500000 0.057514
O O9 0.851097 0.216935 0.092907
O O10 0.991087 0.338068 0.060987
O O11 0.859709 0.292258 0.984104
O O12 0.750000 0.727154 0.460006
O O13 0.648787 0.500000 0.467873
O O14 0.611353 0.708979 0.534777
O O15 0.560562 0.718346 0.431898
O O16 0.371786 0.500000 0.088258
O O17 0.750000 0.680781 0.270152
O O18 0.883363 0.500000 0.270066
O O19 0.886435 0.716757 0.197404
O O20 0.043768 0.500000 0.406397
O O21 0.250000 0.138511 0.826320
O O22 0.098643 0.000000 0.839210
#
# Coordination Sequence:
#
# PCOD9402803 Si02
#       8
#     8   8   8   8   8   8   8   8
#     4  10  23  41  56  73 104 148 193 234 281 334
#     4  11  23  38  57  81 113 151 188 232 280 326
#     4   9  18  33  52  74 101 131 165 212 274 340
#     4   8  15  31  56  84 115 149 183 224 272 318
#     4   9  19  35  54  76  99 126 168 224 279 328
#     4  10  21  37  57  80 107 142 183 228 282 342
#     4   9  18  33  55  84 113 144 187 230 268 319
#     4  10  20  32  47  71 102 132 165 208 259 320
#
# _framework density 19.959510000000002
#
# number of rings (size 3 to 8) (size 9 to 14) (size 15 to 20)
#    0.000    2.500    0.000    3.375    0.000    7.250 
#    0.000    6.250    0.000    0.750    0.000    0.000 
#    0.000    0.000    0.000    0.000    0.000    0.000 
#
# Total GULP energy -356674.277490 kJ/mol
# GULP energy per Si atom -5573.035586 kJ/mol
# Density = 1.991408 g / cm^3
# Si number density = 19.959510 Si / 1000 Ang^3
#
#
#
# Elastic Constant Matrix: (Units=GPa)
#
#
# Indices 1 2 3 4 5 6 
#
# 1 82.4905 10.6498 9.4249 0.0000 0.0000 0.0000
# 2 10.6498 40.8240 24.7459 0.0000 0.0000 0.0000
# 3 9.4249 24.7459 89.0362 0.0000 0.0000 0.0000
# 4 0.0000 0.0000 0.0000 -9.7273 0.0000 0.0000
# 5 0.0000 0.0000 0.0000 0.0000 4.8630 0.0000
# 6 0.0000 0.0000 0.0000 0.0000 0.0000 2.0195
#
#
#
# Elastic Compliance Matrix: (Units=1/GPa)
#
#
# Indices 1 2 3 4 5 6 
#
# 1 0.012564 -0.002972 -0.000504 0.000000 0.000000 0.000000
# 2 -0.002972 0.030161 -0.008068 0.000000 0.000000 0.000000
# 3 -0.000504 -0.008068 0.013527 0.000000 0.000000 0.000000
# 4 0.000000 0.000000 0.000000 -0.102804 0.000000 0.000000
# 5 0.000000 0.000000 0.000000 0.000000 0.205634 0.000000
# 6 0.000000 0.000000 0.000000 0.000000 0.000000 0.495178
#
#
# Mechanical properties :
#
#
# Convention : Reuss Voigt Hill
#
# Bulk Modulus (GPa) = 30.15316 33.55465 31.85391
# Shear Modulus (GPa) = 7.26318 10.59972 8.93145
#
# Velocity S-wave (km/s) = 1.90967 2.30698 2.11766
# Velocity P-wave (km/s) = 4.47241 4.89326 4.68756
#
# Compressibility (1/GPa) = 0.03316402
#
# Stress axis : x y z
#
# Youngs Moduli (GPa) = 79.59321 33.15504 73.92557
#
# Poissons Ratio (x) = 0.09854 0.03725
# Poissons Ratio (y) = 0.23656 0.59644
# Poissons Ratio (z) = 0.04011 0.26750
#
# Static dielectric constant tensor:
#      x y z
#    x 1.913620 0.000000 0.000000 
#    y 0.000000 1.680230 0.000000 
#    z 0.000000 0.000000 1.724170 
# 
# From -- ./inp_files/35647.got.cif
#   From: 2010.05.17/outbox.cif.g08.bks.cpg/sg51_18_cif.got.tgz:35647.got - 2010.06.03 11:52:47.
