data_PCOD9402749
_publ_section_title
;
Structure prediction by ZEFSAII (Michael W. Deem and Ramdas Pophale) SiO2 
 PCOD9402749
Probable space group: P M M A
;
_chemical_formula_sum "Si O2"
_cell_formula_units_Z 56
_cell_length_a 19.359557
_cell_length_b 7.468383
_cell_length_c 19.139605
_cell_angle_alpha 90.000000
_cell_angle_beta 90.000000
_cell_angle_gamma 90.000000
_cell_volume 2767.291873
_symmetry_space_group_name_H-M "P M M A"
_symmetry_group_IT_number 51
_symmetry_cell_setting 'orthorhombic'
loop_
_space_group_symop_operation_xyz
x,y,z
1/2-x,-y,z
1/2+x,-y,-z
-x,y,-z
-x,-y,-z
1/2+x,y,-z
1/2-x,y,z
x,-y,z
loop_
_atom_site_type_symbol
_atom_site_label
_atom_site_fract_x
_atom_site_fract_y
_atom_site_fract_z
Si Si1 0.169471 0.715528 0.944712
Si Si2 0.442505 0.203691 0.052388
Si Si3 0.908839 0.202954 0.796312
Si Si4 0.036050 0.718154 0.428279
Si Si5 0.828198 0.281769 0.210863
Si Si6 0.458482 0.716936 0.709624
Si Si7 0.171274 0.711046 0.344907
O O1 0.250000 0.758516 0.950624
O O2 0.162425 0.500000 0.949512
O O3 0.147113 0.770106 0.866700
O O4 0.125124 0.799728 0.005054
O O5 0.420767 0.286873 0.126887
O O6 0.467093 0.000000 0.067868
O O7 0.500000 0.286199 0.000000
O O8 0.858880 0.273677 0.734463
O O9 0.984345 0.209383 0.761995
O O10 0.885001 0.000000 0.808388
O O11 0.040764 0.500000 0.432035
O O12 0.111573 0.780057 0.398787
O O13 0.000000 0.778727 0.500000
O O14 0.982694 0.765951 0.367123
O O15 0.750000 0.220111 0.221511
O O16 0.826094 0.500000 0.210878
O O17 0.882871 0.224223 0.267995
O O18 0.461871 0.500000 0.714754
O O19 0.250000 0.783538 0.350135
O O20 0.175842 0.500000 0.359229
#
# Coordination Sequence:
#
# PCOD9402749 Si02
#       7
#     8   8   8   8   8   8   8
#     4   9  18  31  46  64  86 114 148 186 228 273
#     4  10  21  34  46  64  91 120 152 193 239 284
#     4  10  20  32  47  67  91 120 154 195 239 277
#     4   8  14  26  45  70  98 123 148 182 223 266
#     4   8  14  26  44  66  90 114 146 189 229 265
#     4   9  16  28  48  69  90 121 156 186 221 269
#     4   9  18  33  52  72  95 126 162 196 231 276
#
# _framework density 20.236391000000001
#
# number of rings (size 3 to 8) (size 9 to 14) (size 15 to 20)
#    0.000    3.000    0.000    3.000    0.000    2.571 
#    0.000    3.571    0.000   12.429    0.000    0.000 
#    0.000    0.000    0.000    0.000    0.000    0.000 
#
# Total GULP energy -311933.979456 kJ/mol
# GULP energy per Si atom -5570.249633 kJ/mol
# Density = 2.019033 g / cm^3
# Si number density = 20.236391 Si / 1000 Ang^3
#
#
#
# Elastic Constant Matrix: (Units=GPa)
#
#
# Indices 1 2 3 4 5 6 
#
# 1 114.3182 5.2765 107.1301 0.0000 0.0000 0.0000
# 2 5.2765 52.4360 9.9747 0.0000 0.0000 0.0000
# 3 107.1301 9.9747 163.6785 0.0000 0.0000 0.0000
# 4 0.0000 0.0000 0.0000 14.2204 0.0000 0.0000
# 5 0.0000 0.0000 0.0000 0.0000 22.2808 0.0000
# 6 0.0000 0.0000 0.0000 0.0000 0.0000 11.8851
#
#
#
# Elastic Compliance Matrix: (Units=1/GPa)
#
#
# Indices 1 2 3 4 5 6 
#
# 1 0.022640 0.000547 -0.014852 0.000000 0.000000 0.000000
# 2 0.000547 0.019308 -0.001535 0.000000 0.000000 0.000000
# 3 -0.014852 -0.001535 0.015924 0.000000 0.000000 0.000000
# 4 0.000000 0.000000 0.000000 0.070321 0.000000 0.000000
# 5 0.000000 0.000000 0.000000 0.000000 0.044882 0.000000
# 6 0.000000 0.000000 0.000000 0.000000 0.000000 0.084139
#
#
# Mechanical properties :
#
#
# Convention : Reuss Voigt Hill
#
# Bulk Modulus (GPa) = 38.17824 63.91060 51.04442
# Shear Modulus (GPa) = 16.79979 23.54736 20.17358
#
# Velocity S-wave (km/s) = 2.88441 3.41488 3.16079
# Velocity P-wave (km/s) = 5.47724 6.87016 6.21286
#
# Compressibility (1/GPa) = 0.02619293
#
# Stress axis : x y z
#
# Youngs Moduli (GPa) = 44.16960 51.79266 62.79970
#
# Poissons Ratio (x) = -0.02833 0.93267
# Poissons Ratio (y) = -0.02416 0.09637
# Poissons Ratio (z) = 0.65599 0.07948
#
# Static dielectric constant tensor:
#      x y z
#    x 1.723900 0.000000 0.000000 
#    y 0.000000 1.807920 0.000000 
#    z 0.000000 0.000000 1.718310 
# 
# From -- ./inp_files/30388.got.cif
#   From: 2010.05.17/outbox.cif.g08.bks.cpg/sg51_16_cif.got.tgz:30388.got - 2010.06.03 11:52:47.
