data_PCOD9402787
_publ_section_title
;
Structure prediction by ZEFSAII (Michael W. Deem and Ramdas Pophale) SiO2 
 PCOD9402787
Probable space group: P M M A
;
_chemical_formula_sum "Si O2"
_cell_formula_units_Z 48
_cell_length_a 9.470012
_cell_length_b 7.340361
_cell_length_c 31.797680
_cell_angle_alpha 90.000000
_cell_angle_beta 90.000000
_cell_angle_gamma 90.000000
_cell_volume 2210.361884
_symmetry_space_group_name_H-M "P M M A"
_symmetry_group_IT_number 51
_symmetry_cell_setting 'orthorhombic'
loop_
_space_group_symop_operation_xyz
x,y,z
1/2-x,-y,z
1/2+x,-y,-z
-x,y,-z
-x,-y,-z
1/2+x,y,-z
1/2-x,y,z
x,-y,z
loop_
_atom_site_type_symbol
_atom_site_label
_atom_site_fract_x
_atom_site_fract_y
_atom_site_fract_z
Si Si1 0.912257 0.777567 0.123000
Si Si2 0.587796 0.722500 0.541069
Si Si3 0.587222 0.778257 0.796567
Si Si4 0.410380 0.218899 0.297949
Si Si5 0.587110 0.222248 0.958913
Si Si6 0.091289 0.714839 0.620267
O O1 0.750000 0.719948 0.119239
O O2 0.984173 0.718002 0.166509
O O3 0.006245 0.720844 0.083286
O O4 0.912298 0.000000 0.123027
O O5 0.500000 0.777154 0.500000
O O6 0.750000 0.782094 0.539550
O O7 0.590329 0.500000 0.541346
O O8 0.508696 0.786169 0.583179
O O9 0.750000 0.725568 0.804806
O O10 0.549966 0.719558 0.749152
O O11 0.584746 0.000000 0.796751
O O12 0.250000 0.282294 0.307104
O O13 0.517055 0.266965 0.334721
O O14 0.405366 0.000000 0.296463
O O15 0.750000 0.280738 0.959892
O O16 0.588334 0.000000 0.958976
O O17 0.500000 0.279215 0.000000
O O18 0.250000 0.790263 0.619921
O O19 0.103182 0.500000 0.611927
#
# Coordination Sequence:
#
# PCOD9402787 Si02
#       6
#     8   8   8   8   8   8
#     4   9  15  21  30  45  64  87 119 159 201 246
#     4   9  16  27  45  68  93 120 150 185 223 262
#     4   8  14  25  39  54  73  98 130 169 211 253
#     4   9  18  32  49  68  90 118 153 191 230 272
#     4   9  15  21  28  38  55  81 114 154 200 247
#     4  10  20  32  47  70  98 125 154 187 223 266
#
# _framework density 21.715900000000001
#
# number of rings (size 3 to 8) (size 9 to 14) (size 15 to 20)
#    0.000    3.000    0.000    3.000    0.000    8.000 
#    0.000    1.667    0.000    0.500    0.000    0.000 
#    0.000    0.000    0.000    0.000    0.000    0.833 
#
# Total GULP energy -268130.896052 kJ/mol
# GULP energy per Si atom -5586.060334 kJ/mol
# Density = 2.166647 g / cm^3
# Si number density = 21.715900 Si / 1000 Ang^3
#
#
#
# Elastic Constant Matrix: (Units=GPa)
#
#
# Indices 1 2 3 4 5 6 
#
# 1 239.1090 6.5886 162.5604 0.0000 0.0000 0.0000
# 2 6.5886 81.7393 1.0510 0.0000 0.0000 0.0000
# 3 162.5604 1.0510 204.9741 0.0000 0.0000 0.0000
# 4 0.0000 0.0000 0.0000 5.8826 0.0000 0.0000
# 5 0.0000 0.0000 0.0000 0.0000 42.1745 0.0000
# 6 0.0000 0.0000 0.0000 0.0000 0.0000 -3.3028
#
#
#
# Elastic Compliance Matrix: (Units=1/GPa)
#
#
# Indices 1 2 3 4 5 6 
#
# 1 0.009109 -0.000641 -0.007221 0.000000 0.000000 0.000000
# 2 -0.000641 0.012280 0.000446 0.000000 0.000000 0.000000
# 3 -0.007221 0.000446 0.010603 0.000000 0.000000 0.000000
# 4 0.000000 0.000000 0.000000 0.169993 0.000000 0.000000
# 5 0.000000 0.000000 0.000000 0.000000 0.023711 0.000000
# 6 0.000000 0.000000 0.000000 0.000000 0.000000 -0.302772
#
#
# Mechanical properties :
#
#
# Convention : Reuss Voigt Hill
#
# Bulk Modulus (GPa) = 58.27849 96.24694 77.26272
# Shear Modulus (GPa) = -88.46057 32.65901 -27.90078
#
# Velocity S-wave (km/s) = -6.38935 3.88225 -3.58831
# Velocity P-wave (km/s) = 5.24754 8.03200 4.29978
#
# Compressibility (1/GPa) = 0.01715899
#
# Stress axis : x y z
#
# Youngs Moduli (GPa) = 109.78076 81.43332 94.31185
#
# Poissons Ratio (x) = 0.05223 0.68102
# Poissons Ratio (y) = 0.07041 -0.04204
# Poissons Ratio (z) = 0.79272 -0.03630
#
# Static dielectric constant tensor:
#      x y z
#    x 1.738900 0.000000 0.000000 
#    y 0.000000 1.912610 0.000000 
#    z 0.000000 0.000000 1.741120 
# 
# From -- ./inp_files/36136.got.cif
#   From: 2010.05.17/outbox.cif.g08.bks.cpg/sg51_19_cif.got.tgz:36136.got - 2010.06.03 11:52:47.
