data_PCOD9402918
_publ_section_title
;
Structure prediction by ZEFSAII (Michael W. Deem and Ramdas Pophale) SiO2 
 PCOD9402918
Probable space group: P M M A
;
_chemical_formula_sum "Si O2"
_cell_formula_units_Z 30
_cell_length_a 7.341414
_cell_length_b 10.277971
_cell_length_c 17.954542
_cell_angle_alpha 90.000000
_cell_angle_beta 90.000000
_cell_angle_gamma 90.000000
_cell_volume 1354.757097
_symmetry_space_group_name_H-M "P M M A"
_symmetry_group_IT_number 51
_symmetry_cell_setting 'orthorhombic'
loop_
_space_group_symop_operation_xyz
x,y,z
1/2-x,-y,z
1/2+x,-y,-z
-x,y,-z
-x,-y,-z
1/2+x,y,-z
1/2-x,y,z
x,-y,z
loop_
_atom_site_type_symbol
_atom_site_label
_atom_site_fract_x
_atom_site_fract_y
_atom_site_fract_z
Si Si1 0.527653 0.212299 0.871208
Si Si2 0.972130 0.855867 0.703543
Si Si3 0.500000 0.000000 0.000000
Si Si4 0.533938 0.500000 0.912300
Si Si5 0.532550 0.352647 0.584673
O O1 0.750000 0.207854 0.875293
O O2 0.473687 0.167657 0.788900
O O3 0.469030 0.114122 0.936077
O O4 0.466314 0.361260 0.882546
O O5 0.750000 0.852580 0.703450
O O6 0.036681 0.745638 0.646961
O O7 0.027605 0.000000 0.679719
O O8 0.750000 0.500000 0.897194
O O9 0.500000 0.500000 0.000000
O O10 0.500000 0.308273 0.500000
O O11 0.750000 0.359562 0.594293
O O12 0.461073 0.500000 0.591895
#
# Coordination Sequence:
#
# PCOD9402918 Si02
#       5
#     8   8   2   4   8
#     4  10  20  32  49  74 102 133 171 216 259 302
#     4   9  17  30  48  74 101 125 163 212 253 292
#     4  12  18  30  52  70 102 134 168 204 264 306
#     4  10  20  34  50  72  99 130 170 212 255 304
#     4   9  18  32  52  76 101 131 166 205 251 302
#
# _framework density 22.144189999999998
#
# number of rings (size 3 to 8) (size 9 to 14) (size 15 to 20)
#    0.000    2.400    2.667    0.400    1.867    0.533 
#    0.000    0.000    0.000    4.800    0.000    0.000 
#    0.000    0.000    0.000    0.000    0.000    0.000 
#
# Total GULP energy -167073.620868 kJ/mol
# GULP energy per Si atom -5569.120696 kJ/mol
# Density = 2.209379 g / cm^3
# Si number density = 22.144190 Si / 1000 Ang^3
#
#
#
# Elastic Constant Matrix: (Units=GPa)
#
#
# Indices 1 2 3 4 5 6 
#
# 1 83.6176 7.5303 -1.3131 0.0000 0.0000 0.0000
# 2 7.5303 195.2462 117.8435 0.0000 0.0000 0.0000
# 3 -1.3131 117.8435 198.9357 0.0000 0.0000 0.0000
# 4 0.0000 0.0000 0.0000 43.6282 0.0000 0.0000
# 5 0.0000 0.0000 0.0000 0.0000 1.3717 0.0000
# 6 0.0000 0.0000 0.0000 0.0000 0.0000 -24.0511
#
#
#
# Elastic Compliance Matrix: (Units=1/GPa)
#
#
# Indices 1 2 3 4 5 6 
#
# 1 0.012040 -0.000797 0.000552 0.000000 0.000000 0.000000
# 2 -0.000797 0.008025 -0.004759 0.000000 0.000000 0.000000
# 3 0.000552 -0.004759 0.007849 0.000000 0.000000 0.000000
# 4 0.000000 0.000000 0.000000 0.022921 0.000000 0.000000
# 5 0.000000 0.000000 0.000000 0.000000 0.729036 0.000000
# 6 0.000000 0.000000 0.000000 0.000000 0.000000 -0.041578
#
#
# Mechanical properties :
#
#
# Convention : Reuss Voigt Hill
#
# Bulk Modulus (GPa) = 55.85056 80.65789 68.25423
# Shear Modulus (GPa) = 6.62893 27.77235 17.20064
#
# Velocity S-wave (km/s) = 1.73206 3.54525 2.79006
# Velocity P-wave (km/s) = 5.41074 7.29804 6.42408
#
# Compressibility (1/GPa) = 0.01790492
#
# Stress axis : x y z
#
# Youngs Moduli (GPa) = 83.05866 124.61369 127.39779
#
# Poissons Ratio (x) = 0.09937 -0.07030
# Poissons Ratio (y) = 0.06623 0.60628
# Poissons Ratio (z) = -0.04583 0.59303
#
# Static dielectric constant tensor:
#      x y z
#    x 1.907100 0.000000 0.000000 
#    y 0.000000 1.811160 0.000000 
#    z 0.000000 0.000000 1.732240 
# 
# From -- ./inp_files/22726.got.cif
#   From: 2010.05.17/outbox.cif.g08.bks.cpg/sg51_12_cif.got.tgz:22726.got - 2010.06.03 11:52:47.
