data_PCOD9402676
_publ_section_title
;
Structure prediction by ZEFSAII (Michael W. Deem and Ramdas Pophale) SiO2 
 PCOD9402676
Probable space group: P M M A
;
_chemical_formula_sum "Si O2"
_cell_formula_units_Z 48
_cell_length_a 8.859105
_cell_length_b 14.093253
_cell_length_c 24.851022
_cell_angle_alpha 90.000000
_cell_angle_beta 90.000000
_cell_angle_gamma 90.000000
_cell_volume 3102.739762
_symmetry_space_group_name_H-M "P M M A"
_symmetry_group_IT_number 51
_symmetry_cell_setting 'orthorhombic'
loop_
_space_group_symop_operation_xyz
x,y,z
1/2-x,-y,z
1/2+x,-y,-z
-x,y,-z
-x,-y,-z
1/2+x,y,-z
1/2-x,y,z
x,-y,z
loop_
_atom_site_type_symbol
_atom_site_label
_atom_site_fract_x
_atom_site_fract_y
_atom_site_fract_z
Si Si1 0.925097 0.615278 0.444542
Si Si2 0.933081 0.894060 0.834818
Si Si3 0.566839 0.702490 0.779436
Si Si4 0.431479 0.389369 0.332605
Si Si5 0.431073 0.213583 0.056961
Si Si6 0.569108 0.609387 0.115622
O O1 0.750000 0.640071 0.444171
O O2 0.937402 0.500000 0.444807
O O3 0.000000 0.649023 0.500000
O O4 0.002514 0.646201 0.389082
O O5 0.750000 0.897092 0.833382
O O6 0.977809 0.810416 0.793970
O O7 0.974048 0.857550 0.894530
O O8 0.989630 0.000000 0.823927
O O9 0.750000 0.695185 0.783911
O O10 0.522475 0.668951 0.720091
O O11 0.494346 0.637018 0.825510
O O12 0.250000 0.386929 0.336164
O O13 0.476144 0.500000 0.325308
O O14 0.250000 0.217193 0.054014
O O15 0.494003 0.316245 0.074802
O O16 0.500000 0.185637 0.000000
O O17 0.750000 0.620950 0.114845
O O18 0.533104 0.500000 0.103414
#
# Coordination Sequence:
#
# PCOD9402676 Si02
#       6
#     8   8   8   8   8   8
#     4   9  16  25  37  54  79 113 150 183 213 244
#     4   8  15  29  48  68  88 110 137 171 213 258
#     4   9  17  29  46  66  88 115 145 178 214 253
#     4   9  16  25  38  58  85 116 148 178 207 243
#     4  10  20  33  49  67  87 111 139 173 211 253
#     4  10  20  32  46  64  87 115 144 175 211 250
#
# _framework density 15.470198999999999
#
# number of rings (size 3 to 8) (size 9 to 14) (size 15 to 20)
#    0.000    2.833    0.000    3.000    0.000    5.333 
#    0.000    1.667    0.000   12.000    0.000    0.000 
#    0.000    0.667    0.000    1.167    0.000    1.667 
#
# Total GULP energy -267440.276436 kJ/mol
# GULP energy per Si atom -5571.672426 kJ/mol
# Density = 1.543499 g / cm^3
# Si number density = 15.470199 Si / 1000 Ang^3
#
#
#
# Elastic Constant Matrix: (Units=GPa)
#
#
# Indices 1 2 3 4 5 6 
#
# 1 24.8966 14.0992 25.8673 0.0000 0.0000 0.0000
# 2 14.0992 68.7597 31.2698 0.0000 0.0000 0.0000
# 3 25.8673 31.2698 121.7909 0.0000 0.0000 0.0000
# 4 0.0000 0.0000 0.0000 10.2472 0.0000 0.0000
# 5 0.0000 0.0000 0.0000 0.0000 28.0143 0.0000
# 6 0.0000 0.0000 0.0000 0.0000 0.0000 8.2716
#
#
#
# Elastic Compliance Matrix: (Units=1/GPa)
#
#
# Indices 1 2 3 4 5 6 
#
# 1 0.054093 -0.006643 -0.009783 0.000000 0.000000 0.000000
# 2 -0.006643 0.017282 -0.003026 0.000000 0.000000 0.000000
# 3 -0.009783 -0.003026 0.011066 0.000000 0.000000 0.000000
# 4 0.000000 0.000000 0.000000 0.097587 0.000000 0.000000
# 5 0.000000 0.000000 0.000000 0.000000 0.035696 0.000000
# 6 0.000000 0.000000 0.000000 0.000000 0.000000 0.120896
#
#
# Mechanical properties :
#
#
# Convention : Reuss Voigt Hill
#
# Bulk Modulus (GPa) = 22.96966 39.76888 31.36927
# Shear Modulus (GPa) = 12.81934 18.92069 15.87002
#
# Velocity S-wave (km/s) = 2.88175 3.50099 3.20636
# Velocity P-wave (km/s) = 5.09436 6.48885 5.83343
#
# Compressibility (1/GPa) = 0.04353569
#
# Stress axis : x y z
#
# Youngs Moduli (GPa) = 18.48684 57.86467 90.36955
#
# Poissons Ratio (x) = 0.38437 0.88411
# Poissons Ratio (y) = 0.12280 0.27348
# Poissons Ratio (z) = 0.18086 0.17511
#
# Static dielectric constant tensor:
#      x y z
#    x 1.517390 0.000000 0.000000 
#    y 0.000000 1.507960 0.000000 
#    z 0.000000 0.000000 1.509840 
# 
# From -- ./inp_files/34626.got.cif
#   From: 2010.05.17/outbox.cif.g08.bks.cpg/sg51_18_cif.got.tgz:34626.got - 2010.06.03 11:52:47.
