data_PCOD9402060
_publ_section_title
;
Structure prediction by ZEFSAII (Michael W. Deem and Ramdas Pophale) SiO2 
 PCOD9402060
Probable space group: P M M A
;
_chemical_formula_sum "Si O2"
_cell_formula_units_Z 64
_cell_length_a 25.162708
_cell_length_b 14.576958
_cell_length_c 9.646214
_cell_angle_alpha 90.000000
_cell_angle_beta 90.000000
_cell_angle_gamma 90.000000
_cell_volume 3538.190180
_symmetry_space_group_name_H-M "P M M A"
_symmetry_group_IT_number 51
_symmetry_cell_setting 'orthorhombic'
loop_
_space_group_symop_operation_xyz
x,y,z
1/2-x,-y,z
1/2+x,-y,-z
-x,y,-z
-x,-y,-z
1/2+x,y,-z
1/2-x,y,z
x,-y,z
loop_
_atom_site_type_symbol
_atom_site_label
_atom_site_fract_x
_atom_site_fract_y
_atom_site_fract_z
Si Si1 0.188092 0.281238 0.656185
Si Si2 0.187337 0.894543 0.486800
Si Si3 0.811899 0.393581 0.627844
Si Si4 0.388472 0.696499 0.151624
Si Si5 0.612144 0.606697 0.148001
Si Si6 0.493952 0.097675 0.831879
Si Si7 0.508169 0.297673 0.166916
Si Si8 0.882686 0.102024 0.790636
O O1 0.250000 0.279889 0.698778
O O2 0.173122 0.179622 0.603245
O O3 0.183169 0.344889 0.520079
O O4 0.151927 0.326808 0.771672
O O5 0.250000 0.878130 0.450364
O O6 0.150530 0.884690 0.350732
O O7 0.182697 0.000000 0.533488
O O8 0.750000 0.388832 0.668163
O O9 0.827372 0.500000 0.618592
O O10 0.846896 0.341478 0.739433
O O11 0.447886 0.690105 0.217006
O O12 0.376385 0.804347 0.121936
O O13 0.386914 0.636830 0.012672
O O14 0.625490 0.500000 0.164267
O O15 0.552233 0.627702 0.200759
O O16 0.470312 0.196235 0.794035
O O17 0.553632 0.097878 0.770289
O O18 0.468045 0.000000 0.793900
O O19 0.500000 0.097603 0.000000
O O20 0.500000 0.297584 0.000000
O O21 0.867957 0.000000 0.847268
#
# Coordination Sequence:
#
# PCOD9402060 Si02
#       8
#     8   8   8   8   8   8   8   8
#     4  10  21  39  58  77 106 144 180 219 272 331
#     4   9  17  32  57  84 108 141 182 222 272 333
#     4  10  20  34  54  78 103 136 183 233 275 316
#     4  10  19  34  56  82 110 141 180 229 274 321
#     4  11  23  37  54  78 109 146 187 228 276 330
#     4   8  13  24  45  74 106 138 173 211 257 316
#     4   8  17  32  50  74 105 143 179 216 266 325
#     4   9  16  28  52  84 112 139 175 221 271 323
#
# _framework density 18.088342999999998
#
# number of rings (size 3 to 8) (size 9 to 14) (size 15 to 20)
#    0.000    2.625    1.250    1.500    0.000    4.000 
#    0.000    1.875    0.000    1.500    0.000    4.375 
#    0.000    0.000    0.000    0.000    0.000    0.000 
#
# Total GULP energy -356285.533665 kJ/mol
# GULP energy per Si atom -5566.961464 kJ/mol
# Density = 1.804717 g / cm^3
# Si number density = 18.088343 Si / 1000 Ang^3
#
#
#
# Elastic Constant Matrix: (Units=GPa)
#
#
# Indices 1 2 3 4 5 6 
#
# 1 44.7365 17.5658 22.7901 0.0000 0.0000 0.0000
# 2 17.5658 94.8381 8.7805 0.0000 0.0000 0.0000
# 3 22.7901 8.7805 18.4307 0.0000 0.0000 0.0000
# 4 0.0000 0.0000 0.0000 -3.2061 0.0000 0.0000
# 5 0.0000 0.0000 0.0000 0.0000 44.5396 0.0000
# 6 0.0000 0.0000 0.0000 0.0000 0.0000 26.2175
#
#
#
# Elastic Compliance Matrix: (Units=1/GPa)
#
#
# Indices 1 2 3 4 5 6 
#
# 1 0.062268 -0.004608 -0.074801 0.000000 0.000000 0.000000
# 2 -0.004608 0.011372 0.000280 0.000000 0.000000 0.000000
# 3 -0.074801 0.000280 0.146617 0.000000 0.000000 0.000000
# 4 0.000000 0.000000 0.000000 -0.311903 0.000000 0.000000
# 5 0.000000 0.000000 0.000000 0.000000 0.022452 0.000000
# 6 0.000000 0.000000 0.000000 0.000000 0.000000 0.038142
#
#
# Mechanical properties :
#
#
# Convention : Reuss Voigt Hill
#
# Bulk Modulus (GPa) = 16.12912 28.47535 22.30223
# Shear Modulus (GPa) = 33.81294 20.76813 27.29053
#
# Velocity S-wave (km/s) = 4.32826 3.39211 3.88846
# Velocity P-wave (km/s) = 5.82363 5.57839 5.70233
#
# Compressibility (1/GPa) = 0.06199966
#
# Stress axis : x y z
#
# Youngs Moduli (GPa) = 16.05955 87.93667 6.82049
#
# Poissons Ratio (x) = 0.40520 0.51018
# Poissons Ratio (y) = 0.07400 -0.00191
# Poissons Ratio (z) = 1.20127 -0.02464
#
# Static dielectric constant tensor:
#      x y z
#    x 1.636230 0.000000 0.000000 
#    y 0.000000 1.670380 0.000000 
#    z 0.000000 0.000000 1.593040 
# 
# From -- ./inp_files/11882.got.cif
#   From: 2010.05.17/outbox.cif.g08.bks.cpg/sg51_6_cif.got.tgz:11882.got - 2010.06.03 11:52:47.
