data_PCOD9402496
_publ_section_title
;
Structure prediction by ZEFSAII (Michael W. Deem and Ramdas Pophale) SiO2 
 PCOD9402496
Probable space group: P M M A
;
_chemical_formula_sum "Si O2"
_cell_formula_units_Z 56
_cell_length_a 21.646142
_cell_length_b 7.748170
_cell_length_c 15.918466
_cell_angle_alpha 90.000000
_cell_angle_beta 90.000000
_cell_angle_gamma 90.000000
_cell_volume 2669.813091
_symmetry_space_group_name_H-M "P M M A"
_symmetry_group_IT_number 51
_symmetry_cell_setting 'orthorhombic'
loop_
_space_group_symop_operation_xyz
x,y,z
1/2-x,-y,z
1/2+x,-y,-z
-x,y,-z
-x,-y,-z
1/2+x,y,-z
1/2-x,y,z
x,-y,z
loop_
_atom_site_type_symbol
_atom_site_label
_atom_site_fract_x
_atom_site_fract_y
_atom_site_fract_z
Si Si1 0.558252 0.202808 0.554331
Si Si2 0.680842 0.710194 0.952927
Si Si3 0.958953 0.710952 0.918294
Si Si4 0.614244 0.806663 0.305808
Si Si5 0.178365 0.697062 0.853638
Si Si6 0.317981 0.789714 0.529495
Si Si7 0.016095 0.693490 0.268549
O O1 0.500000 0.274035 0.500000
O O2 0.623915 0.274949 0.523936
O O3 0.551313 0.219737 0.654280
O O4 0.559798 0.000000 0.534353
O O5 0.750000 0.767213 0.922645
O O6 0.682275 0.500000 0.948691
O O7 0.613777 0.763500 0.918040
O O8 0.676106 0.758366 0.051049
O O9 0.960888 0.500000 0.922160
O O10 0.984006 0.766289 0.826449
O O11 0.000000 0.767828 0.000000
O O12 0.642878 0.805555 0.214036
O O13 0.664152 0.750330 0.374103
O O14 0.553852 0.692844 0.301359
O O15 0.593642 0.000000 0.329479
O O16 0.250000 0.691915 0.829785
O O17 0.153682 0.500000 0.852116
O O18 0.250000 0.724545 0.507541
O O19 0.315546 0.000000 0.522654
O O20 0.040907 0.500000 0.261351
#
# Coordination Sequence:
#
# PCOD9402496 Si02
#       7
#     8   8   8   8   8   8   8
#     4  10  19  37  59  78 103 139 180 218 259 319
#     4   8  14  27  48  71  97 135 180 221 264 318
#     4   9  17  30  49  74 105 139 177 219 263 317
#     4  11  20  32  50  74 105 140 180 219 265 327
#     4   9  17  29  47  74 105 135 172 220 273 324
#     4   9  18  33  54  77 101 134 177 217 254 309
#     4  11  22  34  53  81 107 136 179 227 278 325
#
# _framework density 20.975251
#
# number of rings (size 3 to 8) (size 9 to 14) (size 15 to 20)
#    0.000    2.429    1.429    3.000    0.000    3.429 
#    0.000    0.714    0.000   10.714    0.000    0.000 
#    0.000    0.000    0.000    0.000    0.000    0.000 
#
# Total GULP energy -312010.367718 kJ/mol
# GULP energy per Si atom -5571.613709 kJ/mol
# Density = 2.092751 g / cm^3
# Si number density = 20.975251 Si / 1000 Ang^3
#
#
#
# Elastic Constant Matrix: (Units=GPa)
#
#
# Indices 1 2 3 4 5 6 
#
# 1 145.5683 8.9711 55.8261 0.0000 0.0000 0.0000
# 2 8.9711 27.9221 9.0143 0.0000 0.0000 0.0000
# 3 55.8261 9.0143 94.5988 0.0000 0.0000 0.0000
# 4 0.0000 0.0000 0.0000 20.9227 0.0000 0.0000
# 5 0.0000 0.0000 0.0000 0.0000 35.2433 0.0000
# 6 0.0000 0.0000 0.0000 0.0000 0.0000 4.8654
#
#
#
# Elastic Compliance Matrix: (Units=1/GPa)
#
#
# Indices 1 2 3 4 5 6 
#
# 1 0.008918 -0.001203 -0.005148 0.000000 0.000000 0.000000
# 2 -0.001203 0.037113 -0.002826 0.000000 0.000000 0.000000
# 3 -0.005148 -0.002826 0.013878 0.000000 0.000000 0.000000
# 4 0.000000 0.000000 0.000000 0.047795 0.000000 0.000000
# 5 0.000000 0.000000 0.000000 0.000000 0.028374 0.000000
# 6 0.000000 0.000000 0.000000 0.000000 0.000000 0.205532
#
#
# Mechanical properties :
#
#
# Convention : Reuss Voigt Hill
#
# Bulk Modulus (GPa) = 24.06523 46.19023 35.12773
# Shear Modulus (GPa) = 13.37552 25.15813 19.26682
#
# Velocity S-wave (km/s) = 2.52797 3.46702 3.03405
# Velocity P-wave (km/s) = 4.47425 6.17220 5.39050
#
# Compressibility (1/GPa) = 0.04155372
#
# Stress axis : x y z
#
# Youngs Moduli (GPa) = 112.13064 26.94476 72.05405
#
# Poissons Ratio (x) = 0.03242 0.37095
# Poissons Ratio (y) = 0.13492 0.20365
# Poissons Ratio (z) = 0.57728 0.07616
#
# Static dielectric constant tensor:
#      x y z
#    x 1.816360 0.000000 0.000000 
#    y 0.000000 1.825180 0.000000 
#    z 0.000000 0.000000 1.744900 
# 
# From -- ./inp_files/25759.got.cif
#   From: 2010.05.17/outbox.cif.g08.bks.cpg/sg51_13_cif.got.tgz:25759.got - 2010.06.03 11:52:47.
