data_PCOD9402251
_publ_section_title
;
Structure prediction by ZEFSAII (Michael W. Deem and Ramdas Pophale) SiO2 
 PCOD9402251
Probable space group: P M M A
;
_chemical_formula_sum "Si O2"
_cell_formula_units_Z 64
_cell_length_a 16.014736
_cell_length_b 22.583801
_cell_length_c 9.371776
_cell_angle_alpha 90.000000
_cell_angle_beta 90.000000
_cell_angle_gamma 90.000000
_cell_volume 3389.524066
_symmetry_space_group_name_H-M "P M M A"
_symmetry_group_IT_number 51
_symmetry_cell_setting 'orthorhombic'
loop_
_space_group_symop_operation_xyz
x,y,z
1/2-x,-y,z
1/2+x,-y,-z
-x,y,-z
-x,-y,-z
1/2+x,y,-z
1/2-x,y,z
x,-y,z
loop_
_atom_site_type_symbol
_atom_site_label
_atom_site_fract_x
_atom_site_fract_y
_atom_site_fract_z
Si Si1 0.151907 0.568431 0.686401
Si Si2 0.155634 0.874668 0.791152
Si Si3 0.485430 0.066283 0.171441
Si Si4 0.653915 0.746835 0.316507
Si Si5 0.904054 0.341175 0.540560
Si Si6 0.082979 0.660610 0.904492
Si Si7 0.844310 0.296763 0.823039
Si Si8 0.652395 0.839420 0.873334
O O1 0.250000 0.571707 0.722609
O O2 0.127350 0.500000 0.675074
O O3 0.139002 0.603545 0.537948
O O4 0.100618 0.603653 0.807239
O O5 0.250000 0.899552 0.774347
O O6 0.146963 0.816894 0.692648
O O7 0.076091 0.916191 0.767148
O O8 0.150217 0.850936 0.955347
O O9 0.413140 0.114856 0.195779
O O10 0.460550 0.000000 0.215343
O O11 0.500000 0.065447 0.000000
O O12 0.750000 0.731599 0.276833
O O13 0.634575 0.717543 0.467839
O O14 0.591834 0.715550 0.204619
O O15 0.895124 0.334207 0.708367
O O16 0.000000 0.344453 0.500000
O O17 0.152376 0.672180 0.024210
O O18 0.000000 0.659562 0.000000
O O19 0.750000 0.294789 0.769181
O O20 0.872355 0.228582 0.842692
O O21 0.750000 0.847869 0.830745
#
# Coordination Sequence:
#
# PCOD9402251 Si02
#       8
#     8   8   8   8   8   8   8   8
#     4  10  22  43  63  76 104 153 192 215 257 331
#     4   9  17  29  49  74 101 141 184 226 273 326
#     4   9  18  29  44  69 106 147 183 226 271 325
#     4  10  19  35  54  76 110 150 184 217 270 343
#     4  11  23  36  54  84 112 141 176 225 279 324
#     4  11  21  32  56  86 111 137 174 226 275 321
#     4  11  20  33  53  81 113 139 174 230 282 325
#     4   9  18  29  47  75 105 142 179 224 281 330
#
# _framework density 18.881706999999999
#
# number of rings (size 3 to 8) (size 9 to 14) (size 15 to 20)
#    0.000    2.000    1.250    4.500    3.500    1.000 
#    0.000    3.125    0.000    2.250    0.000    1.750 
#    0.000    4.000    0.000    0.000    0.000    0.000 
#
# Total GULP energy -356927.744727 kJ/mol
# GULP energy per Si atom -5576.996011 kJ/mol
# Density = 1.883873 g / cm^3
# Si number density = 18.881707 Si / 1000 Ang^3
#
#
#
# Elastic Constant Matrix: (Units=GPa)
#
#
# Indices 1 2 3 4 5 6 
#
# 1 69.6295 28.2132 -5.4262 0.0000 0.0000 0.0000
# 2 28.2132 84.2545 7.5626 0.0000 0.0000 0.0000
# 3 -5.4262 7.5626 47.4668 0.0000 0.0000 0.0000
# 4 0.0000 0.0000 0.0000 8.4643 0.0000 0.0000
# 5 0.0000 0.0000 0.0000 0.0000 28.2666 0.0000
# 6 0.0000 0.0000 0.0000 0.0000 0.0000 23.3066
#
#
#
# Elastic Compliance Matrix: (Units=1/GPa)
#
#
# Indices 1 2 3 4 5 6 
#
# 1 0.016999 -0.005952 0.002891 0.000000 0.000000 0.000000
# 2 -0.005952 0.014125 -0.002931 0.000000 0.000000 0.000000
# 3 0.002891 -0.002931 0.021865 0.000000 0.000000 0.000000
# 4 0.000000 0.000000 0.000000 0.118143 0.000000 0.000000
# 5 0.000000 0.000000 0.000000 0.000000 0.035377 0.000000
# 6 0.000000 0.000000 0.000000 0.000000 0.000000 0.042906
#
#
# Mechanical properties :
#
#
# Convention : Reuss Voigt Hill
#
# Bulk Modulus (GPa) = 24.38647 29.11664 26.75156
# Shear Modulus (GPa) = 18.17747 23.40758 20.79253
#
# Velocity S-wave (km/s) = 3.10611 3.52475 3.32203
# Velocity P-wave (km/s) = 5.08009 5.65855 5.37711
#
# Compressibility (1/GPa) = 0.04100635
#
# Stress axis : x y z
#
# Youngs Moduli (GPa) = 58.82835 70.79737 45.73548
#
# Poissons Ratio (x) = 0.42136 -0.13224
# Poissons Ratio (y) = 0.35012 0.13404
# Poissons Ratio (z) = -0.17010 0.20749
#
# Static dielectric constant tensor:
#      x y z
#    x 1.708910 0.000000 0.000000 
#    y 0.000000 1.637400 0.000000 
#    z 0.000000 0.000000 1.650740 
# 
# From -- ./inp_files/8696.got.cif
#   From: 2010.05.17/outbox.cif.g08.bks.cpg/sg51_5_cif.got.tgz:8696.got - 2010.06.03 11:52:47.
