data_PCOD9402773
_publ_section_title
;
Structure prediction by ZEFSAII (Michael W. Deem and Ramdas Pophale) SiO2 
 PCOD9402773
Probable space group: P M M A
;
_chemical_formula_sum "Si O2"
_cell_formula_units_Z 64
_cell_length_a 8.763487
_cell_length_b 17.878404
_cell_length_c 21.338802
_cell_angle_alpha 90.000000
_cell_angle_beta 90.000000
_cell_angle_gamma 90.000000
_cell_volume 3343.302917
_symmetry_space_group_name_H-M "P M M A"
_symmetry_group_IT_number 51
_symmetry_cell_setting 'orthorhombic'
loop_
_space_group_symop_operation_xyz
x,y,z
1/2-x,-y,z
1/2+x,-y,-z
-x,y,-z
-x,-y,-z
1/2+x,y,-z
1/2-x,y,z
x,-y,z
loop_
_atom_site_type_symbol
_atom_site_label
_atom_site_fract_x
_atom_site_fract_y
_atom_site_fract_z
Si Si1 0.075570 0.120552 0.285203
Si Si2 0.933366 0.378341 0.066838
Si Si3 0.569996 0.794562 0.063944
Si Si4 0.428135 0.919058 0.143329
Si Si5 0.567757 0.415877 0.798854
Si Si6 0.570017 0.918944 0.409143
Si Si7 0.568650 0.294122 0.696044
Si Si8 0.933647 0.249471 0.435113
O O1 0.250000 0.110493 0.309075
O O2 0.064842 0.083502 0.218083
O O3 0.049410 0.209523 0.278528
O O4 0.960166 0.087000 0.335021
O O5 0.750000 0.384419 0.064206
O O6 0.982265 0.290957 0.071494
O O7 0.992666 0.411474 0.132266
O O8 0.000000 0.406486 0.000000
O O9 0.750000 0.792471 0.058770
O O10 0.518699 0.848936 0.118172
O O11 0.500000 0.824960 0.000000
O O12 0.250000 0.911186 0.125609
O O13 0.483790 0.000000 0.120522
O O14 0.750000 0.404644 0.807336
O O15 0.543116 0.500000 0.774150
O O16 0.514343 0.354007 0.748085
O O17 0.750000 0.919541 0.422907
O O18 0.509637 0.837884 0.431351
O O19 0.505326 0.000000 0.429849
O O20 0.750000 0.306772 0.686933
O O21 0.489805 0.291453 0.627717
O O22 0.750000 0.249226 0.436072
O O23 0.000000 0.280731 0.500000
#
# Coordination Sequence:
#
# PCOD9402773 Si02
#       8
#     8   8   8   8   8   8   8   8
#     4   9  17  30  49  71  95 128 169 208 249 301
#     4  10  21  37  58  83 111 145 183 221 262 312
#     4  10  21  36  53  71  92 124 168 214 260 310
#     4  10  20  32  47  69  97 129 167 214 266 316
#     4  10  21  37  59  87 116 145 176 212 259 316
#     4   9  18  31  46  68 101 137 171 212 261 308
#     4   9  18  34  56  80 107 139 174 215 262 313
#     4  10  20  34  53  77 105 139 181 225 268 316
#
# _framework density 19.142747
#
# number of rings (size 3 to 8) (size 9 to 14) (size 15 to 20)
#    0.000    2.375    0.000    2.250    0.000    6.000 
#    0.000    2.500    0.000    0.375    0.000    0.000 
#    0.000    0.000    0.000    0.000    0.000    0.000 
#
# Total GULP energy -356810.246032 kJ/mol
# GULP energy per Si atom -5575.160094 kJ/mol
# Density = 1.909918 g / cm^3
# Si number density = 19.142747 Si / 1000 Ang^3
#
#
#
# Elastic Constant Matrix: (Units=GPa)
#
#
# Indices 1 2 3 4 5 6 
#
# 1 20.5231 23.4597 28.8440 0.0000 0.0000 0.0000
# 2 23.4597 79.0851 48.5938 0.0000 0.0000 0.0000
# 3 28.8440 48.5938 104.0195 0.0000 0.0000 0.0000
# 4 0.0000 0.0000 0.0000 -34.7646 0.0000 0.0000
# 5 0.0000 0.0000 0.0000 0.0000 28.4963 0.0000
# 6 0.0000 0.0000 0.0000 0.0000 0.0000 46.5684
#
#
#
# Elastic Compliance Matrix: (Units=1/GPa)
#
#
# Indices 1 2 3 4 5 6 
#
# 1 0.092966 -0.016463 -0.018088 0.000000 0.000000 0.000000
# 2 -0.016463 0.020651 -0.005082 0.000000 0.000000 0.000000
# 3 -0.018088 -0.005082 0.017004 0.000000 0.000000 0.000000
# 4 0.000000 0.000000 0.000000 -0.028765 0.000000 0.000000
# 5 0.000000 0.000000 0.000000 0.000000 0.035092 0.000000
# 6 0.000000 0.000000 0.000000 0.000000 0.000000 0.021474
#
#
# Mechanical properties :
#
#
# Convention : Reuss Voigt Hill
#
# Bulk Modulus (GPa) = 19.47270 45.04695 32.25982
# Shear Modulus (GPa) = 19.62269 14.90868 17.26569
#
# Velocity S-wave (km/s) = 3.20515 2.79376 3.00650
# Velocity P-wave (km/s) = 4.88792 5.83009 5.37967
#
# Compressibility (1/GPa) = 0.05135395
#
# Stress axis : x y z
#
# Youngs Moduli (GPa) = 10.75656 48.42392 58.81141
#
# Poissons Ratio (x) = 0.79721 1.06379
# Poissons Ratio (y) = 0.17709 0.29889
# Poissons Ratio (z) = 0.19457 0.24610
#
# Static dielectric constant tensor:
#      x y z
#    x 1.656730 0.000000 0.000000 
#    y 0.000000 1.692630 0.000000 
#    z 0.000000 0.000000 1.655500 
# 
# From -- ./inp_files/32333.got.cif
#   From: 2010.05.17/outbox.cif.g08.bks.cpg/sg51_17_cif.got.tgz:32333.got - 2010.06.03 11:52:47.
