data_PCOD9402977
_publ_section_title
;
Structure prediction by ZEFSAII (Michael W. Deem and Ramdas Pophale) SiO2 
 PCOD9402977
Probable space group: P M M A
;
_chemical_formula_sum "Si O2"
_cell_formula_units_Z 48
_cell_length_a 7.729964
_cell_length_b 9.374226
_cell_length_c 35.496317
_cell_angle_alpha 90.000000
_cell_angle_beta 90.000000
_cell_angle_gamma 90.000000
_cell_volume 2572.149368
_symmetry_space_group_name_H-M "P M M A"
_symmetry_group_IT_number 51
_symmetry_cell_setting 'orthorhombic'
loop_
_space_group_symop_operation_xyz
x,y,z
1/2-x,-y,z
1/2+x,-y,-z
-x,y,-z
-x,-y,-z
1/2+x,y,-z
1/2-x,y,z
x,-y,z
loop_
_atom_site_type_symbol
_atom_site_label
_atom_site_fract_x
_atom_site_fract_y
_atom_site_fract_z
Si Si1 0.554839 0.826391 0.457974
Si Si2 0.453734 0.669795 0.737131
Si Si3 0.542298 0.660996 0.886586
Si Si4 0.250000 0.329553 0.322518
Si Si5 0.541829 0.837912 0.187919
Si Si6 0.750000 0.827264 0.598178
Si Si7 0.541984 0.836842 0.958118
O O1 0.500000 0.780456 0.500000
O O2 0.750000 0.779596 0.449873
O O3 0.416870 0.784272 0.426557
O O4 0.553793 0.000000 0.458700
O O5 0.250000 0.699968 0.729488
O O6 0.468338 0.500000 0.744653
O O7 0.580389 0.703777 0.702597
O O8 0.511133 0.755606 0.774205
O O9 0.750000 0.652586 0.890288
O O10 0.474664 0.500000 0.883166
O O11 0.506437 0.751859 0.849375
O O12 0.475846 0.740752 0.923939
O O13 0.250000 0.500000 0.329558
O O14 0.250000 0.244559 0.361285
O O15 0.750000 0.843247 0.189094
O O16 0.475657 0.000000 0.186722
O O17 0.750000 0.000000 0.601674
O O18 0.750000 0.842549 0.955153
O O19 0.476477 0.000000 0.955048
O O20 0.500000 0.783182 0.000000
#
# Coordination Sequence:
#
# PCOD9402977 Si02
#       7
#     8   8   8   4   8   4   8
#     4   9  15  26  47  76 108 140 177 225 277 324
#     4   9  19  37  58  78 104 140 182 225 268 321
#     4  10  21  35  52  76 106 138 174 214 255 310
#     4  10  22  38  56  78 108 148 188 222 270 336
#     4  10  21  36  55  81 109 135 167 214 271 322
#     4  10  20  32  50  80 110 138 180 230 274 322
#     4   9  18  33  51  71  98 133 172 214 261 311
#
# _framework density 18.661435999999998
#
# number of rings (size 3 to 8) (size 9 to 14) (size 15 to 20)
#    0.000    2.500    0.833    1.000    1.167    4.333 
#    0.000    1.667    0.000    0.500    0.000    0.000 
#    0.000    0.000    0.000    0.000    0.000    0.000 
#
# Total GULP energy -267831.904426 kJ/mol
# GULP energy per Si atom -5579.831342 kJ/mol
# Density = 1.861896 g / cm^3
# Si number density = 18.661436 Si / 1000 Ang^3
#
#
#
# Elastic Constant Matrix: (Units=GPa)
#
#
# Indices 1 2 3 4 5 6 
#
# 1 87.1759 38.2499 67.6541 0.0000 0.0000 0.0000
# 2 38.2499 79.2015 92.1950 0.0000 0.0000 0.0000
# 3 67.6541 92.1950 206.9210 0.0000 0.0000 0.0000
# 4 0.0000 0.0000 0.0000 126.5160 0.0000 0.0000
# 5 0.0000 0.0000 0.0000 0.0000 29.2359 0.0000
# 6 0.0000 0.0000 0.0000 0.0000 0.0000 34.0541
#
#
#
# Elastic Compliance Matrix: (Units=1/GPa)
#
#
# Indices 1 2 3 4 5 6 
#
# 1 0.015790 -0.003357 -0.003667 0.000000 0.000000 0.000000
# 2 -0.003357 0.026944 -0.010908 0.000000 0.000000 0.000000
# 3 -0.003667 -0.010908 0.010892 0.000000 0.000000 0.000000
# 4 0.000000 0.000000 0.000000 0.007904 0.000000 0.000000
# 5 0.000000 0.000000 0.000000 0.000000 0.034205 0.000000
# 6 0.000000 0.000000 0.000000 0.000000 0.000000 0.029365
#
#
# Mechanical properties :
#
#
# Convention : Reuss Voigt Hill
#
# Bulk Modulus (GPa) = 56.29819 85.49958 70.89889
# Shear Modulus (GPa) = 29.96102 49.64116 39.80109
#
# Velocity S-wave (km/s) = 4.01122 5.16320 4.62323
# Velocity P-wave (km/s) = 7.18936 9.02555 8.15927
#
# Compressibility (1/GPa) = 0.01776256
#
# Stress axis : x y z
#
# Youngs Moduli (GPa) = 63.33238 37.11334 91.81431
#
# Poissons Ratio (x) = 0.12460 0.33665
# Poissons Ratio (y) = 0.21263 1.00147
# Poissons Ratio (z) = 0.23222 0.40482
#
# Static dielectric constant tensor:
#      x y z
#    x 1.671570 0.000000 0.000000 
#    y 0.000000 1.641550 0.000000 
#    z 0.000000 0.000000 1.603040 
# 
# From -- ./inp_files/37076.got.cif
#   From: 2010.05.17/outbox.cif.g08.bks.cpg/sg51_19_cif.got.tgz:37076.got - 2010.06.03 11:52:47.
