data_PCOD9402546
_publ_section_title
;
Structure prediction by ZEFSAII (Michael W. Deem and Ramdas Pophale) SiO2 
 PCOD9402546
Probable space group: P M M A
;
_chemical_formula_sum "Si O2"
_cell_formula_units_Z 52
_cell_length_a 15.240237
_cell_length_b 16.646616
_cell_length_c 11.545883
_cell_angle_alpha 90.000000
_cell_angle_beta 90.000000
_cell_angle_gamma 90.000000
_cell_volume 2929.171733
_symmetry_space_group_name_H-M "P M M A"
_symmetry_group_IT_number 51
_symmetry_cell_setting 'orthorhombic'
loop_
_space_group_symop_operation_xyz
x,y,z
1/2-x,-y,z
1/2+x,-y,-z
-x,y,-z
-x,-y,-z
1/2+x,y,-z
1/2-x,y,z
x,-y,z
loop_
_atom_site_type_symbol
_atom_site_label
_atom_site_fract_x
_atom_site_fract_y
_atom_site_fract_z
Si Si1 0.603911 0.500000 0.522303
Si Si2 0.650647 0.199979 0.643205
Si Si3 0.653215 0.326315 0.451543
Si Si4 0.458985 0.223228 0.718210
Si Si5 0.153821 0.500000 0.985156
Si Si6 0.946298 0.637745 0.120116
Si Si7 0.145928 0.093150 0.586351
Si Si8 0.051920 0.500000 0.225279
O O1 0.500000 0.500000 0.500000
O O2 0.642314 0.420371 0.465901
O O3 0.612088 0.500000 0.661955
O O4 0.750000 0.185356 0.690595
O O5 0.653400 0.285142 0.577155
O O6 0.563048 0.204868 0.719798
O O7 0.634086 0.135710 0.539223
O O8 0.750000 0.307177 0.399247
O O9 0.574414 0.284283 0.382741
O O10 0.431411 0.273798 0.830777
O O11 0.408008 0.142591 0.681955
O O12 0.250000 0.500000 0.030275
O O13 0.134323 0.579680 0.911338
O O14 0.094290 0.500000 0.098306
O O15 0.996765 0.582966 0.216526
O O16 0.000000 0.643823 0.000000
O O17 0.250000 0.098653 0.610936
O O18 0.120635 0.000000 0.581253
#
# Coordination Sequence:
#
# PCOD9402546 Si02
#       8
#     4   8   8   8   4   8   8   4
#     4  12  20  29  46  67  97 135 168 196 240 297
#     4   9  18  31  47  69  98 127 158 196 237 288
#     4  10  20  30  41  66  98 127 159 194 233 287
#     4  11  19  32  52  69  96 135 164 197 251 299
#     4   9  19  34  52  71  92 123 170 223 266 298
#     4   9  19  35  50  68  94 125 167 216 253 290
#     4   9  18  32  51  78 107 132 162 197 233 289
#     4   9  18  33  49  64  91 132 170 201 244 295
#
# _framework density 17.752458000000001
#
# number of rings (size 3 to 8) (size 9 to 14) (size 15 to 20)
#    0.000    2.308    0.000    7.154    0.000    3.692 
#    0.000    4.615    0.000    0.462    0.000    0.000 
#    0.000    2.462    0.000    0.000    0.000    0.000 
#
# Total GULP energy -289505.341948 kJ/mol
# GULP energy per Si atom -5567.410422 kJ/mol
# Density = 1.771205 g / cm^3
# Si number density = 17.752458 Si / 1000 Ang^3
#
#
#
# Elastic Constant Matrix: (Units=GPa)
#
#
# Indices 1 2 3 4 5 6 
#
# 1 49.8190 14.0295 4.5961 0.0000 0.0000 0.0000
# 2 14.0295 122.7335 9.6695 0.0000 0.0000 0.0000
# 3 4.5961 9.6695 28.4379 0.0000 0.0000 0.0000
# 4 0.0000 0.0000 0.0000 10.9690 0.0000 0.0000
# 5 0.0000 0.0000 0.0000 0.0000 5.8726 0.0000
# 6 0.0000 0.0000 0.0000 0.0000 0.0000 16.7464
#
#
#
# Elastic Compliance Matrix: (Units=1/GPa)
#
#
# Indices 1 2 3 4 5 6 
#
# 1 0.020931 -0.002185 -0.002640 0.000000 0.000000 0.000000
# 2 -0.002185 0.008600 -0.002571 0.000000 0.000000 0.000000
# 3 -0.002640 -0.002571 0.036465 0.000000 0.000000 0.000000
# 4 0.000000 0.000000 0.000000 0.091166 0.000000 0.000000
# 5 0.000000 0.000000 0.000000 0.000000 0.170283 0.000000
# 6 0.000000 0.000000 0.000000 0.000000 0.000000 0.059714
#
#
# Mechanical properties :
#
#
# Convention : Reuss Voigt Hill
#
# Bulk Modulus (GPa) = 19.52933 28.62008 24.07470
# Shear Modulus (GPa) = 11.93259 18.23060 15.08159
#
# Velocity S-wave (km/s) = 2.59543 3.20806 2.91787
# Velocity P-wave (km/s) = 4.47286 5.46616 4.99427
#
# Compressibility (1/GPa) = 0.05120505
#
# Stress axis : x y z
#
# Youngs Moduli (GPa) = 47.77496 116.27875 27.42331
#
# Poissons Ratio (x) = 0.25403 0.07240
# Poissons Ratio (y) = 0.10437 0.07051
# Poissons Ratio (z) = 0.12613 0.29897
#
# Static dielectric constant tensor:
#      x y z
#    x 1.670780 0.000000 0.000000 
#    y 0.000000 1.618590 0.000000 
#    z 0.000000 0.000000 1.606610 
# 
# From -- ./inp_files/16764.got.cif
#   From: 2010.05.17/outbox.cif.g08.bks.cpg/sg51_9_cif.got.tgz:16764.got - 2010.06.03 11:52:47.
