data_PCOD9402998
_publ_section_title
;
Structure prediction by ZEFSAII (Michael W. Deem and Ramdas Pophale) SiO2 
 PCOD9402998
Probable space group: P M M A
;
_chemical_formula_sum "Si O2"
_cell_formula_units_Z 56
_cell_length_a 9.341202
_cell_length_b 21.278544
_cell_length_c 13.955659
_cell_angle_alpha 90.000000
_cell_angle_beta 90.000000
_cell_angle_gamma 90.000000
_cell_volume 2773.926953
_symmetry_space_group_name_H-M "P M M A"
_symmetry_group_IT_number 51
_symmetry_cell_setting 'orthorhombic'
loop_
_space_group_symop_operation_xyz
x,y,z
1/2-x,-y,z
1/2+x,-y,-z
-x,y,-z
-x,-y,-z
1/2+x,y,-z
1/2-x,y,z
x,-y,z
loop_
_atom_site_type_symbol
_atom_site_label
_atom_site_fract_x
_atom_site_fract_y
_atom_site_fract_z
Si Si1 0.421957 0.000000 0.101931
Si Si2 0.086471 0.425373 0.907842
Si Si3 0.750000 0.713855 0.963216
Si Si4 0.969313 0.739226 0.135558
Si Si5 0.080770 0.131393 0.199210
Si Si6 0.419366 0.816607 0.409380
Si Si7 0.914497 0.307727 0.346997
Si Si8 0.921410 0.426622 0.706730
O O1 0.458132 0.062800 0.161316
O O2 0.250000 0.000000 0.087366
O O3 0.500000 0.000000 0.000000
O O4 0.250000 0.400142 0.905186
O O5 0.101766 0.500000 0.922389
O O6 0.995570 0.419581 0.811478
O O7 0.000000 0.401527 0.000000
O O8 0.624530 0.709897 0.881627
O O9 0.870347 0.726771 0.046231
O O10 0.910687 0.711022 0.234409
O O11 0.992787 0.813867 0.147715
O O12 0.250000 0.141897 0.177319
O O13 0.062835 0.142905 0.312496
O O14 0.500000 0.845869 0.500000
O O15 0.250000 0.808958 0.426345
O O16 0.495192 0.749241 0.392163
O O17 0.750000 0.311425 0.381552
O O18 0.998221 0.373837 0.355704
O O19 0.750000 0.416739 0.711354
O O20 0.945064 0.500000 0.677956
#
# Coordination Sequence:
#
# PCOD9402998 Si02
#       8
#     4   8   4   8   8   8   8   8
#     4  10  22  36  55  86 128 178 219 250 289 340
#     4   9  16  28  44  62  88 128 179 229 272 321
#     4  10  20  32  52  75 113 150 202 244 306 346
#     4  10  20  34  52  79 109 154 196 253 296 352
#     4   9  19  36  58  84 121 162 206 249 294 350
#     4  10  21  40  67  93 117 150 191 247 308 358
#     4  11  22  38  57  85 115 144 189 240 297 356
#     4  10  21  36  54  75 105 145 183 225 283 351
#
# _framework density 20.187987
#
# number of rings (size 3 to 8) (size 9 to 14) (size 15 to 20)
#    0.000    2.143    1.429    1.714    4.000    2.571 
#    2.571    0.357    0.000    0.429    0.000    0.000 
#    0.000    0.000    0.000    0.000    0.000    0.000 
#
# Total GULP energy -311795.200375 kJ/mol
# GULP energy per Si atom -5567.771435 kJ/mol
# Density = 2.014204 g / cm^3
# Si number density = 20.187987 Si / 1000 Ang^3
#
#
#
# Elastic Constant Matrix: (Units=GPa)
#
#
# Indices 1 2 3 4 5 6 
#
# 1 155.7294 47.0313 37.8147 0.0000 0.0000 0.0000
# 2 47.0313 159.5203 31.6050 0.0000 0.0000 0.0000
# 3 37.8147 31.6050 57.0046 0.0000 0.0000 0.0000
# 4 0.0000 0.0000 0.0000 -2.8394 0.0000 0.0000
# 5 0.0000 0.0000 0.0000 0.0000 33.4439 0.0000
# 6 0.0000 0.0000 0.0000 0.0000 0.0000 16.2035
#
#
#
# Elastic Compliance Matrix: (Units=1/GPa)
#
#
# Indices 1 2 3 4 5 6 
#
# 1 0.007945 -0.001458 -0.004462 0.000000 0.000000 0.000000
# 2 -0.001458 0.007310 -0.003085 0.000000 0.000000 0.000000
# 3 -0.004462 -0.003085 0.022213 0.000000 0.000000 0.000000
# 4 0.000000 0.000000 0.000000 -0.352191 0.000000 0.000000
# 5 0.000000 0.000000 0.000000 0.000000 0.029901 0.000000
# 6 0.000000 0.000000 0.000000 0.000000 0.000000 0.061715
#
#
# Mechanical properties :
#
#
# Convention : Reuss Voigt Hill
#
# Bulk Modulus (GPa) = 51.39640 67.23961 59.31801
# Shear Modulus (GPa) = -25.17513 26.41516 0.62001
#
# Velocity S-wave (km/s) = -3.53517 3.62119 0.55478
# Velocity P-wave (km/s) = 2.97505 7.13183 5.46416
#
# Compressibility (1/GPa) = 0.01945661
#
# Stress axis : x y z
#
# Youngs Moduli (GPa) = 125.85984 136.79700 45.01861
#
# Poissons Ratio (x) = 0.19952 0.20087
# Poissons Ratio (y) = 0.18356 0.13890
# Poissons Ratio (z) = 0.56159 0.42208
#
# Static dielectric constant tensor:
#      x y z
#    x 1.725660 0.000000 0.000000 
#    y 0.000000 1.760750 0.000000 
#    z 0.000000 0.000000 1.728070 
# 
# From -- ./inp_files/21872.got.cif
#   From: 2010.05.17/outbox.cif.g08.bks.cpg/sg51_11_cif.got.tgz:21872.got - 2010.06.03 11:52:47.
