data_PCOD9402591
_publ_section_title
;
Structure prediction by ZEFSAII (Michael W. Deem and Ramdas Pophale) SiO2 
 PCOD9402591
Probable space group: P M M A
;
_chemical_formula_sum "Si O2"
_cell_formula_units_Z 32
_cell_length_a 22.789154
_cell_length_b 7.464965
_cell_length_c 7.441870
_cell_angle_alpha 90.000000
_cell_angle_beta 90.000000
_cell_angle_gamma 90.000000
_cell_volume 1266.012688
_symmetry_space_group_name_H-M "P M M A"
_symmetry_group_IT_number 51
_symmetry_cell_setting 'orthorhombic'
loop_
_space_group_symop_operation_xyz
x,y,z
1/2-x,-y,z
1/2+x,-y,-z
-x,y,-z
-x,-y,-z
1/2+x,y,-z
1/2-x,y,z
x,-y,z
loop_
_atom_site_type_symbol
_atom_site_label
_atom_site_fract_x
_atom_site_fract_y
_atom_site_fract_z
Si Si1 0.436490 0.799226 0.018254
Si Si2 0.313332 0.215207 0.469705
Si Si3 0.938172 0.709898 0.580803
Si Si4 0.813070 0.781311 0.954411
O O1 0.429447 0.811114 0.232813
O O2 0.374221 0.716917 0.961190
O O3 0.441136 0.000000 0.938234
O O4 0.500000 0.709535 0.000000
O O5 0.250000 0.277655 0.544318
O O6 0.378262 0.270480 0.532854
O O7 0.312156 0.266709 0.257431
O O8 0.312649 0.000000 0.481965
O O9 0.944442 0.500000 0.622483
O O10 0.000000 0.770413 0.500000
O O11 0.750000 0.725256 0.030007
O O12 0.815096 0.000000 0.963698
#
# Coordination Sequence:
#
# PCOD9402591 Si02
#       4
#     8   8   8   8
#     4   9  17  29  46  67  88 114 150 189 230 271
#     4   8  14  26  45  67  88 112 147 191 233 269
#     4  10  20  31  44  66  95 126 157 186 222 271
#     4   7  10  19  37  60  83 104 130 171 219 260
#
# _framework density 25.276211
#
# number of rings (size 3 to 8) (size 9 to 14) (size 15 to 20)
#    0.000    3.500    0.000    3.750    0.000    3.000 
#    0.000    0.000    0.000    1.500    0.000    3.500 
#    0.000    0.000    0.000    0.000    0.000    0.000 
#
# Total GULP energy -178222.073973 kJ/mol
# GULP energy per Si atom -5569.439812 kJ/mol
# Density = 2.521868 g / cm^3
# Si number density = 25.276211 Si / 1000 Ang^3
#
#
#
# Elastic Constant Matrix: (Units=GPa)
#
#
# Indices 1 2 3 4 5 6 
#
# 1 363.4325 6.5967 18.0527 0.0000 0.0000 0.0000
# 2 6.5967 80.0218 -1.6522 0.0000 0.0000 0.0000
# 3 18.0527 -1.6522 57.5915 0.0000 0.0000 0.0000
# 4 0.0000 0.0000 0.0000 -1.5578 0.0000 0.0000
# 5 0.0000 0.0000 0.0000 0.0000 17.2422 0.0000
# 6 0.0000 0.0000 0.0000 0.0000 0.0000 -21.5184
#
#
#
# Elastic Compliance Matrix: (Units=1/GPa)
#
#
# Indices 1 2 3 4 5 6 
#
# 1 0.002800 -0.000249 -0.000885 0.000000 0.000000 0.000000
# 2 -0.000249 0.012526 0.000437 0.000000 0.000000 0.000000
# 3 -0.000885 0.000437 0.017654 0.000000 0.000000 0.000000
# 4 0.000000 0.000000 0.000000 -0.641938 0.000000 0.000000
# 5 0.000000 0.000000 0.000000 0.000000 0.057997 0.000000
# 6 0.000000 0.000000 0.000000 0.000000 0.000000 -0.046472
#
#
# Mechanical properties :
#
#
# Convention : Reuss Voigt Hill
#
# Bulk Modulus (GPa) = 31.65884 60.78225 46.22054
# Shear Modulus (GPa) = -8.53955 30.70311 11.08178
#
# Velocity S-wave (km/s) = -1.84006 3.48904 2.09614
# Velocity P-wave (km/s) = 2.83512 6.35064 4.91775
#
# Compressibility (1/GPa) = 0.03158676
#
# Stress axis : x y z
#
# Youngs Moduli (GPa) = 357.14074 79.83291 56.64575
#
# Poissons Ratio (x) = 0.01989 0.05012
# Poissons Ratio (y) = 0.08896 -0.02478
# Poissons Ratio (z) = 0.31601 -0.03492
#
# Static dielectric constant tensor:
#      x y z
#    x 2.172340 0.000000 0.000000 
#    y 0.000000 1.978190 0.000000 
#    z 0.000000 0.000000 2.022240 
# 
# From -- ./inp_files/10279.got.cif
#   From: 2010.05.17/outbox.cif.g08.bks.cpg/sg51_6_cif.got.tgz:10279.got - 2010.06.03 11:52:47.
