data_PCOD9402308
_publ_section_title
;
Structure prediction by ZEFSAII (Michael W. Deem and Ramdas Pophale) SiO2 
 PCOD9402308
Probable space group: P M M A
;
_chemical_formula_sum "Si O2"
_cell_formula_units_Z 48
_cell_length_a 8.944525
_cell_length_b 20.709229
_cell_length_c 14.808996
_cell_angle_alpha 90.000000
_cell_angle_beta 90.000000
_cell_angle_gamma 90.000000
_cell_volume 2743.132772
_symmetry_space_group_name_H-M "P M M A"
_symmetry_group_IT_number 51
_symmetry_cell_setting 'orthorhombic'
loop_
_space_group_symop_operation_xyz
x,y,z
1/2-x,-y,z
1/2+x,-y,-z
-x,y,-z
-x,-y,-z
1/2+x,y,-z
1/2-x,y,z
x,-y,z
loop_
_atom_site_type_symbol
_atom_site_label
_atom_site_fract_x
_atom_site_fract_y
_atom_site_fract_z
Si Si1 0.069865 0.314580 0.714191
Si Si2 0.429286 0.813970 0.599061
Si Si3 0.572181 0.927115 0.717594
Si Si4 0.927889 0.263250 0.093512
Si Si5 0.428304 0.109031 0.905016
Si Si6 0.928344 0.575291 0.597079
O O1 0.250000 0.322044 0.714045
O O2 0.035297 0.251884 0.653071
O O3 0.020011 0.299149 0.816271
O O4 0.994551 0.376934 0.671159
O O5 0.500000 0.812005 0.500000
O O6 0.250000 0.819450 0.593412
O O7 0.494114 0.873956 0.655306
O O8 0.750000 0.915352 0.721180
O O9 0.504369 0.922064 0.818036
O O10 0.547341 0.000000 0.683378
O O11 0.750000 0.271021 0.087315
O O12 0.955672 0.186378 0.103567
O O13 0.000000 0.285141 0.000000
O O14 0.250000 0.098082 0.905150
O O15 0.500000 0.088001 0.000000
O O16 0.750000 0.582353 0.591288
O O17 0.962884 0.500000 0.615977
O O18 0.000000 0.591486 0.500000
#
# Coordination Sequence:
#
# PCOD9402308 Si02
#       6
#     8   8   8   8   8   8
#     4  10  20  36  58  85 115 145 183 226 272 325
#     4  11  23  40  59  82 110 141 182 231 279 333
#     4  11  24  40  57  79 107 143 187 231 280 337
#     4   9  18  33  53  82 113 142 178 222 270 324
#     4  10  19  35  57  82 111 143 180 226 279 334
#     4  10  21  36  55  83 117 152 189 226 270 324
#
# _framework density 17.498241
#
# number of rings (size 3 to 8) (size 9 to 14) (size 15 to 20)
#    0.000    1.833    1.667    2.500    0.000    7.000 
#    0.000    0.000    0.000    0.500    0.000    0.000 
#    0.000    0.000    0.000    0.000    0.000    0.000 
#
# Total GULP energy -268132.401933 kJ/mol
# GULP energy per Si atom -5586.091707 kJ/mol
# Density = 1.745841 g / cm^3
# Si number density = 17.498241 Si / 1000 Ang^3
#
#
#
# Elastic Constant Matrix: (Units=GPa)
#
#
# Indices 1 2 3 4 5 6 
#
# 1 50.0909 47.3250 48.9096 0.0000 0.0000 0.0000
# 2 47.3250 82.7888 67.6544 0.0000 0.0000 0.0000
# 3 48.9096 67.6544 147.1953 0.0000 0.0000 0.0000
# 4 0.0000 0.0000 0.0000 -91.1665 0.0000 0.0000
# 5 0.0000 0.0000 0.0000 0.0000 36.8976 0.0000
# 6 0.0000 0.0000 0.0000 0.0000 0.0000 25.1600
#
#
#
# Elastic Compliance Matrix: (Units=1/GPa)
#
#
# Indices 1 2 3 4 5 6 
#
# 1 0.045666 -0.021948 -0.005086 0.000000 0.000000 0.000000
# 2 -0.021948 0.029894 -0.006447 0.000000 0.000000 0.000000
# 3 -0.005086 -0.006447 0.011447 0.000000 0.000000 0.000000
# 4 0.000000 0.000000 0.000000 -0.010969 0.000000 0.000000
# 5 0.000000 0.000000 0.000000 0.000000 0.027102 0.000000
# 6 0.000000 0.000000 0.000000 0.000000 0.000000 0.039746
#
#
# Mechanical properties :
#
#
# Convention : Reuss Voigt Hill
#
# Bulk Modulus (GPa) = 49.88916 67.53923 58.71420
# Shear Modulus (GPa) = 23.09171 1.92393 12.50782
#
# Velocity S-wave (km/s) = 3.63665 1.04971 2.67648
# Velocity P-wave (km/s) = 6.79754 6.33646 6.57104
#
# Compressibility (1/GPa) = 0.02004443
#
# Stress axis : x y z
#
# Youngs Moduli (GPa) = 21.89828 33.45201 87.36068
#
# Poissons Ratio (x) = 0.73420 0.44430
# Poissons Ratio (y) = 0.48062 0.56321
# Poissons Ratio (z) = 0.11137 0.21566
#
# Static dielectric constant tensor:
#      x y z
#    x 1.582470 0.000000 0.000000 
#    y 0.000000 1.587000 0.000000 
#    z 0.000000 0.000000 1.576060 
# 
# From -- ./inp_files/21059.got.cif
#   From: 2010.05.17/outbox.cif.g08.bks.cpg/sg51_11_cif.got.tgz:21059.got - 2010.06.03 11:52:47.
