data_PCOD9402130
_publ_section_title
;
Structure prediction by ZEFSAII (Michael W. Deem and Ramdas Pophale) SiO2 
 PCOD9402130
Probable space group: P M M A
;
_chemical_formula_sum "Si O2"
_cell_formula_units_Z 58
_cell_length_a 31.023368
_cell_length_b 7.862959
_cell_length_c 12.696969
_cell_angle_alpha 90.000000
_cell_angle_beta 90.000000
_cell_angle_gamma 90.000000
_cell_volume 3097.241109
_symmetry_space_group_name_H-M "P M M A"
_symmetry_group_IT_number 51
_symmetry_cell_setting 'orthorhombic'
loop_
_space_group_symop_operation_xyz
x,y,z
1/2-x,-y,z
1/2+x,-y,-z
-x,y,-z
-x,-y,-z
1/2+x,y,-z
1/2-x,y,z
x,-y,z
loop_
_atom_site_type_symbol
_atom_site_label
_atom_site_fract_x
_atom_site_fract_y
_atom_site_fract_z
Si Si1 0.455921 0.795390 0.163924
Si Si2 0.297410 0.204513 0.280083
Si Si3 0.449500 0.799093 0.771552
Si Si4 0.609914 0.794882 0.657433
Si Si5 0.811114 0.805256 0.969472
Si Si6 0.403412 0.305826 0.972758
Si Si7 0.047783 0.703227 0.533352
Si Si8 0.750000 0.500000 0.035862
O O1 0.502414 0.732664 0.201862
O O2 0.418460 0.733417 0.243063
O O3 0.456655 0.000000 0.171256
O O4 0.443474 0.747615 0.045835
O O5 0.250000 0.272185 0.310828
O O6 0.340880 0.269487 0.335813
O O7 0.303204 0.229806 0.154728
O O8 0.296225 0.000000 0.296212
O O9 0.416090 0.716528 0.851653
O O10 0.441059 0.769810 0.648973
O O11 0.448796 0.000000 0.793269
O O12 0.583138 0.751676 0.553325
O O13 0.612011 0.000000 0.665350
O O14 0.796861 0.000000 0.990430
O O15 0.861727 0.799095 0.994022
O O16 0.787051 0.653234 0.029383
O O17 0.393528 0.500000 0.996204
O O18 0.045451 0.500000 0.538737
O O19 0.000000 0.767644 0.500000
#
# Coordination Sequence:
#
# PCOD9402130 Si02
#       8
#     8   8   8   8   8   8   8   2
#     4  10  20  35  56  83 117 158 200 240 290 354
#     4   9  17  32  56  84 115 154 189 236 299 352
#     4  11  23  39  59  80 111 159 207 248 294 355
#     4  10  19  34  57  84 114 150 196 240 288 353
#     4  11  21  37  58  85 125 158 195 247 299 364
#     4  12  24  37  55  86 123 158 200 243 299 366
#     4  11  23  38  56  82 114 148 193 248 306 356
#     4  12  22  36  56  94 114 158 206 240 304 366
#
# _framework density 18.726341999999999
#
# number of rings (size 3 to 8) (size 9 to 14) (size 15 to 20)
#    0.000    1.379    4.138    2.690    0.000    3.862 
#    1.241    0.000    0.000    0.000    1.793    0.000 
#    0.000    0.000    0.000    0.000    0.000    0.000 
#
# Total GULP energy -323346.750186 kJ/mol
# GULP energy per Si atom -5574.943969 kJ/mol
# Density = 1.868372 g / cm^3
# Si number density = 18.726342 Si / 1000 Ang^3
#
#
#
# Elastic Constant Matrix: (Units=GPa)
#
#
# Indices 1 2 3 4 5 6 
#
# 1 110.7601 14.9322 23.4139 0.0000 0.0000 0.0000
# 2 14.9322 61.3975 -4.7729 0.0000 0.0000 0.0000
# 3 23.4139 -4.7729 70.8657 0.0000 0.0000 0.0000
# 4 0.0000 0.0000 0.0000 30.9269 0.0000 0.0000
# 5 0.0000 0.0000 0.0000 0.0000 -69.0658 0.0000
# 6 0.0000 0.0000 0.0000 0.0000 0.0000 17.0309
#
#
#
# Elastic Compliance Matrix: (Units=1/GPa)
#
#
# Indices 1 2 3 4 5 6 
#
# 1 0.010146 -0.002742 -0.003537 0.000000 0.000000 0.000000
# 2 -0.002742 0.017114 0.002059 0.000000 0.000000 0.000000
# 3 -0.003537 0.002059 0.015418 0.000000 0.000000 0.000000
# 4 0.000000 0.000000 0.000000 0.032334 0.000000 0.000000
# 5 0.000000 0.000000 0.000000 0.000000 -0.014479 0.000000
# 6 0.000000 0.000000 0.000000 0.000000 0.000000 0.058717
#
#
# Mechanical properties :
#
#
# Convention : Reuss Voigt Hill
#
# Bulk Modulus (GPa) = 29.20776 34.46330 31.83553
# Shear Modulus (GPa) = 35.94419 9.74175 22.84297
#
# Velocity S-wave (km/s) = 4.38590 2.28330 3.49640
# Velocity P-wave (km/s) = 6.42489 5.03933 5.77382
#
# Compressibility (1/GPa) = 0.03423748
#
# Stress axis : x y z
#
# Youngs Moduli (GPa) = 98.56169 58.43055 64.85740
#
# Poissons Ratio (x) = 0.16025 0.22939
# Poissons Ratio (y) = 0.27030 -0.13353
# Poissons Ratio (z) = 0.34860 -0.12030
#
# Static dielectric constant tensor:
#      x y z
#    x 1.559330 0.000000 0.000000 
#    y 0.000000 1.674610 0.000000 
#    z 0.000000 0.000000 1.611290 
# 
# From -- ./inp_files/19418.got.cif
#   From: 2010.05.17/outbox.cif.g08.bks.cpg/sg51_10_cif.got.tgz:19418.got - 2010.06.03 11:52:47.
