data_PCOD9402594
_publ_section_title
;
Structure prediction by ZEFSAII (Michael W. Deem and Ramdas Pophale) SiO2 
 PCOD9402594
Probable space group: P M M A
;
_chemical_formula_sum "Si O2"
_cell_formula_units_Z 44
_cell_length_a 9.327197
_cell_length_b 7.508247
_cell_length_c 31.381352
_cell_angle_alpha 90.000000
_cell_angle_beta 90.000000
_cell_angle_gamma 90.000000
_cell_volume 2197.664289
_symmetry_space_group_name_H-M "P M M A"
_symmetry_group_IT_number 51
_symmetry_cell_setting 'orthorhombic'
loop_
_space_group_symop_operation_xyz
x,y,z
1/2-x,-y,z
1/2+x,-y,-z
-x,y,-z
-x,-y,-z
1/2+x,y,-z
1/2-x,y,z
x,-y,z
loop_
_atom_site_type_symbol
_atom_site_label
_atom_site_fract_x
_atom_site_fract_y
_atom_site_fract_z
Si Si1 0.588242 0.287469 0.209005
Si Si2 0.084808 0.717581 0.957807
Si Si3 0.086896 0.213987 0.293759
Si Si4 0.075594 0.203590 0.387268
Si Si5 0.076532 0.500000 0.454771
Si Si6 0.585102 0.717944 0.873349
O O1 0.750000 0.216220 0.208223
O O2 0.597284 0.500000 0.203187
O O3 0.512300 0.257276 0.254079
O O4 0.492467 0.220538 0.169779
O O5 0.250000 0.774884 0.958229
O O6 0.085300 0.500000 0.957919
O O7 0.003010 0.773328 0.915032
O O8 0.000000 0.774345 0.000000
O O9 0.250000 0.279797 0.286592
O O10 0.032725 0.273367 0.340338
O O11 0.094595 0.000000 0.297060
O O12 0.250000 0.201632 0.385599
O O13 0.035058 0.329831 0.426021
O O14 0.026928 0.000000 0.393055
O O15 0.250000 0.500000 0.459777
O O16 0.000000 0.500000 0.500000
O O17 0.750000 0.775179 0.875082
O O18 0.585900 0.500000 0.873191
#
# Coordination Sequence:
#
# PCOD9402594 Si02
#       6
#     8   8   8   8   4   8
#     4  10  20  31  44  67  98 130 160 195 245 303
#     4   9  15  22  33  50  75 110 151 195 244 300
#     4   9  18  33  53  75  96 123 165 211 249 293
#     4   8  16  32  53  77 104 135 175 220 263 311
#     4  10  20  34  54  80 108 142 178 218 265 312
#     4   9  16  26  39  56  81 115 156 200 244 293
#
# _framework density 20.021256000000001
#
# number of rings (size 3 to 8) (size 9 to 14) (size 15 to 20)
#    0.000    2.909    0.000    2.727    1.273    6.182 
#    0.000    0.909    0.000    1.091    0.000    0.000 
#    0.000    0.727    0.000    2.727    0.000    6.000 
#
# Total GULP energy -245588.131669 kJ/mol
# GULP energy per Si atom -5581.548447 kJ/mol
# Density = 1.997569 g / cm^3
# Si number density = 20.021256 Si / 1000 Ang^3
#
#
#
# Elastic Constant Matrix: (Units=GPa)
#
#
# Indices 1 2 3 4 5 6 
#
# 1 146.1465 21.8300 113.5166 0.0000 0.0000 0.0000
# 2 21.8300 63.5518 37.5036 0.0000 0.0000 0.0000
# 3 113.5166 37.5036 232.0187 0.0000 0.0000 0.0000
# 4 0.0000 0.0000 0.0000 143.8458 0.0000 0.0000
# 5 0.0000 0.0000 0.0000 0.0000 38.2564 0.0000
# 6 0.0000 0.0000 0.0000 0.0000 0.0000 3.1023
#
#
#
# Elastic Compliance Matrix: (Units=1/GPa)
#
#
# Indices 1 2 3 4 5 6 
#
# 1 0.011062 -0.000670 -0.005304 0.000000 0.000000 0.000000
# 2 -0.000670 0.017435 -0.002490 0.000000 0.000000 0.000000
# 3 -0.005304 -0.002490 0.007308 0.000000 0.000000 0.000000
# 4 0.000000 0.000000 0.000000 0.006952 0.000000 0.000000
# 5 0.000000 0.000000 0.000000 0.000000 0.026139 0.000000
# 6 0.000000 0.000000 0.000000 0.000000 0.000000 0.322341
#
#
# Mechanical properties :
#
#
# Convention : Reuss Voigt Hill
#
# Bulk Modulus (GPa) = 52.97685 87.49083 70.23384
# Shear Modulus (GPa) = 12.06395 54.96536 33.51465
#
# Velocity S-wave (km/s) = 2.45737 5.24529 4.09584
# Velocity P-wave (km/s) = 5.87956 8.97095 7.58443
#
# Compressibility (1/GPa) = 0.01887617
#
# Stress axis : x y z
#
# Youngs Moduli (GPa) = 90.39703 57.35601 136.84408
#
# Poissons Ratio (x) = 0.03842 0.72583
# Poissons Ratio (y) = 0.06055 0.34081
# Poissons Ratio (z) = 0.47947 0.14284
#
# Static dielectric constant tensor:
#      x y z
#    x 1.679580 0.000000 0.000000 
#    y 0.000000 1.848840 0.000000 
#    z 0.000000 0.000000 1.677360 
# 
# From -- ./inp_files/36796.got.cif
#   From: 2010.05.17/outbox.cif.g08.bks.cpg/sg51_19_cif.got.tgz:36796.got - 2010.06.03 11:52:47.
