data_PCOD9402730
_publ_section_title
;
Structure prediction by ZEFSAII (Michael W. Deem and Ramdas Pophale) SiO2 
 PCOD9402730
Probable space group: P M M A
;
_chemical_formula_sum "Si O2"
_cell_formula_units_Z 48
_cell_length_a 9.447276
_cell_length_b 7.532587
_cell_length_c 32.344056
_cell_angle_alpha 90.000000
_cell_angle_beta 90.000000
_cell_angle_gamma 90.000000
_cell_volume 2301.681569
_symmetry_space_group_name_H-M "P M M A"
_symmetry_group_IT_number 51
_symmetry_cell_setting 'orthorhombic'
loop_
_space_group_symop_operation_xyz
x,y,z
1/2-x,-y,z
1/2+x,-y,-z
-x,y,-z
-x,-y,-z
1/2+x,y,-z
1/2-x,y,z
x,-y,z
loop_
_atom_site_type_symbol
_atom_site_label
_atom_site_fract_x
_atom_site_fract_y
_atom_site_fract_z
Si Si1 0.588196 0.214104 0.700751
Si Si2 0.577585 0.794772 0.790596
Si Si3 0.589834 0.711902 0.380461
Si Si4 0.586974 0.282845 0.540569
Si Si5 0.588299 0.214131 0.880287
Si Si6 0.909428 0.712105 0.038542
O O1 0.750000 0.275691 0.692927
O O2 0.538660 0.282364 0.745883
O O3 0.486679 0.257581 0.663066
O O4 0.594422 0.000000 0.704027
O O5 0.750000 0.795600 0.790747
O O6 0.537559 0.717777 0.835250
O O7 0.529274 0.000000 0.790510
O O8 0.750000 0.782464 0.381230
O O9 0.598981 0.500000 0.386143
O O10 0.493451 0.778624 0.418182
O O11 0.500000 0.228908 0.500000
O O12 0.750000 0.225087 0.539445
O O13 0.588675 0.500000 0.540873
O O14 0.750000 0.275897 0.887725
O O15 0.489219 0.257827 0.918454
O O16 0.594193 0.000000 0.876971
O O17 0.750000 0.783398 0.039052
O O18 0.899895 0.500000 0.033031
O O19 0.000000 0.783160 0.000000
#
# Coordination Sequence:
#
# PCOD9402730 Si02
#       6
#     8   8   8   8   8   8
#     4   9  17  31  52  74  95 124 163 202 239 283
#     4   7  12  26  48  72  96 122 155 195 236 280
#     4  10  20  32  46  68  99 131 162 198 239 282
#     4   9  16  27  45  68  93 122 157 197 240 286
#     4   9  17  31  53  78 100 123 155 197 242 285
#     4  10  21  36  52  70  95 129 165 198 235 282
#
# _framework density 20.854319
#
# number of rings (size 3 to 8) (size 9 to 14) (size 15 to 20)
#    0.000    3.000    0.000    3.500    0.000    5.000 
#    0.000    1.667    0.000    8.500    0.000    0.000 
#    0.000    0.000    0.000    0.000    0.000    0.000 
#
# Total GULP energy -267730.404220 kJ/mol
# GULP energy per Si atom -5577.716755 kJ/mol
# Density = 2.080685 g / cm^3
# Si number density = 20.854319 Si / 1000 Ang^3
#
#
#
# Elastic Constant Matrix: (Units=GPa)
#
#
# Indices 1 2 3 4 5 6 
#
# 1 166.5139 7.0619 132.2717 0.0000 0.0000 0.0000
# 2 7.0619 52.1796 1.0995 0.0000 0.0000 0.0000
# 3 132.2717 1.0995 241.9055 0.0000 0.0000 0.0000
# 4 0.0000 0.0000 0.0000 20.1933 0.0000 0.0000
# 5 0.0000 0.0000 0.0000 0.0000 30.4128 0.0000
# 6 0.0000 0.0000 0.0000 0.0000 0.0000 17.8185
#
#
#
# Elastic Compliance Matrix: (Units=1/GPa)
#
#
# Indices 1 2 3 4 5 6 
#
# 1 0.010708 -0.001326 -0.005849 0.000000 0.000000 0.000000
# 2 -0.001326 0.019331 0.000637 0.000000 0.000000 0.000000
# 3 -0.005849 0.000637 0.007329 0.000000 0.000000 0.000000
# 4 0.000000 0.000000 0.000000 0.049521 0.000000 0.000000
# 5 0.000000 0.000000 0.000000 0.000000 0.032881 0.000000
# 6 0.000000 0.000000 0.000000 0.000000 0.000000 0.056121
#
#
# Mechanical properties :
#
#
# Convention : Reuss Voigt Hill
#
# Bulk Modulus (GPa) = 41.16559 82.38501 61.77530
# Shear Modulus (GPa) = 25.37243 35.02930 30.20087
#
# Velocity S-wave (km/s) = 3.49184 4.10288 3.80963
# Velocity P-wave (km/s) = 6.00331 7.87627 7.00269
#
# Compressibility (1/GPa) = 0.02429213
#
# Stress axis : x y z
#
# Youngs Moduli (GPa) = 93.38886 51.73141 136.44221
#
# Poissons Ratio (x) = 0.06859 0.79805
# Poissons Ratio (y) = 0.12383 -0.08694
# Poissons Ratio (z) = 0.54623 -0.03296
#
# Static dielectric constant tensor:
#      x y z
#    x 1.712490 0.000000 0.000000 
#    y 0.000000 1.819040 0.000000 
#    z 0.000000 0.000000 1.752570 
# 
# From -- ./inp_files/36925.got.cif
#   From: 2010.05.17/outbox.cif.g08.bks.cpg/sg51_19_cif.got.tgz:36925.got - 2010.06.03 11:52:47.
