data_PCOD9402661
_publ_section_title
;
Structure prediction by ZEFSAII (Michael W. Deem and Ramdas Pophale) SiO2 
 PCOD9402661
Probable space group: P M M A
;
_chemical_formula_sum "Si O2"
_cell_formula_units_Z 64
_cell_length_a 8.046205
_cell_length_b 19.964921
_cell_length_c 24.461102
_cell_angle_alpha 90.000000
_cell_angle_beta 90.000000
_cell_angle_gamma 90.000000
_cell_volume 3929.476609
_symmetry_space_group_name_H-M "P M M A"
_symmetry_group_IT_number 51
_symmetry_cell_setting 'orthorhombic'
loop_
_space_group_symop_operation_xyz
x,y,z
1/2-x,-y,z
1/2+x,-y,-z
-x,y,-z
-x,-y,-z
1/2+x,y,-z
1/2-x,y,z
x,-y,z
loop_
_atom_site_type_symbol
_atom_site_label
_atom_site_fract_x
_atom_site_fract_y
_atom_site_fract_z
Si Si1 0.052260 0.424064 0.560885
Si Si2 0.453093 0.216382 0.272152
Si Si3 0.546799 0.424254 0.775439
Si Si4 0.549727 0.073638 0.755780
Si Si5 0.052944 0.209021 0.938609
Si Si6 0.050229 0.345768 0.332903
Si Si7 0.451258 0.925694 0.882683
Si Si8 0.949934 0.705195 0.837057
O O1 0.250000 0.427715 0.561968
O O2 0.985013 0.500000 0.570184
O O3 0.000000 0.403163 0.500000
O O4 0.998436 0.374782 0.608859
O O5 0.250000 0.215579 0.272945
O O6 0.511112 0.139811 0.275544
O O7 0.507868 0.270932 0.316889
O O8 0.502947 0.246506 0.213026
O O9 0.750000 0.425158 0.775523
O O10 0.489194 0.500000 0.783844
O O11 0.494934 0.395031 0.716319
O O12 0.494256 0.369498 0.820424
O O13 0.750000 0.072553 0.751351
O O14 0.506909 0.082175 0.819830
O O15 0.486793 0.000000 0.738765
O O16 0.250000 0.203515 0.938140
O O17 0.985068 0.136871 0.917864
O O18 0.004940 0.264794 0.894321
O O19 0.000000 0.224148 0.000000
O O20 0.250000 0.344619 0.330493
O O21 0.250000 0.924998 0.883322
O O22 0.505809 0.000000 0.901332
O O23 0.750000 0.704955 0.836471
#
# Coordination Sequence:
#
# PCOD9402661 Si02
#       8
#     8   8   8   8   8   8   8   8
#     4  10  20  32  45  63  90 124 159 191 220 253
#     4   8  14  25  42  65  91 116 144 177 215 253
#     4   8  14  25  45  71  92 113 141 172 211 258
#     4   9  15  24  42  65  88 116 147 175 205 249
#     4  11  22  33  46  62  81 107 139 176 215 259
#     4   9  16  27  45  67  92 122 152 183 213 250
#     4   9  18  31  44  60  83 109 138 173 211 251
#     4   9  16  29  47  64  86 111 137 172 211 257
#
# _framework density 16.287156
#
# number of rings (size 3 to 8) (size 9 to 14) (size 15 to 20)
#    0.000    2.875    1.250    2.625    0.000    2.000 
#    0.000    3.125    0.000    1.500    0.000    0.000 
#    0.000    0.500    0.000    0.875    0.000    1.250 
#
# Total GULP energy -356533.066292 kJ/mol
# GULP energy per Si atom -5570.829161 kJ/mol
# Density = 1.625009 g / cm^3
# Si number density = 16.287156 Si / 1000 Ang^3
#
#
#
# Elastic Constant Matrix: (Units=GPa)
#
#
# Indices 1 2 3 4 5 6 
#
# 1 10.5075 15.2510 7.6101 0.0000 0.0000 0.0000
# 2 15.2510 168.2550 88.4276 0.0000 0.0000 0.0000
# 3 7.6101 88.4276 112.3598 0.0000 0.0000 0.0000
# 4 0.0000 0.0000 0.0000 -15.0156 0.0000 0.0000
# 5 0.0000 0.0000 0.0000 0.0000 17.1067 0.0000
# 6 0.0000 0.0000 0.0000 0.0000 0.0000 11.5930
#
#
#
# Elastic Compliance Matrix: (Units=1/GPa)
#
#
# Indices 1 2 3 4 5 6 
#
# 1 0.109618 -0.010290 0.000674 0.000000 0.000000 0.000000
# 2 -0.010290 0.011102 -0.008040 0.000000 0.000000 0.000000
# 3 0.000674 -0.008040 0.015182 0.000000 0.000000 0.000000
# 4 0.000000 0.000000 0.000000 -0.066597 0.000000 0.000000
# 5 0.000000 0.000000 0.000000 0.000000 0.058457 0.000000
# 6 0.000000 0.000000 0.000000 0.000000 0.000000 0.086259
#
#
# Mechanical properties :
#
#
# Convention : Reuss Voigt Hill
#
# Bulk Modulus (GPa) = 9.94146 57.07773 33.50960
# Shear Modulus (GPa) = 17.67651 14.72573 16.20112
#
# Velocity S-wave (km/s) = 3.29797 3.01014 3.15734
# Velocity P-wave (km/s) = 4.54084 6.87037 5.82328
#
# Compressibility (1/GPa) = 0.10058881
#
# Stress axis : x y z
#
# Youngs Moduli (GPa) = 9.12261 90.07725 65.86813
#
# Poissons Ratio (x) = 0.92692 -0.04440
# Poissons Ratio (y) = 0.09387 0.52958
# Poissons Ratio (z) = -0.00615 0.72422
#
# Static dielectric constant tensor:
#      x y z
#    x 1.575930 0.000000 0.000000 
#    y 0.000000 1.594220 0.000000 
#    z 0.000000 0.000000 1.587840 
# 
# From -- ./inp_files/35198.got.cif
#   From: 2010.05.17/outbox.cif.g08.bks.cpg/sg51_18_cif.got.tgz:35198.got - 2010.06.03 11:52:47.
