data_PCOD9402082
_publ_section_title
;
Structure prediction by ZEFSAII (Michael W. Deem and Ramdas Pophale) SiO2 
 PCOD9402082
Probable space group: P M M A
;
_chemical_formula_sum "Si O2"
_cell_formula_units_Z 40
_cell_length_a 8.324093
_cell_length_b 16.487719
_cell_length_c 14.195343
_cell_angle_alpha 90.000000
_cell_angle_beta 90.000000
_cell_angle_gamma 90.000000
_cell_volume 1948.244198
_symmetry_space_group_name_H-M "P M M A"
_symmetry_group_IT_number 51
_symmetry_cell_setting 'orthorhombic'
loop_
_space_group_symop_operation_xyz
x,y,z
1/2-x,-y,z
1/2+x,-y,-z
-x,y,-z
-x,-y,-z
1/2+x,y,-z
1/2-x,y,z
x,-y,z
loop_
_atom_site_type_symbol
_atom_site_label
_atom_site_fract_x
_atom_site_fract_y
_atom_site_fract_z
Si Si1 0.444804 0.000000 0.892614
Si Si2 0.057842 0.234289 0.393268
Si Si3 0.444508 0.413076 0.390860
Si Si4 0.058803 0.161664 0.787682
Si Si5 0.555505 0.500000 0.890580
Si Si6 0.442795 0.322891 0.108152
O O1 0.502192 0.918650 0.840137
O O2 0.250000 0.000000 0.890930
O O3 0.500000 0.000000 0.000000
O O4 0.250000 0.234565 0.392513
O O5 0.001561 0.324223 0.358072
O O6 0.000000 0.223103 0.500000
O O7 0.995635 0.168651 0.320131
O O8 0.500000 0.414513 0.500000
O O9 0.250000 0.413015 0.386029
O O10 0.498487 0.500000 0.349244
O O11 0.250000 0.159879 0.791011
O O12 0.001950 0.243445 0.838986
O O13 0.750000 0.500000 0.886256
O O14 0.503111 0.411630 0.852872
O O15 0.500000 0.500000 0.000000
O O16 0.250000 0.322456 0.111257
O O17 0.500000 0.318382 0.000000
#
# Coordination Sequence:
#
# PCOD9402082 Si02
#       6
#     4   8   8   8   4   8
#     4  10  24  44  67  92 119 150 185 236 298 358
#     4  10  20  36  58  84 116 156 199 244 295 346
#     4   8  14  26  46  72 103 142 187 233 279 327
#     4  11  23  40  60  86 117 151 194 243 294 353
#     4   8  16  30  50  76 111 152 191 230 278 340
#     4  10  19  34  56  84 116 153 192 235 288 346
#
# _framework density 20.531306000000001
#
# number of rings (size 3 to 8) (size 9 to 14) (size 15 to 20)
#    0.000    2.400    0.000    2.400    0.000    4.800 
#    1.800    0.500    0.000    0.000    0.000    0.000 
#    0.000    0.000    0.000    0.000    0.000    0.000 
#
# Total GULP energy -223186.682943 kJ/mol
# GULP energy per Si atom -5579.667074 kJ/mol
# Density = 2.048458 g / cm^3
# Si number density = 20.531306 Si / 1000 Ang^3
#
#
#
# Elastic Constant Matrix: (Units=GPa)
#
#
# Indices 1 2 3 4 5 6 
#
# 1 29.0589 31.4077 15.0349 0.0000 0.0000 0.0000
# 2 31.4077 185.1415 97.4140 0.0000 0.0000 0.0000
# 3 15.0349 97.4140 113.2613 0.0000 0.0000 0.0000
# 4 0.0000 0.0000 0.0000 40.7969 0.0000 0.0000
# 5 0.0000 0.0000 0.0000 0.0000 24.4341 0.0000
# 6 0.0000 0.0000 0.0000 0.0000 0.0000 21.9196
#
#
#
# Elastic Compliance Matrix: (Units=1/GPa)
#
#
# Indices 1 2 3 4 5 6 
#
# 1 0.042203 -0.007693 0.001015 0.000000 0.000000 0.000000
# 2 -0.007693 0.011268 -0.008671 0.000000 0.000000 0.000000
# 3 0.001015 -0.008671 0.016152 0.000000 0.000000 0.000000
# 4 0.000000 0.000000 0.000000 0.024512 0.000000 0.000000
# 5 0.000000 0.000000 0.000000 0.000000 0.040926 0.000000
# 6 0.000000 0.000000 0.000000 0.000000 0.000000 0.045621
#
#
# Mechanical properties :
#
#
# Convention : Reuss Voigt Hill
#
# Bulk Modulus (GPa) = 25.69050 68.35276 47.02163
# Shear Modulus (GPa) = 22.28602 29.67048 25.97825
#
# Velocity S-wave (km/s) = 3.29821 3.80562 3.56096
# Velocity P-wave (km/s) = 5.20041 7.25772 6.31343
#
# Compressibility (1/GPa) = 0.03892489
#
# Stress axis : x y z
#
# Youngs Moduli (GPa) = 23.69499 88.74322 61.91237
#
# Poissons Ratio (x) = 0.68272 -0.06281
# Poissons Ratio (y) = 0.18229 0.53682
# Poissons Ratio (z) = -0.02404 0.76945
#
# Static dielectric constant tensor:
#      x y z
#    x 1.730960 0.000000 0.000000 
#    y 0.000000 1.769190 0.000000 
#    z 0.000000 0.000000 1.996880 
# 
# From -- ./inp_files/20566.got.cif
#   From: 2010.05.17/outbox.cif.g08.bks.cpg/sg51_11_cif.got.tgz:20566.got - 2010.06.03 11:52:47.
