data_PCOD9402472
_publ_section_title
;
Structure prediction by ZEFSAII (Michael W. Deem and Ramdas Pophale) SiO2 
 PCOD9402472
Probable space group: P M M A
;
_chemical_formula_sum "Si O2"
_cell_formula_units_Z 40
_cell_length_a 23.698178
_cell_length_b 8.371312
_cell_length_c 10.568300
_cell_angle_alpha 90.000000
_cell_angle_beta 90.000000
_cell_angle_gamma 90.000000
_cell_volume 2096.590524
_symmetry_space_group_name_H-M "P M M A"
_symmetry_group_IT_number 51
_symmetry_cell_setting 'orthorhombic'
loop_
_space_group_symop_operation_xyz
x,y,z
1/2-x,-y,z
1/2+x,-y,-z
-x,y,-z
-x,-y,-z
1/2+x,y,-z
1/2-x,y,z
x,-y,z
loop_
_atom_site_type_symbol
_atom_site_label
_atom_site_fract_x
_atom_site_fract_y
_atom_site_fract_z
Si Si1 0.869307 0.689655 0.997591
Si Si2 0.250000 0.808515 0.101097
Si Si3 0.750000 0.194924 0.605006
Si Si4 0.127777 0.804849 0.484116
Si Si5 0.573152 0.806844 0.252396
Si Si6 0.556753 0.806532 0.762295
O O1 0.869287 0.500000 0.999778
O O2 0.806670 0.750215 0.965915
O O3 0.910587 0.748201 0.885867
O O4 0.891852 0.753600 0.130888
O O5 0.250000 0.754702 0.248055
O O6 0.250000 0.000000 0.101880
O O7 0.692219 0.246895 0.538418
O O8 0.750000 0.000000 0.604828
O O9 0.101206 0.751507 0.616423
O O10 0.090058 0.755633 0.364018
O O11 0.127614 0.000000 0.484862
O O12 0.508160 0.753057 0.241355
O O13 0.572360 0.000000 0.255067
O O14 0.557301 0.000000 0.764545
#
# Coordination Sequence:
#
# PCOD9402472 Si02
#       6
#     8   4   4   8   8   8
#     4  12  25  39  57  85 122 158 193 239 292 347
#     4  11  21  40  67  88 110 146 195 245 290 347
#     4   9  16  30  59  90 112 136 181 241 296 345
#     4   9  17  32  57  90 118 145 191 252 301 338
#     4  10  21  36  58  88 121 156 197 244 293 344
#     4  10  19  36  61  87 116 155 203 247 287 340
#
# _framework density 19.078593999999999
#
# number of rings (size 3 to 8) (size 9 to 14) (size 15 to 20)
#    0.000    1.800    2.000    3.300    0.000    6.400 
#    0.000    3.000    0.000    2.400    0.000    0.000 
#    0.000    0.000    0.000    0.000    0.000    0.000 
#
# Total GULP energy -223495.452227 kJ/mol
# GULP energy per Si atom -5587.386306 kJ/mol
# Density = 1.903517 g / cm^3
# Si number density = 19.078594 Si / 1000 Ang^3
#
#
#
# Elastic Constant Matrix: (Units=GPa)
#
#
# Indices 1 2 3 4 5 6 
#
# 1 130.3471 11.1128 34.5139 0.0000 0.0000 0.0000
# 2 11.1128 16.1598 6.9559 0.0000 0.0000 0.0000
# 3 34.5139 6.9559 110.4361 0.0000 0.0000 0.0000
# 4 0.0000 0.0000 0.0000 -21.9950 0.0000 0.0000
# 5 0.0000 0.0000 0.0000 0.0000 9.7997 0.0000
# 6 0.0000 0.0000 0.0000 0.0000 0.0000 3.5504
#
#
#
# Elastic Compliance Matrix: (Units=1/GPa)
#
#
# Indices 1 2 3 4 5 6 
#
# 1 0.008735 -0.004967 -0.002417 0.000000 0.000000 0.000000
# 2 -0.004967 0.066430 -0.002632 0.000000 0.000000 0.000000
# 3 -0.002417 -0.002632 0.009976 0.000000 0.000000 0.000000
# 4 0.000000 0.000000 0.000000 -0.045465 0.000000 0.000000
# 5 0.000000 0.000000 0.000000 0.000000 0.102044 0.000000
# 6 0.000000 0.000000 0.000000 0.000000 0.000000 0.281655
#
#
# Mechanical properties :
#
#
# Convention : Reuss Voigt Hill
#
# Bulk Modulus (GPa) = 15.35857 40.23424 27.79640
# Shear Modulus (GPa) = 10.75013 11.89507 11.32260
#
# Velocity S-wave (km/s) = 2.37632 2.49966 2.43877
# Velocity P-wave (km/s) = 3.94928 5.42822 4.74670
#
# Compressibility (1/GPa) = 0.06511022
#
# Stress axis : x y z
#
# Youngs Moduli (GPa) = 114.47823 15.05339 100.23855
#
# Poissons Ratio (x) = 0.07476 0.24229
# Poissons Ratio (y) = 0.56857 0.26382
# Poissons Ratio (z) = 0.27671 0.03962
#
# Static dielectric constant tensor:
#      x y z
#    x 1.627110 0.000000 0.000000 
#    y 0.000000 1.651510 0.000000 
#    z 0.000000 0.000000 1.628510 
# 
# From -- ./inp_files/18006.got.cif
#   From: 2010.05.17/outbox.cif.g08.bks.cpg/sg51_10_cif.got.tgz:18006.got - 2010.06.03 11:52:47.
