data_PCOD9402621
_publ_section_title
;
Structure prediction by ZEFSAII (Michael W. Deem and Ramdas Pophale) SiO2 
 PCOD9402621
Probable space group: P M M A
;
_chemical_formula_sum "Si O2"
_cell_formula_units_Z 52
_cell_length_a 8.971594
_cell_length_b 8.257229
_cell_length_c 37.305456
_cell_angle_alpha 90.000000
_cell_angle_beta 90.000000
_cell_angle_gamma 90.000000
_cell_volume 2763.607063
_symmetry_space_group_name_H-M "P M M A"
_symmetry_group_IT_number 51
_symmetry_cell_setting 'orthorhombic'
loop_
_space_group_symop_operation_xyz
x,y,z
1/2-x,-y,z
1/2+x,-y,-z
-x,y,-z
-x,-y,-z
1/2+x,y,-z
1/2-x,y,z
x,-y,z
loop_
_atom_site_type_symbol
_atom_site_label
_atom_site_fract_x
_atom_site_fract_y
_atom_site_fract_z
Si Si1 0.567926 0.687596 0.913574
Si Si2 0.920005 0.692964 0.312883
Si Si3 0.079431 0.192968 0.241261
Si Si4 0.079192 0.305795 0.166137
Si Si5 0.922514 0.807253 0.388262
Si Si6 0.078744 0.304769 0.536172
Si Si7 0.930558 0.000000 0.960690
O O1 0.750000 0.684476 0.912405
O O2 0.523061 0.500000 0.922223
O O3 0.515008 0.730425 0.873134
O O4 0.525171 0.833887 0.939928
O O5 0.750000 0.757061 0.311500
O O6 0.915904 0.500000 0.314140
O O7 0.989797 0.752387 0.350417
O O8 0.000041 0.745696 0.276765
O O9 0.250000 0.255833 0.241728
O O10 0.009320 0.244976 0.203140
O O11 0.082479 0.000000 0.242188
O O12 0.250000 0.241075 0.165853
O O13 0.085622 0.500000 0.167953
O O14 0.750000 0.744103 0.387992
O O15 0.989790 0.747606 0.425761
O O16 0.918914 0.000000 0.388864
O O17 0.250000 0.247299 0.535473
O O18 0.078842 0.500000 0.535552
O O19 0.000000 0.246963 0.500000
O O20 0.750000 0.000000 0.962627
O O21 0.000000 0.000000 0.000000
#
# Coordination Sequence:
#
# PCOD9402621 Si02
#       7
#     8   8   8   8   8   8   4
#     4   8  15  28  47  72  99 128 165 207 248 293
#     4  10  20  34  52  71  93 127 169 205 237 282
#     4  10  20  31  47  74 104 130 157 196 248 297
#     4   8  14  26  45  69  96 125 159 200 242 283
#     4   9  17  30  49  70  91 119 156 196 234 276
#     4   9  17  30  48  69  92 117 148 186 228 277
#     4  10  20  32  50  74 100 130 166 208 250 298
#
# _framework density 18.815988000000001
#
# number of rings (size 3 to 8) (size 9 to 14) (size 15 to 20)
#    0.000    2.923    0.000    2.308    1.077    4.308 
#    0.000    0.769    0.000    3.692    0.000    2.154 
#    0.000    0.000    0.000    0.000    0.000    0.000 
#
# Total GULP energy -289519.276751 kJ/mol
# GULP energy per Si atom -5567.678399 kJ/mol
# Density = 1.877316 g / cm^3
# Si number density = 18.815988 Si / 1000 Ang^3
#
#
#
# Elastic Constant Matrix: (Units=GPa)
#
#
# Indices 1 2 3 4 5 6 
#
# 1 9.8164 11.8095 32.1465 0.0000 0.0000 0.0000
# 2 11.8095 58.8202 73.7105 0.0000 0.0000 0.0000
# 3 32.1465 73.7105 219.7542 0.0000 0.0000 0.0000
# 4 0.0000 0.0000 0.0000 55.0847 0.0000 0.0000
# 5 0.0000 0.0000 0.0000 0.0000 24.7912 0.0000
# 6 0.0000 0.0000 0.0000 0.0000 0.0000 11.0879
#
#
#
# Elastic Compliance Matrix: (Units=1/GPa)
#
#
# Indices 1 2 3 4 5 6 
#
# 1 0.196734 -0.005925 -0.026792 0.000000 0.000000 0.000000
# 2 -0.005925 0.029507 -0.009031 0.000000 0.000000 0.000000
# 3 -0.026792 -0.009031 0.011499 0.000000 0.000000 0.000000
# 4 0.000000 0.000000 0.000000 0.018154 0.000000 0.000000
# 5 0.000000 0.000000 0.000000 0.000000 0.040337 0.000000
# 6 0.000000 0.000000 0.000000 0.000000 0.000000 0.090188
#
#
# Mechanical properties :
#
#
# Convention : Reuss Voigt Hill
#
# Bulk Modulus (GPa) = 6.48317 58.19155 32.33736
# Shear Modulus (GPa) = 9.59086 29.57439 19.58263
#
# Velocity S-wave (km/s) = 2.26014 3.96886 3.22956
# Velocity P-wave (km/s) = 3.20376 7.21084 5.57944
#
# Compressibility (1/GPa) = 0.15424561
#
# Stress axis : x y z
#
# Youngs Moduli (GPa) = 5.08300 33.88990 86.96553
#
# Poissons Ratio (x) = 0.20080 2.32995
# Poissons Ratio (y) = 0.03012 0.78536
# Poissons Ratio (z) = 0.13618 0.30605
#
# Static dielectric constant tensor:
#      x y z
#    x 1.684330 0.000000 0.000000 
#    y 0.000000 1.641580 0.000000 
#    z 0.000000 0.000000 1.687690 
# 
# From -- ./inp_files/36558.got.cif
#   From: 2010.05.17/outbox.cif.g08.bks.cpg/sg51_19_cif.got.tgz:36558.got - 2010.06.03 11:52:47.
