data_PCOD9402892
_publ_section_title
;
Structure prediction by ZEFSAII (Michael W. Deem and Ramdas Pophale) SiO2 
 PCOD9402892
Probable space group: P M M A
;
_chemical_formula_sum "Si O2"
_cell_formula_units_Z 40
_cell_length_a 13.525753
_cell_length_b 8.324053
_cell_length_c 15.413547
_cell_angle_alpha 90.000000
_cell_angle_beta 90.000000
_cell_angle_gamma 90.000000
_cell_volume 1735.397151
_symmetry_space_group_name_H-M "P M M A"
_symmetry_group_IT_number 51
_symmetry_cell_setting 'orthorhombic'
loop_
_space_group_symop_operation_xyz
x,y,z
1/2-x,-y,z
1/2+x,-y,-z
-x,y,-z
-x,-y,-z
1/2+x,y,-z
1/2-x,y,z
x,-y,z
loop_
_atom_site_type_symbol
_atom_site_label
_atom_site_fract_x
_atom_site_fract_y
_atom_site_fract_z
Si Si1 0.428277 0.685029 0.387649
Si Si2 0.643397 0.312244 0.168445
Si Si3 0.138810 0.811758 0.566339
Si Si4 0.883621 0.185208 0.984253
Si Si5 0.074760 0.809762 0.203860
O O1 0.410196 0.500000 0.408878
O O2 0.546606 0.719011 0.391599
O O3 0.379364 0.790547 0.463090
O O4 0.391791 0.726467 0.291854
O O5 0.750000 0.253580 0.203629
O O6 0.632021 0.500000 0.189968
O O7 0.543617 0.221643 0.195145
O O8 0.650463 0.291112 0.064290
O O9 0.250000 0.755606 0.586838
O O10 0.130452 0.000000 0.588766
O O11 0.873229 0.244781 0.885630
O O12 0.849800 0.000000 0.991325
O O13 0.000000 0.177324 0.000000
O O14 0.090337 0.000000 0.210096
#
# Coordination Sequence:
#
# PCOD9402892 Si02
#       5
#     8   8   8   8   8
#     4  11  22  36  58  86 115 145 179 226 279 329
#     4  10  20  32  48  74 106 137 172 217 268 319
#     4  10  21  39  62  84 110 146 184 222 268 328
#     4   8  16  31  50  70  93 128 170 208 249 300
#     4  10  20  35  54  75 102 137 178 220 262 315
#
# _framework density 23.049479999999999
#
# number of rings (size 3 to 8) (size 9 to 14) (size 15 to 20)
#    0.000    2.200    0.000    6.000    0.000    8.400 
#    0.000    1.000    0.000    1.200    0.000    0.000 
#    0.000    0.000    0.000    0.000    0.000    0.000 
#
# Total GULP energy -223403.510258 kJ/mol
# GULP energy per Si atom -5585.087756 kJ/mol
# Density = 2.299702 g / cm^3
# Si number density = 23.049480 Si / 1000 Ang^3
#
#
#
# Elastic Constant Matrix: (Units=GPa)
#
#
# Indices 1 2 3 4 5 6 
#
# 1 77.8286 -7.8219 -18.2193 0.0000 0.0000 0.0000
# 2 -7.8219 40.3526 -8.9902 0.0000 0.0000 0.0000
# 3 -18.2193 -8.9902 116.6987 0.0000 0.0000 0.0000
# 4 0.0000 0.0000 0.0000 16.8294 0.0000 0.0000
# 5 0.0000 0.0000 0.0000 0.0000 -27.4759 0.0000
# 6 0.0000 0.0000 0.0000 0.0000 0.0000 3.5129
#
#
#
# Elastic Compliance Matrix: (Units=1/GPa)
#
#
# Indices 1 2 3 4 5 6 
#
# 1 0.013729 0.003194 0.002389 0.000000 0.000000 0.000000
# 2 0.003194 0.025957 0.002498 0.000000 0.000000 0.000000
# 3 0.002389 0.002498 0.009135 0.000000 0.000000 0.000000
# 4 0.000000 0.000000 0.000000 0.059420 0.000000 0.000000
# 5 0.000000 0.000000 0.000000 0.000000 -0.036396 0.000000
# 6 0.000000 0.000000 0.000000 0.000000 0.000000 0.284668
#
#
# Mechanical properties :
#
#
# Convention : Reuss Voigt Hill
#
# Bulk Modulus (GPa) = 15.38854 18.31301 16.85077
# Shear Modulus (GPa) = 13.81171 16.56738 15.18954
#
# Velocity S-wave (km/s) = 2.45055 2.68391 2.56988
# Velocity P-wave (km/s) = 3.83376 4.19128 4.01650
#
# Compressibility (1/GPa) = 0.06498342
#
# Stress axis : x y z
#
# Youngs Moduli (GPa) = 72.83821 38.52497 109.47406
#
# Poissons Ratio (x) = -0.12303 -0.26158
# Poissons Ratio (y) = -0.23261 -0.27350
# Poissons Ratio (z) = -0.17404 -0.09625
#
# Static dielectric constant tensor:
#      x y z
#    x 1.898000 0.000000 0.000000 
#    y 0.000000 1.775660 0.000000 
#    z 0.000000 0.000000 1.901730 
# 
# From -- ./inp_files/23721.got.cif
#   From: 2010.05.17/outbox.cif.g08.bks.cpg/sg51_12_cif.got.tgz:23721.got - 2010.06.03 11:52:47.
