data_PCOD9402839
_publ_section_title
;
Structure prediction by ZEFSAII (Michael W. Deem and Ramdas Pophale) SiO2 
 PCOD9402839
Probable space group: P M M A
;
_chemical_formula_sum "Si O2"
_cell_formula_units_Z 64
_cell_length_a 30.733661
_cell_length_b 8.336059
_cell_length_c 15.422226
_cell_angle_alpha 90.000000
_cell_angle_beta 90.000000
_cell_angle_gamma 90.000000
_cell_volume 3951.137463
_symmetry_space_group_name_H-M "P M M A"
_symmetry_group_IT_number 51
_symmetry_cell_setting 'orthorhombic'
loop_
_space_group_symop_operation_xyz
x,y,z
1/2-x,-y,z
1/2+x,-y,-z
-x,y,-z
-x,-y,-z
1/2+x,y,-z
1/2-x,y,z
x,-y,z
loop_
_atom_site_type_symbol
_atom_site_label
_atom_site_fract_x
_atom_site_fract_y
_atom_site_fract_z
Si Si1 0.881719 0.690974 0.206978
Si Si2 0.392322 0.693883 0.461284
Si Si3 0.798870 0.810699 0.301623
Si Si4 0.538775 0.192122 0.676901
Si Si5 0.798351 0.690934 0.495281
Si Si6 0.969921 0.195216 0.873216
Si Si7 0.435615 0.193587 0.947001
Si Si8 0.556889 0.306057 0.364945
O O1 0.879248 0.500000 0.213871
O O2 0.835823 0.762966 0.234760
O O3 0.897523 0.739318 0.112041
O O4 0.917296 0.747270 0.278599
O O5 0.391015 0.500000 0.464232
O O6 0.421800 0.745575 0.381147
O O7 0.342322 0.753284 0.459657
O O8 0.416450 0.747069 0.550028
O O9 0.750000 0.774296 0.270550
O O10 0.805226 0.719855 0.392671
O O11 0.801498 0.000000 0.319962
O O12 0.540672 0.251396 0.776676
O O13 0.492384 0.245132 0.637659
O O14 0.539947 0.000000 0.677828
O O15 0.750000 0.757023 0.517194
O O16 0.796700 0.500000 0.510332
O O17 0.018769 0.242070 0.901430
O O18 0.969441 0.000000 0.872019
O O19 0.938907 0.245418 0.952696
O O20 0.433840 0.000000 0.945384
O O21 0.555668 0.500000 0.365456
#
# Coordination Sequence:
#
# PCOD9402839 Si02
#       8
#     8   8   8   8   8   8   8   8
#     4  11  20  31  48  72  98 127 160 195 237 283
#     4  10  20  34  47  65  94 130 161 192 238 286
#     4  10  20  32  48  71  97 125 158 196 237 282
#     4  11  21  32  47  69  93 125 166 204 234 273
#     4   9  17  32  52  70  91 122 159 196 237 284
#     4   8  16  30  48  68  92 121 156 195 241 281
#     4   9  16  31  51  68  90 123 156 193 237 285
#     4  10  20  33  45  63  95 133 163 190 230 280
#
# _framework density 16.197868
#
# number of rings (size 3 to 8) (size 9 to 14) (size 15 to 20)
#    0.000    2.250    2.500    2.250    0.000    3.750 
#    0.000    2.500    0.000    0.000    0.000    0.875 
#    0.000    5.000    0.000    0.000    0.000    0.000 
#
# Total GULP energy -356862.567588 kJ/mol
# GULP energy per Si atom -5575.977619 kJ/mol
# Density = 1.616100 g / cm^3
# Si number density = 16.197868 Si / 1000 Ang^3
#
#
#
# Elastic Constant Matrix: (Units=GPa)
#
#
# Indices 1 2 3 4 5 6 
#
# 1 135.0990 11.7296 57.1521 0.0000 0.0000 0.0000
# 2 11.7296 5.7631 6.6783 0.0000 0.0000 0.0000
# 3 57.1521 6.6783 84.2148 0.0000 0.0000 0.0000
# 4 0.0000 0.0000 0.0000 -32.8722 0.0000 0.0000
# 5 0.0000 0.0000 0.0000 0.0000 19.2985 0.0000
# 6 0.0000 0.0000 0.0000 0.0000 0.0000 17.0858
#
#
#
# Elastic Compliance Matrix: (Units=1/GPa)
#
#
# Indices 1 2 3 4 5 6 
#
# 1 0.011572 -0.015915 -0.006591 0.000000 0.000000 0.000000
# 2 -0.015915 0.212962 -0.006088 0.000000 0.000000 0.000000
# 3 -0.006591 -0.006088 0.016830 0.000000 0.000000 0.000000
# 4 0.000000 0.000000 0.000000 -0.030421 0.000000 0.000000
# 5 0.000000 0.000000 0.000000 0.000000 0.051818 0.000000
# 6 0.000000 0.000000 0.000000 0.000000 0.000000 0.058528
#
#
# Mechanical properties :
#
#
# Convention : Reuss Voigt Hill
#
# Bulk Modulus (GPa) = 5.42955 41.79966 23.61461
# Shear Modulus (GPa) = 11.36703 10.67021 11.01862
#
# Velocity S-wave (km/s) = 2.65195 2.56938 2.61099
# Velocity P-wave (km/s) = 3.56881 5.88761 4.86828
#
# Compressibility (1/GPa) = 0.18417716
#
# Stress axis : x y z
#
# Youngs Moduli (GPa) = 86.41465 4.69568 59.41647
#
# Poissons Ratio (x) = 0.07473 0.39163
# Poissons Ratio (y) = 1.37525 0.36171
# Poissons Ratio (z) = 0.56959 0.02859
#
# Static dielectric constant tensor:
#      x y z
#    x 1.547860 0.000000 0.000000 
#    y 0.000000 1.563270 0.000000 
#    z 0.000000 0.000000 1.536180 
# 
# From -- ./inp_files/26722.got.cif
#   From: 2010.05.17/outbox.cif.g08.bks.cpg/sg51_14_cif.got.tgz:26722.got - 2010.06.03 11:52:47.
