data_PCOD9402352
_publ_section_title
;
Structure prediction by ZEFSAII (Michael W. Deem and Ramdas Pophale) SiO2 
 PCOD9402352
Probable space group: P M M A
;
_chemical_formula_sum "Si O2"
_cell_formula_units_Z 48
_cell_length_a 15.109174
_cell_length_b 17.938579
_cell_length_c 9.681367
_cell_angle_alpha 90.000000
_cell_angle_beta 90.000000
_cell_angle_gamma 90.000000
_cell_volume 2624.009746
_symmetry_space_group_name_H-M "P M M A"
_symmetry_group_IT_number 51
_symmetry_cell_setting 'orthorhombic'
loop_
_space_group_symop_operation_xyz
x,y,z
1/2-x,-y,z
1/2+x,-y,-z
-x,y,-z
-x,-y,-z
1/2+x,y,-z
1/2-x,y,z
x,-y,z
loop_
_atom_site_type_symbol
_atom_site_label
_atom_site_fract_x
_atom_site_fract_y
_atom_site_fract_z
Si Si1 0.490308 0.589268 0.658658
Si Si2 0.062784 0.155428 0.872024
Si Si3 0.846187 0.414684 0.853064
Si Si4 0.250000 0.910803 0.787256
Si Si5 0.914258 0.331083 0.094258
Si Si6 0.056764 0.913768 0.359776
Si Si7 0.750000 0.090586 0.534710
O O1 0.500000 0.613699 0.500000
O O2 0.475517 0.500000 0.659267
O O3 0.581556 0.605764 0.739235
O O4 0.419045 0.629154 0.757486
O O5 0.158087 0.115701 0.856622
O O6 0.084101 0.242953 0.885141
O O7 0.000091 0.136664 0.742596
O O8 0.000000 0.132918 0.000000
O O9 0.750000 0.413609 0.786248
O O10 0.865773 0.500000 0.898393
O O11 0.843798 0.363241 0.987985
O O12 0.250000 0.885114 0.625972
O O13 0.250000 0.000000 0.786859
O O14 0.000000 0.351024 0.000000
O O15 0.157477 0.888141 0.391673
O O16 0.000000 0.915528 0.500000
O O17 0.060487 0.000000 0.308207
O O18 0.750000 0.000000 0.532247
#
# Coordination Sequence:
#
# PCOD9402352 Si02
#       7
#     8   8   8   4   8   8   4
#     4   9  17  32  55  80 109 145 184 227 276 329
#     4  11  24  38  57  85 117 152 184 238 296 344
#     4   9  17  31  55  82 108 145 190 230 268 321
#     4  11  22  39  61  83 112 150 191 235 291 348
#     4   9  19  35  53  75 108 149 186 224 269 335
#     4  10  19  35  59  83 110 146 193 238 283 345
#     4   9  18  35  61  87 107 144 191 237 284 336
#
# _framework density 18.292615000000001
#
# number of rings (size 3 to 8) (size 9 to 14) (size 15 to 20)
#    0.000    2.333    1.667    1.000    1.167    4.667 
#    0.000    1.667    1.833    3.000    0.000    0.000 
#    0.000    0.000    0.000    0.000    0.000    0.000 
#
# Total GULP energy -267219.299791 kJ/mol
# GULP energy per Si atom -5567.068746 kJ/mol
# Density = 1.825098 g / cm^3
# Si number density = 18.292615 Si / 1000 Ang^3
#
#
#
# Elastic Constant Matrix: (Units=GPa)
#
#
# Indices 1 2 3 4 5 6 
#
# 1 137.1097 32.8149 47.1120 0.0000 0.0000 0.0000
# 2 32.8149 31.5145 51.4325 0.0000 0.0000 0.0000
# 3 47.1120 51.4325 122.2015 0.0000 0.0000 0.0000
# 4 0.0000 0.0000 0.0000 12.7083 0.0000 0.0000
# 5 0.0000 0.0000 0.0000 0.0000 23.8674 0.0000
# 6 0.0000 0.0000 0.0000 0.0000 0.0000 34.0544
#
#
#
# Elastic Compliance Matrix: (Units=1/GPa)
#
#
# Indices 1 2 3 4 5 6 
#
# 1 0.009818 -0.012921 0.001653 0.000000 0.000000 0.000000
# 2 -0.012921 0.118348 -0.044829 0.000000 0.000000 0.000000
# 3 0.001653 -0.044829 0.026414 0.000000 0.000000 0.000000
# 4 0.000000 0.000000 0.000000 0.078689 0.000000 0.000000
# 5 0.000000 0.000000 0.000000 0.000000 0.041898 0.000000
# 6 0.000000 0.000000 0.000000 0.000000 0.000000 0.029365
#
#
# Mechanical properties :
#
#
# Convention : Reuss Voigt Hill
#
# Bulk Modulus (GPa) = 23.59295 61.50495 42.54895
# Shear Modulus (GPa) = 11.60484 24.75710 18.18097
#
# Velocity S-wave (km/s) = 2.52146 3.68284 3.15603
# Velocity P-wave (km/s) = 4.62629 7.19585 6.04908
#
# Compressibility (1/GPa) = 0.04238555
#
# Stress axis : x y z
#
# Youngs Moduli (GPa) = 101.85580 8.44963 37.85902
#
# Poissons Ratio (x) = 0.10918 -0.06259
# Poissons Ratio (y) = 1.31608 1.69720
# Poissons Ratio (z) = -0.16839 0.37879
#
# Static dielectric constant tensor:
#      x y z
#    x 1.708230 0.000000 0.000000 
#    y 0.000000 1.631350 0.000000 
#    z 0.000000 0.000000 1.645080 
# 
# From -- ./inp_files/8333.got.cif
#   From: 2010.05.17/outbox.cif.g08.bks.cpg/sg51_5_cif.got.tgz:8333.got - 2010.06.03 11:52:47.
