data_PCOD9402287
_publ_section_title
;
Structure prediction by ZEFSAII (Michael W. Deem and Ramdas Pophale) SiO2 
 PCOD9402287
Probable space group: P M M A
;
_chemical_formula_sum "Si O2"
_cell_formula_units_Z 40
_cell_length_a 26.488106
_cell_length_b 8.385836
_cell_length_c 9.793324
_cell_angle_alpha 90.000000
_cell_angle_beta 90.000000
_cell_angle_gamma 90.000000
_cell_volume 2175.341240
_symmetry_space_group_name_H-M "P M M A"
_symmetry_group_IT_number 51
_symmetry_cell_setting 'orthorhombic'
loop_
_space_group_symop_operation_xyz
x,y,z
1/2-x,-y,z
1/2+x,-y,-z
-x,y,-z
-x,-y,-z
1/2+x,y,-z
1/2-x,y,z
x,-y,z
loop_
_atom_site_type_symbol
_atom_site_label
_atom_site_fract_x
_atom_site_fract_y
_atom_site_fract_z
Si Si1 0.045528 0.805783 0.093665
Si Si2 0.750000 0.690513 0.091102
Si Si3 0.453203 0.192801 0.408510
Si Si4 0.750000 0.694892 0.404624
Si Si5 0.158936 0.191064 0.094698
Si Si6 0.157906 0.690805 0.404238
O O1 0.037912 0.760638 0.251223
O O2 0.102206 0.754956 0.054582
O O3 0.045148 0.000000 0.088065
O O4 0.000000 0.747171 0.000000
O O5 0.750000 0.500000 0.095059
O O6 0.750000 0.749724 0.247724
O O7 0.701084 0.745641 0.007094
O O8 0.500000 0.246946 0.500000
O O9 0.398141 0.256440 0.448095
O O10 0.451003 0.000000 0.414386
O O11 0.750000 0.500000 0.402743
O O12 0.799413 0.745459 0.489553
O O13 0.167677 0.244233 0.251390
O O14 0.159944 0.000000 0.092656
O O15 0.159725 0.500000 0.396877
#
# Coordination Sequence:
#
# PCOD9402287 Si02
#       6
#     8   4   8   4   8   8
#     4   8  15  29  49  72  99 131 165 204 252 304
#     4  11  22  37  54  74 104 137 170 213 264 310
#     4   9  18  32  50  74 104 136 172 216 263 307
#     4   9  21  37  52  74 104 137 172 213 260 310
#     4  10  20  35  55  80 106 134 174 217 258 311
#     4  10  19  35  57  77 102 141 182 215 257 313
#
# _framework density 18.387919
#
# number of rings (size 3 to 8) (size 9 to 14) (size 15 to 20)
#    0.000    2.600    0.000    3.300    0.000    2.800 
#    0.000    7.500    0.000   15.000    0.000    0.000 
#    0.000    0.000    0.000    0.000    0.000    0.000 
#
# Total GULP energy -223135.468712 kJ/mol
# GULP energy per Si atom -5578.386718 kJ/mol
# Density = 1.834607 g / cm^3
# Si number density = 18.387919 Si / 1000 Ang^3
#
#
#
# Elastic Constant Matrix: (Units=GPa)
#
#
# Indices 1 2 3 4 5 6 
#
# 1 213.7165 29.9056 140.0470 0.0000 0.0000 0.0000
# 2 29.9056 30.2243 24.5372 0.0000 0.0000 0.0000
# 3 140.0470 24.5372 127.2447 0.0000 0.0000 0.0000
# 4 0.0000 0.0000 0.0000 19.2890 0.0000 0.0000
# 5 0.0000 0.0000 0.0000 0.0000 39.4644 0.0000
# 6 0.0000 0.0000 0.0000 0.0000 0.0000 19.1789
#
#
#
# Elastic Compliance Matrix: (Units=1/GPa)
#
#
# Indices 1 2 3 4 5 6 
#
# 1 0.016878 -0.001920 -0.018206 0.000000 0.000000 0.000000
# 2 -0.001920 0.039445 -0.005493 0.000000 0.000000 0.000000
# 3 -0.018206 -0.005493 0.028956 0.000000 0.000000 0.000000
# 4 0.000000 0.000000 0.000000 0.051843 0.000000 0.000000
# 5 0.000000 0.000000 0.000000 0.000000 0.025339 0.000000
# 6 0.000000 0.000000 0.000000 0.000000 0.000000 0.052141
#
#
# Mechanical properties :
#
#
# Convention : Reuss Voigt Hill
#
# Bulk Modulus (GPa) = 29.37652 84.46278 56.91965
# Shear Modulus (GPa) = 18.03841 27.36618 22.70229
#
# Velocity S-wave (km/s) = 3.13548 3.86199 3.51754
# Velocity P-wave (km/s) = 5.39620 8.11913 6.89345
#
# Compressibility (1/GPa) = 0.03404079
#
# Stress axis : x y z
#
# Youngs Moduli (GPa) = 59.24941 25.35155 34.53565
#
# Poissons Ratio (x) = 0.04867 0.62875
# Poissons Ratio (y) = 0.11375 0.18972
# Poissons Ratio (z) = 1.07868 0.13927
#
# Static dielectric constant tensor:
#      x y z
#    x 1.634340 0.000000 0.000000 
#    y 0.000000 1.634020 0.000000 
#    z 0.000000 0.000000 1.611370 
# 
# From -- ./inp_files/12136.got.cif
#   From: 2010.05.17/outbox.cif.g08.bks.cpg/sg51_7_cif.got.tgz:12136.got - 2010.06.03 11:52:47.
