data_PCOD9402459
_publ_section_title
;
Structure prediction by ZEFSAII (Michael W. Deem and Ramdas Pophale) SiO2 
 PCOD9402459
Probable space group: P M M A
;
_chemical_formula_sum "Si O2"
_cell_formula_units_Z 40
_cell_length_a 26.337373
_cell_length_b 8.513306
_cell_length_c 9.374262
_cell_angle_alpha 90.000000
_cell_angle_beta 90.000000
_cell_angle_gamma 90.000000
_cell_volume 2101.879361
_symmetry_space_group_name_H-M "P M M A"
_symmetry_group_IT_number 51
_symmetry_cell_setting 'orthorhombic'
loop_
_space_group_symop_operation_xyz
x,y,z
1/2-x,-y,z
1/2+x,-y,-z
-x,y,-z
-x,-y,-z
1/2+x,y,-z
1/2-x,y,z
x,-y,z
loop_
_atom_site_type_symbol
_atom_site_label
_atom_site_fract_x
_atom_site_fract_y
_atom_site_fract_z
Si Si1 0.946725 0.688742 0.335684
Si Si2 0.750000 0.187197 0.662359
Si Si3 0.750000 0.690619 0.340036
Si Si4 0.152237 0.689034 0.168780
Si Si5 0.057351 0.187135 0.344291
Si Si6 0.348357 0.691277 0.840101
O O1 0.950595 0.500000 0.331941
O O2 0.935250 0.740643 0.497782
O O3 0.900931 0.740225 0.233633
O O4 0.001188 0.760379 0.296071
O O5 0.750000 0.245335 0.499587
O O6 0.700276 0.250604 0.742625
O O7 0.750000 0.000000 0.665432
O O8 0.750000 0.500000 0.346565
O O9 0.699850 0.741112 0.253736
O O10 0.152119 0.500000 0.172219
O O11 0.100900 0.750793 0.240754
O O12 0.155752 0.741231 0.004063
O O13 0.059384 0.000000 0.355000
O O14 0.348072 0.500000 0.839848
#
# Coordination Sequence:
#
# PCOD9402459 Si02
#       6
#     8   4   4   8   8   8
#     4  10  19  36  60  86 113 152 199 242 284 338
#     4  12  25  40  58  88 120 150 187 232 282 342
#     4  10  19  38  64  88 112 148 191 236 286 340
#     4  11  22  40  62  85 113 151 191 235 284 339
#     4  11  22  37  56  85 119 153 191 238 287 340
#     4   9  20  36  60  88 113 143 193 245 284 330
#
# _framework density 19.030586
#
# number of rings (size 3 to 8) (size 9 to 14) (size 15 to 20)
#    0.000    1.600    0.000    6.900    0.000    4.000 
#    0.000   12.000    0.000    0.000    0.000    0.000 
#    0.000    0.000    0.000    0.000    0.000    0.000 
#
# Total GULP energy -223618.508053 kJ/mol
# GULP energy per Si atom -5590.462701 kJ/mol
# Density = 1.898727 g / cm^3
# Si number density = 19.030586 Si / 1000 Ang^3
#
#
#
# Elastic Constant Matrix: (Units=GPa)
#
#
# Indices 1 2 3 4 5 6 
#
# 1 162.9986 16.8784 119.5202 0.0000 0.0000 0.0000
# 2 16.8784 54.0287 19.4896 0.0000 0.0000 0.0000
# 3 119.5202 19.4896 156.8375 0.0000 0.0000 0.0000
# 4 0.0000 0.0000 0.0000 -24.7668 0.0000 0.0000
# 5 0.0000 0.0000 0.0000 0.0000 403.1825 0.0000
# 6 0.0000 0.0000 0.0000 0.0000 0.0000 -1.2104
#
#
#
# Elastic Compliance Matrix: (Units=1/GPa)
#
#
# Indices 1 2 3 4 5 6 
#
# 1 0.013920 -0.000547 -0.010540 0.000000 0.000000 0.000000
# 2 -0.000547 0.019399 -0.001994 0.000000 0.000000 0.000000
# 3 -0.010540 -0.001994 0.014656 0.000000 0.000000 0.000000
# 4 0.000000 0.000000 0.000000 -0.040377 0.000000 0.000000
# 5 0.000000 0.000000 0.000000 0.000000 0.002480 0.000000
# 6 0.000000 0.000000 0.000000 0.000000 0.000000 -0.826161
#
#
# Mechanical properties :
#
#
# Convention : Reuss Voigt Hill
#
# Bulk Modulus (GPa) = 45.84327 76.18233 61.01280
# Shear Modulus (GPa) = -6.38856 89.97284 41.79214
#
# Velocity S-wave (km/s) = -1.83420 6.88336 4.69129
# Velocity P-wave (km/s) = 4.43349 10.16330 7.84055
#
# Compressibility (1/GPa) = 0.02181345
#
# Stress axis : x y z
#
# Youngs Moduli (GPa) = 71.83701 51.54974 68.23039
#
# Poissons Ratio (x) = 0.02817 0.71917
# Poissons Ratio (y) = 0.03926 0.13606
# Poissons Ratio (z) = 0.75719 0.10280
#
# Static dielectric constant tensor:
#      x y z
#    x 1.637860 0.000000 0.000000 
#    y 0.000000 1.639100 0.000000 
#    z 0.000000 0.000000 1.630740 
# 
# From -- ./inp_files/12174.got.cif
#   From: 2010.05.17/outbox.cif.g08.bks.cpg/sg51_7_cif.got.tgz:12174.got - 2010.06.03 11:52:47.
