data_PCOD9402213
_publ_section_title
;
Structure prediction by ZEFSAII (Michael W. Deem and Ramdas Pophale) SiO2 
 PCOD9402213
Probable space group: P M M A
;
_chemical_formula_sum "Si O2"
_cell_formula_units_Z 64
_cell_length_a 16.880179
_cell_length_b 15.100917
_cell_length_c 12.678269
_cell_angle_alpha 90.000000
_cell_angle_beta 90.000000
_cell_angle_gamma 90.000000
_cell_volume 3231.769145
_symmetry_space_group_name_H-M "P M M A"
_symmetry_group_IT_number 51
_symmetry_cell_setting 'orthorhombic'
loop_
_space_group_symop_operation_xyz
x,y,z
1/2-x,-y,z
1/2+x,-y,-z
-x,y,-z
-x,-y,-z
1/2+x,y,-z
1/2-x,y,z
x,-y,z
loop_
_atom_site_type_symbol
_atom_site_label
_atom_site_fract_x
_atom_site_fract_y
_atom_site_fract_z
Si Si1 0.427802 0.281456 0.823713
Si Si2 0.117293 0.097127 0.245243
Si Si3 0.340658 0.602033 0.991079
Si Si4 0.594891 0.899906 0.505092
Si Si5 0.845577 0.601539 0.593730
Si Si6 0.457414 0.903504 0.886198
Si Si7 0.117248 0.709885 0.195565
Si Si8 0.844355 0.723570 0.398410
O O1 0.395863 0.352991 0.904935
O O2 0.405966 0.182750 0.864591
O O3 0.522746 0.284917 0.821127
O O4 0.391154 0.293739 0.708815
O O5 0.118349 0.104949 0.371701
O O6 0.149830 0.189481 0.200855
O O7 0.026750 0.094785 0.202137
O O8 0.151198 0.000000 0.216237
O O9 0.250000 0.605604 0.953211
O O10 0.362138 0.500000 0.009515
O O11 0.347066 0.655401 0.099610
O O12 0.500000 0.888012 0.500000
O O13 0.635861 0.822023 0.440498
O O14 0.612925 0.000000 0.467297
O O15 0.750000 0.598510 0.592154
O O16 0.874622 0.500000 0.598001
O O17 0.868742 0.658510 0.695548
O O18 0.870271 0.654384 0.488952
O O19 0.417618 0.000000 0.884921
O O20 0.500000 0.893887 0.000000
O O21 0.750000 0.715138 0.382306
#
# Coordination Sequence:
#
# PCOD9402213 Si02
#       8
#     8   8   8   8   8   8   8   8
#     4  11  23  38  62  91 123 154 200 256 306 364
#     4   9  17  30  52  86 123 155 191 239 299 355
#     4  11  25  44  64  86 118 161 203 249 316 386
#     4  10  19  34  59  87 119 160 207 254 301 359
#     4  10  22  40  60  84 118 161 205 251 312 376
#     4   9  17  32  56  88 123 158 197 241 297 362
#     4  11  20  37  66  94 119 151 201 261 308 354
#     4  11  24  40  59  84 123 170 206 247 308 379
#
# _framework density 19.803394000000001
#
# number of rings (size 3 to 8) (size 9 to 14) (size 15 to 20)
#    0.000    1.750    1.250    4.500    0.000    4.750 
#    0.000    1.875    0.000    3.375    0.000    0.000 
#    0.000    0.000    0.000    0.000    0.000    0.000 
#
# Total GULP energy -357420.675806 kJ/mol
# GULP energy per Si atom -5584.698059 kJ/mol
# Density = 1.975832 g / cm^3
# Si number density = 19.803394 Si / 1000 Ang^3
#
#
#
# Elastic Constant Matrix: (Units=GPa)
#
#
# Indices 1 2 3 4 5 6 
#
# 1 38.0177 25.1277 12.8385 0.0000 0.0000 0.0000
# 2 25.1277 183.4659 53.1961 0.0000 0.0000 0.0000
# 3 12.8385 53.1961 84.9942 0.0000 0.0000 0.0000
# 4 0.0000 0.0000 0.0000 17.9278 0.0000 0.0000
# 5 0.0000 0.0000 0.0000 0.0000 29.0938 0.0000
# 6 0.0000 0.0000 0.0000 0.0000 0.0000 91.5325
#
#
#
# Elastic Compliance Matrix: (Units=1/GPa)
#
#
# Indices 1 2 3 4 5 6 
#
# 1 0.029297 -0.003335 -0.002338 0.000000 0.000000 0.000000
# 2 -0.003335 0.007039 -0.003902 0.000000 0.000000 0.000000
# 3 -0.002338 -0.003902 0.014561 0.000000 0.000000 0.000000
# 4 0.000000 0.000000 0.000000 0.055779 0.000000 0.000000
# 5 0.000000 0.000000 0.000000 0.000000 0.034372 0.000000
# 6 0.000000 0.000000 0.000000 0.000000 0.000000 0.010925
#
#
# Mechanical properties :
#
#
# Convention : Reuss Voigt Hill
#
# Bulk Modulus (GPa) = 31.49868 54.31137 42.90503
# Shear Modulus (GPa) = 27.51730 42.06518 34.79124
#
# Velocity S-wave (km/s) = 3.73168 4.61384 4.19601
# Velocity P-wave (km/s) = 5.87430 7.47450 6.72219
#
# Compressibility (1/GPa) = 0.03174736
#
# Stress axis : x y z
#
# Youngs Moduli (GPa) = 34.13302 142.07387 68.67819
#
# Poissons Ratio (x) = 0.47376 0.16059
# Poissons Ratio (y) = 0.11382 0.26796
# Poissons Ratio (z) = 0.07981 0.55432
#
# Static dielectric constant tensor:
#      x y z
#    x 1.680610 0.000000 0.000000 
#    y 0.000000 1.727680 0.000000 
#    z 0.000000 0.000000 1.668340 
# 
# From -- ./inp_files/17550.got.cif
#   From: 2010.05.17/outbox.cif.g08.bks.cpg/sg51_9_cif.got.tgz:17550.got - 2010.06.03 11:52:47.
