data_PCOD9402413
_publ_section_title
;
Structure prediction by ZEFSAII (Michael W. Deem and Ramdas Pophale) SiO2 
 PCOD9402413
Probable space group: P M M A
;
_chemical_formula_sum "Si O2"
_cell_formula_units_Z 52
_cell_length_a 9.525063
_cell_length_b 14.867378
_cell_length_c 20.548281
_cell_angle_alpha 90.000000
_cell_angle_beta 90.000000
_cell_angle_gamma 90.000000
_cell_volume 2909.897801
_symmetry_space_group_name_H-M "P M M A"
_symmetry_group_IT_number 51
_symmetry_cell_setting 'orthorhombic'
loop_
_space_group_symop_operation_xyz
x,y,z
1/2-x,-y,z
1/2+x,-y,-z
-x,y,-z
-x,-y,-z
1/2+x,y,-z
1/2-x,y,z
x,-y,z
loop_
_atom_site_type_symbol
_atom_site_label
_atom_site_fract_x
_atom_site_fract_y
_atom_site_fract_z
Si Si1 0.416924 0.395878 0.065625
Si Si2 0.087444 0.000000 0.434843
Si Si3 0.083198 0.397742 0.708570
Si Si4 0.905195 0.146846 0.376089
Si Si5 0.910407 0.106767 0.223903
Si Si6 0.418008 0.726169 0.190681
Si Si7 0.912517 0.346627 0.434407
O O1 0.250000 0.391437 0.053277
O O2 0.450511 0.500000 0.083096
O O3 0.448630 0.329491 0.124966
O O4 0.500000 0.373579 0.000000
O O5 0.000000 0.000000 0.500000
O O6 0.034574 0.086711 0.396908
O O7 0.250000 0.000000 0.446324
O O8 0.250000 0.373134 0.711363
O O9 0.068029 0.500000 0.732700
O O10 0.042364 0.395507 0.632220
O O11 0.991919 0.329754 0.751146
O O12 0.750000 0.110071 0.394994
O O13 0.907129 0.143412 0.298165
O O14 0.917487 0.242531 0.411016
O O15 0.750000 0.114634 0.199029
O O16 0.015869 0.174138 0.188123
O O17 0.946462 0.000000 0.224260
O O18 0.250000 0.729663 0.200267
O O19 0.750000 0.370266 0.447181
O O20 0.000000 0.361228 0.500000
#
# Coordination Sequence:
#
# PCOD9402413 Si02
#       7
#     8   4   8   8   8   8   8
#     4   9  19  36  58  88 125 160 191 225 269 323
#     4  12  24  34  48  72 100 130 173 222 283 354
#     4  10  21  38  58  79 106 146 194 235 278 340
#     4  10  19  36  55  71  98 134 176 229 285 337
#     4  10  20  37  60  82 109 147 190 233 279 335
#     4  11  22  36  58  88 123 152 182 231 287 335
#     4  10  21  36  53  73  99 135 180 230 283 338
#
# _framework density 17.870042999999999
#
# number of rings (size 3 to 8) (size 9 to 14) (size 15 to 20)
#    0.000    1.846    2.308    2.077    0.000    5.846 
#    0.000    1.538    0.000    0.462    0.000    0.000 
#    0.000    0.000    0.000    0.000    0.000    0.000 
#
# Total GULP energy -290038.696074 kJ/mol
# GULP energy per Si atom -5577.667232 kJ/mol
# Density = 1.782937 g / cm^3
# Si number density = 17.870043 Si / 1000 Ang^3
#
#
#
# Elastic Constant Matrix: (Units=GPa)
#
#
# Indices 1 2 3 4 5 6 
#
# 1 95.1894 56.7653 57.8923 0.0000 0.0000 0.0000
# 2 56.7653 91.6329 52.0842 0.0000 0.0000 0.0000
# 3 57.8923 52.0842 99.0946 0.0000 0.0000 0.0000
# 4 0.0000 0.0000 0.0000 25.2085 0.0000 0.0000
# 5 0.0000 0.0000 0.0000 0.0000 32.0672 0.0000
# 6 0.0000 0.0000 0.0000 0.0000 0.0000 24.7479
#
#
#
# Elastic Compliance Matrix: (Units=1/GPa)
#
#
# Indices 1 2 3 4 5 6 
#
# 1 0.019773 -0.008104 -0.007292 0.000000 0.000000 0.000000
# 2 -0.008104 0.018884 -0.005191 0.000000 0.000000 0.000000
# 3 -0.007292 -0.005191 0.017080 0.000000 0.000000 0.000000
# 4 0.000000 0.000000 0.000000 0.039669 0.000000 0.000000
# 5 0.000000 0.000000 0.000000 0.000000 0.031185 0.000000
# 6 0.000000 0.000000 0.000000 0.000000 0.000000 0.040407
#
#
# Mechanical properties :
#
#
# Convention : Reuss Voigt Hill
#
# Bulk Modulus (GPa) = 68.66935 68.82227 68.74581
# Shear Modulus (GPa) = 23.47117 24.34972 23.91045
#
# Velocity S-wave (km/s) = 3.62807 3.69535 3.66186
# Velocity P-wave (km/s) = 7.48739 7.53682 7.51215
#
# Compressibility (1/GPa) = 0.01456254
#
# Stress axis : x y z
#
# Youngs Moduli (GPa) = 50.57322 52.95442 58.54875
#
# Poissons Ratio (x) = 0.42917 0.42694
# Poissons Ratio (y) = 0.40987 0.30391
# Poissons Ratio (z) = 0.36879 0.27488
#
# Static dielectric constant tensor:
#      x y z
#    x 1.610670 0.000000 0.000000 
#    y 0.000000 1.651350 0.000000 
#    z 0.000000 0.000000 1.603740 
# 
# From -- ./inp_files/31728.got.cif
#   From: 2010.05.17/outbox.cif.g08.bks.cpg/sg51_16_cif.got.tgz:31728.got - 2010.06.03 11:52:47.
