data_PCOD9402408
_publ_section_title
;
Structure prediction by ZEFSAII (Michael W. Deem and Ramdas Pophale) SiO2 
 PCOD9402408
Probable space group: P M M A
;
_chemical_formula_sum "Si O2"
_cell_formula_units_Z 48
_cell_length_a 20.756816
_cell_length_b 8.093430
_cell_length_c 13.974634
_cell_angle_alpha 90.000000
_cell_angle_beta 90.000000
_cell_angle_gamma 90.000000
_cell_volume 2347.652391
_symmetry_space_group_name_H-M "P M M A"
_symmetry_group_IT_number 51
_symmetry_cell_setting 'orthorhombic'
loop_
_space_group_symop_operation_xyz
x,y,z
1/2-x,-y,z
1/2+x,-y,-z
-x,y,-z
-x,-y,-z
1/2+x,y,-z
1/2-x,y,z
x,-y,z
loop_
_atom_site_type_symbol
_atom_site_label
_atom_site_fract_x
_atom_site_fract_y
_atom_site_fract_z
Si Si1 0.499367 0.702047 0.390119
Si Si2 0.638429 0.299853 0.314798
Si Si3 0.432533 0.302855 0.040843
Si Si4 0.750000 0.805674 0.680581
Si Si5 0.388592 0.698809 0.248083
Si Si6 0.750000 0.300199 0.460258
Si Si7 0.177675 0.803523 0.897257
O O1 0.500000 0.757080 0.500000
O O2 0.498418 0.500000 0.391424
O O3 0.565705 0.751294 0.338824
O O4 0.437188 0.758332 0.330904
O O5 0.640016 0.500000 0.310180
O O6 0.687341 0.249323 0.399119
O O7 0.661675 0.234015 0.213064
O O8 0.441094 0.500000 0.052177
O O9 0.412061 0.237122 0.144911
O O10 0.500000 0.235258 0.000000
O O11 0.375881 0.273547 0.965386
O O12 0.684856 0.739033 0.728173
O O13 0.750000 0.762894 0.567962
O O14 0.750000 0.000000 0.692155
O O15 0.393787 0.500000 0.246491
O O16 0.750000 0.500000 0.465151
O O17 0.250000 0.741983 0.918360
O O18 0.176655 0.000000 0.911457
#
# Coordination Sequence:
#
# PCOD9402408 Si02
#       7
#     8   8   8   4   8   4   8
#     4   9  17  32  59  91 120 148 188 245 300 348
#     4  10  19  35  62  92 118 152 199 249 297 349
#     4  10  22  41  66  92 117 150 198 256 306 353
#     4  12  26  40  57  82 119 162 201 244 290 350
#     4  10  21  39  62  88 118 154 197 245 296 353
#     4  10  20  36  61  90 119 156 201 248 298 350
#     4  11  24  39  57  86 125 164 197 240 298 362
#
# _framework density 20.445958000000001
#
# number of rings (size 3 to 8) (size 9 to 14) (size 15 to 20)
#    0.000    1.833    0.833    3.250    1.167    8.000 
#    0.000    2.500    0.000    2.000    0.000    0.000 
#    0.000    0.000    0.000    0.000    0.000    0.000 
#
# Total GULP energy -268270.970733 kJ/mol
# GULP energy per Si atom -5588.978557 kJ/mol
# Density = 2.039942 g / cm^3
# Si number density = 20.445958 Si / 1000 Ang^3
#
#
#
# Elastic Constant Matrix: (Units=GPa)
#
#
# Indices 1 2 3 4 5 6 
#
# 1 200.8167 5.5800 91.1880 0.0000 0.0000 0.0000
# 2 5.5800 10.2078 5.6519 0.0000 0.0000 0.0000
# 3 91.1880 5.6519 154.6559 0.0000 0.0000 0.0000
# 4 0.0000 0.0000 0.0000 -6.1983 0.0000 0.0000
# 5 0.0000 0.0000 0.0000 0.0000 33.6214 0.0000
# 6 0.0000 0.0000 0.0000 0.0000 0.0000 -5.3155
#
#
#
# Elastic Compliance Matrix: (Units=1/GPa)
#
#
# Indices 1 2 3 4 5 6 
#
# 1 0.006824 -0.001533 -0.003967 0.000000 0.000000 0.000000
# 2 -0.001533 0.100332 -0.002762 0.000000 0.000000 0.000000
# 3 -0.003967 -0.002762 0.008906 0.000000 0.000000 0.000000
# 4 0.000000 0.000000 0.000000 -0.161334 0.000000 0.000000
# 5 0.000000 0.000000 0.000000 0.000000 0.029743 0.000000
# 6 0.000000 0.000000 0.000000 0.000000 0.000000 -0.188131
#
#
# Mechanical properties :
#
#
# Convention : Reuss Voigt Hill
#
# Bulk Modulus (GPa) = 10.04668 63.39114 36.71891
# Shear Modulus (GPa) = -32.47719 21.97222 -5.25248
#
# Velocity S-wave (km/s) = -3.98985 3.28174 -1.60454
# Velocity P-wave (km/s) = 4.03742 6.74027 3.81645
#
# Compressibility (1/GPa) = 0.09953536
#
# Stress axis : x y z
#
# Youngs Moduli (GPa) = 146.54547 9.96690 112.28159
#
# Poissons Ratio (x) = 0.01528 0.44547
# Poissons Ratio (y) = 0.22472 0.31018
# Poissons Ratio (z) = 0.58141 0.02753
#
# Static dielectric constant tensor:
#      x y z
#    x 1.685760 0.000000 0.000000 
#    y 0.000000 1.720780 0.000000 
#    z 0.000000 0.000000 1.694990 
# 
# From -- ./inp_files/24925.got.cif
#   From: 2010.05.17/outbox.cif.g08.bks.cpg/sg51_13_cif.got.tgz:24925.got - 2010.06.03 11:52:47.
