data_PCOD9402798
_publ_section_title
;
Structure prediction by ZEFSAII (Michael W. Deem and Ramdas Pophale) SiO2 
 PCOD9402798
Probable space group: P M M A
;
_chemical_formula_sum "Si O2"
_cell_formula_units_Z 48
_cell_length_a 9.398989
_cell_length_b 7.545530
_cell_length_c 32.452153
_cell_angle_alpha 90.000000
_cell_angle_beta 90.000000
_cell_angle_gamma 90.000000
_cell_volume 2301.518162
_symmetry_space_group_name_H-M "P M M A"
_symmetry_group_IT_number 51
_symmetry_cell_setting 'orthorhombic'
loop_
_space_group_symop_operation_xyz
x,y,z
1/2-x,-y,z
1/2+x,-y,-z
-x,y,-z
-x,-y,-z
1/2+x,y,-z
1/2-x,y,z
x,-y,z
loop_
_atom_site_type_symbol
_atom_site_label
_atom_site_fract_x
_atom_site_fract_y
_atom_site_fract_z
Si Si1 0.912257 0.289727 0.380743
Si Si2 0.586623 0.283018 0.540507
Si Si3 0.584683 0.212797 0.290845
Si Si4 0.913681 0.283135 0.040608
Si Si5 0.410484 0.710631 0.119440
Si Si6 0.414377 0.213675 0.798999
O O1 0.750000 0.217000 0.381527
O O2 0.900520 0.500000 0.386970
O O3 0.976569 0.265166 0.335029
O O4 0.007596 0.221437 0.418052
O O5 0.500000 0.228781 0.500000
O O6 0.750000 0.225761 0.538899
O O7 0.587391 0.500000 0.540828
O O8 0.750000 0.271914 0.291806
O O9 0.530081 0.273555 0.246143
O O10 0.583308 0.000000 0.290273
O O11 0.750000 0.225422 0.039564
O O12 0.911993 0.500000 0.040938
O O13 0.993978 0.221028 0.081754
O O14 0.000000 0.229340 0.000000
O O15 0.250000 0.782916 0.119629
O O16 0.399734 0.500000 0.112758
O O17 0.488754 0.735568 0.162816
O O18 0.250000 0.274217 0.804295
O O19 0.409862 0.000000 0.798052
#
# Coordination Sequence:
#
# PCOD9402798 Si02
#       6
#     8   8   8   8   8   8
#     4   9  16  26  43  68  93 116 146 184 224 266
#     4   9  16  26  41  62  89 119 148 180 220 265
#     4   8  15  29  48  68  90 118 152 188 227 274
#     4   9  16  27  45  69  97 128 160 195 236 282
#     4  10  20  32  47  71 101 130 162 200 240 282
#     4   9  18  33  52  72  94 124 163 202 240 286
#
# _framework density 20.855799000000001
#
# number of rings (size 3 to 8) (size 9 to 14) (size 15 to 20)
#    0.000    3.000    0.000    2.500    0.000    6.000 
#    0.000    2.500    0.000    4.500    0.000    0.000 
#    0.000    0.000    0.000    0.000    0.000    0.000 
#
# Total GULP energy -267706.800394 kJ/mol
# GULP energy per Si atom -5577.225008 kJ/mol
# Density = 2.080833 g / cm^3
# Si number density = 20.855799 Si / 1000 Ang^3
#
#
#
# Elastic Constant Matrix: (Units=GPa)
#
#
# Indices 1 2 3 4 5 6 
#
# 1 154.1449 6.3128 126.3644 0.0000 0.0000 0.0000
# 2 6.3128 46.9056 0.3378 0.0000 0.0000 0.0000
# 3 126.3644 0.3378 248.4716 0.0000 0.0000 0.0000
# 4 0.0000 0.0000 0.0000 42.1161 0.0000 0.0000
# 5 0.0000 0.0000 0.0000 0.0000 33.0103 0.0000
# 6 0.0000 0.0000 0.0000 0.0000 0.0000 2.3917
#
#
#
# Elastic Compliance Matrix: (Units=1/GPa)
#
#
# Indices 1 2 3 4 5 6 
#
# 1 0.011226 -0.001470 -0.005707 0.000000 0.000000 0.000000
# 2 -0.001470 0.021512 0.000718 0.000000 0.000000 0.000000
# 3 -0.005707 0.000718 0.006926 0.000000 0.000000 0.000000
# 4 0.000000 0.000000 0.000000 0.023744 0.000000 0.000000
# 5 0.000000 0.000000 0.000000 0.000000 0.030294 0.000000
# 6 0.000000 0.000000 0.000000 0.000000 0.000000 0.418105
#
#
# Mechanical properties :
#
#
# Convention : Reuss Voigt Hill
#
# Bulk Modulus (GPa) = 37.38763 79.50577 58.44670
# Shear Modulus (GPa) = 9.36960 36.60410 22.98685
#
# Velocity S-wave (km/s) = 2.12187 4.19394 3.32351
# Velocity P-wave (km/s) = 4.89579 7.85217 6.54314
#
# Compressibility (1/GPa) = 0.02674681
#
# Stress axis : x y z
#
# Youngs Moduli (GPa) = 89.07617 46.48553 144.37944
#
# Poissons Ratio (x) = 0.06832 0.82402
# Poissons Ratio (y) = 0.13092 -0.10370
# Poissons Ratio (z) = 0.50839 -0.03339
#
# Static dielectric constant tensor:
#      x y z
#    x 1.717790 0.000000 0.000000 
#    y 0.000000 1.791820 0.000000 
#    z 0.000000 0.000000 1.750160 
# 
# From -- ./inp_files/34538.got.cif
#   From: 2010.05.17/outbox.cif.g08.bks.cpg/sg51_18_cif.got.tgz:34538.got - 2010.06.03 11:52:47.
