data_PCOD9402814
_publ_section_title
;
Structure prediction by ZEFSAII (Michael W. Deem and Ramdas Pophale) SiO2 
 PCOD9402814
Probable space group: P M M A
;
_chemical_formula_sum "Si O2"
_cell_formula_units_Z 56
_cell_length_a 18.390437
_cell_length_b 9.096413
_cell_length_c 19.445115
_cell_angle_alpha 90.000000
_cell_angle_beta 90.000000
_cell_angle_gamma 90.000000
_cell_volume 3252.915151
_symmetry_space_group_name_H-M "P M M A"
_symmetry_group_IT_number 51
_symmetry_cell_setting 'orthorhombic'
loop_
_space_group_symop_operation_xyz
x,y,z
1/2-x,-y,z
1/2+x,-y,-z
-x,y,-z
-x,-y,-z
1/2+x,y,-z
1/2-x,y,z
x,-y,z
loop_
_atom_site_type_symbol
_atom_site_label
_atom_site_fract_x
_atom_site_fract_y
_atom_site_fract_z
Si Si1 0.164323 0.324322 0.531044
Si Si2 0.170437 0.825539 0.129940
Si Si3 0.026943 0.322957 0.076091
Si Si4 0.410745 0.824793 0.401666
Si Si5 0.076655 0.174279 0.648213
Si Si6 0.535668 0.332359 0.217562
Si Si7 0.867447 0.332038 0.732808
O O1 0.250000 0.291852 0.521802
O O2 0.154704 0.500000 0.528478
O O3 0.116736 0.248423 0.471494
O O4 0.134724 0.260938 0.602757
O O5 0.250000 0.798002 0.098731
O O6 0.104273 0.751243 0.090141
O O7 0.169760 0.756549 0.206119
O O8 0.158922 0.000000 0.134714
O O9 0.034919 0.500000 0.081713
O O10 0.972386 0.280420 0.138565
O O11 0.000000 0.286979 0.000000
O O12 0.496230 0.798203 0.384992
O O13 0.366056 0.752249 0.339100
O O14 0.400298 0.000000 0.403904
O O15 0.075102 0.231217 0.726735
O O16 0.089215 0.000000 0.645590
O O17 0.563956 0.500000 0.219239
O O18 0.452080 0.337475 0.243937
O O19 0.841668 0.500000 0.726986
#
# Coordination Sequence:
#
# PCOD9402814 Si02
#       7
#     8   8   8   8   8   8   8
#     4  11  24  38  51  70  97 131 171 214 261 308
#     4  10  20  32  47  71 104 140 174 207 249 302
#     4   9  18  33  54  80 107 135 170 210 251 297
#     4  10  20  34  53  77 103 131 166 208 255 307
#     4  10  20  34  54  77  99 127 166 209 252 301
#     4   8  15  29  50  75 100 125 156 197 242 289
#     4   9  17  30  49  72  98 130 166 202 242 291
#
# _framework density 17.215326000000001
#
# number of rings (size 3 to 8) (size 9 to 14) (size 15 to 20)
#    0.000    2.429    0.000    3.429    0.000   10.000 
#    0.000    0.000    0.000    0.857    0.000    2.000 
#    0.000    0.000    0.000    0.000    0.000    0.000 
#
# Total GULP energy -312294.841185 kJ/mol
# GULP energy per Si atom -5576.693593 kJ/mol
# Density = 1.717614 g / cm^3
# Si number density = 17.215326 Si / 1000 Ang^3
#
#
#
# Elastic Constant Matrix: (Units=GPa)
#
#
# Indices 1 2 3 4 5 6 
#
# 1 29.9947 27.8118 23.5689 0.0000 0.0000 0.0000
# 2 27.8118 58.6908 39.6205 0.0000 0.0000 0.0000
# 3 23.5689 39.6205 116.2197 0.0000 0.0000 0.0000
# 4 0.0000 0.0000 0.0000 13.3083 0.0000 0.0000
# 5 0.0000 0.0000 0.0000 0.0000 5.5196 0.0000
# 6 0.0000 0.0000 0.0000 0.0000 0.0000 20.7029
#
#
#
# Elastic Compliance Matrix: (Units=1/GPa)
#
#
# Indices 1 2 3 4 5 6 
#
# 1 0.060391 -0.026433 -0.003236 0.000000 0.000000 0.000000
# 2 -0.026433 0.033702 -0.006129 0.000000 0.000000 0.000000
# 3 -0.003236 -0.006129 0.011350 0.000000 0.000000 0.000000
# 4 0.000000 0.000000 0.000000 0.075141 0.000000 0.000000
# 5 0.000000 0.000000 0.000000 0.000000 0.181173 0.000000
# 6 0.000000 0.000000 0.000000 0.000000 0.000000 0.048302
#
#
# Mechanical properties :
#
#
# Convention : Reuss Voigt Hill
#
# Bulk Modulus (GPa) = 29.54425 42.98974 36.26699
# Shear Modulus (GPa) = 10.14329 15.49977 12.82153
#
# Velocity S-wave (km/s) = 2.42998 3.00383 2.73202
# Velocity P-wave (km/s) = 5.00719 6.08742 5.57354
#
# Compressibility (1/GPa) = 0.03384753
#
# Stress axis : x y z
#
# Youngs Moduli (GPa) = 16.55869 29.67215 88.10623
#
# Poissons Ratio (x) = 0.78433 0.28509
# Poissons Ratio (y) = 0.43770 0.53998
# Poissons Ratio (z) = 0.05358 0.18185
#
# Static dielectric constant tensor:
#      x y z
#    x 1.584740 0.000000 0.000000 
#    y 0.000000 1.572550 0.000000 
#    z 0.000000 0.000000 1.584070 
# 
# From -- ./inp_files/33740.got.cif
#   From: 2010.05.17/outbox.cif.g08.bks.cpg/sg51_17_cif.got.tgz:33740.got - 2010.06.03 11:52:47.
