data_PCOD9402473
_publ_section_title
;
Structure prediction by ZEFSAII (Michael W. Deem and Ramdas Pophale) SiO2 
 PCOD9402473
Probable space group: P M M A
;
_chemical_formula_sum "Si O2"
_cell_formula_units_Z 64
_cell_length_a 8.548782
_cell_length_b 20.777012
_cell_length_c 18.709650
_cell_angle_alpha 90.000000
_cell_angle_beta 90.000000
_cell_angle_gamma 90.000000
_cell_volume 3323.173349
_symmetry_space_group_name_H-M "P M M A"
_symmetry_group_IT_number 51
_symmetry_cell_setting 'orthorhombic'
loop_
_space_group_symop_operation_xyz
x,y,z
1/2-x,-y,z
1/2+x,-y,-z
-x,y,-z
-x,-y,-z
1/2+x,y,-z
1/2-x,y,z
x,-y,z
loop_
_atom_site_type_symbol
_atom_site_label
_atom_site_fract_x
_atom_site_fract_y
_atom_site_fract_z
Si Si1 0.430902 0.314856 0.186473
Si Si2 0.440649 0.573779 0.280815
Si Si3 0.437409 0.071314 0.134502
Si Si4 0.430736 0.115788 0.292127
Si Si5 0.076426 0.924969 0.569420
Si Si6 0.435557 0.791626 0.921372
Si Si7 0.069525 0.250003 0.680127
Si Si8 0.938157 0.655988 0.578303
O O1 0.250000 0.319670 0.165124
O O2 0.492631 0.385411 0.210565
O O3 0.512503 0.265991 0.131675
O O4 0.450677 0.281308 0.263334
O O5 0.250000 0.575282 0.279055
O O6 0.492096 0.500000 0.278785
O O7 0.484356 0.607068 0.356794
O O8 0.250000 0.072644 0.123302
O O9 0.466507 0.078154 0.219516
O O10 0.504322 0.137071 0.101256
O O11 0.494009 0.000000 0.110279
O O12 0.250000 0.136942 0.287035
O O13 0.460757 0.077267 0.363902
O O14 0.544689 0.175688 0.303810
O O15 0.250000 0.898284 0.584508
O O16 0.000000 0.893043 0.500000
O O17 0.097963 0.000000 0.553808
O O18 0.250000 0.794095 0.921859
O O19 0.500000 0.777794 0.000000
O O20 0.250000 0.268295 0.693248
O O21 0.014947 0.276488 0.603627
O O22 0.750000 0.660396 0.576856
O O23 0.000000 0.637458 0.500000
#
# Coordination Sequence:
#
# PCOD9402473 Si02
#       8
#     8   8   8   8   8   8   8   8
#     4  10  19  36  61  88 120 154 192 238 284 339
#     4   8  16  32  57  88 120 158 200 241 292 350
#     4  10  22  40  62  88 120 156 194 238 291 353
#     4  11  21  35  57  81 108 143 186 234 290 347
#     4  10  21  36  52  71  98 132 175 227 282 340
#     4  12  25  41  64  91 121 157 196 239 287 346
#     4  11  21  34  54  79 107 144 191 239 288 340
#     4  10  20  34  52  77 114 157 201 250 299 349
#
# _framework density 19.258700000000001
#
# number of rings (size 3 to 8) (size 9 to 14) (size 15 to 20)
#    0.000    1.750    1.250    4.875    0.000    3.000 
#    0.000    2.500    0.000   13.500    0.000    0.000 
#    0.000    0.000    0.000    0.000    0.000    0.000 
#
# Total GULP energy -356560.304502 kJ/mol
# GULP energy per Si atom -5571.254758 kJ/mol
# Density = 1.921487 g / cm^3
# Si number density = 19.258700 Si / 1000 Ang^3
#
#
#
# Elastic Constant Matrix: (Units=GPa)
#
#
# Indices 1 2 3 4 5 6 
#
# 1 54.5418 18.6806 16.4661 0.0000 0.0000 0.0000
# 2 18.6806 89.3737 36.3986 0.0000 0.0000 0.0000
# 3 16.4661 36.3986 98.0027 0.0000 0.0000 0.0000
# 4 0.0000 0.0000 0.0000 -238.2233 0.0000 0.0000
# 5 0.0000 0.0000 0.0000 0.0000 25.5717 0.0000
# 6 0.0000 0.0000 0.0000 0.0000 0.0000 8.8806
#
#
#
# Elastic Compliance Matrix: (Units=1/GPa)
#
#
# Indices 1 2 3 4 5 6 
#
# 1 0.020123 -0.003333 -0.002143 0.000000 0.000000 0.000000
# 2 -0.003333 0.013735 -0.004541 0.000000 0.000000 0.000000
# 3 -0.002143 -0.004541 0.012250 0.000000 0.000000 0.000000
# 4 0.000000 0.000000 0.000000 -0.004198 0.000000 0.000000
# 5 0.000000 0.000000 0.000000 0.000000 0.039106 0.000000
# 6 0.000000 0.000000 0.000000 0.000000 0.000000 0.112604
#
#
# Mechanical properties :
#
#
# Convention : Reuss Voigt Hill
#
# Bulk Modulus (GPa) = 38.35282 42.77876 40.56579
# Shear Modulus (GPa) = 22.48730 -29.39600 -3.45435
#
# Velocity S-wave (km/s) = 3.42079 -3.91112 -1.34073
# Velocity P-wave (km/s) = 5.96323 1.36567 4.32581
#
# Compressibility (1/GPa) = 0.02607370
#
# Stress axis : x y z
#
# Youngs Moduli (GPa) = 49.69390 72.80581 81.62935
#
# Poissons Ratio (x) = 0.24268 0.17493
# Poissons Ratio (y) = 0.16564 0.37070
# Poissons Ratio (z) = 0.10650 0.33063
#
# Static dielectric constant tensor:
#      x y z
#    x 1.678000 0.000000 0.000000 
#    y 0.000000 1.734770 0.000000 
#    z 0.000000 0.000000 1.662570 
# 
# From -- ./inp_files/28351.got.cif
#   From: 2010.05.17/outbox.cif.g08.bks.cpg/sg51_15_cif.got.tgz:28351.got - 2010.06.03 11:52:47.
