data_PCOD9402669
_publ_section_title
;
Structure prediction by ZEFSAII (Michael W. Deem and Ramdas Pophale) SiO2 
 PCOD9402669
Probable space group: P M M A
;
_chemical_formula_sum "Si O2"
_cell_formula_units_Z 36
_cell_length_a 7.574994
_cell_length_b 13.239360
_cell_length_c 17.110949
_cell_angle_alpha 90.000000
_cell_angle_beta 90.000000
_cell_angle_gamma 90.000000
_cell_volume 1716.024095
_symmetry_space_group_name_H-M "P M M A"
_symmetry_group_IT_number 51
_symmetry_cell_setting 'orthorhombic'
loop_
_space_group_symop_operation_xyz
x,y,z
1/2-x,-y,z
1/2+x,-y,-z
-x,y,-z
-x,-y,-z
1/2+x,y,-z
1/2-x,y,z
x,-y,z
loop_
_atom_site_type_symbol
_atom_site_label
_atom_site_fract_x
_atom_site_fract_y
_atom_site_fract_z
Si Si1 0.042035 0.391405 0.883224
Si Si2 0.035212 0.670316 0.291905
Si Si3 0.961291 0.500000 0.591217
Si Si4 0.960420 0.171023 0.084282
Si Si5 0.456394 0.891251 0.256274
O O1 0.250000 0.392852 0.902097
O O2 0.965294 0.500000 0.907025
O O3 0.967065 0.286541 0.915777
O O4 0.022473 0.379417 0.789773
O O5 0.250000 0.672607 0.290857
O O6 0.975152 0.599812 0.362904
O O7 0.970583 0.786376 0.290744
O O8 0.750000 0.500000 0.599819
O O9 0.000000 0.500000 0.500000
O O10 0.750000 0.173989 0.094499
O O11 0.032549 0.119519 0.162120
O O12 0.000000 0.124891 0.000000
O O13 0.250000 0.893260 0.277454
O O14 0.534734 0.000000 0.278593
#
# Coordination Sequence:
#
# PCOD9402669 Si02
#       5
#     8   8   4   8   8
#     4   9  17  29  46  67  92 124 161 199 242 289
#     4   9  17  31  50  73  99 125 157 195 233 278
#     4  10  20  32  50  78 107 132 155 184 227 280
#     4  10  20  32  45  65  94 127 163 205 249 291
#     4   9  18  33  53  73  92 121 162 204 245 286
#
# _framework density 20.978726000000002
#
# number of rings (size 3 to 8) (size 9 to 14) (size 15 to 20)
#    0.000    2.667    1.111    0.667    0.000    3.111 
#    0.000    0.000    0.000    0.667    0.000    0.000 
#    0.000    0.000    0.000    0.000    0.000    0.000 
#
# Total GULP energy -200836.676290 kJ/mol
# GULP energy per Si atom -5578.796564 kJ/mol
# Density = 2.093098 g / cm^3
# Si number density = 20.978726 Si / 1000 Ang^3
#
#
#
# Elastic Constant Matrix: (Units=GPa)
#
#
# Indices 1 2 3 4 5 6 
#
# 1 56.4759 5.3089 -14.2122 0.0000 0.0000 0.0000
# 2 5.3089 183.4213 45.4699 0.0000 0.0000 0.0000
# 3 -14.2122 45.4699 107.3606 0.0000 0.0000 0.0000
# 4 0.0000 0.0000 0.0000 14.6049 0.0000 0.0000
# 5 0.0000 0.0000 0.0000 0.0000 17.5840 0.0000
# 6 0.0000 0.0000 0.0000 0.0000 0.0000 4.6209
#
#
#
# Elastic Compliance Matrix: (Units=1/GPa)
#
#
# Indices 1 2 3 4 5 6 
#
# 1 0.018583 -0.001282 0.003003 0.000000 0.000000 0.000000
# 2 -0.001282 0.006180 -0.002787 0.000000 0.000000 0.000000
# 3 0.003003 -0.002787 0.010892 0.000000 0.000000 0.000000
# 4 0.000000 0.000000 0.000000 0.068470 0.000000 0.000000
# 5 0.000000 0.000000 0.000000 0.000000 0.056870 0.000000
# 6 0.000000 0.000000 0.000000 0.000000 0.000000 0.216408
#
#
# Mechanical properties :
#
#
# Convention : Reuss Voigt Hill
#
# Bulk Modulus (GPa) = 29.83068 46.71010 38.27039
# Shear Modulus (GPa) = 12.79721 28.07471 20.43596
#
# Velocity S-wave (km/s) = 2.47252 3.66217 3.12449
# Velocity P-wave (km/s) = 4.73302 6.34002 5.59452
#
# Compressibility (1/GPa) = 0.03352253
#
# Stress axis : x y z
#
# Youngs Moduli (GPa) = 53.81282 161.81317 91.80749
#
# Poissons Ratio (x) = 0.20750 -0.27570
# Poissons Ratio (y) = 0.06901 0.25588
# Poissons Ratio (z) = -0.16160 0.45099
#
# Static dielectric constant tensor:
#      x y z
#    x 1.775420 0.000000 0.000000 
#    y 0.000000 1.838150 0.000000 
#    z 0.000000 0.000000 1.706070 
# 
# From -- ./inp_files/20344.got.cif
#   From: 2010.05.17/outbox.cif.g08.bks.cpg/sg51_11_cif.got.tgz:20344.got - 2010.06.03 11:52:47.
