data_PCOD9402744
_publ_section_title
;
Structure prediction by ZEFSAII (Michael W. Deem and Ramdas Pophale) SiO2 
 PCOD9402744
Probable space group: P M M A
;
_chemical_formula_sum "Si O2"
_cell_formula_units_Z 64
_cell_length_a 9.050464
_cell_length_b 20.329490
_cell_length_c 20.400868
_cell_angle_alpha 90.000000
_cell_angle_beta 90.000000
_cell_angle_gamma 90.000000
_cell_volume 3753.582579
_symmetry_space_group_name_H-M "P M M A"
_symmetry_group_IT_number 51
_symmetry_cell_setting 'orthorhombic'
loop_
_space_group_symop_operation_xyz
x,y,z
1/2-x,-y,z
1/2+x,-y,-z
-x,y,-z
-x,-y,-z
1/2+x,y,-z
1/2-x,y,z
x,-y,z
loop_
_atom_site_type_symbol
_atom_site_label
_atom_site_fract_x
_atom_site_fract_y
_atom_site_fract_z
Si Si1 0.422640 0.601516 0.065989
Si Si2 0.573547 0.293934 0.248684
Si Si3 0.925901 0.889550 0.934329
Si Si4 0.423907 0.746633 0.113909
Si Si5 0.924884 0.074565 0.788216
Si Si6 0.573486 0.164084 0.318308
Si Si7 0.571849 0.573180 0.785893
Si Si8 0.426918 0.075847 0.428750
O O1 0.250000 0.585166 0.061650
O O2 0.438666 0.680574 0.071778
O O3 0.475761 0.576917 0.137262
O O4 0.500000 0.578302 0.000000
O O5 0.750000 0.300243 0.246621
O O6 0.515902 0.263820 0.179948
O O7 0.534913 0.240495 0.304471
O O8 0.500453 0.365923 0.251880
O O9 0.750000 0.908186 0.782711
O O10 0.966063 0.812720 0.923567
O O11 0.964389 0.922227 0.864979
O O12 0.000000 0.915309 0.000000
O O13 0.250000 0.752527 0.132009
O O14 0.250000 0.105244 0.057987
O O15 0.020518 0.123919 0.745628
O O16 0.942719 0.000000 0.764424
O O17 0.750000 0.159226 0.325706
O O18 0.493401 0.128408 0.378493
O O19 0.750000 0.581832 0.785869
O O20 0.537523 0.500000 0.761020
O O21 0.500000 0.084173 0.500000
O O22 0.250000 0.082667 0.432664
O O23 0.458376 0.000000 0.407550
#
# Coordination Sequence:
#
# PCOD9402744 Si02
#       8
#     8   8   8   8   8   8   8   8
#     4   9  17  27  41  62  86 113 150 194 246 310
#     4  10  20  32  50  76 101 126 164 213 258 301
#     4  10  20  32  47  65  88 119 159 211 270 326
#     4   9  17  31  47  63  86 120 157 201 258 316
#     4  10  21  36  52  70  94 128 171 216 264 319
#     4  11  22  35  54  81 110 140 176 219 261 304
#     4   9  19  35  51  67  93 129 165 204 256 317
#     4  10  21  37  58  85 118 155 189 219 255 302
#
# _framework density 17.050377000000001
#
# number of rings (size 3 to 8) (size 9 to 14) (size 15 to 20)
#    0.000    2.250    1.250    2.625    0.000    7.750 
#    0.000    0.000    0.000    0.000    0.000    0.000 
#    0.000    0.500    0.000    1.625    0.000    2.375 
#
# Total GULP energy -357052.834616 kJ/mol
# GULP energy per Si atom -5578.950541 kJ/mol
# Density = 1.701157 g / cm^3
# Si number density = 17.050377 Si / 1000 Ang^3
#
#
#
# Elastic Constant Matrix: (Units=GPa)
#
#
# Indices 1 2 3 4 5 6 
#
# 1 46.3853 48.5722 37.6152 0.0000 0.0000 0.0000
# 2 48.5722 122.0177 51.1182 0.0000 0.0000 0.0000
# 3 37.6152 51.1182 77.2046 0.0000 0.0000 0.0000
# 4 0.0000 0.0000 0.0000 45.8608 0.0000 0.0000
# 5 0.0000 0.0000 0.0000 0.0000 28.2734 0.0000
# 6 0.0000 0.0000 0.0000 0.0000 0.0000 16.5947
#
#
#
# Elastic Compliance Matrix: (Units=1/GPa)
#
#
# Indices 1 2 3 4 5 6 
#
# 1 0.046070 -0.012366 -0.014258 0.000000 0.000000 0.000000
# 2 -0.012366 0.014661 -0.003682 0.000000 0.000000 0.000000
# 3 -0.014258 -0.003682 0.022337 0.000000 0.000000 0.000000
# 4 0.000000 0.000000 0.000000 0.021805 0.000000 0.000000
# 5 0.000000 0.000000 0.000000 0.000000 0.035369 0.000000
# 6 0.000000 0.000000 0.000000 0.000000 0.000000 0.060260
#
#
# Mechanical properties :
#
#
# Convention : Reuss Voigt Hill
#
# Bulk Modulus (GPa) = 44.53292 57.80208 51.16750
# Shear Modulus (GPa) = 18.61503 25.36591 21.99047
#
# Velocity S-wave (km/s) = 3.30777 3.86126 3.59518
# Velocity P-wave (km/s) = 6.38464 7.33849 6.87812
#
# Compressibility (1/GPa) = 0.02245530
#
# Stress axis : x y z
#
# Youngs Moduli (GPa) = 21.70618 68.20949 44.76785
#
# Poissons Ratio (x) = 0.84347 0.63831
# Poissons Ratio (y) = 0.26842 0.16485
# Poissons Ratio (z) = 0.30949 0.25116
#
# Static dielectric constant tensor:
#      x y z
#    x 1.569600 0.000000 0.000000 
#    y 0.000000 1.611570 0.000000 
#    z 0.000000 0.000000 1.558620 
# 
# From -- ./inp_files/28375.got.cif
#   From: 2010.05.17/outbox.cif.g08.bks.cpg/sg51_15_cif.got.tgz:28375.got - 2010.06.03 11:52:47.
