data_PCOD9402107
_publ_section_title
;
Structure prediction by ZEFSAII (Michael W. Deem and Ramdas Pophale) SiO2 
 PCOD9402107
Probable space group: P M M A
;
_chemical_formula_sum "Si O2"
_cell_formula_units_Z 56
_cell_length_a 22.385300
_cell_length_b 7.832617
_cell_length_c 15.312155
_cell_angle_alpha 90.000000
_cell_angle_beta 90.000000
_cell_angle_gamma 90.000000
_cell_volume 2684.764067
_symmetry_space_group_name_H-M "P M M A"
_symmetry_group_IT_number 51
_symmetry_cell_setting 'orthorhombic'
loop_
_space_group_symop_operation_xyz
x,y,z
1/2-x,-y,z
1/2+x,-y,-z
-x,y,-z
-x,-y,-z
1/2+x,y,-z
1/2-x,y,z
x,-y,z
loop_
_atom_site_type_symbol
_atom_site_label
_atom_site_fract_x
_atom_site_fract_y
_atom_site_fract_z
Si Si1 0.180735 0.791410 0.356218
Si Si2 0.068234 0.696246 0.031200
Si Si3 0.750000 0.697719 0.360557
Si Si4 0.618943 0.698184 0.144743
Si Si5 0.750000 0.808167 0.171816
Si Si6 0.419659 0.203129 0.230718
Si Si7 0.370310 0.206706 0.539718
Si Si8 0.957371 0.201927 0.311920
O O1 0.250000 0.732522 0.360998
O O2 0.142639 0.734950 0.272093
O O3 0.140209 0.740286 0.439687
O O4 0.183911 0.000000 0.357296
O O5 0.088816 0.500000 0.038825
O O6 0.074811 0.770476 0.127336
O O7 0.100803 0.778028 0.948057
O O8 0.000000 0.697331 0.000000
O O9 0.750000 0.500000 0.333263
O O10 0.750000 0.814073 0.276207
O O11 0.809316 0.736433 0.414103
O O12 0.599634 0.500000 0.145617
O O13 0.689642 0.712620 0.148899
O O14 0.587860 0.778146 0.229852
O O15 0.750000 0.000000 0.135783
O O16 0.478681 0.273554 0.280330
O O17 0.420397 0.000000 0.245338
O O18 0.425191 0.269999 0.600209
O O19 0.373187 0.000000 0.540188
O O20 0.965761 0.000000 0.326874
#
# Coordination Sequence:
#
# PCOD9402107 Si02
#       8
#     8   8   4   8   4   8   8   8
#     4   9  18  35  59  83 112 153 198 240 284 336
#     4  10  21  39  61  83 109 150 194 234 290 355
#     4  12  22  32  52  83 116 151 192 231 274 334
#     4  11  22  37  58  83 115 152 192 238 289 349
#     4  12  24  38  56  83 120 153 188 233 292 352
#     4  10  21  36  57  86 116 147 193 249 292 340
#     4  10  19  34  57  81 111 153 193 233 285 341
#     4  10  20  32  53  87 119 148 187 238 293 346
#
# _framework density 20.858443999999999
#
# number of rings (size 3 to 8) (size 9 to 14) (size 15 to 20)
#    0.000    1.714    3.571    1.714    0.000    2.000 
#    1.286    3.571    0.000    0.000    0.000    3.000 
#    0.000    0.000    0.000    0.000    0.000    0.000 
#
# Total GULP energy -312384.460240 kJ/mol
# GULP energy per Si atom -5578.293933 kJ/mol
# Density = 2.081097 g / cm^3
# Si number density = 20.858444 Si / 1000 Ang^3
#
#
#
# Elastic Constant Matrix: (Units=GPa)
#
#
# Indices 1 2 3 4 5 6 
#
# 1 76.6230 -5.9633 56.7443 0.0000 0.0000 0.0000
# 2 -5.9633 27.0290 4.0013 0.0000 0.0000 0.0000
# 3 56.7443 4.0013 127.5407 0.0000 0.0000 0.0000
# 4 0.0000 0.0000 0.0000 86.5740 0.0000 0.0000
# 5 0.0000 0.0000 0.0000 0.0000 29.0035 0.0000
# 6 0.0000 0.0000 0.0000 0.0000 0.0000 6.1892
#
#
#
# Elastic Compliance Matrix: (Units=1/GPa)
#
#
# Indices 1 2 3 4 5 6 
#
# 1 0.020347 0.005856 -0.009236 0.000000 0.000000 0.000000
# 2 0.005856 0.038856 -0.003825 0.000000 0.000000 0.000000
# 3 -0.009236 -0.003825 0.012070 0.000000 0.000000 0.000000
# 4 0.000000 0.000000 0.000000 0.011551 0.000000 0.000000
# 5 0.000000 0.000000 0.000000 0.000000 0.034479 0.000000
# 6 0.000000 0.000000 0.000000 0.000000 0.000000 0.161571
#
#
# Mechanical properties :
#
#
# Convention : Reuss Voigt Hill
#
# Bulk Modulus (GPa) = 17.58604 37.86193 27.72399
# Shear Modulus (GPa) = 16.01354 36.11403 26.06378
#
# Velocity S-wave (km/s) = 2.77379 4.16551 3.53874
# Velocity P-wave (km/s) = 4.32527 6.42857 5.47880
#
# Compressibility (1/GPa) = 0.05686328
#
# Stress axis : x y z
#
# Youngs Moduli (GPa) = 49.14797 25.73634 82.85053
#
# Poissons Ratio (x) = -0.15072 0.76523
# Poissons Ratio (y) = -0.28783 0.31687
# Poissons Ratio (z) = 0.45394 0.09843
#
# Static dielectric constant tensor:
#      x y z
#    x 1.822960 0.000000 0.000000 
#    y 0.000000 1.767980 0.000000 
#    z 0.000000 0.000000 1.765650 
# 
# From -- ./inp_files/25847.got.cif
#   From: 2010.05.17/outbox.cif.g08.bks.cpg/sg51_13_cif.got.tgz:25847.got - 2010.06.03 11:52:47.
