data_PCOD9402385
_publ_section_title
;
Structure prediction by ZEFSAII (Michael W. Deem and Ramdas Pophale) SiO2 
 PCOD9402385
Probable space group: P M M A
;
_chemical_formula_sum "Si O2"
_cell_formula_units_Z 48
_cell_length_a 18.896751
_cell_length_b 14.256001
_cell_length_c 8.862515
_cell_angle_alpha 90.000000
_cell_angle_beta 90.000000
_cell_angle_gamma 90.000000
_cell_volume 2387.491537
_symmetry_space_group_name_H-M "P M M A"
_symmetry_group_IT_number 51
_symmetry_cell_setting 'orthorhombic'
loop_
_space_group_symop_operation_xyz
x,y,z
1/2-x,-y,z
1/2+x,-y,-z
-x,y,-z
-x,-y,-z
1/2+x,y,-z
1/2-x,y,z
x,-y,z
loop_
_atom_site_type_symbol
_atom_site_label
_atom_site_fract_x
_atom_site_fract_y
_atom_site_fract_z
Si Si1 0.832899 0.610618 0.898231
Si Si2 0.666491 0.296333 0.573002
Si Si3 0.335578 0.895468 0.285942
Si Si4 0.435579 0.737574 0.899271
Si Si5 0.442922 0.392881 0.632938
Si Si6 0.332452 0.109601 0.926529
O O1 0.750000 0.628655 0.935434
O O2 0.846610 0.500000 0.912865
O O3 0.842565 0.642427 0.725147
O O4 0.883719 0.670990 0.003472
O O5 0.750000 0.290016 0.541972
O O6 0.638826 0.192157 0.615776
O O7 0.626891 0.346729 0.437670
O O8 0.250000 0.896687 0.300783
O O9 0.361675 0.000000 0.325415
O O10 0.347397 0.879353 0.106844
O O11 0.466816 0.673004 0.768331
O O12 0.386729 0.822733 0.843480
O O13 0.500000 0.773687 0.000000
O O14 0.500000 0.393143 0.500000
O O15 0.431171 0.500000 0.682305
O O16 0.250000 0.134151 0.901360
O O17 0.341102 0.000000 0.890132
#
# Coordination Sequence:
#
# PCOD9402385 Si02
#       6
#     8   8   8   8   8   8
#     4  10  20  35  58  87 116 148 195 251 301 353
#     4  10  19  35  60  87 116 151 192 238 291 352
#     4   8  14  28  56  90 117 145 183 227 278 341
#     4  12  24  38  61  88 117 154 201 253 301 350
#     4  11  26  44  58  77 115 162 204 242 295 360
#     4   9  18  36  63  93 123 153 189 238 296 354
#
# _framework density 20.104785
#
# number of rings (size 3 to 8) (size 9 to 14) (size 15 to 20)
#    0.000    2.000    1.667    3.500    0.000    5.333 
#    0.000    0.833    0.000    3.000    0.000    0.000 
#    0.000    0.000    0.000    0.000    0.000    0.000 
#
# Total GULP energy -268123.601293 kJ/mol
# GULP energy per Si atom -5585.908360 kJ/mol
# Density = 2.005903 g / cm^3
# Si number density = 20.104785 Si / 1000 Ang^3
#
#
#
# Elastic Constant Matrix: (Units=GPa)
#
#
# Indices 1 2 3 4 5 6 
#
# 1 50.0949 35.5300 3.8116 0.0000 0.0000 0.0000
# 2 35.5300 112.2283 7.1380 0.0000 0.0000 0.0000
# 3 3.8116 7.1380 14.7995 0.0000 0.0000 0.0000
# 4 0.0000 0.0000 0.0000 18.6063 0.0000 0.0000
# 5 0.0000 0.0000 0.0000 0.0000 23.3504 0.0000
# 6 0.0000 0.0000 0.0000 0.0000 0.0000 7.2384
#
#
#
# Elastic Compliance Matrix: (Units=1/GPa)
#
#
# Indices 1 2 3 4 5 6 
#
# 1 0.025854 -0.008007 -0.002797 0.000000 0.000000 0.000000
# 2 -0.008007 0.011672 -0.003568 0.000000 0.000000 0.000000
# 3 -0.002797 -0.003568 0.070011 0.000000 0.000000 0.000000
# 4 0.000000 0.000000 0.000000 0.053745 0.000000 0.000000
# 5 0.000000 0.000000 0.000000 0.000000 0.042826 0.000000
# 6 0.000000 0.000000 0.000000 0.000000 0.000000 0.138152
#
#
# Mechanical properties :
#
#
# Convention : Reuss Voigt Hill
#
# Bulk Modulus (GPa) = 12.69125 30.00909 21.35017
# Shear Modulus (GPa) = 12.58598 18.54856 15.56727
#
# Velocity S-wave (km/s) = 2.50475 3.04072 2.78566
# Velocity P-wave (km/s) = 3.83292 5.22367 4.58138
#
# Compressibility (1/GPa) = 0.07879447
#
# Stress axis : x y z
#
# Youngs Moduli (GPa) = 38.67868 85.67305 14.28352
#
# Poissons Ratio (x) = 0.68600 0.03995
# Poissons Ratio (y) = 0.30971 0.05096
# Poissons Ratio (z) = 0.10817 0.30564
#
# Static dielectric constant tensor:
#      x y z
#    x 1.700850 0.000000 0.000000 
#    y 0.000000 1.727110 0.000000 
#    z 0.000000 0.000000 1.709970 
# 
# From -- ./inp_files/9598.got.cif
#   From: 2010.05.17/outbox.cif.g08.bks.cpg/sg51_5_cif.got.tgz:9598.got - 2010.06.03 11:52:47.
