data_PCOD9402875
_publ_section_title
;
Structure prediction by ZEFSAII (Michael W. Deem and Ramdas Pophale) SiO2 
 PCOD9402875
Probable space group: P M M A
;
_chemical_formula_sum "Si O2"
_cell_formula_units_Z 52
_cell_length_a 7.711511
_cell_length_b 22.670432
_cell_length_c 14.194887
_cell_angle_alpha 90.000000
_cell_angle_beta 90.000000
_cell_angle_gamma 90.000000
_cell_volume 2481.596786
_symmetry_space_group_name_H-M "P M M A"
_symmetry_group_IT_number 51
_symmetry_cell_setting 'orthorhombic'
loop_
_space_group_symop_operation_xyz
x,y,z
1/2-x,-y,z
1/2+x,-y,-z
-x,y,-z
-x,-y,-z
1/2+x,y,-z
1/2-x,y,z
x,-y,z
loop_
_atom_site_type_symbol
_atom_site_label
_atom_site_fract_x
_atom_site_fract_y
_atom_site_fract_z
Si Si1 0.541226 0.500000 0.609463
Si Si2 0.041026 0.065177 0.110215
Si Si3 0.044307 0.619678 0.299202
Si Si4 0.456226 0.432790 0.892218
Si Si5 0.944436 0.158842 0.751110
Si Si6 0.544966 0.068857 0.396078
Si Si7 0.959651 0.741331 0.610627
O O1 0.750000 0.500000 0.621965
O O2 0.500000 0.500000 0.500000
O O3 0.471374 0.440548 0.656670
O O4 0.250000 0.065745 0.122174
O O5 0.971408 0.124181 0.161121
O O6 0.978924 0.000000 0.145244
O O7 0.000000 0.067372 0.000000
O O8 0.250000 0.620396 0.316812
O O9 0.976804 0.677846 0.351316
O O10 0.019656 0.612350 0.187214
O O11 0.250000 0.435359 0.884347
O O12 0.525546 0.500000 0.875025
O O13 0.500000 0.417267 0.000000
O O14 0.750000 0.178487 0.778991
O O15 0.025163 0.210452 0.686913
O O16 0.937866 0.104960 0.678160
O O17 0.500000 0.090907 0.500000
O O18 0.750000 0.075809 0.378689
O O19 0.501490 0.000000 0.392548
O O20 0.750000 0.743674 0.615994
O O21 0.000000 0.750802 0.500000
#
# Coordination Sequence:
#
# PCOD9402875 Si02
#       7
#     4   8   8   8   8   8   8
#     4  10  20  32  51  76 103 136 175 224 280 332
#     4   9  18  33  54  79 106 136 172 217 269 322
#     4  10  20  36  55  78 109 145 183 227 279 331
#     4  10  20  34  56  85 113 142 176 219 271 329
#     4  10  20  35  54  76 104 141 180 219 268 321
#     4  10  20  32  48  73 103 134 171 217 266 316
#     4  10  22  38  56  78 108 146 186 228 271 323
#
# _framework density 20.954249999999998
#
# number of rings (size 3 to 8) (size 9 to 14) (size 15 to 20)
#    0.000    2.154    0.769    2.308    0.000    5.846 
#    0.000    2.308    0.000    1.846    0.000    0.000 
#    0.000    0.000    0.000    0.000    0.000    0.000 
#
# Total GULP energy -290018.555975 kJ/mol
# GULP energy per Si atom -5577.279923 kJ/mol
# Density = 2.090656 g / cm^3
# Si number density = 20.954250 Si / 1000 Ang^3
#
#
#
# Elastic Constant Matrix: (Units=GPa)
#
#
# Indices 1 2 3 4 5 6 
#
# 1 35.4748 13.8652 -10.8672 0.0000 0.0000 0.0000
# 2 13.8652 132.5627 70.5341 0.0000 0.0000 0.0000
# 3 -10.8672 70.5341 115.4749 0.0000 0.0000 0.0000
# 4 0.0000 0.0000 0.0000 44.1276 0.0000 0.0000
# 5 0.0000 0.0000 0.0000 0.0000 28.6308 0.0000
# 6 0.0000 0.0000 0.0000 0.0000 0.0000 4.0417
#
#
#
# Elastic Compliance Matrix: (Units=1/GPa)
#
#
# Indices 1 2 3 4 5 6 
#
# 1 0.033609 -0.007701 0.007867 0.000000 0.000000 0.000000
# 2 -0.007701 0.012940 -0.008629 0.000000 0.000000 0.000000
# 3 0.007867 -0.008629 0.014671 0.000000 0.000000 0.000000
# 4 0.000000 0.000000 0.000000 0.022662 0.000000 0.000000
# 5 0.000000 0.000000 0.000000 0.000000 0.034927 0.000000
# 6 0.000000 0.000000 0.000000 0.000000 0.000000 0.247422
#
#
# Mechanical properties :
#
#
# Convention : Reuss Voigt Hill
#
# Bulk Modulus (GPa) = 22.57654 47.84185 35.20919
# Shear Modulus (GPa) = 12.56528 29.35870 20.96199
#
# Velocity S-wave (km/s) = 2.45144 3.74717 3.16629
# Velocity P-wave (km/s) = 4.33709 6.45003 5.49605
#
# Compressibility (1/GPa) = 0.04429377
#
# Stress axis : x y z
#
# Youngs Moduli (GPa) = 29.75410 77.27754 68.16198
#
# Poissons Ratio (x) = 0.59512 -0.53622
# Poissons Ratio (y) = 0.22914 0.58817
# Poissons Ratio (z) = -0.23407 0.66682
#
# Static dielectric constant tensor:
#      x y z
#    x -0.836080 0.000000 0.000000 
#    y 0.000000 1.787040 0.000000 
#    z 0.000000 0.000000 1.763910 
# 
# From -- ./inp_files/21610.got.cif
#   From: 2010.05.17/outbox.cif.g08.bks.cpg/sg51_11_cif.got.tgz:21610.got - 2010.06.03 11:52:47.
