data_PCOD9402266
_publ_section_title
;
Structure prediction by ZEFSAII (Michael W. Deem and Ramdas Pophale) SiO2 
 PCOD9402266
Probable space group: P M M A
;
_chemical_formula_sum "Si O2"
_cell_formula_units_Z 56
_cell_length_a 19.554312
_cell_length_b 7.427054
_cell_length_c 16.972437
_cell_angle_alpha 90.000000
_cell_angle_beta 90.000000
_cell_angle_gamma 90.000000
_cell_volume 2464.922830
_symmetry_space_group_name_H-M "P M M A"
_symmetry_group_IT_number 51
_symmetry_cell_setting 'orthorhombic'
loop_
_space_group_symop_operation_xyz
x,y,z
1/2-x,-y,z
1/2+x,-y,-z
-x,y,-z
-x,-y,-z
1/2+x,y,-z
1/2-x,y,z
x,-y,z
loop_
_atom_site_type_symbol
_atom_site_label
_atom_site_fract_x
_atom_site_fract_y
_atom_site_fract_z
Si Si1 0.171132 0.282116 0.493575
Si Si2 0.415158 0.287640 0.168357
Si Si3 0.829292 0.718849 0.683272
Si Si4 0.536787 0.793396 0.423799
Si Si5 0.576043 0.207081 0.005394
Si Si6 0.828104 0.779555 0.145755
Si Si7 0.447759 0.215779 0.747620
O O1 0.250000 0.228416 0.505890
O O2 0.169053 0.500000 0.496117
O O3 0.149784 0.224707 0.404836
O O4 0.117069 0.209931 0.555520
O O5 0.402527 0.500000 0.163413
O O6 0.374122 0.215701 0.243995
O O7 0.396510 0.209762 0.083694
O O8 0.494606 0.256471 0.188013
O O9 0.750000 0.768376 0.693728
O O10 0.832489 0.500000 0.682919
O O11 0.500000 0.708970 0.500000
O O12 0.528858 0.711006 0.337289
O O13 0.512213 0.000000 0.419347
O O14 0.565319 0.000000 0.030837
O O15 0.500000 0.291057 0.000000
O O16 0.630056 0.280720 0.068044
O O17 0.750000 0.718239 0.147539
O O18 0.874665 0.722966 0.219865
O O19 0.826227 0.000000 0.145292
O O20 0.443647 0.000000 0.739448
#
# Coordination Sequence:
#
# PCOD9402266 Si02
#       7
#     8   8   8   8   8   8   8
#     4   9  18  34  55  75 100 140 184 220 262 321
#     4  11  21  32  54  83 107 134 174 218 261 313
#     4   8  16  32  51  73 104 141 177 213 258 315
#     4  10  21  34  51  79 111 140 177 227 278 322
#     4  10  19  35  56  75 100 136 170 208 262 316
#     4   9  18  34  56  78  98 131 181 220 248 304
#     4  10  20  36  55  75 105 144 178 214 264 320
#
# _framework density 22.718765000000001
#
# number of rings (size 3 to 8) (size 9 to 14) (size 15 to 20)
#    0.000    2.429    1.429    2.143    0.000    2.571 
#    0.000    2.143    0.000    4.286    0.000    0.000 
#    0.000    0.000    0.000    0.000    0.000    0.000 
#
# Total GULP energy -312809.382328 kJ/mol
# GULP energy per Si atom -5585.881827 kJ/mol
# Density = 2.266706 g / cm^3
# Si number density = 22.718765 Si / 1000 Ang^3
#
#
#
# Elastic Constant Matrix: (Units=GPa)
#
#
# Indices 1 2 3 4 5 6 
#
# 1 60.0982 -1.1043 17.9479 0.0000 0.0000 0.0000
# 2 -1.1043 76.6846 -1.3883 0.0000 0.0000 0.0000
# 3 17.9479 -1.3883 112.4638 0.0000 0.0000 0.0000
# 4 0.0000 0.0000 0.0000 -6.3031 0.0000 0.0000
# 5 0.0000 0.0000 0.0000 0.0000 35.7384 0.0000
# 6 0.0000 0.0000 0.0000 0.0000 0.0000 12.4823
#
#
#
# Elastic Compliance Matrix: (Units=1/GPa)
#
#
# Indices 1 2 3 4 5 6 
#
# 1 0.017475 0.000201 -0.002786 0.000000 0.000000 0.000000
# 2 0.000201 0.013046 0.000129 0.000000 0.000000 0.000000
# 3 -0.002786 0.000129 0.009338 0.000000 0.000000 0.000000
# 4 0.000000 0.000000 0.000000 -0.158651 0.000000 0.000000
# 5 0.000000 0.000000 0.000000 0.000000 0.027981 0.000000
# 6 0.000000 0.000000 0.000000 0.000000 0.000000 0.080114
#
#
# Mechanical properties :
#
#
# Convention : Reuss Voigt Hill
#
# Bulk Modulus (GPa) = 28.61517 31.12857 29.87187
# Shear Modulus (GPa) = 852.68916 23.96960 438.32938
#
# Velocity S-wave (km/s) = 19.39429 3.25169 13.90525
# Velocity P-wave (km/s) = 22.67467 5.27536 16.46162
#
# Compressibility (1/GPa) = 0.03494650
#
# Stress axis : x y z
#
# Youngs Moduli (GPa) = 57.22373 76.65388 107.08915
#
# Poissons Ratio (x) = -0.01542 0.29839
# Poissons Ratio (y) = -0.01151 -0.01381
# Poissons Ratio (z) = 0.15945 -0.00988
#
# Static dielectric constant tensor:
#      x y z
#    x 1.827750 0.000000 0.000000 
#    y 0.000000 1.841860 0.000000 
#    z 0.000000 0.000000 1.848390 
# 
# From -- ./inp_files/25781.got.cif
#   From: 2010.05.17/outbox.cif.g08.bks.cpg/sg51_13_cif.got.tgz:25781.got - 2010.06.03 11:52:47.
