data_PCOD9402695
_publ_section_title
;
Structure prediction by ZEFSAII (Michael W. Deem and Ramdas Pophale) SiO2 
 PCOD9402695
Probable space group: P M M A
;
_chemical_formula_sum "Si O2"
_cell_formula_units_Z 56
_cell_length_a 19.089590
_cell_length_b 9.322347
_cell_length_c 19.474315
_cell_angle_alpha 90.000000
_cell_angle_beta 90.000000
_cell_angle_gamma 90.000000
_cell_volume 3465.644853
_symmetry_space_group_name_H-M "P M M A"
_symmetry_group_IT_number 51
_symmetry_cell_setting 'orthorhombic'
loop_
_space_group_symop_operation_xyz
x,y,z
1/2-x,-y,z
1/2+x,-y,-z
-x,y,-z
-x,-y,-z
1/2+x,y,-z
1/2-x,y,z
x,-y,z
loop_
_atom_site_type_symbol
_atom_site_label
_atom_site_fract_x
_atom_site_fract_y
_atom_site_fract_z
Si Si1 0.480253 0.663019 0.282658
Si Si2 0.616472 0.165470 0.111801
Si Si3 0.827281 0.170200 0.380710
Si Si4 0.049565 0.835213 0.152902
Si Si5 0.855322 0.664190 0.242750
Si Si6 0.536156 0.671570 0.427294
Si Si7 0.417226 0.665276 0.020585
O O1 0.452593 0.500000 0.279668
O O2 0.443212 0.765877 0.228159
O O3 0.561080 0.657572 0.257265
O O4 0.487236 0.710878 0.361880
O O5 0.533592 0.165015 0.133064
O O6 0.654795 0.255856 0.170834
O O7 0.639042 0.000000 0.109185
O O8 0.620434 0.243748 0.038669
O O9 0.750000 0.192568 0.411779
O O10 0.827017 0.242983 0.305665
O O11 0.891003 0.244634 0.420288
O O12 0.839383 0.000000 0.374205
O O13 0.086499 0.740957 0.094364
O O14 0.072572 0.000000 0.151306
O O15 0.830478 0.500000 0.242517
O O16 0.500000 0.698003 0.500000
O O17 0.549318 0.500000 0.420274
O O18 0.394255 0.500000 0.022197
O O19 0.500000 0.664559 0.000000
#
# Coordination Sequence:
#
# PCOD9402695 Si02
#       7
#     8   8   8   8   8   8   8
#     4   8  14  24  37  53  74 100 131 168 209 254
#     4   9  15  22  32  47  69  96 128 167 207 245
#     4  10  20  32  46  66  91 118 149 185 225 269
#     4   9  15  21  30  45  66  94 129 166 203 244
#     4   9  16  26  40  56  75 103 139 175 211 252
#     4   9  18  32  49  68  89 115 149 187 228 278
#     4   9  15  21  29  42  63  93 129 166 203 243
#
# _framework density 16.158608999999998
#
# number of rings (size 3 to 8) (size 9 to 14) (size 15 to 20)
#    0.000    3.000    0.000    3.000    0.000   10.000 
#    0.000    0.000    0.000    0.000    0.000    0.000 
#    0.000    0.000    0.000    1.286    0.000   23.714 
#
# Total GULP energy -311862.477055 kJ/mol
# GULP energy per Si atom -5568.972805 kJ/mol
# Density = 1.612183 g / cm^3
# Si number density = 16.158609 Si / 1000 Ang^3
#
#
#
# Elastic Constant Matrix: (Units=GPa)
#
#
# Indices 1 2 3 4 5 6 
#
# 1 27.3088 29.1098 29.1801 0.0000 0.0000 0.0000
# 2 29.1098 119.9690 79.6241 0.0000 0.0000 0.0000
# 3 29.1801 79.6241 139.4995 0.0000 0.0000 0.0000
# 4 0.0000 0.0000 0.0000 18.3742 0.0000 0.0000
# 5 0.0000 0.0000 0.0000 0.0000 1.8677 0.0000
# 6 0.0000 0.0000 0.0000 0.0000 0.0000 -0.5789
#
#
#
# Elastic Compliance Matrix: (Units=1/GPa)
#
#
# Indices 1 2 3 4 5 6 
#
# 1 0.052292 -0.008739 -0.005950 0.000000 0.000000 0.000000
# 2 -0.008739 0.014880 -0.006665 0.000000 0.000000 0.000000
# 3 -0.005950 -0.006665 0.012217 0.000000 0.000000 0.000000
# 4 0.000000 0.000000 0.000000 0.054424 0.000000 0.000000
# 5 0.000000 0.000000 0.000000 0.000000 0.535428 0.000000
# 6 0.000000 0.000000 0.000000 0.000000 0.000000 -1.727469
#
#
# Mechanical properties :
#
#
# Convention : Reuss Voigt Hill
#
# Bulk Modulus (GPa) = 27.26273 62.51170 44.88721
# Shear Modulus (GPa) = -4.98359 13.85681 4.43661
#
# Velocity S-wave (km/s) = -1.75809 2.93157 1.65880
# Velocity P-wave (km/s) = 3.57595 7.08725 5.61322
#
# Compressibility (1/GPa) = 0.03668012
#
# Stress axis : x y z
#
# Youngs Moduli (GPa) = 19.12356 67.20609 81.85065
#
# Poissons Ratio (x) = 0.58733 0.48701
# Poissons Ratio (y) = 0.16712 0.54554
# Poissons Ratio (z) = 0.11379 0.44793
#
# Static dielectric constant tensor:
#      x y z
#    x 1.540670 0.000000 0.000000 
#    y 0.000000 1.544350 0.000000 
#    z 0.000000 0.000000 1.539340 
# 
# From -- ./inp_files/33739.got.cif
#   From: 2010.05.17/outbox.cif.g08.bks.cpg/sg51_17_cif.got.tgz:33739.got - 2010.06.03 11:52:47.
