data_PCOD9402671
_publ_section_title
;
Structure prediction by ZEFSAII (Michael W. Deem and Ramdas Pophale) SiO2 
 PCOD9402671
Probable space group: P M M A
;
_chemical_formula_sum "Si O2"
_cell_formula_units_Z 44
_cell_length_a 9.295302
_cell_length_b 7.511962
_cell_length_c 31.908273
_cell_angle_alpha 90.000000
_cell_angle_beta 90.000000
_cell_angle_gamma 90.000000
_cell_volume 2228.025647
_symmetry_space_group_name_H-M "P M M A"
_symmetry_group_IT_number 51
_symmetry_cell_setting 'orthorhombic'
loop_
_space_group_symop_operation_xyz
x,y,z
1/2-x,-y,z
1/2+x,-y,-z
-x,y,-z
-x,-y,-z
1/2+x,y,-z
1/2-x,y,z
x,-y,z
loop_
_atom_site_type_symbol
_atom_site_label
_atom_site_fract_x
_atom_site_fract_y
_atom_site_fract_z
Si Si1 0.425424 0.705211 0.888696
Si Si2 0.423947 0.000000 0.955420
Si Si3 0.080296 0.715750 0.797590
Si Si4 0.415184 0.782185 0.541623
Si Si5 0.088052 0.212022 0.377278
Si Si6 0.584514 0.285679 0.293269
O O1 0.250000 0.706664 0.886512
O O2 0.469694 0.500000 0.894420
O O3 0.465555 0.829883 0.927128
O O4 0.476551 0.774210 0.842935
O O5 0.250000 0.000000 0.960307
O O6 0.500000 0.000000 0.000000
O O7 0.250000 0.760388 0.796190
O O8 0.070855 0.500000 0.799187
O O9 0.024446 0.775427 0.752156
O O10 0.500000 0.727318 0.500000
O O11 0.250000 0.724710 0.540663
O O12 0.494538 0.720104 0.583736
O O13 0.414576 0.000000 0.541886
O O14 0.250000 0.284246 0.377079
O O15 0.009983 0.239394 0.333125
O O16 0.097944 0.000000 0.383451
O O17 0.750000 0.222865 0.298591
O O18 0.590690 0.500000 0.291055
#
# Coordination Sequence:
#
# PCOD9402671 Si02
#       6
#     8   4   8   8   8   8
#     4   8  14  27  47  70  97 127 161 206 253 296
#     4  10  20  32  48  72 100 130 168 206 249 302
#     4   7  11  23  44  68  92 116 147 191 237 279
#     4   9  16  27  45  67  90 118 155 199 246 292
#     4  10  20  32  45  65  96 129 161 196 233 280
#     4   9  17  30  49  72  96 122 153 193 243 293
#
# _framework density 19.748425999999998
#
# number of rings (size 3 to 8) (size 9 to 14) (size 15 to 20)
#    0.000    3.273    0.000    3.273    0.000    4.000 
#    1.636    0.000    0.000    1.636    0.000    2.545 
#    0.000    0.000    0.000    0.000    0.000    0.000 
#
# Total GULP energy -245197.913358 kJ/mol
# GULP energy per Si atom -5572.679849 kJ/mol
# Density = 1.970348 g / cm^3
# Si number density = 19.748426 Si / 1000 Ang^3
#
#
#
# Elastic Constant Matrix: (Units=GPa)
#
#
# Indices 1 2 3 4 5 6 
#
# 1 89.5079 17.7909 89.0255 0.0000 0.0000 0.0000
# 2 17.7909 63.1296 39.9975 0.0000 0.0000 0.0000
# 3 89.0255 39.9975 249.3082 0.0000 0.0000 0.0000
# 4 0.0000 0.0000 0.0000 26.3195 0.0000 0.0000
# 5 0.0000 0.0000 0.0000 0.0000 28.1723 0.0000
# 6 0.0000 0.0000 0.0000 0.0000 0.0000 4.1207
#
#
#
# Elastic Compliance Matrix: (Units=1/GPa)
#
#
# Indices 1 2 3 4 5 6 
#
# 1 0.017391 -0.001076 -0.006038 0.000000 0.000000 0.000000
# 2 -0.001076 0.017699 -0.002455 0.000000 0.000000 0.000000
# 3 -0.006038 -0.002455 0.006561 0.000000 0.000000 0.000000
# 4 0.000000 0.000000 0.000000 0.037995 0.000000 0.000000
# 5 0.000000 0.000000 0.000000 0.000000 0.035496 0.000000
# 6 0.000000 0.000000 0.000000 0.000000 0.000000 0.242680
#
#
# Mechanical properties :
#
#
# Convention : Reuss Voigt Hill
#
# Bulk Modulus (GPa) = 44.41724 77.28593 60.85158
# Shear Modulus (GPa) = 13.00512 28.73129 20.86821
#
# Velocity S-wave (km/s) = 2.56899 3.81841 3.25422
# Velocity P-wave (km/s) = 5.59821 7.65901 6.70822
#
# Compressibility (1/GPa) = 0.02251378
#
# Stress axis : x y z
#
# Youngs Moduli (GPa) = 57.50082 56.49939 152.41603
#
# Poissons Ratio (x) = 0.06078 0.92022
# Poissons Ratio (y) = 0.06186 0.37424
# Poissons Ratio (z) = 0.34717 0.13873
#
# Static dielectric constant tensor:
#      x y z
#    x 1.671080 0.000000 0.000000 
#    y 0.000000 1.777820 0.000000 
#    z 0.000000 0.000000 1.704280 
# 
# From -- ./inp_files/36721.got.cif
#   From: 2010.05.17/outbox.cif.g08.bks.cpg/sg51_19_cif.got.tgz:36721.got - 2010.06.03 11:52:47.
