data_PCOD9402728
_publ_section_title
;
Structure prediction by ZEFSAII (Michael W. Deem and Ramdas Pophale) SiO2 
 PCOD9402728
Probable space group: P M M A
;
_chemical_formula_sum "Si O2"
_cell_formula_units_Z 52
_cell_length_a 7.778509
_cell_length_b 15.796890
_cell_length_c 20.540037
_cell_angle_alpha 90.000000
_cell_angle_beta 90.000000
_cell_angle_gamma 90.000000
_cell_volume 2523.882743
_symmetry_space_group_name_H-M "P M M A"
_symmetry_group_IT_number 51
_symmetry_cell_setting 'orthorhombic'
loop_
_space_group_symop_operation_xyz
x,y,z
1/2-x,-y,z
1/2+x,-y,-z
-x,y,-z
-x,-y,-z
1/2+x,y,-z
1/2-x,y,z
x,-y,z
loop_
_atom_site_type_symbol
_atom_site_label
_atom_site_fract_x
_atom_site_fract_y
_atom_site_fract_z
Si Si1 0.040641 0.336062 0.646173
Si Si2 0.453575 0.225552 0.185694
Si Si3 0.454773 0.500000 0.573616
Si Si4 0.952200 0.402660 0.788631
Si Si5 0.044791 0.904711 0.925075
Si Si6 0.455243 0.908172 0.290209
Si Si7 0.454720 0.164506 0.576129
O O1 0.250000 0.332443 0.649719
O O2 0.978886 0.415216 0.604735
O O3 0.980984 0.253048 0.607544
O O4 0.974258 0.361314 0.717123
O O5 0.250000 0.236547 0.197759
O O6 0.523874 0.320679 0.172131
O O7 0.475007 0.164179 0.124551
O O8 0.524858 0.171570 0.248073
O O9 0.250000 0.500000 0.583466
O O10 0.500000 0.500000 0.500000
O O11 0.750000 0.411719 0.803442
O O12 0.023454 0.500000 0.791345
O O13 0.250000 0.905517 0.918656
O O14 0.979347 0.000000 0.910458
O O15 0.000000 0.886284 0.000000
O O16 0.250000 0.908069 0.280328
O O17 0.486743 0.899726 0.367506
O O18 0.522726 0.000000 0.267689
O O19 0.500000 0.151981 0.500000
O O20 0.250000 0.165763 0.577720
#
# Coordination Sequence:
#
# PCOD9402728 Si02
#       7
#     8   8   4   8   8   8   8
#     4  10  20  34  51  72 100 134 174 225 282 339
#     4  10  20  36  59  86 119 154 187 228 278 330
#     4  10  20  32  46  68  96 128 167 216 277 338
#     4  10  20  34  56  84 111 144 186 230 276 328
#     4  10  21  37  60  92 127 160 193 228 270 323
#     4  10  21  37  57  80 106 141 185 230 280 338
#     4  11  23  37  54  74 100 137 182 232 288 344
#
# _framework density 20.603173999999999
#
# number of rings (size 3 to 8) (size 9 to 14) (size 15 to 20)
#    0.000    1.846    2.308    1.846    0.000    4.615 
#    0.000    0.000    0.000    0.462    0.000    0.000 
#    0.000    0.000    0.000    0.000    0.000    0.000 
#
# Total GULP energy -289798.063457 kJ/mol
# GULP energy per Si atom -5573.039682 kJ/mol
# Density = 2.055628 g / cm^3
# Si number density = 20.603174 Si / 1000 Ang^3
#
#
#
# Elastic Constant Matrix: (Units=GPa)
#
#
# Indices 1 2 3 4 5 6 
#
# 1 33.2022 12.1464 -9.0372 0.0000 0.0000 0.0000
# 2 12.1464 181.0325 60.7223 0.0000 0.0000 0.0000
# 3 -9.0372 60.7223 85.7347 0.0000 0.0000 0.0000
# 4 0.0000 0.0000 0.0000 33.6563 0.0000 0.0000
# 5 0.0000 0.0000 0.0000 0.0000 25.5665 0.0000
# 6 0.0000 0.0000 0.0000 0.0000 0.0000 8.1488
#
#
#
# Elastic Compliance Matrix: (Units=1/GPa)
#
#
# Indices 1 2 3 4 5 6 
#
# 1 0.033605 -0.004516 0.006741 0.000000 0.000000 0.000000
# 2 -0.004516 0.007852 -0.006037 0.000000 0.000000 0.000000
# 3 0.006741 -0.006037 0.016650 0.000000 0.000000 0.000000
# 4 0.000000 0.000000 0.000000 0.029712 0.000000 0.000000
# 5 0.000000 0.000000 0.000000 0.000000 0.039114 0.000000
# 6 0.000000 0.000000 0.000000 0.000000 0.000000 0.122718
#
#
# Mechanical properties :
#
#
# Convention : Reuss Voigt Hill
#
# Bulk Modulus (GPa) = 19.80875 47.51474 33.66174
# Shear Modulus (GPa) = 18.24134 29.21684 23.72909
#
# Velocity S-wave (km/s) = 2.97874 3.76982 3.39738
# Velocity P-wave (km/s) = 4.63312 6.48542 5.63589
#
# Compressibility (1/GPa) = 0.05048274
#
# Stress axis : x y z
#
# Youngs Moduli (GPa) = 29.75732 127.35878 60.05919
#
# Poissons Ratio (x) = 0.57511 -0.40483
# Poissons Ratio (y) = 0.13437 0.36258
# Poissons Ratio (z) = -0.20058 0.76888
#
# Static dielectric constant tensor:
#      x y z
#    x 1.769880 0.000000 0.000000 
#    y 0.000000 1.824990 0.000000 
#    z 0.000000 0.000000 1.738550 
# 
# From -- ./inp_files/31744.got.cif
#   From: 2010.05.17/outbox.cif.g08.bks.cpg/sg51_16_cif.got.tgz:31744.got - 2010.06.03 11:52:47.
