data_PCOD9402200
_publ_section_title
;
Structure prediction by ZEFSAII (Michael W. Deem and Ramdas Pophale) SiO2 
 PCOD9402200
Probable space group: P M M A
;
_chemical_formula_sum "Si O2"
_cell_formula_units_Z 52
_cell_length_a 23.166816
_cell_length_b 20.820080
_cell_length_c 4.993437
_cell_angle_alpha 90.000000
_cell_angle_beta 90.000000
_cell_angle_gamma 90.000000
_cell_volume 2408.509248
_symmetry_space_group_name_H-M "P M M A"
_symmetry_group_IT_number 51
_symmetry_cell_setting 'orthorhombic'
loop_
_space_group_symop_operation_xyz
x,y,z
1/2-x,-y,z
1/2+x,-y,-z
-x,y,-z
-x,-y,-z
1/2+x,y,-z
1/2-x,y,z
x,-y,z
loop_
_atom_site_type_symbol
_atom_site_label
_atom_site_fract_x
_atom_site_fract_y
_atom_site_fract_z
Si Si1 0.077929 0.751391 0.649486
Si Si2 0.750000 0.338266 0.107565
Si Si3 0.000000 0.852077 0.500000
Si Si4 0.358386 0.427691 0.029385
Si Si5 0.934717 0.926445 0.876825
Si Si6 0.250000 0.756906 0.379569
Si Si7 0.863981 0.804573 0.870138
Si Si8 0.565024 0.395822 0.452554
O O1 0.027269 0.802225 0.713323
O O2 0.094301 0.772077 0.349023
O O3 0.060118 0.678276 0.641556
O O4 0.129100 0.762806 0.860903
O O5 0.693289 0.383573 0.087735
O O6 0.750000 0.283565 0.342152
O O7 0.750000 0.300396 0.831738
O O8 0.050937 0.900595 0.420534
O O9 0.337524 0.500000 0.093689
O O10 0.404646 0.430644 0.792304
O O11 0.392607 0.400640 0.289554
O O12 0.886046 0.875165 0.956583
O O13 0.916846 0.000000 0.895319
O O14 0.000000 0.921836 0.000000
O O15 0.195378 0.799949 0.291791
O O16 0.500000 0.419311 0.500000
#
# Coordination Sequence:
#
# PCOD9402200 Si02
#       8
#     8   4   4   8   8   4   8   8
#     4  11  21  38  61  93 128 164 217 266 331 389
#     4  12  25  48  72  98 123 168 227 292 335 392
#     4  10  19  34  58  90 127 166 212 274 326 384
#     4  12  27  46  69  95 130 175 224 276 333 404
#     4  10  20  36  58  90 130 174 220 268 328 399
#     4  12  24  42  68  94 130 162 219 276 351 392
#     4  11  23  38  60  93 127 173 211 276 332 398
#     4  12  25  42  66 100 136 177 215 266 340 419
#
# _framework density 21.590119999999999
#
# number of rings (size 3 to 8) (size 9 to 14) (size 15 to 20)
#    0.000    0.769    2.308    6.923    0.000    1.846 
#    0.000    2.692    0.000    0.000    0.000    3.231 
#    0.000    0.000    0.000    0.000    0.000    0.000 
#
# Total GULP energy -289946.760505 kJ/mol
# GULP energy per Si atom -5575.899240 kJ/mol
# Density = 2.154098 g / cm^3
# Si number density = 21.590120 Si / 1000 Ang^3
#
#
#
# Elastic Constant Matrix: (Units=GPa)
#
#
# Indices 1 2 3 4 5 6 
#
# 1 101.8040 33.7236 16.1472 0.0000 0.0000 0.0000
# 2 33.7236 132.5322 9.4977 0.0000 0.0000 0.0000
# 3 16.1472 9.4977 100.9701 0.0000 0.0000 0.0000
# 4 0.0000 0.0000 0.0000 23.4812 0.0000 0.0000
# 5 0.0000 0.0000 0.0000 0.0000 27.4812 0.0000
# 6 0.0000 0.0000 0.0000 0.0000 0.0000 27.2291
#
#
#
# Elastic Compliance Matrix: (Units=1/GPa)
#
#
# Indices 1 2 3 4 5 6 
#
# 1 0.010948 -0.002678 -0.001499 0.000000 0.000000 0.000000
# 2 -0.002678 0.008252 -0.000348 0.000000 0.000000 0.000000
# 3 -0.001499 -0.000348 0.010176 0.000000 0.000000 0.000000
# 4 0.000000 0.000000 0.000000 0.042587 0.000000 0.000000
# 5 0.000000 0.000000 0.000000 0.000000 0.036389 0.000000
# 6 0.000000 0.000000 0.000000 0.000000 0.000000 0.036725
#
#
# Mechanical properties :
#
#
# Convention : Reuss Voigt Hill
#
# Bulk Modulus (GPa) = 49.19854 50.44926 49.82390
# Shear Modulus (GPa) = 31.07476 34.03416 32.55446
#
# Velocity S-wave (km/s) = 3.79793 3.97467 3.88730
# Velocity P-wave (km/s) = 6.48609 6.66945 6.57841
#
# Compressibility (1/GPa) = 0.02032581
#
# Stress axis : x y z
#
# Youngs Moduli (GPa) = 91.34303 121.18600 98.26720
#
# Poissons Ratio (x) = 0.32457 0.14729
# Poissons Ratio (y) = 0.24464 0.03419
# Poissons Ratio (z) = 0.13691 0.04216
#
# Static dielectric constant tensor:
#      x y z
#    x 1.939880 0.000000 0.000000 
#    y 0.000000 1.703100 0.000000 
#    z 0.000000 0.000000 1.862720 
# 
# From -- ./inp_files/2601.got.cif
#   From: 2010.05.17/outbox.cif.g08.bks.cpg/sg51_2_cif.got.tgz:2601.got - 2010.06.03 11:52:47.
