data_PCOD9402631
_publ_section_title
;
Structure prediction by ZEFSAII (Michael W. Deem and Ramdas Pophale) SiO2 
 PCOD9402631
Probable space group: P M M A
;
_chemical_formula_sum "Si O2"
_cell_formula_units_Z 48
_cell_length_a 9.202161
_cell_length_b 7.614491
_cell_length_c 36.404038
_cell_angle_alpha 90.000000
_cell_angle_beta 90.000000
_cell_angle_gamma 90.000000
_cell_volume 2550.822647
_symmetry_space_group_name_H-M "P M M A"
_symmetry_group_IT_number 51
_symmetry_cell_setting 'orthorhombic'
loop_
_space_group_symop_operation_xyz
x,y,z
1/2-x,-y,z
1/2+x,-y,-z
-x,y,-z
-x,-y,-z
1/2+x,y,-z
1/2-x,y,z
x,-y,z
loop_
_atom_site_type_symbol
_atom_site_label
_atom_site_fract_x
_atom_site_fract_y
_atom_site_fract_z
Si Si1 0.924033 0.704091 0.538080
Si Si2 0.075064 0.000000 0.403948
Si Si3 0.572602 0.297790 0.268251
Si Si4 0.915963 0.210211 0.108890
Si Si5 0.425616 0.000000 0.674712
Si Si6 0.083993 0.289295 0.811453
Si Si7 0.416638 0.215044 0.036714
O O1 0.750000 0.717117 0.533288
O O2 0.960491 0.500000 0.545372
O O3 0.964880 0.830706 0.571457
O O4 0.000000 0.756329 0.500000
O O5 0.997951 0.000000 0.364903
O O6 0.250000 0.000000 0.399115
O O7 0.750000 0.296765 0.266117
O O8 0.528028 0.500000 0.274168
O O9 0.531555 0.169338 0.301023
O O10 0.521054 0.233293 0.227890
O O11 0.750000 0.279671 0.108055
O O12 0.982873 0.246748 0.149070
O O13 0.005317 0.275130 0.073990
O O14 0.907678 0.000000 0.105495
O O15 0.250000 0.000000 0.671174
O O16 0.250000 0.219311 0.813461
O O17 0.091501 0.500000 0.808830
O O18 0.250000 0.270494 0.035662
O O19 0.418410 0.000000 0.036926
O O20 0.500000 0.270622 0.000000
#
# Coordination Sequence:
#
# PCOD9402631 Si02
#       7
#     8   4   8   8   4   8   8
#     4   9  18  33  53  76 101 132 169 208 251 297
#     4  10  21  35  49  70 104 138 166 201 249 300
#     4   8  15  28  45  68  97 124 155 201 250 288
#     4   9  16  24  39  65  88 106 136 176 215 259
#     4  10  20  31  49  74  97 128 171 211 246 286
#     4   8  14  25  42  64  89 115 141 176 225 273
#     4   9  16  26  40  58  84 115 143 173 212 257
#
# _framework density 18.817457999999998
#
# number of rings (size 3 to 8) (size 9 to 14) (size 15 to 20)
#    0.000    3.167    0.000    1.750    1.167    3.333 
#    0.000    0.000    0.000    2.000    0.000    2.333 
#    0.000    0.000    0.000    0.000    0.000    0.000 
#
# Total GULP energy -267473.476758 kJ/mol
# GULP energy per Si atom -5572.364099 kJ/mol
# Density = 1.877463 g / cm^3
# Si number density = 18.817458 Si / 1000 Ang^3
#
#
#
# Elastic Constant Matrix: (Units=GPa)
#
#
# Indices 1 2 3 4 5 6 
#
# 1 38.6077 22.6376 62.7648 0.0000 0.0000 0.0000
# 2 22.6376 70.2844 71.6831 0.0000 0.0000 0.0000
# 3 62.7648 71.6831 237.0890 0.0000 0.0000 0.0000
# 4 0.0000 0.0000 0.0000 23.0752 0.0000 0.0000
# 5 0.0000 0.0000 0.0000 0.0000 28.1593 0.0000
# 6 0.0000 0.0000 0.0000 0.0000 0.0000 2.2503
#
#
#
# Elastic Compliance Matrix: (Units=1/GPa)
#
#
# Indices 1 2 3 4 5 6 
#
# 1 0.046049 -0.003468 -0.011142 0.000000 0.000000 0.000000
# 2 -0.003468 0.020833 -0.005381 0.000000 0.000000 0.000000
# 3 -0.011142 -0.005381 0.008794 0.000000 0.000000 0.000000
# 4 0.000000 0.000000 0.000000 0.043337 0.000000 0.000000
# 5 0.000000 0.000000 0.000000 0.000000 0.035512 0.000000
# 6 0.000000 0.000000 0.000000 0.000000 0.000000 0.444381
#
#
# Mechanical properties :
#
#
# Convention : Reuss Voigt Hill
#
# Bulk Modulus (GPa) = 28.01554 73.35024 50.68289
# Shear Modulus (GPa) = 7.68304 23.28999 15.48652
#
# Velocity S-wave (km/s) = 2.02282 3.52188 2.87189
# Velocity P-wave (km/s) = 4.51399 7.45672 6.16356
#
# Compressibility (1/GPa) = 0.03569448
#
# Stress axis : x y z
#
# Youngs Moduli (GPa) = 21.71621 48.00179 113.71041
#
# Poissons Ratio (x) = 0.16646 1.26696
# Poissons Ratio (y) = 0.07531 0.61183
# Poissons Ratio (z) = 0.24196 0.25828
#
# Static dielectric constant tensor:
#      x y z
#    x 1.637470 0.000000 0.000000 
#    y 0.000000 1.688020 0.000000 
#    z 0.000000 0.000000 1.651090 
# 
# From -- ./inp_files/37219.got.cif
#   From: 2010.05.17/outbox.cif.g08.bks.cpg/sg51_19_cif.got.tgz:37219.got - 2010.06.03 11:52:47.
