data_PCOD9402692
_publ_section_title
;
Structure prediction by ZEFSAII (Michael W. Deem and Ramdas Pophale) SiO2 
 PCOD9402692
Probable space group: P M M A
;
_chemical_formula_sum "Si O2"
_cell_formula_units_Z 56
_cell_length_a 7.958589
_cell_length_b 15.467994
_cell_length_c 23.299223
_cell_angle_alpha 90.000000
_cell_angle_beta 90.000000
_cell_angle_gamma 90.000000
_cell_volume 2868.213729
_symmetry_space_group_name_H-M "P M M A"
_symmetry_group_IT_number 51
_symmetry_cell_setting 'orthorhombic'
loop_
_space_group_symop_operation_xyz
x,y,z
1/2-x,-y,z
1/2+x,-y,-z
-x,y,-z
-x,-y,-z
1/2+x,y,-z
1/2-x,y,z
x,-y,z
loop_
_atom_site_type_symbol
_atom_site_label
_atom_site_fract_x
_atom_site_fract_y
_atom_site_fract_z
Si Si1 0.551925 0.902474 0.228934
Si Si2 0.545402 0.402204 0.838273
Si Si3 0.552633 0.904820 0.900046
Si Si4 0.955137 0.597148 0.706077
Si Si5 0.450582 0.902443 0.565409
Si Si6 0.449485 0.779094 0.332107
Si Si7 0.547035 0.276221 0.937925
O O1 0.750000 0.901724 0.216897
O O2 0.461755 0.887626 0.168300
O O3 0.514950 0.833245 0.277714
O O4 0.506325 0.000000 0.248984
O O5 0.750000 0.399886 0.838524
O O6 0.494887 0.500000 0.853273
O O7 0.495406 0.385850 0.772449
O O8 0.485126 0.333919 0.884944
O O9 0.750000 0.909262 0.914226
O O10 0.479491 0.821578 0.931532
O O11 0.477931 0.000000 0.911495
O O12 0.750000 0.594681 0.704562
O O13 0.012035 0.500000 0.690120
O O14 0.012506 0.680018 0.669869
O O15 0.500000 0.882539 0.500000
O O16 0.250000 0.905278 0.569063
O O17 0.510699 0.832061 0.610676
O O18 0.514999 0.000000 0.578573
O O19 0.250000 0.775400 0.325701
O O20 0.750000 0.273361 0.933937
O O21 0.500000 0.311914 0.000000
#
# Coordination Sequence:
#
# PCOD9402692 Si02
#       7
#     8   8   8   8   8   8   8
#     4  10  20  32  47  71 102 132 162 200 248 300
#     4   8  14  27  47  68  91 120 153 191 237 288
#     4   9  18  33  50  66  87 118 157 200 243 290
#     4   8  15  29  50  76 102 128 163 206 249 295
#     4  10  21  37  55  76 106 143 180 216 252 291
#     4  11  20  30  51  80 107 137 171 207 248 295
#     4  10  20  32  46  66  90 117 153 195 239 290
#
# _framework density 19.524348
#
# number of rings (size 3 to 8) (size 9 to 14) (size 15 to 20)
#    0.000    2.571    0.000    3.429    0.000    6.857 
#    0.000    0.000    0.000    2.143    0.000    4.000 
#    0.000    0.000    0.000    0.000    0.000    0.000 
#
# Total GULP energy -312426.828636 kJ/mol
# GULP energy per Si atom -5579.050511 kJ/mol
# Density = 1.947991 g / cm^3
# Si number density = 19.524348 Si / 1000 Ang^3
#
#
#
# Elastic Constant Matrix: (Units=GPa)
#
#
# Indices 1 2 3 4 5 6 
#
# 1 19.4945 3.0008 -9.0710 0.0000 0.0000 0.0000
# 2 3.0008 133.5210 59.5270 0.0000 0.0000 0.0000
# 3 -9.0710 59.5270 48.1948 0.0000 0.0000 0.0000
# 4 0.0000 0.0000 0.0000 15.4038 0.0000 0.0000
# 5 0.0000 0.0000 0.0000 0.0000 15.2167 0.0000
# 6 0.0000 0.0000 0.0000 0.0000 0.0000 4.5573
#
#
#
# Elastic Compliance Matrix: (Units=1/GPa)
#
#
# Indices 1 2 3 4 5 6 
#
# 1 0.069328 -0.016414 0.033322 0.000000 0.000000 0.000000
# 2 -0.016414 0.020553 -0.028476 0.000000 0.000000 0.000000
# 3 0.033322 -0.028476 0.062192 0.000000 0.000000 0.000000
# 4 0.000000 0.000000 0.000000 0.064919 0.000000 0.000000
# 5 0.000000 0.000000 0.000000 0.000000 0.065717 0.000000
# 6 0.000000 0.000000 0.000000 0.000000 0.000000 0.219430
#
#
# Mechanical properties :
#
#
# Convention : Reuss Voigt Hill
#
# Bulk Modulus (GPa) = 7.75562 34.23597 20.99580
# Shear Modulus (GPa) = 8.79887 16.88579 12.84233
#
# Velocity S-wave (km/s) = 2.12518 2.94404 2.56746
# Velocity P-wave (km/s) = 3.16271 5.39718 4.42337
#
# Compressibility (1/GPa) = 0.12893877
#
# Stress axis : x y z
#
# Youngs Moduli (GPa) = 14.42411 48.65359 16.07925
#
# Poissons Ratio (x) = 0.79859 -0.53579
# Poissons Ratio (y) = 0.23676 0.45787
# Poissons Ratio (z) = -0.48064 1.38544
#
# Static dielectric constant tensor:
#      x y z
#    x 1.707590 0.000000 0.000000 
#    y 0.000000 1.728780 0.000000 
#    z 0.000000 0.000000 1.627080 
# 
# From -- ./inp_files/32035.got.cif
#   From: 2010.05.17/outbox.cif.g08.bks.cpg/sg51_17_cif.got.tgz:32035.got - 2010.06.03 11:52:47.
