data_PCOD9402853
_publ_section_title
;
Structure prediction by ZEFSAII (Michael W. Deem and Ramdas Pophale) SiO2 
 PCOD9402853
Probable space group: P M M A
;
_chemical_formula_sum "Si O2"
_cell_formula_units_Z 64
_cell_length_a 19.958424
_cell_length_b 7.436521
_cell_length_c 21.331984
_cell_angle_alpha 90.000000
_cell_angle_beta 90.000000
_cell_angle_gamma 90.000000
_cell_volume 3166.119500
_symmetry_space_group_name_H-M "P M M A"
_symmetry_group_IT_number 51
_symmetry_cell_setting 'orthorhombic'
loop_
_space_group_symop_operation_xyz
x,y,z
1/2-x,-y,z
1/2+x,-y,-z
-x,y,-z
-x,-y,-z
1/2+x,y,-z
1/2-x,y,z
x,-y,z
loop_
_atom_site_type_symbol
_atom_site_label
_atom_site_fract_x
_atom_site_fract_y
_atom_site_fract_z
Si Si1 0.925156 0.710924 0.506910
Si Si2 0.173356 0.219014 0.748789
Si Si3 0.918379 0.791660 0.001884
Si Si4 0.922106 0.220943 0.139313
Si Si5 0.074432 0.786673 0.132534
Si Si6 0.174672 0.715884 0.244572
Si Si7 0.173448 0.782899 0.606345
Si Si8 0.826717 0.719714 0.613933
O O1 0.933776 0.500000 0.521619
O O2 0.881111 0.724660 0.444035
O O3 0.879711 0.786076 0.563174
O O4 0.000000 0.787293 0.500000
O O5 0.250000 0.272066 0.761823
O O6 0.123439 0.280062 0.802982
O O7 0.157168 0.275219 0.677533
O O8 0.171762 0.000000 0.748654
O O9 0.898933 0.717500 0.069948
O O10 0.896461 0.000000 0.003193
O O11 0.898870 0.712946 0.934277
O O12 0.000000 0.788577 0.000000
O O13 0.999362 0.279291 0.146596
O O14 0.921080 0.000000 0.138830
O O15 0.123147 0.762611 0.190552
O O16 0.067004 0.000000 0.122081
O O17 0.250000 0.780525 0.230529
O O18 0.177129 0.500000 0.247210
O O19 0.156728 0.776072 0.314974
O O20 0.250000 0.723793 0.591311
O O21 0.174264 0.000000 0.605967
O O22 0.750000 0.774332 0.599766
O O23 0.826619 0.500000 0.612510
#
# Coordination Sequence:
#
# PCOD9402853 Si02
#       8
#     8   8   8   8   8   8   8   8
#     4  10  20  32  48  72  96 115 142 184 228 266
#     4   8  14  25  41  62  89 119 150 183 216 256
#     4   7  11  21  37  58  86 117 144 172 211 258
#     4   8  13  23  41  63  87 118 152 180 212 259
#     4   9  16  26  43  67  91 113 141 184 230 260
#     4   9  18  32  47  61  81 114 151 180 211 259
#     4   9  18  32  48  66  90 120 151 182 219 264
#     4   8  15  30  49  63  80 114 153 179 205 254
#
# _framework density 20.214019
#
# number of rings (size 3 to 8) (size 9 to 14) (size 15 to 20)
#    0.000    3.500    0.000    3.375    0.000    2.250 
#    0.000    1.250    0.000    6.375    0.000    0.000 
#    0.000    0.000    0.000    0.000    0.000    0.000 
#
# Total GULP energy -356650.186626 kJ/mol
# GULP energy per Si atom -5572.659166 kJ/mol
# Density = 2.016801 g / cm^3
# Si number density = 20.214019 Si / 1000 Ang^3
#
#
#
# Elastic Constant Matrix: (Units=GPa)
#
#
# Indices 1 2 3 4 5 6 
#
# 1 129.3525 0.7871 132.5464 0.0000 0.0000 0.0000
# 2 0.7871 58.4848 -2.7077 0.0000 0.0000 0.0000
# 3 132.5464 -2.7077 197.5444 0.0000 0.0000 0.0000
# 4 0.0000 0.0000 0.0000 3.9935 0.0000 0.0000
# 5 0.0000 0.0000 0.0000 0.0000 41.9308 0.0000
# 6 0.0000 0.0000 0.0000 0.0000 0.0000 2.2142
#
#
#
# Elastic Compliance Matrix: (Units=1/GPa)
#
#
# Indices 1 2 3 4 5 6 
#
# 1 0.024813 -0.001105 -0.016664 0.000000 0.000000 0.000000
# 2 -0.001105 0.017159 0.000977 0.000000 0.000000 0.000000
# 3 -0.016664 0.000977 0.016256 0.000000 0.000000 0.000000
# 4 0.000000 0.000000 0.000000 0.250406 0.000000 0.000000
# 5 0.000000 0.000000 0.000000 0.000000 0.023849 0.000000
# 6 0.000000 0.000000 0.000000 0.000000 0.000000 0.451631
#
#
# Mechanical properties :
#
#
# Convention : Reuss Voigt Hill
#
# Bulk Modulus (GPa) = 40.57924 71.84816 56.21370
# Shear Modulus (GPa) = 6.05392 26.61144 16.33268
#
# Velocity S-wave (km/s) = 1.73246 3.63228 2.84560
# Velocity P-wave (km/s) = 4.91124 7.29466 6.21821
#
# Compressibility (1/GPa) = 0.02464315
#
# Stress axis : x y z
#
# Youngs Moduli (GPa) = 40.30188 58.27994 61.51414
#
# Poissons Ratio (x) = 0.06442 1.02506
# Poissons Ratio (y) = 0.04455 -0.06009
# Poissons Ratio (z) = 0.67158 -0.05693
#
# Static dielectric constant tensor:
#      x y z
#    x 1.684860 0.000000 0.000000 
#    y 0.000000 1.785200 0.000000 
#    z 0.000000 0.000000 1.728610 
# 
# From -- ./inp_files/30317.got.cif
#   From: 2010.05.17/outbox.cif.g08.bks.cpg/sg51_16_cif.got.tgz:30317.got - 2010.06.03 11:52:47.
