data_PCOD9402835
_publ_section_title
;
Structure prediction by ZEFSAII (Michael W. Deem and Ramdas Pophale) SiO2 
 PCOD9402835
Probable space group: P M M A
;
_chemical_formula_sum "Si O2"
_cell_formula_units_Z 64
_cell_length_a 14.637111
_cell_length_b 9.569970
_cell_length_c 21.210149
_cell_angle_alpha 90.000000
_cell_angle_beta 90.000000
_cell_angle_gamma 90.000000
_cell_volume 2971.047957
_symmetry_space_group_name_H-M "P M M A"
_symmetry_group_IT_number 51
_symmetry_cell_setting 'orthorhombic'
loop_
_space_group_symop_operation_xyz
x,y,z
1/2-x,-y,z
1/2+x,-y,-z
-x,y,-z
-x,-y,-z
1/2+x,y,-z
1/2-x,y,z
x,-y,z
loop_
_atom_site_type_symbol
_atom_site_label
_atom_site_fract_x
_atom_site_fract_y
_atom_site_fract_z
Si Si1 0.361292 0.660560 0.876790
Si Si2 0.638354 0.660217 0.740338
Si Si3 0.138120 0.840320 0.755272
Si Si4 0.141572 0.844344 0.375754
Si Si5 0.608344 0.341949 0.502556
Si Si6 0.138820 0.338534 0.117597
Si Si7 0.361532 0.839161 0.998332
Si Si8 0.642644 0.342470 0.360868
O O1 0.250000 0.656844 0.877029
O O2 0.392658 0.500000 0.875835
O O3 0.388677 0.745968 0.814807
O O4 0.389335 0.744150 0.939203
O O5 0.750000 0.660696 0.739790
O O6 0.610151 0.500000 0.729206
O O7 0.605830 0.758943 0.684319
O O8 0.610644 0.700499 0.811337
O O9 0.250000 0.845275 0.755389
O O10 0.107468 0.763916 0.691294
O O11 0.106259 0.000000 0.759970
O O12 0.250000 0.857281 0.365289
O O13 0.131929 0.757549 0.439902
O O14 0.102110 0.000000 0.381027
O O15 0.500000 0.350866 0.500000
O O16 0.644736 0.500000 0.512063
O O17 0.636363 0.292584 0.432946
O O18 0.250000 0.336955 0.117042
O O19 0.112601 0.500000 0.105150
O O20 0.108443 0.233964 0.063139
O O21 0.250000 0.840051 0.998459
O O22 0.390607 0.000000 0.992684
O O23 0.750000 0.356609 0.346849
O O24 0.602147 0.500000 0.357753
#
# Coordination Sequence:
#
# PCOD9402835 Si02
#       8
#     8   8   8   8   8   8   8   8
#     4   9  15  22  32  46  68 101 140 179 217 259
#     4   8  14  25  41  59  80 109 146 187 227 267
#     4   9  16  25  38  57  80 105 137 179 222 263
#     4  10  20  32  48  71  96 122 154 192 234 280
#     4  10  21  36  53  72  94 122 155 190 230 277
#     4   8  13  21  32  47  69 100 139 179 218 261
#     4   9  15  20  27  42  67 101 139 177 217 261
#     4   9  17  30  48  68  89 115 148 185 225 270
#
# _framework density 21.541219999999999
#
# number of rings (size 3 to 8) (size 9 to 14) (size 15 to 20)
#    0.000    3.000    0.000    2.625    0.000    7.000 
#    0.000    3.750    0.000    0.000    0.000    0.000 
#    0.000    0.000    0.000    1.125    0.000   23.750 
#
# Total GULP energy -357349.881982 kJ/mol
# GULP energy per Si atom -5583.591906 kJ/mol
# Density = 2.149219 g / cm^3
# Si number density = 21.541220 Si / 1000 Ang^3
#
#
#
# Elastic Constant Matrix: (Units=GPa)
#
#
# Indices 1 2 3 4 5 6 
#
# 1 62.4988 4.7955 -2.6078 0.0000 0.0000 0.0000
# 2 4.7955 197.8619 164.8986 0.0000 0.0000 0.0000
# 3 -2.6078 164.8986 226.4815 0.0000 0.0000 0.0000
# 4 0.0000 0.0000 0.0000 -7.0655 0.0000 0.0000
# 5 0.0000 0.0000 0.0000 0.0000 -47.1652 0.0000
# 6 0.0000 0.0000 0.0000 0.0000 0.0000 -3.6645
#
#
#
# Elastic Compliance Matrix: (Units=1/GPa)
#
#
# Indices 1 2 3 4 5 6 
#
# 1 0.016157 -0.001390 0.001198 0.000000 0.000000 0.000000
# 2 -0.001390 0.012973 -0.009461 0.000000 0.000000 0.000000
# 3 0.001198 -0.009461 0.011318 0.000000 0.000000 0.000000
# 4 0.000000 0.000000 0.000000 -0.141532 0.000000 0.000000
# 5 0.000000 0.000000 0.000000 0.000000 -0.021202 0.000000
# 6 0.000000 0.000000 0.000000 0.000000 0.000000 -0.272888
#
#
# Mechanical properties :
#
#
# Convention : Reuss Voigt Hill
#
# Bulk Modulus (GPa) = 47.30145 91.22385 69.26265
# Shear Modulus (GPa) = -13.55674 9.73801 -1.90937
#
# Velocity S-wave (km/s) = -2.51139 2.12849 -0.94250
# Velocity P-wave (km/s) = 3.68739 6.96283 5.57126
#
# Compressibility (1/GPa) = 0.02114100
#
# Stress axis : x y z
#
# Youngs Moduli (GPa) = 61.89280 77.08378 88.35541
#
# Poissons Ratio (x) = 0.10716 -0.10587
# Poissons Ratio (y) = 0.08604 0.83597
# Poissons Ratio (z) = -0.07416 0.72932
#
# Static dielectric constant tensor:
#      x y z
#    x 1.810810 0.000000 0.000000 
#    y 0.000000 1.753220 0.000000 
#    z 0.000000 0.000000 1.750080 
# 
# From -- ./inp_files/34085.got.cif
#   From: 2010.05.17/outbox.cif.g08.bks.cpg/sg51_18_cif.got.tgz:34085.got - 2010.06.03 11:52:47.
