data_PCOD9402125
_publ_section_title
;
Structure prediction by ZEFSAII (Michael W. Deem and Ramdas Pophale) SiO2 
 PCOD9402125
Probable space group: P M M A
;
_chemical_formula_sum "Si O2"
_cell_formula_units_Z 44
_cell_length_a 8.644490
_cell_length_b 18.486528
_cell_length_c 14.762577
_cell_angle_alpha 90.000000
_cell_angle_beta 90.000000
_cell_angle_gamma 90.000000
_cell_volume 2359.157333
_symmetry_space_group_name_H-M "P M M A"
_symmetry_group_IT_number 51
_symmetry_cell_setting 'orthorhombic'
loop_
_space_group_symop_operation_xyz
x,y,z
1/2-x,-y,z
1/2+x,-y,-z
-x,y,-z
-x,-y,-z
1/2+x,y,-z
1/2-x,y,z
x,-y,z
loop_
_atom_site_type_symbol
_atom_site_label
_atom_site_fract_x
_atom_site_fract_y
_atom_site_fract_z
Si Si1 0.564880 0.418635 0.283271
Si Si2 0.438597 0.857024 0.290242
Si Si3 0.064445 0.286642 0.398893
Si Si4 0.435666 0.191564 0.096454
Si Si5 0.935369 0.362256 0.902768
Si Si6 0.062431 0.000000 0.398098
O O1 0.750000 0.412758 0.286106
O O2 0.520505 0.500000 0.310929
O O3 0.492535 0.357683 0.346927
O O4 0.507563 0.404137 0.181265
O O5 0.250000 0.857435 0.288837
O O6 0.486248 0.784719 0.343565
O O7 0.489941 0.850566 0.185864
O O8 0.488088 0.928476 0.343551
O O9 0.250000 0.286798 0.401063
O O10 0.000000 0.284234 0.500000
O O11 0.250000 0.187636 0.092958
O O12 0.475744 0.276761 0.107640
O O13 0.500000 0.166532 0.000000
O O14 0.750000 0.368602 0.900996
O O15 0.000000 0.386130 0.000000
O O16 0.000000 0.000000 0.500000
O O17 0.250000 0.000000 0.401585
#
# Coordination Sequence:
#
# PCOD9402125 Si02
#       6
#     8   8   8   8   8   4
#     4  11  24  40  57  81 112 146 189 237 286 341
#     4   9  18  35  58  84 115 150 186 225 277 335
#     4  11  22  39  60  83 110 144 189 236 284 342
#     4   9  17  32  53  81 112 145 185 225 269 325
#     4  10  19  34  57  83 114 149 188 233 281 336
#     4  10  20  36  59  84 116 152 185 230 281 330
#
# _framework density 18.650727
#
# number of rings (size 3 to 8) (size 9 to 14) (size 15 to 20)
#    0.000    2.000    1.818    2.182    0.000    2.909 
#    0.000    2.273    0.000    0.000    0.000    0.000 
#    0.000    0.000    0.000    0.000    0.000    0.000 
#
# Total GULP energy -245717.676070 kJ/mol
# GULP energy per Si atom -5584.492638 kJ/mol
# Density = 1.860828 g / cm^3
# Si number density = 18.650727 Si / 1000 Ang^3
#
#
#
# Elastic Constant Matrix: (Units=GPa)
#
#
# Indices 1 2 3 4 5 6 
#
# 1 26.7016 34.8344 31.5166 0.0000 0.0000 0.0000
# 2 34.8344 143.2916 98.3902 0.0000 0.0000 0.0000
# 3 31.5166 98.3902 174.9149 0.0000 0.0000 0.0000
# 4 0.0000 0.0000 0.0000 5.6008 0.0000 0.0000
# 5 0.0000 0.0000 0.0000 0.0000 36.8000 0.0000
# 6 0.0000 0.0000 0.0000 0.0000 0.0000 11.8033
#
#
#
# Elastic Compliance Matrix: (Units=1/GPa)
#
#
# Indices 1 2 3 4 5 6 
#
# 1 0.056511 -0.010992 -0.003999 0.000000 0.000000 0.000000
# 2 -0.010992 0.013509 -0.005618 0.000000 0.000000 0.000000
# 3 -0.003999 -0.005618 0.009598 0.000000 0.000000 0.000000
# 4 0.000000 0.000000 0.000000 0.178545 0.000000 0.000000
# 5 0.000000 0.000000 0.000000 0.000000 0.027174 0.000000
# 6 0.000000 0.000000 0.000000 0.000000 0.000000 0.084722
#
#
# Mechanical properties :
#
#
# Convention : Reuss Voigt Hill
#
# Bulk Modulus (GPa) = 26.04222 74.93229 50.48725
# Shear Modulus (GPa) = 11.79031 22.85195 17.32113
#
# Velocity S-wave (km/s) = 2.51701 3.50417 3.05078
# Velocity P-wave (km/s) = 4.73715 7.52569 6.28795
#
# Compressibility (1/GPa) = 0.03839918
#
# Stress axis : x y z
#
# Youngs Moduli (GPa) = 17.69553 74.02746 104.18995
#
# Poissons Ratio (x) = 0.81370 0.41670
# Poissons Ratio (y) = 0.19451 0.58534
# Poissons Ratio (z) = 0.07077 0.41589
#
# Static dielectric constant tensor:
#      x y z
#    x 1.635320 0.000000 0.000000 
#    y 0.000000 1.641580 0.000000 
#    z 0.000000 0.000000 1.625150 
# 
# From -- ./inp_files/20874.got.cif
#   From: 2010.05.17/outbox.cif.g08.bks.cpg/sg51_11_cif.got.tgz:20874.got - 2010.06.03 11:52:47.
