data_PCOD9402845
_publ_section_title
;
Structure prediction by ZEFSAII (Michael W. Deem and Ramdas Pophale) SiO2 
 PCOD9402845
Probable space group: P M M A
;
_chemical_formula_sum "Si O2"
_cell_formula_units_Z 48
_cell_length_a 14.691647
_cell_length_b 9.891120
_cell_length_c 15.621137
_cell_angle_alpha 90.000000
_cell_angle_beta 90.000000
_cell_angle_gamma 90.000000
_cell_volume 2270.014320
_symmetry_space_group_name_H-M "P M M A"
_symmetry_group_IT_number 51
_symmetry_cell_setting 'orthorhombic'
loop_
_space_group_symop_operation_xyz
x,y,z
1/2-x,-y,z
1/2+x,-y,-z
-x,y,-z
-x,-y,-z
1/2+x,y,-z
1/2-x,y,z
x,-y,z
loop_
_atom_site_type_symbol
_atom_site_label
_atom_site_fract_x
_atom_site_fract_y
_atom_site_fract_z
Si Si1 0.641675 0.152082 0.665862
Si Si2 0.638331 0.154071 0.164354
Si Si3 0.392043 0.347295 0.492583
Si Si4 0.361205 0.653625 0.184346
Si Si5 0.356349 0.651106 0.687072
Si Si6 0.360822 0.346822 0.988822
O O1 0.750000 0.139804 0.678793
O O2 0.630265 0.240485 0.580387
O O3 0.606565 0.238575 0.746309
O O4 0.603692 0.000000 0.659179
O O5 0.750000 0.149805 0.164420
O O6 0.607676 0.238349 0.247424
O O7 0.610094 0.237576 0.080458
O O8 0.606332 0.000000 0.164541
O O9 0.500000 0.354661 0.500000
O O10 0.357918 0.500000 0.472799
O O11 0.360239 0.308770 0.587706
O O12 0.250000 0.654603 0.185075
O O13 0.388713 0.500000 0.206402
O O14 0.388890 0.681813 0.086444
O O15 0.250000 0.638005 0.709248
O O16 0.397640 0.500000 0.694786
O O17 0.250000 0.347468 0.988283
O O18 0.389445 0.500000 0.965770
#
# Coordination Sequence:
#
# PCOD9402845 Si02
#       6
#     8   8   8   8   8   8
#     4  10  20  32  48  72 100 129 160 195 237 285
#     4   9  16  24  37  61  92 123 153 187 227 271
#     4  10  21  36  53  72  93 121 160 203 245 289
#     4   8  14  25  42  64  91 124 159 193 229 271
#     4   9  17  30  48  68  91 121 155 191 232 278
#     4   8  13  22  37  59  89 123 155 187 226 271
#
# _framework density 21.145242
#
# number of rings (size 3 to 8) (size 9 to 14) (size 15 to 20)
#    0.000    3.000    0.000    2.500    0.000    5.333 
#    0.000    5.000    0.000    0.000    0.000    1.167 
#    0.000    9.333    0.000    0.000    0.000    0.000 
#
# Total GULP energy -267905.408881 kJ/mol
# GULP energy per Si atom -5581.362685 kJ/mol
# Density = 2.109711 g / cm^3
# Si number density = 21.145242 Si / 1000 Ang^3
#
#
#
# Elastic Constant Matrix: (Units=GPa)
#
#
# Indices 1 2 3 4 5 6 
#
# 1 51.4524 7.1857 -2.9425 0.0000 0.0000 0.0000
# 2 7.1857 215.1789 168.8764 0.0000 0.0000 0.0000
# 3 -2.9425 168.8764 179.1533 0.0000 0.0000 0.0000
# 4 0.0000 0.0000 0.0000 10.0034 0.0000 0.0000
# 5 0.0000 0.0000 0.0000 0.0000 -53.7229 0.0000
# 6 0.0000 0.0000 0.0000 0.0000 0.0000 2.1651
#
#
#
# Elastic Compliance Matrix: (Units=1/GPa)
#
#
# Indices 1 2 3 4 5 6 
#
# 1 0.020148 -0.003584 0.003709 0.000000 0.000000 0.000000
# 2 -0.003584 0.018498 -0.017496 0.000000 0.000000 0.000000
# 3 0.003709 -0.017496 0.022135 0.000000 0.000000 0.000000
# 4 0.000000 0.000000 0.000000 0.099966 0.000000 0.000000
# 5 0.000000 0.000000 0.000000 0.000000 -0.018614 0.000000
# 6 0.000000 0.000000 0.000000 0.000000 0.000000 0.461869
#
#
# Mechanical properties :
#
#
# Convention : Reuss Voigt Hill
#
# Bulk Modulus (GPa) = 38.40231 88.00266 63.20248
# Shear Modulus (GPa) = 7.72293 9.86681 8.79487
#
# Velocity S-wave (km/s) = 1.91318 2.16248 2.04164
# Velocity P-wave (km/s) = 4.80427 6.92414 5.95922
#
# Compressibility (1/GPa) = 0.02604010
#
# Stress axis : x y z
#
# Youngs Moduli (GPa) = 49.63255 54.06029 45.17786
#
# Poissons Ratio (x) = 0.19375 -0.16758
# Poissons Ratio (y) = 0.17788 0.79041
# Poissons Ratio (z) = -0.18410 0.94582
#
# Static dielectric constant tensor:
#      x y z
#    x 1.787490 0.000000 0.000000 
#    y 0.000000 1.756530 0.000000 
#    z 0.000000 0.000000 1.737780 
# 
# From -- ./inp_files/24797.got.cif
#   From: 2010.05.17/outbox.cif.g08.bks.cpg/sg51_13_cif.got.tgz:24797.got - 2010.06.03 11:52:47.
