data_PCOD9402033
_publ_section_title
;
Structure prediction by ZEFSAII (Michael W. Deem and Ramdas Pophale) SiO2 
 PCOD9402033
Probable space group: P M M A
;
_chemical_formula_sum "Si O2"
_cell_formula_units_Z 64
_cell_length_a 19.325672
_cell_length_b 9.107447
_cell_length_c 19.397994
_cell_angle_alpha 90.000000
_cell_angle_beta 90.000000
_cell_angle_gamma 90.000000
_cell_volume 3414.193078
_symmetry_space_group_name_H-M "P M M A"
_symmetry_group_IT_number 51
_symmetry_cell_setting 'orthorhombic'
loop_
_space_group_symop_operation_xyz
x,y,z
1/2-x,-y,z
1/2+x,-y,-z
-x,y,-z
-x,-y,-z
1/2+x,y,-z
1/2-x,y,z
x,-y,z
loop_
_atom_site_type_symbol
_atom_site_label
_atom_site_fract_x
_atom_site_fract_y
_atom_site_fract_z
Si Si1 0.419899 0.672991 0.352430
Si Si2 0.895333 0.175777 0.989621
Si Si3 0.669799 0.338173 0.883090
Si Si4 0.331179 0.822810 0.629437
Si Si5 0.045046 0.822703 0.726119
Si Si6 0.918234 0.675709 0.493459
Si Si7 0.980789 0.176819 0.117044
Si Si8 0.667311 0.836405 0.753626
O O1 0.434546 0.500000 0.350954
O O2 0.488497 0.756473 0.326366
O O3 0.394079 0.709820 0.429007
O O4 0.360846 0.720127 0.299891
O O5 0.834349 0.270912 0.958797
O O6 0.956110 0.217962 0.934373
O O7 0.885258 0.000000 0.984803
O O8 0.915877 0.211799 0.067486
O O9 0.750000 0.353069 0.864612
O O10 0.637475 0.500000 0.877486
O O11 0.643079 0.219377 0.828159
O O12 0.250000 0.776875 0.632596
O O13 0.378702 0.785204 0.696330
O O14 0.372967 0.755712 0.564339
O O15 0.331682 0.000000 0.623235
O O16 0.027817 0.770198 0.804389
O O17 0.039754 0.000000 0.725565
O O18 0.914720 0.500000 0.480806
O O19 0.000000 0.714224 0.500000
O O20 0.984918 0.000000 0.121449
O O21 0.750000 0.844251 0.751253
O O22 0.639525 0.000000 0.740168
#
# Coordination Sequence:
#
# PCOD9402033 Si02
#       8
#     8   8   8   8   8   8   8   8
#     4  11  22  35  56  83 111 140 177 225 271 323
#     4   9  16  30  51  74 102 135 177 222 265 316
#     4  10  20  33  49  71 103 140 176 217 264 314
#     4  10  22  38  57  83 113 145 185 233 279 325
#     4  10  19  34  56  80 109 146 186 225 275 329
#     4  10  21  39  59  81 110 143 182 224 270 328
#     4   8  16  30  50  76 104 135 171 219 269 315
#     4  10  21  36  53  76 108 145 183 221 267 328
#
# _framework density 18.745277999999999
#
# number of rings (size 3 to 8) (size 9 to 14) (size 15 to 20)
#    0.000    2.250    1.250    2.625    0.000    4.500 
#    0.000    5.000    0.000    2.250    0.000    0.000 
#    0.000    0.000    0.000    0.000    0.000    0.000 
#
# Total GULP energy -356380.432687 kJ/mol
# GULP energy per Si atom -5568.444261 kJ/mol
# Density = 1.870261 g / cm^3
# Si number density = 18.745278 Si / 1000 Ang^3
#
#
#
# Elastic Constant Matrix: (Units=GPa)
#
#
# Indices 1 2 3 4 5 6 
#
# 1 71.6993 13.0322 32.8859 0.0000 0.0000 0.0000
# 2 13.0322 18.8155 19.9120 0.0000 0.0000 0.0000
# 3 32.8859 19.9120 102.0773 0.0000 0.0000 0.0000
# 4 0.0000 0.0000 0.0000 -7.4816 0.0000 0.0000
# 5 0.0000 0.0000 0.0000 0.0000 27.5433 0.0000
# 6 0.0000 0.0000 0.0000 0.0000 0.0000 20.0378
#
#
#
# Elastic Compliance Matrix: (Units=1/GPa)
#
#
# Indices 1 2 3 4 5 6 
#
# 1 0.017190 -0.007618 -0.004052 0.000000 0.000000 0.000000
# 2 -0.007618 0.070350 -0.011269 0.000000 0.000000 0.000000
# 3 -0.004052 -0.011269 0.013300 0.000000 0.000000 0.000000
# 4 0.000000 0.000000 0.000000 -0.133662 0.000000 0.000000
# 5 0.000000 0.000000 0.000000 0.000000 0.036306 0.000000
# 6 0.000000 0.000000 0.000000 0.000000 0.000000 0.049906
#
#
# Mechanical properties :
#
#
# Convention : Reuss Voigt Hill
#
# Bulk Modulus (GPa) = 18.19434 36.02803 27.11119
# Shear Modulus (GPa) = 42.52084 16.47072 29.49578
#
# Velocity S-wave (km/s) = 4.76789 2.96743 3.97105
# Velocity P-wave (km/s) = 6.32752 5.56798 5.95986
#
# Compressibility (1/GPa) = 0.05496213
#
# Stress axis : x y z
#
# Youngs Moduli (GPa) = 58.17197 14.21469 75.18755
#
# Poissons Ratio (x) = 0.10829 0.30467
# Poissons Ratio (y) = 0.44318 0.84726
# Poissons Ratio (z) = 0.23572 0.16018
#
# Static dielectric constant tensor:
#      x y z
#    x 1.768790 0.000000 0.000000 
#    y 0.000000 1.661960 0.000000 
#    z 0.000000 0.000000 1.671230 
# 
# From -- ./inp_files/30676.got.cif
#   From: 2010.05.17/outbox.cif.g08.bks.cpg/sg51_16_cif.got.tgz:30676.got - 2010.06.03 11:52:47.
