data_PCOD9402069
_publ_section_title
;
Structure prediction by ZEFSAII (Michael W. Deem and Ramdas Pophale) SiO2 
 PCOD9402069
Probable space group: P M M A
;
_chemical_formula_sum "Si O2"
_cell_formula_units_Z 56
_cell_length_a 14.940640
_cell_length_b 8.549417
_cell_length_c 24.183743
_cell_angle_alpha 90.000000
_cell_angle_beta 90.000000
_cell_angle_gamma 90.000000
_cell_volume 3089.080463
_symmetry_space_group_name_H-M "P M M A"
_symmetry_group_IT_number 51
_symmetry_cell_setting 'orthorhombic'
loop_
_space_group_symop_operation_xyz
x,y,z
1/2-x,-y,z
1/2+x,-y,-z
-x,y,-z
-x,-y,-z
1/2+x,y,-z
1/2-x,y,z
x,-y,z
loop_
_atom_site_type_symbol
_atom_site_label
_atom_site_fract_x
_atom_site_fract_y
_atom_site_fract_z
Si Si1 0.146299 0.185934 0.023796
Si Si2 0.036578 0.812885 0.130603
Si Si3 0.250000 0.181732 0.405542
Si Si4 0.572756 0.686008 0.647946
Si Si5 0.351257 0.313852 0.900962
Si Si6 0.854196 0.689079 0.765172
Si Si7 0.750000 0.181846 0.462045
Si Si8 0.446384 0.810885 0.555393
O O1 0.250000 0.206872 0.041448
O O2 0.080661 0.239370 0.072296
O O3 0.132025 0.000000 0.014410
O O4 0.134550 0.270598 0.965458
O O5 0.096180 0.747260 0.180248
O O6 0.933606 0.759727 0.132142
O O7 0.040945 0.000000 0.131611
O O8 0.163759 0.269588 0.383371
O O9 0.250000 0.181104 0.471571
O O10 0.250000 0.000000 0.387324
O O11 0.559439 0.500000 0.648146
O O12 0.590229 0.739480 0.710861
O O13 0.496121 0.764410 0.611389
O O14 0.250000 0.259082 0.886628
O O15 0.353815 0.500000 0.894517
O O16 0.750000 0.741452 0.762156
O O17 0.852657 0.500000 0.765114
O O18 0.844904 0.251295 0.444381
O O19 0.750000 0.000000 0.443406
O O20 0.500000 0.757577 0.500000
O O21 0.443500 0.000000 0.551460
#
# Coordination Sequence:
#
# PCOD9402069 Si02
#       8
#     8   8   4   8   8   8   4   8
#     4   9  18  33  52  78 114 146 173 217 273 324
#     4  11  22  35  55  83 111 141 182 229 274 321
#     4  11  19  33  57  83 111 149 187 222 269 326
#     4  11  22  37  55  82 115 146 184 228 273 325
#     4  10  21  36  55  79 107 144 187 224 267 328
#     4  10  22  40  58  78 110 147 179 219 273 326
#     4   9  18  33  53  81 115 145 179 226 271 320
#     4  10  19  34  56  82 112 148 187 224 271 326
#
# _framework density 18.128371999999999
#
# number of rings (size 3 to 8) (size 9 to 14) (size 15 to 20)
#    0.000    1.857    2.143    2.357    0.000    6.000 
#    0.000    1.786    1.571    0.000    0.000    0.000 
#    0.000    0.000    0.000    0.000    0.000    0.000 
#
# Total GULP energy -312524.329856 kJ/mol
# GULP energy per Si atom -5580.791605 kJ/mol
# Density = 1.808711 g / cm^3
# Si number density = 18.128372 Si / 1000 Ang^3
#
#
#
# Elastic Constant Matrix: (Units=GPa)
#
#
# Indices 1 2 3 4 5 6 
#
# 1 126.9601 13.9154 50.3699 0.0000 0.0000 0.0000
# 2 13.9154 8.6025 9.4937 0.0000 0.0000 0.0000
# 3 50.3699 9.4937 64.8723 0.0000 0.0000 0.0000
# 4 0.0000 0.0000 0.0000 29.0584 0.0000 0.0000
# 5 0.0000 0.0000 0.0000 0.0000 44.8725 0.0000
# 6 0.0000 0.0000 0.0000 0.0000 0.0000 1.4559
#
#
#
# Elastic Compliance Matrix: (Units=1/GPa)
#
#
# Indices 1 2 3 4 5 6 
#
# 1 0.012208 -0.011076 -0.007858 0.000000 0.000000 0.000000
# 2 -0.011076 0.148685 -0.013160 0.000000 0.000000 0.000000
# 3 -0.007858 -0.013160 0.023442 0.000000 0.000000 0.000000
# 4 0.000000 0.000000 0.000000 0.034414 0.000000 0.000000
# 5 0.000000 0.000000 0.000000 0.000000 0.022285 0.000000
# 6 0.000000 0.000000 0.000000 0.000000 0.000000 0.686871
#
#
# Mechanical properties :
#
#
# Convention : Reuss Voigt Hill
#
# Bulk Modulus (GPa) = 8.32305 38.66586 23.49446
# Shear Modulus (GPa) = 4.84430 23.52108 14.18269
#
# Velocity S-wave (km/s) = 1.63647 3.60595 2.80008
# Velocity P-wave (km/s) = 2.85864 6.22193 4.84171
#
# Compressibility (1/GPa) = 0.12014823
#
# Stress axis : x y z
#
# Youngs Moduli (GPa) = 81.91356 6.72565 42.65833
#
# Poissons Ratio (x) = 0.07449 0.33521
# Poissons Ratio (y) = 0.90724 0.56137
# Poissons Ratio (z) = 0.64368 0.08851
#
# Static dielectric constant tensor:
#      x y z
#    x 1.642690 0.000000 0.000000 
#    y 0.000000 1.617130 0.000000 
#    z 0.000000 0.000000 1.600540 
# 
# From -- ./inp_files/33551.got.cif
#   From: 2010.05.17/outbox.cif.g08.bks.cpg/sg51_17_cif.got.tgz:33551.got - 2010.06.03 11:52:47.
