data_PCOD9402137
_publ_section_title
;
Structure prediction by ZEFSAII (Michael W. Deem and Ramdas Pophale) SiO2 
 PCOD9402137
Probable space group: P M M A
;
_chemical_formula_sum "Si O2"
_cell_formula_units_Z 64
_cell_length_a 14.846227
_cell_length_b 23.532457
_cell_length_c 9.360347
_cell_angle_alpha 90.000000
_cell_angle_beta 90.000000
_cell_angle_gamma 90.000000
_cell_volume 3270.207569
_symmetry_space_group_name_H-M "P M M A"
_symmetry_group_IT_number 51
_symmetry_cell_setting 'orthorhombic'
loop_
_space_group_symop_operation_xyz
x,y,z
1/2-x,-y,z
1/2+x,-y,-z
-x,y,-z
-x,-y,-z
1/2+x,y,-z
1/2-x,y,z
x,-y,z
loop_
_atom_site_type_symbol
_atom_site_label
_atom_site_fract_x
_atom_site_fract_y
_atom_site_fract_z
Si Si1 0.353099 0.280034 0.571755
Si Si2 0.143493 0.752546 0.261734
Si Si3 0.591837 0.155407 0.412781
Si Si4 0.353987 0.936242 0.355070
Si Si5 0.644953 0.633584 0.874385
Si Si6 0.642167 0.376908 0.207006
Si Si7 0.971705 0.137819 0.836620
Si Si8 0.986473 0.565549 0.662156
O O1 0.250000 0.298810 0.549231
O O2 0.391614 0.275335 0.410876
O O3 0.356272 0.213820 0.613378
O O4 0.386991 0.321701 0.696897
O O5 0.250000 0.769842 0.281209
O O6 0.140503 0.700882 0.152731
O O7 0.083551 0.805027 0.208844
O O8 0.500000 0.169400 0.500000
O O9 0.635652 0.108035 0.513682
O O10 0.560599 0.133485 0.260441
O O11 0.250000 0.937225 0.315606
O O12 0.410066 0.913137 0.221257
O O13 0.382702 0.000000 0.396489
O O14 0.750000 0.616405 0.853817
O O15 0.581815 0.600839 0.761981
O O16 0.619605 0.625877 0.039635
O O17 0.750000 0.382575 0.217665
O O18 0.585249 0.428301 0.270085
O O19 0.000000 0.138073 0.000000
O O20 0.957038 0.500000 0.656420
O O21 0.000000 0.586941 0.500000
#
# Coordination Sequence:
#
# PCOD9402137 Si02
#       8
#     8   8   8   8   8   8   8   8
#     4  10  19  34  57  84 118 155 199 249 298 356
#     4  10  20  37  59  82 121 165 202 245 301 373
#     4  10  20  34  56  88 117 152 201 252 303 357
#     4  10  21  42  67  85 113 162 213 258 308 372
#     4  10  23  41  62  92 127 165 204 255 319 380
#     4  10  23  40  61  92 126 164 205 256 321 378
#     4  11  24  36  55  91 127 162 199 250 317 371
#     4  11  25  43  65  91 121 165 216 264 306 365
#
# _framework density 19.570623000000001
#
# number of rings (size 3 to 8) (size 9 to 14) (size 15 to 20)
#    0.000    1.750    2.500    1.875    3.500    6.000 
#    0.000    4.375    0.000    1.500    0.000    0.000 
#    0.000    0.000    0.000    0.000    0.000    0.000 
#
# Total GULP energy -356811.673887 kJ/mol
# GULP energy per Si atom -5575.182404 kJ/mol
# Density = 1.952608 g / cm^3
# Si number density = 19.570623 Si / 1000 Ang^3
#
#
#
# Elastic Constant Matrix: (Units=GPa)
#
#
# Indices 1 2 3 4 5 6 
#
# 1 47.3880 23.3394 44.1637 0.0000 0.0000 0.0000
# 2 23.3394 72.1418 26.8834 0.0000 0.0000 0.0000
# 3 44.1637 26.8834 142.6231 0.0000 0.0000 0.0000
# 4 0.0000 0.0000 0.0000 11.6595 0.0000 0.0000
# 5 0.0000 0.0000 0.0000 0.0000 16.8407 0.0000
# 6 0.0000 0.0000 0.0000 0.0000 0.0000 29.4698
#
#
#
# Elastic Compliance Matrix: (Units=1/GPa)
#
#
# Indices 1 2 3 4 5 6 
#
# 1 0.032947 -0.007375 -0.008812 0.000000 0.000000 0.000000
# 2 -0.007375 0.016560 -0.000838 0.000000 0.000000 0.000000
# 3 -0.008812 -0.000838 0.009898 0.000000 0.000000 0.000000
# 4 0.000000 0.000000 0.000000 0.085767 0.000000 0.000000
# 5 0.000000 0.000000 0.000000 0.000000 0.059380 0.000000
# 6 0.000000 0.000000 0.000000 0.000000 0.000000 0.033933
#
#
# Mechanical properties :
#
#
# Convention : Reuss Voigt Hill
#
# Bulk Modulus (GPa) = 39.43972 50.10289 44.77131
# Shear Modulus (GPa) = 17.79440 22.77841 20.28641
#
# Velocity S-wave (km/s) = 3.01863 3.41531 3.22308
# Velocity P-wave (km/s) = 5.68734 6.41943 6.06444
#
# Compressibility (1/GPa) = 0.02535515
#
# Stress axis : x y z
#
# Youngs Moduli (GPa) = 30.35143 60.38712 101.03001
#
# Poissons Ratio (x) = 0.44538 0.89028
# Poissons Ratio (y) = 0.22385 0.08462
# Poissons Ratio (z) = 0.26746 0.05058
#
# Static dielectric constant tensor:
#      x y z
#    x 1.731550 0.000000 0.000000 
#    y 0.000000 1.702020 0.000000 
#    z 0.000000 0.000000 1.696000 
# 
# From -- ./inp_files/8722.got.cif
#   From: 2010.05.17/outbox.cif.g08.bks.cpg/sg51_5_cif.got.tgz:8722.got - 2010.06.03 11:52:47.
