data_PCOD9402609
_publ_section_title
;
Structure prediction by ZEFSAII (Michael W. Deem and Ramdas Pophale) SiO2 
 PCOD9402609
Probable space group: P M M A
;
_chemical_formula_sum "Si O2"
_cell_formula_units_Z 38
_cell_length_a 7.299328
_cell_length_b 10.063934
_cell_length_c 22.960653
_cell_angle_alpha 90.000000
_cell_angle_beta 90.000000
_cell_angle_gamma 90.000000
_cell_volume 1686.688542
_symmetry_space_group_name_H-M "P M M A"
_symmetry_group_IT_number 51
_symmetry_cell_setting 'orthorhombic'
loop_
_space_group_symop_operation_xyz
x,y,z
1/2-x,-y,z
1/2+x,-y,-z
-x,y,-z
-x,-y,-z
1/2+x,y,-z
1/2-x,y,z
x,-y,z
loop_
_atom_site_type_symbol
_atom_site_label
_atom_site_fract_x
_atom_site_fract_y
_atom_site_fract_z
Si Si1 0.032694 0.500000 0.431264
Si Si2 0.000000 0.000000 0.500000
Si Si3 0.968266 0.850057 0.932391
Si Si4 0.026099 0.347502 0.167745
Si Si5 0.027285 0.854090 0.266315
Si Si6 0.973650 0.209420 0.602683
O O1 0.250000 0.500000 0.420221
O O2 0.964582 0.360752 0.406291
O O3 0.000000 0.500000 0.500000
O O4 0.967797 0.115224 0.449952
O O5 0.750000 0.856797 0.923778
O O6 0.039515 0.000000 0.921909
O O7 0.034743 0.738461 0.887973
O O8 0.000000 0.817164 0.000000
O O9 0.250000 0.349946 0.167648
O O10 0.965919 0.500000 0.167135
O O11 0.968645 0.265182 0.224793
O O12 0.250000 0.851929 0.266213
O O13 0.971150 0.837882 0.333313
O O14 0.972020 0.000000 0.244310
O O15 0.750000 0.203273 0.600228
#
# Coordination Sequence:
#
# PCOD9402609 Si02
#       6
#     4   2   8   8   8   8
#     4  10  20  34  48  68  96 126 157 192 240 294
#     4  12  18  30  48  66  96 118 164 200 244 290
#     4   9  17  30  48  71  98 129 163 198 238 285
#     4   9  17  27  42  66  96 126 156 192 240 291
#     4   9  16  27  42  63  92 123 153 192 243 291
#     4  10  20  31  46  68  95 126 160 201 247 297
#
# _framework density 22.529353
#
# number of rings (size 3 to 8) (size 9 to 14) (size 15 to 20)
#    0.000    2.526    2.105    0.947    1.474    2.947 
#    0.000    0.000    0.000    0.000    0.000    4.421 
#    0.000    0.000    0.000    0.000    0.000    0.000 
#
# Total GULP energy -211832.748350 kJ/mol
# GULP energy per Si atom -5574.546009 kJ/mol
# Density = 2.247807 g / cm^3
# Si number density = 22.529353 Si / 1000 Ang^3
#
#
#
# Elastic Constant Matrix: (Units=GPa)
#
#
# Indices 1 2 3 4 5 6 
#
# 1 91.9193 8.4934 -1.5411 0.0000 0.0000 0.0000
# 2 8.4934 250.6373 136.8122 0.0000 0.0000 0.0000
# 3 -1.5411 136.8122 185.6851 0.0000 0.0000 0.0000
# 4 0.0000 0.0000 0.0000 34.5282 0.0000 0.0000
# 5 0.0000 0.0000 0.0000 0.0000 -2.3593 0.0000
# 6 0.0000 0.0000 0.0000 0.0000 0.0000 -14.5289
#
#
#
# Elastic Compliance Matrix: (Units=1/GPa)
#
#
# Indices 1 2 3 4 5 6 
#
# 1 0.010954 -0.000704 0.000610 0.000000 0.000000 0.000000
# 2 -0.000704 0.006719 -0.004957 0.000000 0.000000 0.000000
# 3 0.000610 -0.004957 0.009043 0.000000 0.000000 0.000000
# 4 0.000000 0.000000 0.000000 0.028962 0.000000 0.000000
# 5 0.000000 0.000000 0.000000 0.000000 -0.423851 0.000000
# 6 0.000000 0.000000 0.000000 0.000000 0.000000 -0.068828
#
#
# Mechanical properties :
#
#
# Convention : Reuss Voigt Hill
#
# Bulk Modulus (GPa) = 60.18928 90.64120 75.41524
# Shear Modulus (GPa) = -11.86631 29.15982 8.64676
#
# Velocity S-wave (km/s) = -2.29749 3.60155 1.96121
# Velocity P-wave (km/s) = 4.44252 7.59043 6.21895
#
# Compressibility (1/GPa) = 0.01661425
#
# Stress axis : x y z
#
# Youngs Moduli (GPa) = 91.28777 148.82572 110.58876
#
# Poissons Ratio (x) = 0.10477 -0.06741
# Poissons Ratio (y) = 0.06426 0.54814
# Poissons Ratio (z) = -0.05565 0.73767
#
# Static dielectric constant tensor:
#      x y z
#    x 1.935790 0.000000 0.000000 
#    y 0.000000 1.802350 0.000000 
#    z 0.000000 0.000000 1.763220 
# 
# From -- ./inp_files/28820.got.cif
#   From: 2010.05.17/outbox.cif.g08.bks.cpg/sg51_15_cif.got.tgz:28820.got - 2010.06.03 11:52:47.
