data_PCOD9402734
_publ_section_title
;
Structure prediction by ZEFSAII (Michael W. Deem and Ramdas Pophale) SiO2 
 PCOD9402734
Probable space group: P M M A
;
_chemical_formula_sum "Si O2"
_cell_formula_units_Z 52
_cell_length_a 8.251294
_cell_length_b 12.755616
_cell_length_c 27.425683
_cell_angle_alpha 90.000000
_cell_angle_beta 90.000000
_cell_angle_gamma 90.000000
_cell_volume 2886.562399
_symmetry_space_group_name_H-M "P M M A"
_symmetry_group_IT_number 51
_symmetry_cell_setting 'orthorhombic'
loop_
_space_group_symop_operation_xyz
x,y,z
1/2-x,-y,z
1/2+x,-y,-z
-x,y,-z
-x,-y,-z
1/2+x,y,-z
1/2-x,y,z
x,-y,z
loop_
_atom_site_type_symbol
_atom_site_label
_atom_site_fract_x
_atom_site_fract_y
_atom_site_fract_z
Si Si1 0.446028 0.884524 0.831449
Si Si2 0.447098 0.500000 0.784639
Si Si3 0.556771 0.882281 0.555077
Si Si4 0.449098 0.500000 0.671897
Si Si5 0.552231 0.665413 0.134457
Si Si6 0.058179 0.274332 0.637787
Si Si7 0.555868 0.118523 0.719986
Si Si8 0.554544 0.500000 0.055405
O O1 0.250000 0.884656 0.832199
O O2 0.503336 0.784788 0.862011
O O3 0.500042 0.869361 0.775617
O O4 0.502385 0.000000 0.847375
O O5 0.250000 0.500000 0.783461
O O6 0.501652 0.500000 0.728780
O O7 0.496317 0.600577 0.817021
O O8 0.500000 0.861577 0.500000
O O9 0.750000 0.886571 0.555532
O O10 0.505715 0.792328 0.592321
O O11 0.495846 0.000000 0.568861
O O12 0.250000 0.500000 0.672285
O O13 0.503855 0.607204 0.645910
O O14 0.750000 0.664936 0.134254
O O15 0.499593 0.600476 0.087117
O O16 0.250000 0.281734 0.632365
O O17 0.018580 0.206228 0.685647
O O18 0.750000 0.125111 0.717284
O O19 0.508500 0.000000 0.704301
O O20 0.750000 0.500000 0.056042
O O21 0.500000 0.500000 0.000000
#
# Coordination Sequence:
#
# PCOD9402734 Si02
#       8
#     8   4   8   4   8   8   8   4
#     4   9  16  27  45  68  92 121 159 197 232 280
#     4   8  12  22  41  63  89 120 153 188 226 267
#     4  10  21  38  59  81 102 123 153 198 250 298
#     4   9  19  32  48  73 102 131 162 199 238 277
#     4   8  14  25  44  68  90 116 152 194 238 278
#     4  11  21  34  53  75 100 131 168 204 240 285
#     4  10  20  32  46  69 103 137 165 198 242 287
#     4   9  17  30  48  68  90 117 152 197 245 288
#
# _framework density 18.014506999999998
#
# number of rings (size 3 to 8) (size 9 to 14) (size 15 to 20)
#    0.000    2.615    0.000    3.692    0.000    6.154 
#    0.000    2.692    0.000    0.462    0.000    0.000 
#    0.000    0.000    0.000    0.000    0.000    0.000 
#
# Total GULP energy -289978.945627 kJ/mol
# GULP energy per Si atom -5576.518185 kJ/mol
# Density = 1.797351 g / cm^3
# Si number density = 18.014507 Si / 1000 Ang^3
#
#
#
# Elastic Constant Matrix: (Units=GPa)
#
#
# Indices 1 2 3 4 5 6 
#
# 1 14.5883 20.8422 13.1188 0.0000 0.0000 0.0000
# 2 20.8422 187.5391 98.4202 0.0000 0.0000 0.0000
# 3 13.1188 98.4202 113.4405 0.0000 0.0000 0.0000
# 4 0.0000 0.0000 0.0000 13.4514 0.0000 0.0000
# 5 0.0000 0.0000 0.0000 0.0000 22.4084 0.0000
# 6 0.0000 0.0000 0.0000 0.0000 0.0000 9.7493
#
#
#
# Elastic Compliance Matrix: (Units=1/GPa)
#
#
# Indices 1 2 3 4 5 6 
#
# 1 0.082000 -0.007594 -0.002894 0.000000 0.000000 0.000000
# 2 -0.007594 0.010493 -0.008225 0.000000 0.000000 0.000000
# 3 -0.002894 -0.008225 0.016286 0.000000 0.000000 0.000000
# 4 0.000000 0.000000 0.000000 0.074342 0.000000 0.000000
# 5 0.000000 0.000000 0.000000 0.000000 0.044626 0.000000
# 6 0.000000 0.000000 0.000000 0.000000 0.000000 0.102572
#
#
# Mechanical properties :
#
#
# Convention : Reuss Voigt Hill
#
# Bulk Modulus (GPa) = 14.01506 64.48114 39.24810
# Shear Modulus (GPa) = 12.77040 21.33426 17.05233
#
# Velocity S-wave (km/s) = 2.66540 3.44507 3.08001
# Velocity P-wave (km/s) = 4.15563 7.19002 5.87221
#
# Compressibility (1/GPa) = 0.07135182
#
# Stress axis : x y z
#
# Youngs Moduli (GPa) = 12.19507 95.30350 61.40224
#
# Poissons Ratio (x) = 0.72376 0.17771
# Poissons Ratio (y) = 0.09261 0.50505
# Poissons Ratio (z) = 0.03530 0.78389
#
# Static dielectric constant tensor:
#      x y z
#    x 1.632150 0.000000 0.000000 
#    y 0.000000 1.648380 0.000000 
#    z 0.000000 0.000000 1.575330 
# 
# From -- ./inp_files/36290.got.cif
#   From: 2010.05.17/outbox.cif.g08.bks.cpg/sg51_19_cif.got.tgz:36290.got - 2010.06.03 11:52:47.
