data_PCOD9402365
_publ_section_title
;
Structure prediction by ZEFSAII (Michael W. Deem and Ramdas Pophale) SiO2 
 PCOD9402365
Probable space group: P M M A
;
_chemical_formula_sum "Si O2"
_cell_formula_units_Z 64
_cell_length_a 8.893046
_cell_length_b 24.865817
_cell_length_c 15.075396
_cell_angle_alpha 90.000000
_cell_angle_beta 90.000000
_cell_angle_gamma 90.000000
_cell_volume 3333.665349
_symmetry_space_group_name_H-M "P M M A"
_symmetry_group_IT_number 51
_symmetry_cell_setting 'orthorhombic'
loop_
_space_group_symop_operation_xyz
x,y,z
1/2-x,-y,z
1/2+x,-y,-z
-x,y,-z
-x,-y,-z
1/2+x,y,-z
1/2-x,y,z
x,-y,z
loop_
_atom_site_type_symbol
_atom_site_label
_atom_site_fract_x
_atom_site_fract_y
_atom_site_fract_z
Si Si1 0.570640 0.059783 0.222550
Si Si2 0.928045 0.793599 0.413101
Si Si3 0.577364 0.564648 0.090801
Si Si4 0.931819 0.159691 0.098183
Si Si5 0.070719 0.088027 0.408431
Si Si6 0.072268 0.260209 0.778214
Si Si7 0.572688 0.373712 0.752544
Si Si8 0.570354 0.438591 0.402895
O O1 0.750000 0.066734 0.238138
O O2 0.522425 0.107693 0.156962
O O3 0.489854 0.062974 0.317504
O O4 0.546546 0.000000 0.184404
O O5 0.750000 0.803311 0.426959
O O6 0.945758 0.762098 0.321704
O O7 0.000000 0.766220 0.500000
O O8 0.014024 0.850169 0.403885
O O9 0.750000 0.583426 0.097573
O O10 0.579455 0.500000 0.090677
O O11 0.481025 0.585398 0.172127
O O12 0.500000 0.583052 0.000000
O O13 0.750000 0.158686 0.092095
O O14 0.973737 0.213526 0.152908
O O15 0.000000 0.158778 0.000000
O O16 0.250000 0.084783 0.413049
O O17 0.000000 0.065942 0.500000
O O18 0.250000 0.270771 0.791948
O O19 0.981561 0.315101 0.783154
O O20 0.750000 0.374680 0.740570
O O21 0.493364 0.394141 0.663151
O O22 0.500000 0.432539 0.500000
O O23 0.750000 0.434405 0.407472
O O24 0.534019 0.500000 0.371952
#
# Coordination Sequence:
#
# PCOD9402365 Si02
#       8
#     8   8   8   8   8   8   8   8
#     4  10  21  40  64  89 121 158 197 244 298 356
#     4  10  19  35  59  85 114 151 193 236 286 342
#     4  10  21  39  63  89 118 153 194 242 299 358
#     4  10  22  42  65  89 116 153 196 245 304 361
#     4  11  21  34  57  87 122 158 195 237 284 345
#     4  10  22  41  61  81 117 159 199 247 299 355
#     4  12  25  38  58  89 124 160 202 249 301 360
#     4  10  21  39  63  90 123 165 211 257 306 359
#
# _framework density 19.198089
#
# number of rings (size 3 to 8) (size 9 to 14) (size 15 to 20)
#    0.000    1.625    1.250    4.500    0.000    6.750 
#    0.000    2.500    0.000    0.000    0.000    0.000 
#    0.000    0.000    0.000    0.000    0.000    0.000 
#
# Total GULP energy -357546.663967 kJ/mol
# GULP energy per Si atom -5586.666624 kJ/mol
# Density = 1.915439 g / cm^3
# Si number density = 19.198089 Si / 1000 Ang^3
#
#
#
# Elastic Constant Matrix: (Units=GPa)
#
#
# Indices 1 2 3 4 5 6 
#
# 1 85.4804 39.6730 44.4267 0.0000 0.0000 0.0000
# 2 39.6730 60.8272 41.6652 0.0000 0.0000 0.0000
# 3 44.4267 41.6652 120.7295 0.0000 0.0000 0.0000
# 4 0.0000 0.0000 0.0000 -16.8457 0.0000 0.0000
# 5 0.0000 0.0000 0.0000 0.0000 37.6548 0.0000
# 6 0.0000 0.0000 0.0000 0.0000 0.0000 18.7357
#
#
#
# Elastic Compliance Matrix: (Units=1/GPa)
#
#
# Indices 1 2 3 4 5 6 
#
# 1 0.017738 -0.009295 -0.003319 0.000000 0.000000 0.000000
# 2 -0.009295 0.026401 -0.005691 0.000000 0.000000 0.000000
# 3 -0.003319 -0.005691 0.011468 0.000000 0.000000 0.000000
# 4 0.000000 0.000000 0.000000 -0.059362 0.000000 0.000000
# 5 0.000000 0.000000 0.000000 0.000000 0.026557 0.000000
# 6 0.000000 0.000000 0.000000 0.000000 0.000000 0.053374
#
#
# Mechanical properties :
#
#
# Convention : Reuss Voigt Hill
#
# Bulk Modulus (GPa) = 52.64218 57.61856 55.13037
# Shear Modulus (GPa) = 41.97496 17.32710 29.65103
#
# Velocity S-wave (km/s) = 4.68098 3.00749 3.93425
# Velocity P-wave (km/s) = 7.52964 6.49137 7.02970
#
# Compressibility (1/GPa) = 0.01899617
#
# Stress axis : x y z
#
# Youngs Moduli (GPa) = 56.37626 37.87779 87.19657
#
# Poissons Ratio (x) = 0.35209 0.28943
# Poissons Ratio (y) = 0.52404 0.49620
# Poissons Ratio (z) = 0.18713 0.21555
#
# Static dielectric constant tensor:
#      x y z
#    x 1.642230 0.000000 0.000000 
#    y 0.000000 1.684070 0.000000 
#    z 0.000000 0.000000 1.649510 
# 
# From -- ./inp_files/22335.got.cif
#   From: 2010.05.17/outbox.cif.g08.bks.cpg/sg51_12_cif.got.tgz:22335.got - 2010.06.03 11:52:47.
