data_PCOD9402002
_publ_section_title
;
Structure prediction by ZEFSAII (Michael W. Deem and Ramdas Pophale) SiO2 
 PCOD9402002
Probable space group: P M M A
;
_chemical_formula_sum "Si O2"
_cell_formula_units_Z 48
_cell_length_a 8.678965
_cell_length_b 20.847824
_cell_length_c 14.834104
_cell_angle_alpha 90.000000
_cell_angle_beta 90.000000
_cell_angle_gamma 90.000000
_cell_volume 2684.046209
_symmetry_space_group_name_H-M "P M M A"
_symmetry_group_IT_number 51
_symmetry_cell_setting 'orthorhombic'
loop_
_space_group_symop_operation_xyz
x,y,z
1/2-x,-y,z
1/2+x,-y,-z
-x,y,-z
-x,-y,-z
1/2+x,y,-z
1/2-x,y,z
x,-y,z
loop_
_atom_site_type_symbol
_atom_site_label
_atom_site_fract_x
_atom_site_fract_y
_atom_site_fract_z
Si Si1 0.934501 0.230916 0.903720
Si Si2 0.066457 0.186206 0.718193
Si Si3 0.435711 0.303532 0.399357
Si Si4 0.562201 0.570671 0.710251
Si Si5 0.934113 0.924787 0.598539
Si Si6 0.065327 0.617592 0.095432
O O1 0.750000 0.225609 0.901964
O O2 0.973871 0.306833 0.894500
O O3 0.006623 0.194143 0.819790
O O4 0.000000 0.209548 0.000000
O O5 0.250000 0.189657 0.715568
O O6 0.996299 0.244850 0.660499
O O7 0.008513 0.120982 0.672383
O O8 0.500000 0.299017 0.500000
O O9 0.250000 0.301353 0.400705
O O10 0.485785 0.370306 0.352419
O O11 0.750000 0.571629 0.710944
O O12 0.512516 0.500000 0.679822
O O13 0.512393 0.582729 0.813639
O O14 0.750000 0.916467 0.597970
O O15 0.000000 0.907547 0.500000
O O16 0.968522 0.000000 0.614003
O O17 0.250000 0.612581 0.091331
O O18 0.000000 0.594403 0.000000
#
# Coordination Sequence:
#
# PCOD9402002 Si02
#       6
#     8   8   8   8   8   8
#     4  10  19  34  55  83 114 147 184 230 280 330
#     4  12  23  36  58  86 115 150 188 230 275 326
#     4  11  22  38  56  78 106 140 184 235 285 336
#     4   9  18  34  54  74 102 142 182 224 281 340
#     4  10  21  38  60  87 120 155 189 228 275 329
#     4   9  17  31  51  76 104 137 174 219 273 330
#
# _framework density 17.883445999999999
#
# number of rings (size 3 to 8) (size 9 to 14) (size 15 to 20)
#    0.000    1.833    1.667    3.500    0.000    2.333 
#    0.000    0.000    0.000    4.000    0.000    0.000 
#    0.000    0.000    0.000    0.000    0.000    0.000 
#
# Total GULP energy -268103.101160 kJ/mol
# GULP energy per Si atom -5585.481274 kJ/mol
# Density = 1.784274 g / cm^3
# Si number density = 17.883446 Si / 1000 Ang^3
#
#
#
# Elastic Constant Matrix: (Units=GPa)
#
#
# Indices 1 2 3 4 5 6 
#
# 1 60.2793 40.5631 44.9916 0.0000 0.0000 0.0000
# 2 40.5631 78.6542 64.2405 0.0000 0.0000 0.0000
# 3 44.9916 64.2405 146.1808 0.0000 0.0000 0.0000
# 4 0.0000 0.0000 0.0000 -5.5170 0.0000 0.0000
# 5 0.0000 0.0000 0.0000 0.0000 32.8650 0.0000
# 6 0.0000 0.0000 0.0000 0.0000 0.0000 -26.2962
#
#
#
# Elastic Compliance Matrix: (Units=1/GPa)
#
#
# Indices 1 2 3 4 5 6 
#
# 1 0.026414 -0.010891 -0.003343 0.000000 0.000000 0.000000
# 2 -0.010891 0.024323 -0.007337 0.000000 0.000000 0.000000
# 3 -0.003343 -0.007337 0.011094 0.000000 0.000000 0.000000
# 4 0.000000 0.000000 0.000000 -0.181258 0.000000 0.000000
# 5 0.000000 0.000000 0.000000 0.000000 0.030428 0.000000
# 6 0.000000 0.000000 0.000000 0.000000 0.000000 -0.038028
#
#
# Mechanical properties :
#
#
# Convention : Reuss Voigt Hill
#
# Bulk Modulus (GPa) = 53.51049 64.96719 59.23884
# Shear Modulus (GPa) = -64.38707 9.23162 -27.57772
#
# Velocity S-wave (km/s) = -6.00682 2.27449 -3.93119
# Velocity P-wave (km/s) = 4.25704 6.58063 3.54840
#
# Compressibility (1/GPa) = 0.01868793
#
# Stress axis : x y z
#
# Youngs Moduli (GPa) = 37.85887 41.11328 90.13781
#
# Poissons Ratio (x) = 0.44778 0.30137
# Poissons Ratio (y) = 0.41233 0.66133
# Poissons Ratio (z) = 0.12658 0.30164
#
# Static dielectric constant tensor:
#      x y z
#    x 1.599040 0.000000 0.000000 
#    y 0.000000 1.608350 0.000000 
#    z 0.000000 0.000000 1.590890 
# 
# From -- ./inp_files/21113.got.cif
#   From: 2010.05.17/outbox.cif.g08.bks.cpg/sg51_11_cif.got.tgz:21113.got - 2010.06.03 11:52:47.
