data_PCOD9402257
_publ_section_title
;
Structure prediction by ZEFSAII (Michael W. Deem and Ramdas Pophale) SiO2 
 PCOD9402257
Probable space group: P M M A
;
_chemical_formula_sum "Si O2"
_cell_formula_units_Z 48
_cell_length_a 31.291114
_cell_length_b 8.653721
_cell_length_c 9.733777
_cell_angle_alpha 90.000000
_cell_angle_beta 90.000000
_cell_angle_gamma 90.000000
_cell_volume 2635.756623
_symmetry_space_group_name_H-M "P M M A"
_symmetry_group_IT_number 51
_symmetry_cell_setting 'orthorhombic'
loop_
_space_group_symop_operation_xyz
x,y,z
1/2-x,-y,z
1/2+x,-y,-z
-x,y,-z
-x,-y,-z
1/2+x,y,-z
1/2-x,y,z
x,-y,z
loop_
_atom_site_type_symbol
_atom_site_label
_atom_site_fract_x
_atom_site_fract_y
_atom_site_fract_z
Si Si1 0.321266 0.826385 0.533944
Si Si2 0.396596 0.174178 0.756257
Si Si3 0.847519 0.187962 0.969606
Si Si4 0.250000 0.326419 0.701987
Si Si5 0.452143 0.314337 0.527487
Si Si6 0.878533 0.685916 0.688411
Si Si7 0.750000 0.181717 0.007709
O O1 0.360375 0.836075 0.639709
O O2 0.289608 0.708540 0.605151
O O3 0.338783 0.760287 0.392578
O O4 0.303443 0.000000 0.518431
O O5 0.433867 0.262978 0.675661
O O6 0.411301 0.000000 0.789448
O O7 0.372147 0.237661 0.890689
O O8 0.874549 0.249297 0.841322
O O9 0.846363 0.000000 0.971056
O O10 0.797357 0.241316 0.962538
O O11 0.250000 0.500000 0.756561
O O12 0.250000 0.208227 0.828286
O O13 0.500000 0.256540 0.500000
O O14 0.452710 0.500000 0.527049
O O15 0.420038 0.268468 0.402985
O O16 0.876105 0.500000 0.688837
O O17 0.750000 0.000000 0.974995
#
# Coordination Sequence:
#
# PCOD9402257 Si02
#       7
#     8   8   8   4   8   8   4
#     4  10  19  35  55  74 102 143 183 221 268 320
#     4   9  18  33  56  81 104 137 183 226 264 320
#     4  10  20  36  56  79 110 149 189 223 269 330
#     4  12  22  31  50  81 110 136 180 234 272 311
#     4   9  19  37  59  81 107 141 180 224 280 343
#     4  10  21  36  54  80 111 140 178 230 280 326
#     4  10  20  37  56  75 106 150 192 224 256 317
#
# _framework density 18.211091
#
# number of rings (size 3 to 8) (size 9 to 14) (size 15 to 20)
#    0.000    2.167    1.667    1.750    0.000    3.667 
#    0.000    3.333    0.000    5.000    0.000    0.000 
#    0.000    0.000    0.000    0.000    0.000    0.000 
#
# Total GULP energy -267303.307926 kJ/mol
# GULP energy per Si atom -5568.818915 kJ/mol
# Density = 1.816964 g / cm^3
# Si number density = 18.211091 Si / 1000 Ang^3
#
#
#
# Elastic Constant Matrix: (Units=GPa)
#
#
# Indices 1 2 3 4 5 6 
#
# 1 85.9692 15.9465 34.2493 0.0000 0.0000 0.0000
# 2 15.9465 13.6141 11.6980 0.0000 0.0000 0.0000
# 3 34.2493 11.6980 113.5086 0.0000 0.0000 0.0000
# 4 0.0000 0.0000 0.0000 21.6379 0.0000 0.0000
# 5 0.0000 0.0000 0.0000 0.0000 36.4357 0.0000
# 6 0.0000 0.0000 0.0000 0.0000 0.0000 41.3593
#
#
#
# Elastic Compliance Matrix: (Units=1/GPa)
#
#
# Indices 1 2 3 4 5 6 
#
# 1 0.015820 -0.015831 -0.003142 0.000000 0.000000 0.000000
# 2 -0.015831 0.096432 -0.005161 0.000000 0.000000 0.000000
# 3 -0.003142 -0.005161 0.010290 0.000000 0.000000 0.000000
# 4 0.000000 0.000000 0.000000 0.046215 0.000000 0.000000
# 5 0.000000 0.000000 0.000000 0.000000 0.027446 0.000000
# 6 0.000000 0.000000 0.000000 0.000000 0.000000 0.024178
#
#
# Mechanical properties :
#
#
# Convention : Reuss Voigt Hill
#
# Bulk Modulus (GPa) = 13.46381 37.43106 25.44743
# Shear Modulus (GPa) = 17.04115 29.96646 23.50381
#
# Velocity S-wave (km/s) = 3.06233 4.06088 3.59643
# Velocity P-wave (km/s) = 4.46241 6.52582 5.59014
#
# Compressibility (1/GPa) = 0.07427316
#
# Stress axis : x y z
#
# Youngs Moduli (GPa) = 63.20981 10.37004 97.18303
#
# Poissons Ratio (x) = 0.16417 0.30535
# Poissons Ratio (y) = 1.00068 0.50159
# Poissons Ratio (z) = 0.19860 0.05352
#
# Static dielectric constant tensor:
#      x y z
#    x 1.619100 0.000000 0.000000 
#    y 0.000000 1.641930 0.000000 
#    z 0.000000 0.000000 1.593400 
# 
# From -- ./inp_files/12941.got.cif
#   From: 2010.05.17/outbox.cif.g08.bks.cpg/sg51_7_cif.got.tgz:12941.got - 2010.06.03 11:52:47.
