data_PCOD9402304
_publ_section_title
;
Structure prediction by ZEFSAII (Michael W. Deem and Ramdas Pophale) SiO2 
 PCOD9402304
Probable space group: P M M A
;
_chemical_formula_sum "Si O2"
_cell_formula_units_Z 40
_cell_length_a 27.580104
_cell_length_b 8.282765
_cell_length_c 8.623321
_cell_angle_alpha 90.000000
_cell_angle_beta 90.000000
_cell_angle_gamma 90.000000
_cell_volume 1969.907311
_symmetry_space_group_name_H-M "P M M A"
_symmetry_group_IT_number 51
_symmetry_cell_setting 'orthorhombic'
loop_
_space_group_symop_operation_xyz
x,y,z
1/2-x,-y,z
1/2+x,-y,-z
-x,y,-z
-x,-y,-z
1/2+x,y,-z
1/2-x,y,z
x,-y,z
loop_
_atom_site_type_symbol
_atom_site_label
_atom_site_fract_x
_atom_site_fract_y
_atom_site_fract_z
Si Si1 0.654312 0.187870 0.651592
Si Si2 0.250000 0.816521 0.860124
Si Si3 0.750000 0.685301 0.810452
Si Si4 0.551065 0.695148 0.314007
Si Si5 0.156483 0.310139 0.693334
Si Si6 0.053593 0.306135 0.315301
O O1 0.701691 0.229662 0.748676
O O2 0.656629 0.289583 0.492650
O O3 0.604037 0.230515 0.738450
O O4 0.653762 0.000000 0.609822
O O5 0.298168 0.784061 0.761344
O O6 0.250000 0.000000 0.917650
O O7 0.250000 0.697950 0.005196
O O8 0.750000 0.500000 0.758127
O O9 0.551045 0.500000 0.299787
O O10 0.603205 0.750153 0.251360
O O11 0.498724 0.750946 0.251611
O O12 0.551706 0.728231 0.499137
O O13 0.161191 0.500000 0.730756
O O14 0.056439 0.500000 0.296308
#
# Coordination Sequence:
#
# PCOD9402304 Si02
#       6
#     8   4   4   8   8   8
#     4  11  21  34  53  82 113 140 171 219 269 308
#     4  12  25  40  55  78 108 136 168 220 277 320
#     4  12  25  42  59  74  96 138 184 220 261 320
#     4   7  12  24  47  75 104 135 174 215 249 291
#     4  10  19  35  57  81 107 143 183 216 251 308
#     4   8  13  26  47  74 105 139 173 210 253 305
#
# _framework density 20.305523999999998
#
# number of rings (size 3 to 8) (size 9 to 14) (size 15 to 20)
#    0.000    2.400    0.000    7.200    0.000    0.000 
#    0.000    9.000    0.000    1.200    0.000    8.400 
#    0.000    0.000    0.000    0.000    0.000    0.000 
#
# Total GULP energy -222985.910428 kJ/mol
# GULP energy per Si atom -5574.647761 kJ/mol
# Density = 2.025931 g / cm^3
# Si number density = 20.305524 Si / 1000 Ang^3
#
#
#
# Elastic Constant Matrix: (Units=GPa)
#
#
# Indices 1 2 3 4 5 6 
#
# 1 225.9636 20.5350 24.7547 0.0000 0.0000 0.0000
# 2 20.5350 49.9197 -13.0675 0.0000 0.0000 0.0000
# 3 24.7547 -13.0675 14.0242 0.0000 0.0000 0.0000
# 4 0.0000 0.0000 0.0000 13.7693 0.0000 0.0000
# 5 0.0000 0.0000 0.0000 0.0000 -15.4547 0.0000
# 6 0.0000 0.0000 0.0000 0.0000 0.0000 -67.8366
#
#
#
# Elastic Compliance Matrix: (Units=1/GPa)
#
#
# Indices 1 2 3 4 5 6 
#
# 1 0.007581 -0.008758 -0.021543 0.000000 0.000000 0.000000
# 2 -0.008758 0.036612 0.049573 0.000000 0.000000 0.000000
# 3 -0.021543 0.049573 0.155524 0.000000 0.000000 0.000000
# 4 0.000000 0.000000 0.000000 0.072626 0.000000 0.000000
# 5 0.000000 0.000000 0.000000 0.000000 -0.064705 0.000000
# 6 0.000000 0.000000 0.000000 0.000000 0.000000 -0.014741
#
#
# Mechanical properties :
#
#
# Convention : Reuss Voigt Hill
#
# Bulk Modulus (GPa) = 4.19707 39.37243 21.78475
# Shear Modulus (GPa) = 21.38838 3.27459 12.33148
#
# Velocity S-wave (km/s) = 3.24902 1.27128 2.46701
# Velocity P-wave (km/s) = 4.01825 4.64618 4.34358
#
# Compressibility (1/GPa) = 0.23826150
#
# Stress axis : x y z
#
# Youngs Moduli (GPa) = 131.90046 27.31365 6.42989
#
# Poissons Ratio (x) = 0.23921 0.13852
# Poissons Ratio (y) = 1.15519 -0.31875
# Poissons Ratio (z) = 2.84153 -1.35403
#
# Static dielectric constant tensor:
#      x y z
#    x 1.798760 0.000000 0.000000 
#    y 0.000000 1.673520 0.000000 
#    z 0.000000 0.000000 1.676220 
# 
# From -- ./inp_files/12216.got.cif
#   From: 2010.05.17/outbox.cif.g08.bks.cpg/sg51_7_cif.got.tgz:12216.got - 2010.06.03 11:52:47.
