data_PCOD9402086
_publ_section_title
;
Structure prediction by ZEFSAII (Michael W. Deem and Ramdas Pophale) SiO2 
 PCOD9402086
Probable space group: P M M A
;
_chemical_formula_sum "Si O2"
_cell_formula_units_Z 40
_cell_length_a 8.518783
_cell_length_b 16.353064
_cell_length_c 14.153782
_cell_angle_alpha 90.000000
_cell_angle_beta 90.000000
_cell_angle_gamma 90.000000
_cell_volume 1971.737945
_symmetry_space_group_name_H-M "P M M A"
_symmetry_group_IT_number 51
_symmetry_cell_setting 'orthorhombic'
loop_
_space_group_symop_operation_xyz
x,y,z
1/2-x,-y,z
1/2+x,-y,-z
-x,y,-z
-x,-y,-z
1/2+x,y,-z
1/2-x,y,z
x,-y,z
loop_
_atom_site_type_symbol
_atom_site_label
_atom_site_fract_x
_atom_site_fract_y
_atom_site_fract_z
Si Si1 0.439902 0.000000 0.893319
Si Si2 0.064032 0.237959 0.393925
Si Si3 0.561112 0.411385 0.391576
Si Si4 0.062213 0.162840 0.784072
Si Si5 0.560155 0.500000 0.891601
Si Si6 0.439250 0.321609 0.107701
O O1 0.491647 0.918416 0.838378
O O2 0.250000 0.000000 0.895229
O O3 0.500000 0.000000 0.000000
O O4 0.250000 0.237652 0.396739
O O5 0.000000 0.228610 0.500000
O O6 0.008855 0.326824 0.354911
O O7 0.000959 0.170532 0.322113
O O8 0.500000 0.413421 0.500000
O O9 0.750000 0.406049 0.391084
O O10 0.514549 0.500000 0.349779
O O11 0.250000 0.163030 0.781892
O O12 0.004551 0.243407 0.838577
O O13 0.750000 0.500000 0.891338
O O14 0.509182 0.411244 0.852941
O O15 0.500000 0.500000 0.000000
O O16 0.250000 0.318653 0.109069
O O17 0.500000 0.317534 0.000000
#
# Coordination Sequence:
#
# PCOD9402086 Si02
#       6
#     4   8   8   8   4   8
#     4  10  24  44  69  96 125 156 191 242 306 366
#     4  11  22  38  60  86 118 160 203 251 304 358
#     4   9  16  28  49  77 110 151 199 248 297 347
#     4  11  23  41  62  89 120 155 199 250 302 365
#     4   8  16  30  50  76 113 154 195 236 284 346
#     4  10  19  34  56  85 118 157 197 242 296 356
#
# _framework density 20.286671999999999
#
# number of rings (size 3 to 8) (size 9 to 14) (size 15 to 20)
#    0.000    2.000    0.000    5.400    0.000    5.200 
#    1.800    0.500    0.000    0.000    0.000    0.000 
#    0.000    0.000    0.000    0.000    0.000    0.000 
#
# Total GULP energy -223401.278675 kJ/mol
# GULP energy per Si atom -5585.031967 kJ/mol
# Density = 2.024050 g / cm^3
# Si number density = 20.286672 Si / 1000 Ang^3
#
#
#
# Elastic Constant Matrix: (Units=GPa)
#
#
# Indices 1 2 3 4 5 6 
#
# 1 79.0109 48.1518 26.3003 0.0000 0.0000 0.0000
# 2 48.1518 180.3180 92.6141 0.0000 0.0000 0.0000
# 3 26.3003 92.6141 118.3137 0.0000 0.0000 0.0000
# 4 0.0000 0.0000 0.0000 40.0148 0.0000 0.0000
# 5 0.0000 0.0000 0.0000 0.0000 26.1464 0.0000
# 6 0.0000 0.0000 0.0000 0.0000 0.0000 25.7217
#
#
#
# Elastic Compliance Matrix: (Units=1/GPa)
#
#
# Indices 1 2 3 4 5 6 
#
# 1 0.015125 -0.003867 -0.000335 0.000000 0.000000 0.000000
# 2 -0.003867 0.010263 -0.007174 0.000000 0.000000 0.000000
# 3 -0.000335 -0.007174 0.014143 0.000000 0.000000 0.000000
# 4 0.000000 0.000000 0.000000 0.024991 0.000000 0.000000
# 5 0.000000 0.000000 0.000000 0.000000 0.038246 0.000000
# 6 0.000000 0.000000 0.000000 0.000000 0.000000 0.038878
#
#
# Mechanical properties :
#
#
# Convention : Reuss Voigt Hill
#
# Bulk Modulus (GPa) = 59.60279 79.08610 69.34445
# Shear Modulus (GPa) = 29.41350 32.41500 30.91425
#
# Velocity S-wave (km/s) = 3.81188 4.00164 3.90791
# Velocity P-wave (km/s) = 6.98698 7.77302 7.39046
#
# Compressibility (1/GPa) = 0.01677774
#
# Stress axis : x y z
#
# Youngs Moduli (GPa) = 66.11771 97.43637 70.70843
#
# Poissons Ratio (x) = 0.37674 0.02371
# Poissons Ratio (y) = 0.25565 0.50728
# Poissons Ratio (z) = 0.02218 0.69904
#
# Static dielectric constant tensor:
#      x y z
#    x 1.678740 0.000000 0.000000 
#    y 0.000000 1.741380 0.000000 
#    z 0.000000 0.000000 1.728930 
# 
# From -- ./inp_files/20592.got.cif
#   From: 2010.05.17/outbox.cif.g08.bks.cpg/sg51_11_cif.got.tgz:20592.got - 2010.06.03 11:52:47.
