data_PCOD9402012
_publ_section_title
;
Structure prediction by ZEFSAII (Michael W. Deem and Ramdas Pophale) SiO2 
 PCOD9402012
Probable space group: P M M A
;
_chemical_formula_sum "Si O2"
_cell_formula_units_Z 40
_cell_length_a 10.586305
_cell_length_b 7.547616
_cell_length_c 25.437452
_cell_angle_alpha 90.000000
_cell_angle_beta 90.000000
_cell_angle_gamma 90.000000
_cell_volume 2032.487137
_symmetry_space_group_name_H-M "P M M A"
_symmetry_group_IT_number 51
_symmetry_cell_setting 'orthorhombic'
loop_
_space_group_symop_operation_xyz
x,y,z
1/2-x,-y,z
1/2+x,-y,-z
-x,y,-z
-x,-y,-z
1/2+x,y,-z
1/2-x,y,z
x,-y,z
loop_
_atom_site_type_symbol
_atom_site_label
_atom_site_fract_x
_atom_site_fract_y
_atom_site_fract_z
Si Si1 0.396871 0.216616 0.727213
Si Si2 0.750000 0.799242 0.438180
Si Si3 0.750000 0.696864 0.553860
Si Si4 0.103736 0.217177 0.957320
Si Si5 0.499010 0.214812 0.382913
Si Si6 0.596691 0.204374 0.158619
O O1 0.250000 0.268058 0.718733
O O2 0.479224 0.270410 0.677335
O O3 0.440824 0.280853 0.784762
O O4 0.397019 0.000000 0.729115
O O5 0.750000 0.809246 0.500840
O O6 0.879417 0.721359 0.415945
O O7 0.750000 0.000000 0.416407
O O8 0.750000 0.500000 0.532058
O O9 0.627730 0.724092 0.589430
O O10 0.250000 0.269463 0.968055
O O11 0.065993 0.280230 0.898600
O O12 0.104502 0.000000 0.956030
O O13 0.000000 0.271721 0.000000
O O14 0.494625 0.000000 0.383968
O O15 0.750000 0.201707 0.160185
O O16 0.552770 0.000000 0.157969
#
# Coordination Sequence:
#
# PCOD9402012 Si02
#       6
#     8   4   4   8   8   8
#     4   8  12  22  43  68  86 102 138 194 240 270
#     4  10  20  36  58  80  94 114 155 200 238 274
#     4  12  26  38  48  68 102 136 157 180 224 282
#     4   8  12  17  25  38  61  98 138 173 206 245
#     4  10  19  34  56  77  95 119 154 197 240 279
#     4   7  10  16  29  50  73  97 131 178 224 258
#
# _framework density 19.680320999999999
#
# number of rings (size 3 to 8) (size 9 to 14) (size 15 to 20)
#    0.000    3.200    1.000    3.900    0.000    3.200 
#    0.000    0.000    2.200    0.000    0.000    0.000 
#    0.000    0.000    0.000    0.000    0.000    1.000 
#
# Total GULP energy -222824.757031 kJ/mol
# GULP energy per Si atom -5570.618926 kJ/mol
# Density = 1.963553 g / cm^3
# Si number density = 19.680321 Si / 1000 Ang^3
#
#
#
# Elastic Constant Matrix: (Units=GPa)
#
#
# Indices 1 2 3 4 5 6 
#
# 1 114.3890 3.1613 82.2293 0.0000 0.0000 0.0000
# 2 3.1613 49.9085 -0.6889 0.0000 0.0000 0.0000
# 3 82.2293 -0.6889 186.1890 0.0000 0.0000 0.0000
# 4 0.0000 0.0000 0.0000 -24.4281 0.0000 0.0000
# 5 0.0000 0.0000 0.0000 0.0000 25.7102 0.0000
# 6 0.0000 0.0000 0.0000 0.0000 0.0000 29.6113
#
#
#
# Elastic Compliance Matrix: (Units=1/GPa)
#
#
# Indices 1 2 3 4 5 6 
#
# 1 0.012848 -0.000892 -0.005678 0.000000 0.000000 0.000000
# 2 -0.000892 0.020100 0.000468 0.000000 0.000000 0.000000
# 3 -0.005678 0.000468 0.007880 0.000000 0.000000 0.000000
# 4 0.000000 0.000000 0.000000 -0.040937 0.000000 0.000000
# 5 0.000000 0.000000 0.000000 0.000000 0.038895 0.000000
# 6 0.000000 0.000000 0.000000 0.000000 0.000000 0.033771
#
#
# Mechanical properties :
#
#
# Convention : Reuss Voigt Hill
#
# Bulk Modulus (GPa) = 34.93441 57.76553 46.34997
# Shear Modulus (GPa) = 53.02125 23.89768 38.45946
#
# Velocity S-wave (km/s) = 5.19613 3.48845 4.42544
# Velocity P-wave (km/s) = 7.33411 6.75584 7.05090
#
# Compressibility (1/GPa) = 0.02862507
#
# Stress axis : x y z
#
# Youngs Moduli (GPa) = 77.83226 49.75217 126.90187
#
# Poissons Ratio (x) = 0.04439 0.72050
# Poissons Ratio (y) = 0.06944 -0.05944
# Poissons Ratio (z) = 0.44190 -0.02330
#
# Static dielectric constant tensor:
#      x y z
#    x 1.641810 0.000000 0.000000 
#    y 0.000000 1.727430 0.000000 
#    z 0.000000 0.000000 1.721980 
# 
# From -- ./inp_files/36086.got.cif
#   From: 2010.05.17/outbox.cif.g08.bks.cpg/sg51_19_cif.got.tgz:36086.got - 2010.06.03 11:52:47.
