data_PCOD9402877
_publ_section_title
;
Structure prediction by ZEFSAII (Michael W. Deem and Ramdas Pophale) SiO2 
 PCOD9402877
Probable space group: P M M A
;
_chemical_formula_sum "Si O2"
_cell_formula_units_Z 64
_cell_length_a 9.206989
_cell_length_b 16.437831
_cell_length_c 23.462859
_cell_angle_alpha 90.000000
_cell_angle_beta 90.000000
_cell_angle_gamma 90.000000
_cell_volume 3550.937808
_symmetry_space_group_name_H-M "P M M A"
_symmetry_group_IT_number 51
_symmetry_cell_setting 'orthorhombic'
loop_
_space_group_symop_operation_xyz
x,y,z
1/2-x,-y,z
1/2+x,-y,-z
-x,y,-z
-x,-y,-z
1/2+x,y,-z
1/2-x,y,z
x,-y,z
loop_
_atom_site_type_symbol
_atom_site_label
_atom_site_fract_x
_atom_site_fract_y
_atom_site_fract_z
Si Si1 0.921485 0.090572 0.901646
Si Si2 0.073777 0.767856 0.440958
Si Si3 0.076931 0.249943 0.943289
Si Si4 0.422914 0.143745 0.225358
Si Si5 0.573641 0.908887 0.648432
Si Si6 0.412132 0.403847 0.264755
Si Si7 0.073336 0.406323 0.392880
Si Si8 0.077823 0.697149 0.819198
O O1 0.750000 0.108244 0.911062
O O2 0.945218 0.093764 0.833102
O O3 0.018061 0.159177 0.930676
O O4 0.953190 0.000000 0.922313
O O5 0.250000 0.769355 0.444761
O O6 0.030708 0.832796 0.391642
O O7 0.030241 0.673367 0.428585
O O8 0.000000 0.792769 0.500000
O O9 0.250000 0.249335 0.950013
O O10 0.037621 0.298465 0.885740
O O11 0.000000 0.281059 0.000000
O O12 0.250000 0.158384 0.229343
O O13 0.468861 0.105309 0.285429
O O14 0.506481 0.226870 0.213339
O O15 0.750000 0.909621 0.647430
O O16 0.525490 0.000000 0.630286
O O17 0.250000 0.367490 0.257858
O O18 0.397584 0.500000 0.265404
O O19 0.468839 0.384187 0.327901
O O20 0.515045 0.378751 0.214006
O O21 0.250000 0.409598 0.393453
O O22 0.024812 0.500000 0.406992
O O23 0.250000 0.702415 0.815657
#
# Coordination Sequence:
#
# PCOD9402877 Si02
#       8
#     8   8   8   8   8   8   8   8
#     4   9  17  29  47  72  98 121 149 193 248 299
#     4  10  20  33  49  69  95 129 167 206 246 288
#     4  10  21  35  49  66  90 126 169 205 237 277
#     4   9  16  29  51  74  94 120 159 202 242 291
#     4   9  17  30  50  73  94 122 165 213 255 295
#     4   9  17  31  54  81 103 125 157 193 231 285
#     4   8  15  30  52  76 100 126 158 196 238 288
#     4  10  20  32  48  73 104 132 156 191 244 296
#
# _framework density 18.023408
#
# number of rings (size 3 to 8) (size 9 to 14) (size 15 to 20)
#    0.000    2.750    0.000    2.625    0.000    6.250 
#    0.000    2.500    0.000    3.000    0.000    0.000 
#    0.000    0.000    0.000    0.000    0.000    0.000 
#
# Total GULP energy -356446.395691 kJ/mol
# GULP energy per Si atom -5569.474933 kJ/mol
# Density = 1.798239 g / cm^3
# Si number density = 18.023408 Si / 1000 Ang^3
#
#
#
# Elastic Constant Matrix: (Units=GPa)
#
#
# Indices 1 2 3 4 5 6 
#
# 1 12.6478 8.2107 21.5704 0.0000 0.0000 0.0000
# 2 8.2107 42.4882 40.2417 0.0000 0.0000 0.0000
# 3 21.5704 40.2417 87.1943 0.0000 0.0000 0.0000
# 4 0.0000 0.0000 0.0000 0.4307 0.0000 0.0000
# 5 0.0000 0.0000 0.0000 0.0000 17.9667 0.0000
# 6 0.0000 0.0000 0.0000 0.0000 0.0000 5.5676
#
#
#
# Elastic Compliance Matrix: (Units=1/GPa)
#
#
# Indices 1 2 3 4 5 6 
#
# 1 0.139190 0.010153 -0.039119 0.000000 0.000000 0.000000
# 2 0.010153 0.042554 -0.022151 0.000000 0.000000 0.000000
# 3 -0.039119 -0.022151 0.031369 0.000000 0.000000 0.000000
# 4 0.000000 0.000000 0.000000 2.322011 0.000000 0.000000
# 5 0.000000 0.000000 0.000000 0.000000 0.055659 0.000000
# 6 0.000000 0.000000 0.000000 0.000000 0.000000 0.179610
#
#
# Mechanical properties :
#
#
# Convention : Reuss Voigt Hill
#
# Bulk Modulus (GPa) = 9.01889 31.37508 20.19698
# Shear Modulus (GPa) = 1.71846 9.61349 5.66597
#
# Velocity S-wave (km/s) = 0.97751 2.31203 1.77496
# Velocity P-wave (km/s) = 2.50777 4.95712 3.92823
#
# Compressibility (1/GPa) = 0.11087844
#
# Stress axis : x y z
#
# Youngs Moduli (GPa) = 7.18443 23.49976 31.87868
#
# Poissons Ratio (x) = -0.23858 1.24705
# Poissons Ratio (y) = -0.07294 0.70614
# Poissons Ratio (z) = 0.28105 0.52054
#
# Static dielectric constant tensor:
#      x y z
#    x 1.610450 0.000000 0.000000 
#    y 0.000000 1.655540 0.000000 
#    z 0.000000 0.000000 1.631130 
# 
# From -- ./inp_files/32424.got.cif
#   From: 2010.05.17/outbox.cif.g08.bks.cpg/sg51_17_cif.got.tgz:32424.got - 2010.06.03 11:52:47.
