data_PCOD9402509
_publ_section_title
;
Structure prediction by ZEFSAII (Michael W. Deem and Ramdas Pophale) SiO2 
 PCOD9402509
Probable space group: P M M A
;
_chemical_formula_sum "Si O2"
_cell_formula_units_Z 48
_cell_length_a 14.851625
_cell_length_b 27.296881
_cell_length_c 5.360868
_cell_angle_alpha 90.000000
_cell_angle_beta 90.000000
_cell_angle_gamma 90.000000
_cell_volume 2173.312186
_symmetry_space_group_name_H-M "P M M A"
_symmetry_group_IT_number 51
_symmetry_cell_setting 'orthorhombic'
loop_
_space_group_symop_operation_xyz
x,y,z
1/2-x,-y,z
1/2+x,-y,-z
-x,y,-z
-x,-y,-z
1/2+x,y,-z
1/2-x,y,z
x,-y,z
loop_
_atom_site_type_symbol
_atom_site_label
_atom_site_fract_x
_atom_site_fract_y
_atom_site_fract_z
Si Si1 0.391408 0.611069 0.522348
Si Si2 0.148724 0.790087 0.704920
Si Si3 0.500000 0.270373 0.000000
Si Si4 0.939145 0.000000 0.249234
Si Si5 0.152104 0.707328 0.331525
Si Si6 0.890338 0.556532 0.980448
Si Si7 0.938395 0.892708 0.251284
O O1 0.500000 0.610656 0.500000
O O2 0.356751 0.666727 0.545746
O O3 0.360932 0.580357 0.760067
O O4 0.360677 0.587107 0.261425
O O5 0.250000 0.780793 0.798493
O O6 0.068918 0.763935 0.852444
O O7 0.144482 0.762526 0.437768
O O8 0.128659 0.847435 0.717370
O O9 0.565634 0.302515 0.834360
O O10 0.892927 0.053283 0.244098
O O11 0.000000 0.000000 0.500000
O O12 0.000000 0.000000 0.000000
O O13 0.250000 0.701547 0.213869
O O14 0.863191 0.500000 0.956786
O O15 0.000000 0.557116 0.000000
O O16 0.000000 0.891242 0.500000
O O17 0.000000 0.887238 0.000000
#
# Coordination Sequence:
#
# PCOD9402509 Si02
#       7
#     8   8   4   4   8   8   8
#     4  10  20  35  60  89 123 165 204 261 319 381
#     4  11  24  40  61  93 130 171 217 269 327 395
#     4  12  22  42  66  87 121 170 214 268 324 394
#     4   8  16  30  57  88 121 163 221 267 318 382
#     4  11  26  42  62  93 127 168 217 271 331 398
#     4   9  18  33  58  91 124 160 209 257 311 380
#     4  10  19  37  61  91 126 173 218 270 326 384
#
# _framework density 22.086103000000001
#
# number of rings (size 3 to 8) (size 9 to 14) (size 15 to 20)
#    0.000    1.833    0.833    3.500    5.833    2.000 
#    0.000    0.417    0.000    3.000    0.000    7.000 
#    0.000    0.000    0.000    0.000    0.000    0.000 
#
# Total GULP energy -268043.870792 kJ/mol
# GULP energy per Si atom -5584.247308 kJ/mol
# Density = 2.203583 g / cm^3
# Si number density = 22.086103 Si / 1000 Ang^3
#
#
#
# Elastic Constant Matrix: (Units=GPa)
#
#
# Indices 1 2 3 4 5 6 
#
# 1 123.0766 18.1071 33.6034 0.0000 0.0000 0.0000
# 2 18.1071 143.5639 38.9613 0.0000 0.0000 0.0000
# 3 33.6034 38.9613 121.2291 0.0000 0.0000 0.0000
# 4 0.0000 0.0000 0.0000 28.9245 0.0000 0.0000
# 5 0.0000 0.0000 0.0000 0.0000 25.9800 0.0000
# 6 0.0000 0.0000 0.0000 0.0000 0.0000 -76.0733
#
#
#
# Elastic Compliance Matrix: (Units=1/GPa)
#
#
# Indices 1 2 3 4 5 6 
#
# 1 0.008822 -0.000492 -0.002287 0.000000 0.000000 0.000000
# 2 -0.000492 0.007659 -0.002325 0.000000 0.000000 0.000000
# 3 -0.002287 -0.002325 0.009630 0.000000 0.000000 0.000000
# 4 0.000000 0.000000 0.000000 0.034573 0.000000 0.000000
# 5 0.000000 0.000000 0.000000 0.000000 0.038491 0.000000
# 6 0.000000 0.000000 0.000000 0.000000 0.000000 -0.013145
#
#
# Mechanical properties :
#
#
# Convention : Reuss Voigt Hill
#
# Bulk Modulus (GPa) = 62.88451 63.24593 63.06522
# Shear Modulus (GPa) = 49.24252 15.57941 32.41096
#
# Velocity S-wave (km/s) = 4.72695 2.65881 3.83493
# Velocity P-wave (km/s) = 7.63717 6.17446 6.94443
#
# Compressibility (1/GPa) = 0.01590217
#
# Stress axis : x y z
#
# Youngs Moduli (GPa) = 113.35454 130.57292 103.84150
#
# Poissons Ratio (x) = 0.06423 0.23751
# Poissons Ratio (y) = 0.05576 0.24143
# Poissons Ratio (z) = 0.25927 0.30358
#
# Static dielectric constant tensor:
#      x y z
#    x 1.777320 0.000000 0.000000 
#    y 0.000000 1.812430 0.000000 
#    z 0.000000 0.000000 1.856380 
# 
# From -- ./inp_files/1460.got.cif
#   From: 2010.05.17/outbox.cif.g08.bks.cpg/sg51_1_cif.got.tgz:1460.got - 2010.06.03 11:52:47.
