data_PCOD9402455
_publ_section_title
;
Structure prediction by ZEFSAII (Michael W. Deem and Ramdas Pophale) SiO2 
 PCOD9402455
Probable space group: P M M A
;
_chemical_formula_sum "Si O2"
_cell_formula_units_Z 56
_cell_length_a 19.234807
_cell_length_b 7.801486
_cell_length_c 17.173975
_cell_angle_alpha 90.000000
_cell_angle_beta 90.000000
_cell_angle_gamma 90.000000
_cell_volume 2577.128020
_symmetry_space_group_name_H-M "P M M A"
_symmetry_group_IT_number 51
_symmetry_cell_setting 'orthorhombic'
loop_
_space_group_symop_operation_xyz
x,y,z
1/2-x,-y,z
1/2+x,-y,-z
-x,y,-z
-x,-y,-z
1/2+x,y,-z
1/2-x,y,z
x,-y,z
loop_
_atom_site_type_symbol
_atom_site_label
_atom_site_fract_x
_atom_site_fract_y
_atom_site_fract_z
Si Si1 0.955636 0.797214 0.663976
Si Si2 0.897716 0.703563 0.094591
Si Si3 0.542054 0.792253 0.839303
Si Si4 0.670307 0.707281 0.564688
Si Si5 0.092924 0.296646 0.589838
Si Si6 0.172033 0.202524 0.066546
Si Si7 0.830381 0.290526 0.255710
O O1 0.970310 0.729213 0.751024
O O2 0.877718 0.757620 0.637079
O O3 0.010856 0.727988 0.601363
O O4 0.965081 0.000000 0.665727
O O5 0.887499 0.500000 0.090577
O O6 0.862966 0.769063 0.174562
O O7 0.979265 0.740286 0.104342
O O8 0.861235 0.778617 0.018890
O O9 0.615289 0.727714 0.872896
O O10 0.543459 0.000000 0.837380
O O11 0.750000 0.767402 0.567653
O O12 0.671936 0.500000 0.561894
O O13 0.630004 0.772120 0.487370
O O14 0.105617 0.500000 0.588484
O O15 0.128156 0.227941 0.668806
O O16 0.250000 0.275657 0.069701
O O17 0.177407 0.000000 0.082552
O O18 0.750000 0.242847 0.261236
O O19 0.834036 0.500000 0.255299
#
# Coordination Sequence:
#
# PCOD9402455 Si02
#       7
#     8   8   8   8   8   8   8
#     4  11  23  38  59  86 117 152 193 241 289 337
#     4  11  21  35  58  88 119 148 185 235 290 342
#     4  10  22  40  60  82 112 154 200 237 277 340
#     4  10  22  39  60  86 115 150 194 240 286 342
#     4  10  19  36  60  84 113 151 193 233 281 345
#     4  10  22  40  60  81 110 151 195 238 285 340
#     4   9  17  30  52  82 114 147 182 224 276 334
#
# _framework density 21.729613000000001
#
# number of rings (size 3 to 8) (size 9 to 14) (size 15 to 20)
#    0.000    1.857    1.429    2.571    0.000    8.571 
#    0.000    1.429    0.000    2.143    0.000    0.000 
#    0.000    0.000    0.000    0.000    0.000    0.000 
#
# Total GULP energy -312950.518488 kJ/mol
# GULP energy per Si atom -5588.402116 kJ/mol
# Density = 2.168016 g / cm^3
# Si number density = 21.729613 Si / 1000 Ang^3
#
#
#
# Elastic Constant Matrix: (Units=GPa)
#
#
# Indices 1 2 3 4 5 6 
#
# 1 130.0392 -15.7232 13.4900 0.0000 0.0000 0.0000
# 2 -15.7232 24.9965 -9.9486 0.0000 0.0000 0.0000
# 3 13.4900 -9.9486 33.3945 0.0000 0.0000 0.0000
# 4 0.0000 0.0000 0.0000 18.2063 0.0000 0.0000
# 5 0.0000 0.0000 0.0000 0.0000 28.2723 0.0000
# 6 0.0000 0.0000 0.0000 0.0000 0.0000 7.7794
#
#
#
# Elastic Compliance Matrix: (Units=1/GPa)
#
#
# Indices 1 2 3 4 5 6 
#
# 1 0.008448 0.004488 -0.002076 0.000000 0.000000 0.000000
# 2 0.004488 0.047771 0.012419 0.000000 0.000000 0.000000
# 3 -0.002076 0.012419 0.034483 0.000000 0.000000 0.000000
# 4 0.000000 0.000000 0.000000 0.054926 0.000000 0.000000
# 5 0.000000 0.000000 0.000000 0.000000 0.035370 0.000000
# 6 0.000000 0.000000 0.000000 0.000000 0.000000 0.128545
#
#
# Mechanical properties :
#
#
# Convention : Reuss Voigt Hill
#
# Bulk Modulus (GPa) = 8.30816 18.22963 13.26889
# Shear Modulus (GPa) = 15.62485 24.22572 19.92528
#
# Velocity S-wave (km/s) = 2.68443 3.34259 3.03143
# Velocity P-wave (km/s) = 3.66606 4.82750 4.28630
#
# Compressibility (1/GPa) = 0.12036363
#
# Stress axis : x y z
#
# Youngs Moduli (GPa) = 118.37213 20.93319 28.99962
#
# Poissons Ratio (x) = -0.09394 0.06019
# Poissons Ratio (y) = -0.53123 -0.36014
# Poissons Ratio (z) = 0.24570 -0.25996
#
# Static dielectric constant tensor:
#      x y z
#    x 1.785850 0.000000 0.000000 
#    y 0.000000 1.796730 0.000000 
#    z 0.000000 0.000000 1.780470 
# 
# From -- ./inp_files/25694.got.cif
#   From: 2010.05.17/outbox.cif.g08.bks.cpg/sg51_13_cif.got.tgz:25694.got - 2010.06.03 11:52:47.
