data_PCOD9402718
_publ_section_title
;
Structure prediction by ZEFSAII (Michael W. Deem and Ramdas Pophale) SiO2 
 PCOD9402718
Probable space group: P M M A
;
_chemical_formula_sum "Si O2"
_cell_formula_units_Z 64
_cell_length_a 7.551423
_cell_length_b 21.481714
_cell_length_c 18.055893
_cell_angle_alpha 90.000000
_cell_angle_beta 90.000000
_cell_angle_gamma 90.000000
_cell_volume 2928.981988
_symmetry_space_group_name_H-M "P M M A"
_symmetry_group_IT_number 51
_symmetry_cell_setting 'orthorhombic'
loop_
_space_group_symop_operation_xyz
x,y,z
1/2-x,-y,z
1/2+x,-y,-z
-x,y,-z
-x,-y,-z
1/2+x,y,-z
1/2-x,y,z
x,-y,z
loop_
_atom_site_type_symbol
_atom_site_label
_atom_site_fract_x
_atom_site_fract_y
_atom_site_fract_z
Si Si1 0.462417 0.202283 0.418787
Si Si2 0.465609 0.930845 0.202038
Si Si3 0.465732 0.931330 0.374572
Si Si4 0.041572 0.296712 0.295512
Si Si5 0.461822 0.298217 0.126347
Si Si6 0.962060 0.165590 0.919017
Si Si7 0.538173 0.433668 0.118365
Si Si8 0.963472 0.567219 0.291339
O O1 0.500000 0.228292 0.500000
O O2 0.250000 0.199383 0.410406
O O3 0.529833 0.131155 0.414066
O O4 0.531416 0.245972 0.352587
O O5 0.250000 0.929315 0.201263
O O6 0.514777 0.923762 0.287935
O O7 0.530053 0.877314 0.147489
O O8 0.519829 0.000000 0.177466
O O9 0.250000 0.932399 0.378292
O O10 0.526674 0.000000 0.400026
O O11 0.250000 0.283254 0.288082
O O12 0.968332 0.296256 0.211535
O O13 0.023482 0.367453 0.324665
O O14 0.250000 0.293966 0.130200
O O15 0.530492 0.236348 0.086816
O O16 0.495415 0.365174 0.089522
O O17 0.750000 0.167841 0.910981
O O18 0.000000 0.139443 0.000000
O O19 0.750000 0.436873 0.117702
O O20 0.470642 0.500000 0.087057
O O21 0.479425 0.432026 0.204780
O O22 0.750000 0.567813 0.291771
O O23 0.021318 0.500000 0.322460
#
# Coordination Sequence:
#
# PCOD9402718 Si02
#       8
#     8   8   8   8   8   8   8   8
#     4  10  20  32  46  67  95 124 154 189 228 270
#     4   8  14  27  49  73  93 117 153 193 228 265
#     4   8  14  27  49  73  93 117 153 193 228 265
#     4   9  17  29  46  67  90 118 153 192 229 265
#     4   9  17  29  46  67  90 118 153 192 229 265
#     4  10  20  32  46  67  95 124 154 189 228 270
#     4   8  14  25  42  66  94 119 144 180 228 278
#     4   8  14  25  42  66  94 119 144 180 228 278
#
# _framework density 21.850594999999998
#
# number of rings (size 3 to 8) (size 9 to 14) (size 15 to 20)
#    0.000    3.250    0.000    2.250    0.000    5.000 
#    0.000    2.500    0.000    3.000    0.000    1.750 
#    0.000    0.000    0.000    0.000    0.000    0.000 
#
# Total GULP energy -356738.344687 kJ/mol
# GULP energy per Si atom -5574.036636 kJ/mol
# Density = 2.180086 g / cm^3
# Si number density = 21.850595 Si / 1000 Ang^3
#
#
#
# Elastic Constant Matrix: (Units=GPa)
#
#
# Indices 1 2 3 4 5 6 
#
# 1 50.5586 -0.2721 -3.4056 0.0000 0.0000 0.0000
# 2 -0.2721 118.3477 42.4673 0.0000 0.0000 0.0000
# 3 -3.4056 42.4673 64.9093 0.0000 0.0000 0.0000
# 4 0.0000 0.0000 0.0000 -39.3478 0.0000 0.0000
# 5 0.0000 0.0000 0.0000 0.0000 6.8565 0.0000
# 6 0.0000 0.0000 0.0000 0.0000 0.0000 37.8338
#
#
#
# Elastic Compliance Matrix: (Units=1/GPa)
#
#
# Indices 1 2 3 4 5 6 
#
# 1 0.019866 -0.000429 0.001323 0.000000 0.000000 0.000000
# 2 -0.000429 0.011051 -0.007253 0.000000 0.000000 0.000000
# 3 0.001323 -0.007253 0.020221 0.000000 0.000000 0.000000
# 4 0.000000 0.000000 0.000000 -0.025414 0.000000 0.000000
# 5 0.000000 0.000000 0.000000 0.000000 0.145848 0.000000
# 6 0.000000 0.000000 0.000000 0.000000 0.000000 0.026431
#
#
# Mechanical properties :
#
#
# Convention : Reuss Voigt Hill
#
# Bulk Modulus (GPa) = 26.02808 34.59942 30.31375
# Shear Modulus (GPa) = 22.36862 14.07021 18.21942
#
# Velocity S-wave (km/s) = 3.20301 2.54033 2.89072
# Velocity P-wave (km/s) = 5.06130 4.94705 5.00450
#
# Compressibility (1/GPa) = 0.03842004
#
# Stress axis : x y z
#
# Youngs Moduli (GPa) = 50.33770 90.48723 49.45409
#
# Poissons Ratio (x) = 0.03883 -0.06543
# Poissons Ratio (y) = 0.02160 0.35868
# Poissons Ratio (z) = -0.06660 0.65629
#
# Static dielectric constant tensor:
#      x y z
#    x 1.834870 0.000000 0.000000 
#    y 0.000000 1.855070 0.000000 
#    z 0.000000 0.000000 1.755350 
# 
# From -- ./inp_files/23438.got.cif
#   From: 2010.05.17/outbox.cif.g08.bks.cpg/sg51_12_cif.got.tgz:23438.got - 2010.06.03 11:52:47.
