data_PCOD9403833
_publ_section_title
;
Structure prediction by ZEFSAII (Michael W. Deem and Ramdas Pophale) SiO2 
 PCOD9403833
Probable space group: P M M A
;
_chemical_formula_sum "Si O2"
_cell_formula_units_Z 52
_cell_length_a 7.666983
_cell_length_b 13.585721
_cell_length_c 22.382337
_cell_angle_alpha 90.000000
_cell_angle_beta 90.000000
_cell_angle_gamma 90.000000
_cell_volume 2331.377615
_symmetry_space_group_name_H-M "P M M A"
_symmetry_group_IT_number 51
_symmetry_cell_setting 'orthorhombic'
loop_
_space_group_symop_operation_xyz
x,y,z
1/2-x,-y,z
1/2+x,-y,-z
-x,y,-z
-x,-y,-z
1/2+x,y,-z
1/2-x,y,z
x,-y,z
loop_
_atom_site_type_symbol
_atom_site_label
_atom_site_fract_x
_atom_site_fract_y
_atom_site_fract_z
Si Si1 0.459821 0.111388 0.429916
Si Si2 0.953330 0.104021 0.190791
Si Si3 0.953971 0.605799 0.897520
Si Si4 0.041893 0.685851 0.772748
Si Si5 0.960052 0.692379 0.636304
Si Si6 0.041844 0.819317 0.066147
Si Si7 0.540866 0.500000 0.568909
O O1 0.500000 0.131092 0.500000
O O2 0.250000 0.108630 0.424298
O O3 0.524431 0.201416 0.388285
O O4 0.524811 0.000000 0.415887
O O5 0.750000 0.102905 0.208109
O O6 0.030623 0.203842 0.216496
O O7 0.964214 0.116829 0.119449
O O8 0.032920 0.000000 0.208962
O O9 0.750000 0.603900 0.913584
O O10 0.031655 0.500000 0.914793
O O11 0.026744 0.706776 0.925227
O O12 0.967232 0.619200 0.825726
O O13 0.250000 0.685237 0.782313
O O14 0.004661 0.665174 0.704277
O O15 0.750000 0.696495 0.631734
O O16 0.026390 0.601245 0.597205
O O17 0.250000 0.818685 0.074670
O O18 0.000000 0.854028 0.000000
O O19 0.750000 0.500000 0.577997
O O20 0.500000 0.500000 0.500000
#
# Coordination Sequence:
#
# PCOD9403833 Si02
#       7
#     8   8   8   8   8   8   4
#     4   9  18  33  53  76 102 133 171 216 264 313
#     4   9  19  37  57  76 104 141 177 218 268 315
#     4   9  19  36  56  75 101 139 176 213 262 317
#     4  10  21  35  53  80 107 133 173 221 263 307
#     4  10  21  36  53  76 107 142 177 213 262 322
#     4  10  20  34  53  79 108 138 176 219 263 315
#     4  10  22  38  56  78 106 142 179 218 263 314
#
# _framework density 22.304407999999999
#
# number of rings (size 3 to 8) (size 9 to 14) (size 15 to 20)
#    0.000    2.462    0.000    1.385    1.077    4.308 
#    0.000    0.000    0.000    0.000    0.000    0.000 
#    0.000    0.000    0.000    0.000    0.000    0.000 
#
# Total GULP energy -290251.343700 kJ/mol
# GULP energy per Si atom -5581.756610 kJ/mol
# Density = 2.225364 g / cm^3
# Si number density = 22.304408 Si / 1000 Ang^3
#
#
#
# Elastic Constant Matrix: (Units=GPa)
#
#
# Indices 1 2 3 4 5 6 
#
# 1 48.5278 4.7664 -21.3585 0.0000 0.0000 0.0000
# 2 4.7664 74.0017 -16.0336 0.0000 0.0000 0.0000
# 3 -21.3585 -16.0336 62.4816 0.0000 0.0000 0.0000
# 4 0.0000 0.0000 0.0000 -27.9309 0.0000 0.0000
# 5 0.0000 0.0000 0.0000 0.0000 18.1987 0.0000
# 6 0.0000 0.0000 0.0000 0.0000 0.0000 1.0297
#
#
#
# Elastic Compliance Matrix: (Units=1/GPa)
#
#
# Indices 1 2 3 4 5 6 
#
# 1 0.024260 0.000248 0.008357 0.000000 0.000000 0.000000
# 2 0.000248 0.014311 0.003757 0.000000 0.000000 0.000000
# 3 0.008357 0.003757 0.019825 0.000000 0.000000 0.000000
# 4 0.000000 0.000000 0.000000 -0.035803 0.000000 0.000000
# 5 0.000000 0.000000 0.000000 0.000000 0.054949 0.000000
# 6 0.000000 0.000000 0.000000 0.000000 0.000000 0.971192
#
#
# Mechanical properties :
#
#
# Convention : Reuss Voigt Hill
#
# Bulk Modulus (GPa) = 12.03063 13.30665 12.66864
# Shear Modulus (GPa) = 4.75412 12.76859 8.76136
#
# Velocity S-wave (km/s) = 1.46154 2.39523 1.98409
# Velocity P-wave (km/s) = 2.87292 3.69166 3.30772
#
# Compressibility (1/GPa) = 0.08312114
#
# Stress axis : x y z
#
# Youngs Moduli (GPa) = 41.21940 69.87487 50.44011
#
# Poissons Ratio (x) = -0.01733 -0.42151
# Poissons Ratio (y) = -0.01022 -0.18952
# Poissons Ratio (z) = -0.34446 -0.26254
#
# Static dielectric constant tensor:
#      x y z
#    x 1.820370 0.000000 0.000000 
#    y 0.000000 1.857630 0.000000 
#    z 0.000000 0.000000 1.775230 
# 
# From -- ./inp_files/31719.got.cif
#   From: 2010.05.17/outbox.cif.g08.bks.cpg/sg51_16_cif.got.tgz:31719.got - 2010.06.03 11:52:47.
