data_PCOD9403681
_publ_section_title
;
Structure prediction by ZEFSAII (Michael W. Deem and Ramdas Pophale) SiO2 
 PCOD9403681
Probable space group: P M M A
;
_chemical_formula_sum "Si O2"
_cell_formula_units_Z 64
_cell_length_a 8.638952
_cell_length_b 19.934561
_cell_length_c 21.148176
_cell_angle_alpha 90.000000
_cell_angle_beta 90.000000
_cell_angle_gamma 90.000000
_cell_volume 3642.005968
_symmetry_space_group_name_H-M "P M M A"
_symmetry_group_IT_number 51
_symmetry_cell_setting 'orthorhombic'
loop_
_space_group_symop_operation_xyz
x,y,z
1/2-x,-y,z
1/2+x,-y,-z
-x,y,-z
-x,-y,-z
1/2+x,y,-z
1/2-x,y,z
x,-y,z
loop_
_atom_site_type_symbol
_atom_site_label
_atom_site_fract_x
_atom_site_fract_y
_atom_site_fract_z
Si Si1 0.936684 0.173387 0.318037
Si Si2 0.435339 0.422020 0.931425
Si Si3 0.563149 0.922511 0.931558
Si Si4 0.936889 0.922427 0.431458
Si Si5 0.562925 0.328777 0.316457
Si Si6 0.063241 0.173903 0.181326
Si Si7 0.935379 0.670614 0.820666
Si Si8 0.563239 0.422369 0.431928
O O1 0.750000 0.170944 0.316059
O O2 0.989677 0.125759 0.374930
O O3 0.982098 0.251181 0.328132
O O4 0.000085 0.152626 0.249636
O O5 0.250000 0.418832 0.932783
O O6 0.481479 0.500000 0.921310
O O7 0.498143 0.375762 0.875616
O O8 0.500000 0.401376 0.000000
O O9 0.750000 0.920650 0.933550
O O10 0.510553 0.874192 0.875213
O O11 0.515986 0.000000 0.920590
O O12 0.500000 0.901779 0.000000
O O13 0.750000 0.920399 0.433477
O O14 0.000000 0.901850 0.500000
O O15 0.983598 0.000000 0.420466
O O16 0.750000 0.331550 0.312688
O O17 0.495473 0.349727 0.248728
O O18 0.512019 0.375867 0.374032
O O19 0.250000 0.172035 0.183500
O O20 0.016591 0.251398 0.170261
O O21 0.750000 0.667682 0.821739
O O22 0.500000 0.400186 0.500000
O O23 0.750000 0.420512 0.434064
O O24 0.515704 0.500000 0.422311
#
# Coordination Sequence:
#
# PCOD9403681 Si02
#       8
#     8   8   8   8   8   8   8   8
#     4   9  18  32  49  69  94 125 160 198 239 285
#     4  10  21  37  56  77 102 132 166 204 245 291
#     4   9  18  33  51  71  97 128 162 200 240 284
#     4   9  18  32  48  68  95 125 159 200 245 294
#     4   9  18  33  50  69  96 129 163 198 240 290
#     4   9  19  34  50  72 101 130 162 201 244 290
#     4  10  20  34  52  75 103 132 164 204 247 292
#     4   9  18  32  49  69  94 123 155 193 236 282
#
# _framework density 17.572734000000001
#
# number of rings (size 3 to 8) (size 9 to 14) (size 15 to 20)
#    0.000    2.750    0.000    0.750    0.000    4.750 
#    0.000    2.500    0.000    0.000    0.000    0.000 
#    0.000    0.000    0.000    0.000    0.000    0.000 
#
# Total GULP energy -356931.777559 kJ/mol
# GULP energy per Si atom -5577.059024 kJ/mol
# Density = 1.753274 g / cm^3
# Si number density = 17.572734 Si / 1000 Ang^3
#
#
#
# Elastic Constant Matrix: (Units=GPa)
#
#
# Indices 1 2 3 4 5 6 
#
# 1 9.5832 22.9689 33.8460 0.0000 0.0000 0.0000
# 2 22.9689 83.5942 117.6929 0.0000 0.0000 0.0000
# 3 33.8460 117.6929 215.3312 0.0000 0.0000 0.0000
# 4 0.0000 0.0000 0.0000 44.0227 0.0000 0.0000
# 5 0.0000 0.0000 0.0000 0.0000 35.4576 0.0000
# 6 0.0000 0.0000 0.0000 0.0000 0.0000 -52.5830
#
#
#
# Elastic Compliance Matrix: (Units=1/GPa)
#
#
# Indices 1 2 3 4 5 6 
#
# 1 0.309948 -0.071905 -0.009417 0.000000 0.000000 0.000000
# 2 -0.071905 0.068583 -0.026183 0.000000 0.000000 0.000000
# 3 -0.009417 -0.026183 0.020435 0.000000 0.000000 0.000000
# 4 0.000000 0.000000 0.000000 0.022716 0.000000 0.000000
# 5 0.000000 0.000000 0.000000 0.000000 0.028203 0.000000
# 6 0.000000 0.000000 0.000000 0.000000 0.000000 -0.019018
#
#
# Mechanical properties :
#
#
# Convention : Reuss Voigt Hill
#
# Bulk Modulus (GPa) = 5.43608 73.05824 39.24716
# Shear Modulus (GPa) = 7.07017 14.31285 10.69151
#
# Velocity S-wave (km/s) = 2.00801 2.85703 2.46928
# Velocity P-wave (km/s) = 2.91141 7.24903 5.52380
#
# Compressibility (1/GPa) = 0.18395613
#
# Stress axis : x y z
#
# Youngs Moduli (GPa) = 3.22634 14.58086 48.93553
#
# Poissons Ratio (x) = 1.04844 0.46083
# Poissons Ratio (y) = 0.23199 1.28129
# Poissons Ratio (z) = 0.03038 0.38177
#
# Static dielectric constant tensor:
#      x y z
#    x 1.593800 0.000000 0.000000 
#    y 0.000000 1.600660 0.000000 
#    z 0.000000 0.000000 1.564010 
# 
# From -- ./inp_files/22388.got.cif
#   From: 2010.05.17/outbox.cif.g08.bks.cpg/sg51_12_cif.got.tgz:22388.got - 2010.06.03 11:52:47.
