data_PCOD9403796
_publ_section_title
;
Structure prediction by ZEFSAII (Michael W. Deem and Ramdas Pophale) SiO2 
 PCOD9403796
Probable space group: P M M A
;
_chemical_formula_sum "Si O2"
_cell_formula_units_Z 64
_cell_length_a 21.116580
_cell_length_b 7.715724
_cell_length_c 19.092144
_cell_angle_alpha 90.000000
_cell_angle_beta 90.000000
_cell_angle_gamma 90.000000
_cell_volume 3110.677354
_symmetry_space_group_name_H-M "P M M A"
_symmetry_group_IT_number 51
_symmetry_cell_setting 'orthorhombic'
loop_
_space_group_symop_operation_xyz
x,y,z
1/2-x,-y,z
1/2+x,-y,-z
-x,y,-z
-x,-y,-z
1/2+x,y,-z
1/2-x,y,z
x,-y,z
loop_
_atom_site_type_symbol
_atom_site_label
_atom_site_fract_x
_atom_site_fract_y
_atom_site_fract_z
Si Si1 0.821653 0.290790 0.047583
Si Si2 0.443356 0.203787 0.702061
Si Si3 0.060278 0.704661 0.541281
Si Si4 0.320759 0.707693 0.458992
Si Si5 0.178180 0.709459 0.792115
Si Si6 0.678307 0.208968 0.701291
Si Si7 0.441626 0.206359 0.045652
Si Si8 0.438593 0.212901 0.204944
O O1 0.750000 0.233363 0.029485
O O2 0.821252 0.500000 0.048050
O O3 0.835200 0.233847 0.127695
O O4 0.875906 0.233555 0.994838
O O5 0.444976 0.278457 0.624274
O O6 0.376236 0.231780 0.739860
O O7 0.499751 0.270741 0.751754
O O8 0.453886 0.000000 0.694030
O O9 0.061858 0.500000 0.524818
O O10 0.125781 0.777750 0.510678
O O11 0.000000 0.779055 0.500000
O O12 0.250000 0.778800 0.470332
O O13 0.316822 0.500000 0.467911
O O14 0.338569 0.741828 0.378278
O O15 0.250000 0.765436 0.774181
O O16 0.178135 0.500000 0.791875
O O17 0.750000 0.272058 0.715346
O O18 0.624964 0.269378 0.755055
O O19 0.679685 0.000000 0.704700
O O20 0.440404 0.273901 0.124869
O O21 0.451588 0.000000 0.051588
O O22 0.500000 0.277941 0.000000
O O23 0.438557 0.000000 0.204418
#
# Coordination Sequence:
#
# PCOD9403796 Si02
#       8
#     8   8   8   8   8   8   8   8
#     4   9  19  36  56  79 107 138 175 219 265 314
#     4  11  22  35  54  79 107 137 172 219 266 309
#     4  10  21  36  53  74 102 137 176 214 255 311
#     4   9  18  33  52  73  98 128 161 201 252 304
#     4   9  19  37  58  77 103 140 175 210 258 315
#     4   9  17  31  52  74  97 130 171 210 248 299
#     4  10  20  34  53  77 106 140 178 218 260 312
#     4   9  19  34  50  73 106 139 170 209 260 310
#
# _framework density 20.574296
#
# number of rings (size 3 to 8) (size 9 to 14) (size 15 to 20)
#    0.000    2.500    0.000    2.625    0.000    4.000 
#    0.000    6.250    0.000    1.500    0.000    0.000 
#    0.000    0.000    0.000    0.000    0.000    0.000 
#
# Total GULP energy -357317.960986 kJ/mol
# GULP energy per Si atom -5583.093140 kJ/mol
# Density = 2.052747 g / cm^3
# Si number density = 20.574296 Si / 1000 Ang^3
#
#
#
# Elastic Constant Matrix: (Units=GPa)
#
#
# Indices 1 2 3 4 5 6 
#
# 1 146.0270 -4.1308 116.0414 0.0000 0.0000 0.0000
# 2 -4.1308 26.8050 -11.1440 0.0000 0.0000 0.0000
# 3 116.0414 -11.1440 149.7346 0.0000 0.0000 0.0000
# 4 0.0000 0.0000 0.0000 -50.0876 0.0000 0.0000
# 5 0.0000 0.0000 0.0000 0.0000 38.9076 0.0000
# 6 0.0000 0.0000 0.0000 0.0000 0.0000 16.0218
#
#
#
# Elastic Compliance Matrix: (Units=1/GPa)
#
#
# Indices 1 2 3 4 5 6 
#
# 1 0.018078 -0.003136 -0.014244 0.000000 0.000000 0.000000
# 2 -0.003136 0.039042 0.005336 0.000000 0.000000 0.000000
# 3 -0.014244 0.005336 0.018114 0.000000 0.000000 0.000000
# 4 0.000000 0.000000 0.000000 -0.019965 0.000000 0.000000
# 5 0.000000 0.000000 0.000000 0.000000 0.025702 0.000000
# 6 0.000000 0.000000 0.000000 0.000000 0.000000 0.062415
#
#
# Mechanical properties :
#
#
# Convention : Reuss Voigt Hill
#
# Bulk Modulus (GPa) = 19.55158 58.23330 38.89244
# Shear Modulus (GPa) = 27.09716 15.75503 21.42609
#
# Velocity S-wave (km/s) = 3.63304 2.77024 3.23058
# Velocity P-wave (km/s) = 5.20790 6.21270 5.73236
#
# Compressibility (1/GPa) = 0.05114675
#
# Stress axis : x y z
#
# Youngs Moduli (GPa) = 55.31562 25.61375 55.20571
#
# Poissons Ratio (x) = 0.08032 0.78632
# Poissons Ratio (y) = 0.17346 -0.29457
# Poissons Ratio (z) = 0.78789 -0.13667
#
# Static dielectric constant tensor:
#      x y z
#    x 1.734000 0.000000 0.000000 
#    y 0.000000 1.753690 0.000000 
#    z 0.000000 0.000000 1.690410 
# 
# From -- ./inp_files/30568.got.cif
#   From: 2010.05.17/outbox.cif.g08.bks.cpg/sg51_16_cif.got.tgz:30568.got - 2010.06.03 11:52:47.
