data_PCOD9403393
_publ_section_title
;
Structure prediction by ZEFSAII (Michael W. Deem and Ramdas Pophale) SiO2 
 PCOD9403393
Probable space group: P M M A
;
_chemical_formula_sum "Si O2"
_cell_formula_units_Z 40
_cell_length_a 8.751832
_cell_length_b 19.205133
_cell_length_c 14.080403
_cell_angle_alpha 90.000000
_cell_angle_beta 90.000000
_cell_angle_gamma 90.000000
_cell_volume 2366.635510
_symmetry_space_group_name_H-M "P M M A"
_symmetry_group_IT_number 51
_symmetry_cell_setting 'orthorhombic'
loop_
_space_group_symop_operation_xyz
x,y,z
1/2-x,-y,z
1/2+x,-y,-z
-x,y,-z
-x,-y,-z
1/2+x,y,-z
1/2-x,y,z
x,-y,z
loop_
_atom_site_type_symbol
_atom_site_label
_atom_site_fract_x
_atom_site_fract_y
_atom_site_fract_z
Si Si1 0.932483 0.155695 0.397083
Si Si2 0.932692 0.580529 0.395067
Si Si3 0.433518 0.710748 0.294092
Si Si4 0.065558 0.079111 0.217783
Si Si5 0.066914 0.786643 0.102329
O O1 0.750000 0.156712 0.400258
O O2 0.000000 0.138928 0.500000
O O3 0.995005 0.231009 0.363393
O O4 0.991098 0.102328 0.316927
O O5 0.750000 0.588892 0.397839
O O6 0.967362 0.500000 0.370829
O O7 0.000000 0.593757 0.500000
O O8 0.005455 0.635754 0.323802
O O9 0.250000 0.713818 0.302457
O O10 0.476110 0.733923 0.187166
O O11 0.250000 0.083804 0.228189
O O12 0.019425 0.136642 0.139905
O O13 0.025714 0.000000 0.192944
O O14 0.250000 0.786240 0.095608
O O15 0.000000 0.770612 0.000000
#
# Coordination Sequence:
#
# PCOD9403393 Si02
#       5
#     8   8   8   8   8
#     4  11  21  33  50  72  99 132 170 208 248 296
#     4  10  20  33  51  78 110 141 171 203 242 289
#     4  10  20  35  53  74 102 134 169 208 250 294
#     4   9  19  36  53  71  99 131 164 205 252 301
#     4   9  19  34  53  76  99 127 163 206 255 302
#
# _framework density 16.901630999999998
#
# number of rings (size 3 to 8) (size 9 to 14) (size 15 to 20)
#    0.000    2.200    0.000    4.800    0.000    6.400 
#    0.000    0.000    0.000    0.600    0.000    0.000 
#    0.000    0.000    0.000    0.000    0.000    0.000 
#
# Total GULP energy -223262.913607 kJ/mol
# GULP energy per Si atom -5581.572840 kJ/mol
# Density = 1.686316 g / cm^3
# Si number density = 16.901631 Si / 1000 Ang^3
#
#
#
# Elastic Constant Matrix: (Units=GPa)
#
#
# Indices 1 2 3 4 5 6 
#
# 1 49.7034 37.4302 24.2475 0.0000 0.0000 0.0000
# 2 37.4302 115.2442 50.2417 0.0000 0.0000 0.0000
# 3 24.2475 50.2417 86.5256 0.0000 0.0000 0.0000
# 4 0.0000 0.0000 0.0000 9.2801 0.0000 0.0000
# 5 0.0000 0.0000 0.0000 0.0000 30.5988 0.0000
# 6 0.0000 0.0000 0.0000 0.0000 0.0000 27.8689
#
#
#
# Elastic Compliance Matrix: (Units=1/GPa)
#
#
# Indices 1 2 3 4 5 6 
#
# 1 0.027342 -0.007418 -0.003355 0.000000 0.000000 0.000000
# 2 -0.007418 0.013631 -0.005836 0.000000 0.000000 0.000000
# 3 -0.003355 -0.005836 0.015886 0.000000 0.000000 0.000000
# 4 0.000000 0.000000 0.000000 0.107757 0.000000 0.000000
# 5 0.000000 0.000000 0.000000 0.000000 0.032681 0.000000
# 6 0.000000 0.000000 0.000000 0.000000 0.000000 0.035882
#
#
# Mechanical properties :
#
#
# Convention : Reuss Voigt Hill
#
# Bulk Modulus (GPa) = 42.29874 52.81244 47.55559
# Shear Modulus (GPa) = 18.22966 22.85315 20.54141
#
# Velocity S-wave (km/s) = 3.28773 3.68112 3.48997
# Velocity P-wave (km/s) = 6.28434 7.02725 6.66615
#
# Compressibility (1/GPa) = 0.02364137
#
# Stress axis : x y z
#
# Youngs Moduli (GPa) = 36.57339 73.36362 62.94768
#
# Poissons Ratio (x) = 0.54420 0.21119
# Poissons Ratio (y) = 0.27130 0.36736
# Poissons Ratio (z) = 0.12271 0.42815
#
# Static dielectric constant tensor:
#      x y z
#    x 1.564380 0.000000 0.000000 
#    y 0.000000 1.574090 0.000000 
#    z 0.000000 0.000000 1.543640 
# 
# From -- ./inp_files/14000.got.cif
#   From: 2010.05.17/outbox.cif.g08.bks.cpg/sg51_7_cif.got.tgz:14000.got - 2010.06.03 11:52:47.
