data_PCOD9403130
_publ_section_title
;
Structure prediction by ZEFSAII (Michael W. Deem and Ramdas Pophale) SiO2 
 PCOD9403130
Probable space group: P M M A
;
_chemical_formula_sum "Si O2"
_cell_formula_units_Z 64
_cell_length_a 26.129578
_cell_length_b 14.300324
_cell_length_c 9.975930
_cell_angle_alpha 90.000000
_cell_angle_beta 90.000000
_cell_angle_gamma 90.000000
_cell_volume 3727.620283
_symmetry_space_group_name_H-M "P M M A"
_symmetry_group_IT_number 51
_symmetry_cell_setting 'orthorhombic'
loop_
_space_group_symop_operation_xyz
x,y,z
1/2-x,-y,z
1/2+x,-y,-z
-x,y,-z
-x,-y,-z
1/2+x,y,-z
1/2-x,y,z
x,-y,z
loop_
_atom_site_type_symbol
_atom_site_label
_atom_site_fract_x
_atom_site_fract_y
_atom_site_fract_z
Si Si1 0.687939 0.106986 0.570733
Si Si2 0.690074 0.253555 0.793312
Si Si3 0.810950 0.887900 0.262904
Si Si4 0.526045 0.613580 0.635667
Si Si5 0.456961 0.390943 0.885910
Si Si6 0.808425 0.388411 0.322504
Si Si7 0.358504 0.612049 0.400279
Si Si8 0.644406 0.729720 0.088550
O O1 0.750000 0.108035 0.574004
O O2 0.670402 0.172930 0.691502
O O3 0.675408 0.135687 0.417869
O O4 0.671224 0.000000 0.590130
O O5 0.750000 0.237786 0.818011
O O6 0.681045 0.346044 0.705145
O O7 0.662955 0.261494 0.936053
O O8 0.750000 0.866222 0.242281
O O9 0.846087 0.829052 0.162113
O O10 0.816112 0.000000 0.247519
O O11 0.500000 0.646168 0.500000
O O12 0.561530 0.500000 0.127802
O O13 0.488179 0.637934 0.754577
O O14 0.584771 0.644534 0.642029
O O15 0.528062 0.500000 0.633949
O O16 0.411109 0.319225 0.910836
O O17 0.500000 0.390986 0.000000
O O18 0.750000 0.366129 0.361035
O O19 0.812693 0.500000 0.305593
O O20 0.844486 0.360878 0.447213
O O21 0.822276 0.338402 0.184462
O O22 0.356920 0.500000 0.396271
#
# Coordination Sequence:
#
# PCOD9403130 Si02
#       8
#     8   8   8   8   8   8   8   8
#     4   8  16  33  54  73  97 132 171 209 249 297
#     4  11  22  32  46  72 104 137 170 205 248 302
#     4   9  18  34  56  80 106 137 172 211 259 320
#     4   9  17  31  51  72  91 117 164 221 264 295
#     4  10  21  37  54  72 100 140 183 227 273 317
#     4  10  20  33  49  72 106 146 179 209 256 320
#     4  10  20  34  51  71  99 136 175 213 254 306
#     4  12  22  33  51  77 108 139 176 219 268 318
#
# _framework density 17.169129999999999
#
# number of rings (size 3 to 8) (size 9 to 14) (size 15 to 20)
#    0.000    2.125    0.000    4.875    0.000    6.250 
#    0.000    1.250    0.000    0.375    0.000    0.875 
#    0.000   10.000    0.000    0.000    0.000    0.000 
#
# Total GULP energy -356836.003552 kJ/mol
# GULP energy per Si atom -5575.562556 kJ/mol
# Density = 1.713005 g / cm^3
# Si number density = 17.169130 Si / 1000 Ang^3
#
#
#
# Elastic Constant Matrix: (Units=GPa)
#
#
# Indices 1 2 3 4 5 6 
#
# 1 58.4991 27.7587 21.1737 0.0000 0.0000 0.0000
# 2 27.7587 66.9499 30.6546 0.0000 0.0000 0.0000
# 3 21.1737 30.6546 111.8082 0.0000 0.0000 0.0000
# 4 0.0000 0.0000 0.0000 10.0066 0.0000 0.0000
# 5 0.0000 0.0000 0.0000 0.0000 22.5148 0.0000
# 6 0.0000 0.0000 0.0000 0.0000 0.0000 15.8201
#
#
#
# Elastic Compliance Matrix: (Units=1/GPa)
#
#
# Indices 1 2 3 4 5 6 
#
# 1 0.021618 -0.008107 -0.001871 0.000000 0.000000 0.000000
# 2 -0.008107 0.020121 -0.003981 0.000000 0.000000 0.000000
# 3 -0.001871 -0.003981 0.010390 0.000000 0.000000 0.000000
# 4 0.000000 0.000000 0.000000 0.099934 0.000000 0.000000
# 5 0.000000 0.000000 0.000000 0.000000 0.044415 0.000000
# 6 0.000000 0.000000 0.000000 0.000000 0.000000 0.063211
#
#
# Mechanical properties :
#
#
# Convention : Reuss Voigt Hill
#
# Bulk Modulus (GPa) = 41.30474 44.04793 42.67633
# Shear Modulus (GPa) = 16.91033 20.17964 18.54499
#
# Velocity S-wave (km/s) = 3.14176 3.43205 3.29011
# Velocity P-wave (km/s) = 6.10497 6.43555 6.27244
#
# Compressibility (1/GPa) = 0.02421030
#
# Stress axis : x y z
#
# Youngs Moduli (GPa) = 46.25707 49.70028 96.24772
#
# Poissons Ratio (x) = 0.40290 0.18012
# Poissons Ratio (y) = 0.37498 0.38319
# Poissons Ratio (z) = 0.08657 0.19787
#
# Static dielectric constant tensor:
#      x y z
#    x 1.596440 0.000000 0.000000 
#    y 0.000000 1.606700 0.000000 
#    z 0.000000 0.000000 1.566840 
# 
# From -- ./inp_files/11848.got.cif
#   From: 2010.05.17/outbox.cif.g08.bks.cpg/sg51_6_cif.got.tgz:11848.got - 2010.06.03 11:52:47.
