data_PCOD9403720
_publ_section_title
;
Structure prediction by ZEFSAII (Michael W. Deem and Ramdas Pophale) SiO2 
 PCOD9403720
Probable space group: P M M A
;
_chemical_formula_sum "Si O2"
_cell_formula_units_Z 48
_cell_length_a 9.733801
_cell_length_b 17.676556
_cell_length_c 15.510239
_cell_angle_alpha 90.000000
_cell_angle_beta 90.000000
_cell_angle_gamma 90.000000
_cell_volume 2668.692939
_symmetry_space_group_name_H-M "P M M A"
_symmetry_group_IT_number 51
_symmetry_cell_setting 'orthorhombic'
loop_
_space_group_symop_operation_xyz
x,y,z
1/2-x,-y,z
1/2+x,-y,-z
-x,y,-z
-x,-y,-z
1/2+x,y,-z
1/2-x,y,z
x,-y,z
loop_
_atom_site_type_symbol
_atom_site_label
_atom_site_fract_x
_atom_site_fract_y
_atom_site_fract_z
Si Si1 0.539469 0.638681 0.808822
Si Si2 0.750000 0.411251 0.140037
Si Si3 0.587589 0.910930 0.083306
Si Si4 0.094629 0.587578 0.377454
Si Si5 0.587573 0.790838 0.229485
Si Si6 0.086825 0.734435 0.580048
Si Si7 0.750000 0.590632 0.948285
O O1 0.385012 0.609743 0.810141
O O2 0.604837 0.600790 0.725305
O O3 0.520656 0.728170 0.802208
O O4 0.618296 0.616021 0.894426
O O5 0.750000 0.500000 0.127636
O O6 0.750000 0.376708 0.044273
O O7 0.750000 0.902955 0.063652
O O8 0.561912 0.864791 0.171685
O O9 0.558300 0.000000 0.096218
O O10 0.500000 0.884827 0.000000
O O11 0.250000 0.600179 0.412786
O O12 0.055821 0.500000 0.395044
O O13 0.984578 0.651748 0.404293
O O14 0.750000 0.770774 0.213565
O O15 0.572321 0.785204 0.333260
O O16 0.250000 0.727317 0.563275
O O17 0.000000 0.766700 0.500000
O O18 0.750000 0.500000 0.950246
#
# Coordination Sequence:
#
# PCOD9403720 Si02
#       7
#     8   4   8   8   8   8   4
#     4  11  20  35  49  69  99 135 182 233 276 325
#     4  11  22  32  46  64  92 138 182 227 282 326
#     4   9  18  35  59  87 119 151 182 218 263 318
#     4  10  20  34  53  73  98 134 177 228 281 333
#     4   9  19  37  56  80 108 142 183 220 268 329
#     4  10  21  37  57  79 107 139 179 228 276 331
#     4  11  22  34  46  66  96 134 184 235 280 322
#
# _framework density 17.986332999999998
#
# number of rings (size 3 to 8) (size 9 to 14) (size 15 to 20)
#    0.000    2.000    1.667    2.500    1.167    3.333 
#    1.500    0.000    0.000    0.500    0.000    0.000 
#    0.000    0.000    0.000    0.000    0.000    0.667 
#
# Total GULP energy -267465.315856 kJ/mol
# GULP energy per Si atom -5572.194080 kJ/mol
# Density = 1.794540 g / cm^3
# Si number density = 17.986333 Si / 1000 Ang^3
#
#
#
# Elastic Constant Matrix: (Units=GPa)
#
#
# Indices 1 2 3 4 5 6 
#
# 1 101.6273 27.3403 42.5039 0.0000 0.0000 0.0000
# 2 27.3403 62.5793 49.9163 0.0000 0.0000 0.0000
# 3 42.5039 49.9163 102.5086 0.0000 0.0000 0.0000
# 4 0.0000 0.0000 0.0000 61.1665 0.0000 0.0000
# 5 0.0000 0.0000 0.0000 0.0000 33.4334 0.0000
# 6 0.0000 0.0000 0.0000 0.0000 0.0000 15.9457
#
#
#
# Elastic Compliance Matrix: (Units=1/GPa)
#
#
# Indices 1 2 3 4 5 6 
#
# 1 0.012070 -0.002095 -0.003984 0.000000 0.000000 0.000000
# 2 -0.002095 0.026492 -0.012031 0.000000 0.000000 0.000000
# 3 -0.003984 -0.012031 0.017266 0.000000 0.000000 0.000000
# 4 0.000000 0.000000 0.000000 0.016349 0.000000 0.000000
# 5 0.000000 0.000000 0.000000 0.000000 0.029910 0.000000
# 6 0.000000 0.000000 0.000000 0.000000 0.000000 0.062713
#
#
# Mechanical properties :
#
#
# Convention : Reuss Voigt Hill
#
# Bulk Modulus (GPa) = 51.00491 56.24847 53.62669
# Shear Modulus (GPa) = 24.08974 31.90610 27.99792
#
# Velocity S-wave (km/s) = 3.66366 4.21635 3.94969
# Velocity P-wave (km/s) = 6.80557 7.41918 7.11899
#
# Compressibility (1/GPa) = 0.01960595
#
# Stress axis : x y z
#
# Youngs Moduli (GPa) = 82.85053 37.74741 57.91700
#
# Poissons Ratio (x) = 0.07908 0.23077
# Poissons Ratio (y) = 0.17357 0.69683
# Poissons Ratio (z) = 0.33012 0.45416
#
# Static dielectric constant tensor:
#      x y z
#    x 1.435680 0.000000 0.000000 
#    y 0.000000 1.616570 0.000000 
#    z 0.000000 0.000000 1.649980 
# 
# From -- ./inp_files/21233.got.cif
#   From: 2010.05.17/outbox.cif.g08.bks.cpg/sg51_11_cif.got.tgz:21233.got - 2010.06.03 11:52:47.
