data_PCOD9403838
_publ_section_title
;
Structure prediction by ZEFSAII (Michael W. Deem and Ramdas Pophale) SiO2 
 PCOD9403838
Probable space group: P M M A
;
_chemical_formula_sum "Si O2"
_cell_formula_units_Z 48
_cell_length_a 32.160403
_cell_length_b 8.735027
_cell_length_c 9.290011
_cell_angle_alpha 90.000000
_cell_angle_beta 90.000000
_cell_angle_gamma 90.000000
_cell_volume 2609.768364
_symmetry_space_group_name_H-M "P M M A"
_symmetry_group_IT_number 51
_symmetry_cell_setting 'orthorhombic'
loop_
_space_group_symop_operation_xyz
x,y,z
1/2-x,-y,z
1/2+x,-y,-z
-x,y,-z
-x,-y,-z
1/2+x,y,-z
1/2-x,y,z
x,-y,z
loop_
_atom_site_type_symbol
_atom_site_label
_atom_site_fract_x
_atom_site_fract_y
_atom_site_fract_z
Si Si1 0.750000 0.676051 0.829634
Si Si2 0.159884 0.313696 0.839831
Si Si3 0.496963 0.684985 0.166709
Si Si4 0.750000 0.676321 0.180244
Si Si5 0.081183 0.183314 0.337611
Si Si6 0.837498 0.816700 0.839468
Si Si7 0.920682 0.315190 0.343034
O O1 0.750000 0.500000 0.783201
O O2 0.792742 0.756941 0.786288
O O3 0.750000 0.677113 0.005192
O O4 0.161475 0.500000 0.847790
O O5 0.204876 0.257763 0.780751
O O6 0.121164 0.269318 0.741270
O O7 0.154825 0.251888 0.001546
O O8 0.493916 0.500000 0.171317
O O9 0.456757 0.753790 0.243046
O O10 0.538656 0.729994 0.252055
O O11 0.500000 0.731259 0.000000
O O12 0.750000 0.500000 0.229955
O O13 0.124804 0.229496 0.264224
O O14 0.077982 0.246912 0.498371
O O15 0.079414 0.000000 0.340300
O O16 0.836286 0.000000 0.850130
O O17 0.920717 0.500000 0.353106
#
# Coordination Sequence:
#
# PCOD9403838 Si02
#       7
#     4   8   8   4   8   8   8
#     4   9  17  31  54  81 106 138 180 224 268 311
#     4   9  17  32  55  81 107 138 180 227 271 317
#     4  10  21  38  60  83 105 134 177 227 275 321
#     4   7  12  25  48  77 104 128 162 212 262 307
#     4  11  24  38  53  77 111 148 180 216 267 325
#     4  10  20  34  53  79 110 143 179 220 268 319
#     4  10  21  36  55  79 108 143 180 222 272 322
#
# _framework density 18.392437000000001
#
# number of rings (size 3 to 8) (size 9 to 14) (size 15 to 20)
#    0.000    2.333    0.000    3.750    0.000    7.667 
#    0.000    0.833    0.000    1.000    0.000    0.000 
#    0.000    0.000    0.000    0.000    0.000    0.000 
#
# Total GULP energy -267847.978258 kJ/mol
# GULP energy per Si atom -5580.166214 kJ/mol
# Density = 1.835057 g / cm^3
# Si number density = 18.392437 Si / 1000 Ang^3
#
#
#
# Elastic Constant Matrix: (Units=GPa)
#
#
# Indices 1 2 3 4 5 6 
#
# 1 218.9632 46.2865 108.5872 0.0000 0.0000 0.0000
# 2 46.2865 22.9537 32.5256 0.0000 0.0000 0.0000
# 3 108.5872 32.5256 134.0191 0.0000 0.0000 0.0000
# 4 0.0000 0.0000 0.0000 7.2495 0.0000 0.0000
# 5 0.0000 0.0000 0.0000 0.0000 -9.2428 0.0000
# 6 0.0000 0.0000 0.0000 0.0000 0.0000 26.5391
#
#
#
# Elastic Compliance Matrix: (Units=1/GPa)
#
#
# Indices 1 2 3 4 5 6 
#
# 1 0.009560 -0.012654 -0.004675 0.000000 0.000000 0.000000
# 2 -0.012654 0.083150 -0.009927 0.000000 0.000000 0.000000
# 3 -0.004675 -0.009927 0.013659 0.000000 0.000000 0.000000
# 4 0.000000 0.000000 0.000000 0.137940 0.000000 0.000000
# 5 0.000000 0.000000 0.000000 0.000000 -0.108192 0.000000
# 6 0.000000 0.000000 0.000000 0.000000 0.000000 0.037680
#
#
# Mechanical properties :
#
#
# Convention : Reuss Voigt Hill
#
# Bulk Modulus (GPa) = 19.28401 83.41497 51.34949
# Shear Modulus (GPa) = 20.35865 17.47827 18.91846
#
# Velocity S-wave (km/s) = 3.33063 3.08603 3.21066
# Velocity P-wave (km/s) = 5.02974 7.62558 6.45940
#
# Compressibility (1/GPa) = 0.05185643
#
# Stress axis : x y z
#
# Youngs Moduli (GPa) = 104.59879 12.02647 73.21242
#
# Poissons Ratio (x) = 0.15218 0.34228
# Poissons Ratio (y) = 1.32358 0.72680
# Poissons Ratio (z) = 0.48901 0.11939
#
# Static dielectric constant tensor:
#      x y z
#    x 1.650170 0.000000 0.000000 
#    y 0.000000 1.622740 0.000000 
#    z 0.000000 0.000000 1.591290 
# 
# From -- ./inp_files/12963.got.cif
#   From: 2010.05.17/outbox.cif.g08.bks.cpg/sg51_7_cif.got.tgz:12963.got - 2010.06.03 11:52:47.
