data_PCOD9403317
_publ_section_title
;
Structure prediction by ZEFSAII (Michael W. Deem and Ramdas Pophale) SiO2 
 PCOD9403317
Probable space group: P M M A
;
_chemical_formula_sum "Si O2"
_cell_formula_units_Z 48
_cell_length_a 9.352737
_cell_length_b 7.516919
_cell_length_c 32.541888
_cell_angle_alpha 90.000000
_cell_angle_beta 90.000000
_cell_angle_gamma 90.000000
_cell_volume 2287.817294
_symmetry_space_group_name_H-M "P M M A"
_symmetry_group_IT_number 51
_symmetry_cell_setting 'orthorhombic'
loop_
_space_group_symop_operation_xyz
x,y,z
1/2-x,-y,z
1/2+x,-y,-z
-x,y,-z
-x,-y,-z
1/2+x,y,-z
1/2-x,y,z
x,-y,z
loop_
_atom_site_type_symbol
_atom_site_label
_atom_site_fract_x
_atom_site_fract_y
_atom_site_fract_z
Si Si1 0.915286 0.213479 0.872217
Si Si2 0.585335 0.782169 0.298113
Si Si3 0.912114 0.288142 0.961396
Si Si4 0.412457 0.286821 0.539321
Si Si5 0.417044 0.216980 0.217474
Si Si6 0.912528 0.786466 0.621868
O O1 0.750000 0.277035 0.873569
O O2 0.980062 0.261434 0.916254
O O3 0.971764 0.273576 0.827777
O O4 0.912905 0.000000 0.870913
O O5 0.750000 0.726576 0.300674
O O6 0.510243 0.723566 0.255946
O O7 0.495330 0.722266 0.337644
O O8 0.584294 0.000000 0.298147
O O9 0.750000 0.215269 0.960931
O O10 0.901427 0.500000 0.966798
O O11 0.000000 0.216597 0.000000
O O12 0.500000 0.217819 0.500000
O O13 0.250000 0.217923 0.541044
O O14 0.403335 0.500000 0.534799
O O15 0.498125 0.252153 0.581021
O O16 0.250000 0.268476 0.221722
O O17 0.418588 0.000000 0.217998
O O18 0.750000 0.718625 0.619206
O O19 0.904454 0.000000 0.625508
#
# Coordination Sequence:
#
# PCOD9403317 Si02
#       6
#     8   8   8   8   8   8
#     4   8  14  25  42  63  85 110 142 180 220 261
#     4   9  16  26  42  66  96 126 154 188 231 277
#     4   9  17  29  44  61  82 110 143 177 215 262
#     4  10  21  37  56  76  99 130 166 202 243 292
#     4   8  13  23  40  60  82 111 147 183 219 264
#     4  10  20  33  51  76 103 131 165 204 243 282
#
# _framework density 20.980696999999999
#
# number of rings (size 3 to 8) (size 9 to 14) (size 15 to 20)
#    0.000    3.000    0.000    2.500    0.000    4.667 
#    0.000    0.833    0.000    2.000    0.000    2.333 
#    0.000    0.000    0.000    0.000    0.000    0.000 
#
# Total GULP energy -267718.671377 kJ/mol
# GULP energy per Si atom -5577.472320 kJ/mol
# Density = 2.093294 g / cm^3
# Si number density = 20.980697 Si / 1000 Ang^3
#
#
#
# Elastic Constant Matrix: (Units=GPa)
#
#
# Indices 1 2 3 4 5 6 
#
# 1 148.8350 6.2347 121.5861 0.0000 0.0000 0.0000
# 2 6.2347 53.0244 2.0374 0.0000 0.0000 0.0000
# 3 121.5861 2.0374 258.1737 0.0000 0.0000 0.0000
# 4 0.0000 0.0000 0.0000 35.3488 0.0000 0.0000
# 5 0.0000 0.0000 0.0000 0.0000 36.1678 0.0000
# 6 0.0000 0.0000 0.0000 0.0000 0.0000 2.3293
#
#
#
# Elastic Compliance Matrix: (Units=1/GPa)
#
#
# Indices 1 2 3 4 5 6 
#
# 1 0.010983 -0.001093 -0.005164 0.000000 0.000000 0.000000
# 2 -0.001093 0.018974 0.000365 0.000000 0.000000 0.000000
# 3 -0.005164 0.000365 0.006302 0.000000 0.000000 0.000000
# 4 0.000000 0.000000 0.000000 0.028290 0.000000 0.000000
# 5 0.000000 0.000000 0.000000 0.000000 0.027649 0.000000
# 6 0.000000 0.000000 0.000000 0.000000 0.000000 0.429311
#
#
# Mechanical properties :
#
#
# Convention : Reuss Voigt Hill
#
# Bulk Modulus (GPa) = 40.85709 79.97216 60.41462
# Shear Modulus (GPa) = 9.23446 36.78084 23.00765
#
# Velocity S-wave (km/s) = 2.10023 4.19152 3.31510
# Velocity P-wave (km/s) = 5.03957 7.85015 6.59629
#
# Compressibility (1/GPa) = 0.02447555
#
# Stress axis : x y z
#
# Youngs Moduli (GPa) = 91.04949 52.70445 158.67081
#
# Poissons Ratio (x) = 0.05761 0.81934
# Poissons Ratio (y) = 0.09952 -0.05792
# Poissons Ratio (z) = 0.47016 -0.01924
#
# Static dielectric constant tensor:
#      x y z
#    x 1.727710 0.000000 0.000000 
#    y 0.000000 1.803730 0.000000 
#    z 0.000000 0.000000 1.754800 
# 
# From -- ./inp_files/37033.got.cif
#   From: 2010.05.17/outbox.cif.g08.bks.cpg/sg51_19_cif.got.tgz:37033.got - 2010.06.03 11:52:47.
