data_PCOD9403504
_publ_section_title
;
Structure prediction by ZEFSAII (Michael W. Deem and Ramdas Pophale) SiO2 
 PCOD9403504
Probable space group: P M M A
;
_chemical_formula_sum "Si O2"
_cell_formula_units_Z 48
_cell_length_a 8.654062
_cell_length_b 31.979775
_cell_length_c 9.257170
_cell_angle_alpha 90.000000
_cell_angle_beta 90.000000
_cell_angle_gamma 90.000000
_cell_volume 2561.967672
_symmetry_space_group_name_H-M "P M M A"
_symmetry_group_IT_number 51
_symmetry_cell_setting 'orthorhombic'
loop_
_space_group_symop_operation_xyz
x,y,z
1/2-x,-y,z
1/2+x,-y,-z
-x,y,-z
-x,-y,-z
1/2+x,y,-z
1/2-x,y,z
x,-y,z
loop_
_atom_site_type_symbol
_atom_site_label
_atom_site_fract_x
_atom_site_fract_y
_atom_site_fract_z
Si Si1 0.565347 0.131885 0.837419
Si Si2 0.434899 0.706122 0.838276
Si Si3 0.563897 0.372171 0.660985
Si Si4 0.064130 0.784804 0.338214
Si Si5 0.936273 0.547210 0.840065
Si Si6 0.064807 0.954497 0.836116
O O1 0.750000 0.129253 0.847288
O O2 0.523010 0.171893 0.741972
O O3 0.502375 0.088245 0.772769
O O4 0.500000 0.136836 0.000000
O O5 0.250000 0.705445 0.841164
O O6 0.498069 0.664843 0.759459
O O7 0.493747 0.746266 0.750100
O O8 0.500000 0.707961 0.000000
O O9 0.500000 0.367898 0.500000
O O10 0.750000 0.369799 0.659500
O O11 0.516187 0.416682 0.729878
O O12 0.250000 0.781037 0.340090
O O13 0.000000 0.784558 0.500000
O O14 0.750000 0.547579 0.847176
O O15 0.985697 0.500000 0.799521
O O16 0.000000 0.556065 0.000000
O O17 0.250000 0.951668 0.841148
O O18 0.023003 0.000000 0.771174
O O19 0.000000 0.955081 0.000000
#
# Coordination Sequence:
#
# PCOD9403504 Si02
#       6
#     8   8   8   8   8   8
#     4  10  20  33  53  80 109 142 181 225 273 327
#     4  12  25  42  64  88 115 147 186 231 279 333
#     4  11  23  39  59  85 119 155 192 235 284 337
#     4  11  24  41  60  84 113 147 186 228 280 335
#     4   9  19  36  58  84 114 150 193 239 286 336
#     4   9  16  26  44  72 105 140 178 222 271 321
#
# _framework density 18.735600000000002
#
# number of rings (size 3 to 8) (size 9 to 14) (size 15 to 20)
#    0.000    1.667    0.000    6.000    0.000    8.000 
#    0.000    0.000    0.000    0.500    0.000    0.000 
#    0.000    0.000    0.000    0.000    0.000    0.000 
#
# Total GULP energy -268132.707644 kJ/mol
# GULP energy per Si atom -5586.098076 kJ/mol
# Density = 1.869296 g / cm^3
# Si number density = 18.735600 Si / 1000 Ang^3
#
#
#
# Elastic Constant Matrix: (Units=GPa)
#
#
# Indices 1 2 3 4 5 6 
#
# 1 79.6160 66.2580 47.2001 0.0000 0.0000 0.0000
# 2 66.2580 182.4740 99.3506 0.0000 0.0000 0.0000
# 3 47.2001 99.3506 130.8250 0.0000 0.0000 0.0000
# 4 0.0000 0.0000 0.0000 -43.1467 0.0000 0.0000
# 5 0.0000 0.0000 0.0000 0.0000 30.7163 0.0000
# 6 0.0000 0.0000 0.0000 0.0000 0.0000 -29.6190
#
#
#
# Elastic Compliance Matrix: (Units=1/GPa)
#
#
# Indices 1 2 3 4 5 6 
#
# 1 0.018538 -0.005268 -0.002688 0.000000 0.000000 0.000000
# 2 -0.005268 0.010841 -0.006332 0.000000 0.000000 0.000000
# 3 -0.002688 -0.006332 0.013422 0.000000 0.000000 0.000000
# 4 0.000000 0.000000 0.000000 -0.023177 0.000000 0.000000
# 5 0.000000 0.000000 0.000000 0.000000 0.032556 0.000000
# 6 0.000000 0.000000 0.000000 0.000000 0.000000 -0.033762
#
#
# Mechanical properties :
#
#
# Convention : Reuss Voigt Hill
#
# Bulk Modulus (GPa) = 70.29688 90.94803 80.62245
# Shear Modulus (GPa) = 96.64827 3.59722 50.12274
#
# Velocity S-wave (km/s) = 7.19009 1.38714 5.17791
# Velocity P-wave (km/s) = 10.32142 7.15638 8.88103
#
# Compressibility (1/GPa) = 0.01422538
#
# Stress axis : x y z
#
# Youngs Moduli (GPa) = 53.94416 92.24636 74.50449
#
# Poissons Ratio (x) = 0.48594 0.20024
# Poissons Ratio (y) = 0.28417 0.47175
# Poissons Ratio (z) = 0.14498 0.58409
#
# Static dielectric constant tensor:
#      x y z
#    x 1.630760 0.000000 0.000000 
#    y 0.000000 1.674290 0.000000 
#    z 0.000000 0.000000 1.603340 
# 
# From -- ./inp_files/6067.got.cif
#   From: 2010.05.17/outbox.cif.g08.bks.cpg/sg51_4_cif.got.tgz:6067.got - 2010.06.03 11:52:47.
