data_PCOD9403771
_publ_section_title
;
Structure prediction by ZEFSAII (Michael W. Deem and Ramdas Pophale) SiO2 
 PCOD9403771
Probable space group: P M M A
;
_chemical_formula_sum "Si O2"
_cell_formula_units_Z 56
_cell_length_a 15.269099
_cell_length_b 23.527177
_cell_length_c 8.950082
_cell_angle_alpha 90.000000
_cell_angle_beta 90.000000
_cell_angle_gamma 90.000000
_cell_volume 3215.216671
_symmetry_space_group_name_H-M "P M M A"
_symmetry_group_IT_number 51
_symmetry_cell_setting 'orthorhombic'
loop_
_space_group_symop_operation_xyz
x,y,z
1/2-x,-y,z
1/2+x,-y,-z
-x,y,-z
-x,-y,-z
1/2+x,y,-z
1/2-x,y,z
x,-y,z
loop_
_atom_site_type_symbol
_atom_site_label
_atom_site_fract_x
_atom_site_fract_y
_atom_site_fract_z
Si Si1 0.910350 0.739263 0.405563
Si Si2 0.750000 0.068546 0.566291
Si Si3 0.409530 0.131290 0.591961
Si Si4 0.146980 0.567234 0.674854
Si Si5 0.084769 0.934181 0.896656
Si Si6 0.151324 0.640963 0.388608
Si Si7 0.483301 0.653767 0.823913
Si Si8 0.250000 0.931101 0.089293
O O1 0.878269 0.803487 0.391798
O O2 0.852228 0.696671 0.504450
O O3 0.935555 0.708658 0.250246
O O4 0.000000 0.742221 0.500000
O O5 0.664401 0.094059 0.488393
O O6 0.750000 0.087005 0.739548
O O7 0.750000 0.000000 0.557204
O O8 0.500000 0.129757 0.500000
O O9 0.426358 0.104154 0.752798
O O10 0.250000 0.579085 0.708521
O O11 0.133046 0.500000 0.683985
O O12 0.131945 0.590215 0.505960
O O13 0.081316 0.601803 0.781116
O O14 0.101518 0.000000 0.850932
O O15 0.165188 0.913560 0.997299
O O16 0.000000 0.933760 0.000000
O O17 0.250000 0.634558 0.328186
O O18 0.075017 0.645516 0.265857
O O19 0.500000 0.658602 0.000000
O O20 0.250000 0.000000 0.093471
#
# Coordination Sequence:
#
# PCOD9403771 Si02
#       8
#     8   4   8   8   8   8   8   4
#     4   8  18  36  54  74 101 138 180 223 272 322
#     4  11  23  37  57  83 109 139 180 231 278 331
#     4  11  22  36  58  84 107 138 185 237 274 322
#     4   9  18  34  56  82 111 150 196 233 269 320
#     4  10  20  34  53  76 106 143 172 207 269 336
#     4   9  18  34  57  77 103 145 186 230 275 328
#     4  10  20  34  54  82 115 147 181 228 282 330
#     4   9  19  37  53  71 107 143 171 207 264 333
#
# _framework density 17.417178
#
# number of rings (size 3 to 8) (size 9 to 14) (size 15 to 20)
#    0.000    2.429    0.000    3.000    1.000    5.429 
#    0.000    1.429    0.000    1.714    0.000    0.000 
#    0.000    0.000    0.000    0.000    0.000    0.000 
#
# Total GULP energy -312271.018382 kJ/mol
# GULP energy per Si atom -5576.268185 kJ/mol
# Density = 1.737754 g / cm^3
# Si number density = 17.417178 Si / 1000 Ang^3
#
#
#
# Elastic Constant Matrix: (Units=GPa)
#
#
# Indices 1 2 3 4 5 6 
#
# 1 99.1574 39.1732 50.9952 0.0000 0.0000 0.0000
# 2 39.1732 113.3891 56.9716 0.0000 0.0000 0.0000
# 3 50.9952 56.9716 134.2433 0.0000 0.0000 0.0000
# 4 0.0000 0.0000 0.0000 10.5103 0.0000 0.0000
# 5 0.0000 0.0000 0.0000 0.0000 20.4700 0.0000
# 6 0.0000 0.0000 0.0000 0.0000 0.0000 21.0397
#
#
#
# Elastic Compliance Matrix: (Units=1/GPa)
#
#
# Indices 1 2 3 4 5 6 
#
# 1 0.013099 -0.002574 -0.003884 0.000000 0.000000 0.000000
# 2 -0.002574 0.011715 -0.003994 0.000000 0.000000 0.000000
# 3 -0.003884 -0.003994 0.010619 0.000000 0.000000 0.000000
# 4 0.000000 0.000000 0.000000 0.095145 0.000000 0.000000
# 5 0.000000 0.000000 0.000000 0.000000 0.048852 0.000000
# 6 0.000000 0.000000 0.000000 0.000000 0.000000 0.047529
#
#
# Mechanical properties :
#
#
# Convention : Reuss Voigt Hill
#
# Bulk Modulus (GPa) = 68.82109 71.22996 70.02553
# Shear Modulus (GPa) = 19.78578 23.71399 21.74988
#
# Velocity S-wave (km/s) = 3.37410 3.69389 3.53761
# Velocity P-wave (km/s) = 7.40125 7.69274 7.54841
#
# Compressibility (1/GPa) = 0.01453043
#
# Stress axis : x y z
#
# Youngs Moduli (GPa) = 76.34060 85.35870 94.16708
#
# Poissons Ratio (x) = 0.21973 0.36570
# Poissons Ratio (y) = 0.19652 0.37610
# Poissons Ratio (z) = 0.29647 0.34092
#
# Static dielectric constant tensor:
#      x y z
#    x 1.595110 0.000000 0.000000 
#    y 0.000000 1.599630 0.000000 
#    z 0.000000 0.000000 1.558550 
# 
# From -- ./inp_files/8599.got.cif
#   From: 2010.05.17/outbox.cif.g08.bks.cpg/sg51_5_cif.got.tgz:8599.got - 2010.06.03 11:52:47.
