data_PCOD9403679
_publ_section_title
;
Structure prediction by ZEFSAII (Michael W. Deem and Ramdas Pophale) SiO2 
 PCOD9403679
Probable space group: P M M A
;
_chemical_formula_sum "Si O2"
_cell_formula_units_Z 48
_cell_length_a 8.670849
_cell_length_b 29.978905
_cell_length_c 10.495356
_cell_angle_alpha 90.000000
_cell_angle_beta 90.000000
_cell_angle_gamma 90.000000
_cell_volume 2728.189690
_symmetry_space_group_name_H-M "P M M A"
_symmetry_group_IT_number 51
_symmetry_cell_setting 'orthorhombic'
loop_
_space_group_symop_operation_xyz
x,y,z
1/2-x,-y,z
1/2+x,-y,-z
-x,y,-z
-x,-y,-z
1/2+x,y,-z
1/2-x,y,z
x,-y,z
loop_
_atom_site_type_symbol
_atom_site_label
_atom_site_fract_x
_atom_site_fract_y
_atom_site_fract_z
Si Si1 0.935612 0.716378 0.862715
Si Si2 0.435917 0.948622 0.862360
Si Si3 0.065361 0.447918 0.638041
Si Si4 0.435790 0.118187 0.638265
Si Si5 0.935802 0.782838 0.638254
Si Si6 0.064970 0.613084 0.138206
O O1 0.750000 0.717423 0.868512
O O2 0.984371 0.748670 0.748537
O O3 0.982145 0.664855 0.840657
O O4 0.000000 0.730423 0.000000
O O5 0.250000 0.947960 0.867855
O O6 0.483768 0.915991 0.748718
O O7 0.484772 0.000000 0.839553
O O8 0.500000 0.934776 0.000000
O O9 0.250000 0.444720 0.636189
O O10 0.022884 0.500000 0.657967
O O11 0.000000 0.434451 0.500000
O O12 0.998656 0.417779 0.750148
O O13 0.500000 0.104532 0.500000
O O14 0.250000 0.119931 0.632734
O O15 0.500168 0.167656 0.664434
O O16 0.750000 0.784468 0.632876
O O17 0.000000 0.769218 0.500000
O O18 0.250000 0.610971 0.135812
O O19 0.000000 0.599625 0.000000
#
# Coordination Sequence:
#
# PCOD9403679 Si02
#       6
#     8   8   8   8   8   8
#     4   9  20  36  54  77 104 135 171 211 254 303
#     4   9  19  35  53  74 101 132 167 207 250 298
#     4  10  21  37  56  79 107 139 175 215 260 309
#     4  10  20  34  52  75 102 132 168 208 251 299
#     4  10  20  35  53  75 103 134 170 209 252 301
#     4  10  20  36  56  79 107 138 175 216 259 307
#
# _framework density 17.594085
#
# number of rings (size 3 to 8) (size 9 to 14) (size 15 to 20)
#    0.000    2.333    0.000    3.000    0.000    6.333 
#    0.000    5.000    0.000    0.000    0.000    0.000 
#    0.000    0.000    0.000    0.000    0.000    0.000 
#
# Total GULP energy -267895.894210 kJ/mol
# GULP energy per Si atom -5581.164463 kJ/mol
# Density = 1.755404 g / cm^3
# Si number density = 17.594085 Si / 1000 Ang^3
#
#
#
# Elastic Constant Matrix: (Units=GPa)
#
#
# Indices 1 2 3 4 5 6 
#
# 1 42.9688 34.8984 50.6743 0.0000 0.0000 0.0000
# 2 34.8984 91.3630 124.9075 0.0000 0.0000 0.0000
# 3 50.6743 124.9075 208.6478 0.0000 0.0000 0.0000
# 4 0.0000 0.0000 0.0000 44.3555 0.0000 0.0000
# 5 0.0000 0.0000 0.0000 0.0000 34.8111 0.0000
# 6 0.0000 0.0000 0.0000 0.0000 0.0000 19.0924
#
#
#
# Elastic Compliance Matrix: (Units=1/GPa)
#
#
# Indices 1 2 3 4 5 6 
#
# 1 0.034006 -0.009353 -0.002660 0.000000 0.000000 0.000000
# 2 -0.009353 0.062861 -0.035361 0.000000 0.000000 0.000000
# 3 -0.002660 -0.035361 0.026607 0.000000 0.000000 0.000000
# 4 0.000000 0.000000 0.000000 0.022545 0.000000 0.000000
# 5 0.000000 0.000000 0.000000 0.000000 0.028727 0.000000
# 6 0.000000 0.000000 0.000000 0.000000 0.000000 0.052377
#
#
# Mechanical properties :
#
#
# Convention : Reuss Voigt Hill
#
# Bulk Modulus (GPa) = 34.80939 84.88223 59.84581
# Shear Modulus (GPa) = 15.08542 28.48508 21.78525
#
# Velocity S-wave (km/s) = 2.93134 4.02806 3.52264
# Velocity P-wave (km/s) = 5.59327 8.36560 7.11575
#
# Compressibility (1/GPa) = 0.02872788
#
# Stress axis : x y z
#
# Youngs Moduli (GPa) = 29.40672 15.90803 37.58352
#
# Poissons Ratio (x) = 0.14879 0.09996
# Poissons Ratio (y) = 0.27504 1.32897
# Poissons Ratio (z) = 0.07822 0.56252
#
# Static dielectric constant tensor:
#      x y z
#    x 1.595050 0.000000 0.000000 
#    y 0.000000 1.591320 0.000000 
#    z 0.000000 0.000000 1.569230 
# 
# From -- ./inp_files/5990.got.cif
#   From: 2010.05.17/outbox.cif.g08.bks.cpg/sg51_3_cif.got.tgz:5990.got - 2010.06.03 11:52:47.
