data_PCOD9403384
_publ_section_title
;
Structure prediction by ZEFSAII (Michael W. Deem and Ramdas Pophale) SiO2 
 PCOD9403384
Probable space group: P M M A
;
_chemical_formula_sum "Si O2"
_cell_formula_units_Z 48
_cell_length_a 8.105661
_cell_length_b 14.427132
_cell_length_c 19.375211
_cell_angle_alpha 90.000000
_cell_angle_beta 90.000000
_cell_angle_gamma 90.000000
_cell_volume 2265.765098
_symmetry_space_group_name_H-M "P M M A"
_symmetry_group_IT_number 51
_symmetry_cell_setting 'orthorhombic'
loop_
_space_group_symop_operation_xyz
x,y,z
1/2-x,-y,z
1/2+x,-y,-z
-x,y,-z
-x,-y,-z
1/2+x,y,-z
1/2-x,y,z
x,-y,z
loop_
_atom_site_type_symbol
_atom_site_label
_atom_site_fract_x
_atom_site_fract_y
_atom_site_fract_z
Si Si1 0.054360 0.894942 0.575115
Si Si2 0.059326 0.392241 0.578145
Si Si3 0.552940 0.397418 0.788475
Si Si4 0.448996 0.099026 0.919607
Si Si5 0.435720 0.748004 0.316918
Si Si6 0.051904 0.696997 0.920414
O O1 0.250000 0.899960 0.572158
O O2 0.000000 0.855658 0.500000
O O3 0.010297 0.834822 0.642198
O O4 0.985641 0.000000 0.579994
O O5 0.250000 0.360567 0.584809
O O6 0.052065 0.500000 0.597626
O O7 0.000000 0.384989 0.500000
O O8 0.942379 0.331771 0.625195
O O9 0.750000 0.398105 0.775704
O O10 0.488649 0.500000 0.769291
O O11 0.482589 0.308781 0.746404
O O12 0.520809 0.377922 0.868635
O O13 0.250000 0.099409 0.915393
O O14 0.506403 0.200003 0.895333
O O15 0.507176 0.000000 0.889053
O O16 0.500000 0.097297 0.000000
O O17 0.250000 0.773770 0.297345
O O18 0.250000 0.693965 0.917165
O O19 0.000000 0.685430 0.000000
#
# Coordination Sequence:
#
# PCOD9403384 Si02
#       6
#     8   8   8   8   8   8
#     4  10  21  38  61  89 121 157 197 239 281 329
#     4  10  20  33  51  77 109 144 183 226 270 321
#     4  10  23  42  60  79 107 145 188 235 290 349
#     4   8  14  26  46  74 106 136 165 201 250 309
#     4  11  22  37  58  81 110 147 186 232 285 340
#     4  10  20  35  58  85 112 144 185 235 289 347
#
# _framework density 21.184896999999999
#
# number of rings (size 3 to 8) (size 9 to 14) (size 15 to 20)
#    0.000    2.167    0.000    3.000    0.000    5.333 
#    0.000    0.833    0.000    3.000    0.000    0.000 
#    0.000    0.000    0.000    0.000    0.000    0.000 
#
# Total GULP energy -267567.490408 kJ/mol
# GULP energy per Si atom -5574.322717 kJ/mol
# Density = 2.113668 g / cm^3
# Si number density = 21.184897 Si / 1000 Ang^3
#
#
#
# Elastic Constant Matrix: (Units=GPa)
#
#
# Indices 1 2 3 4 5 6 
#
# 1 36.5171 11.2734 -3.1658 0.0000 0.0000 0.0000
# 2 11.2734 88.5269 47.6549 0.0000 0.0000 0.0000
# 3 -3.1658 47.6549 80.2468 0.0000 0.0000 0.0000
# 4 0.0000 0.0000 0.0000 34.7435 0.0000 0.0000
# 5 0.0000 0.0000 0.0000 0.0000 20.5700 0.0000
# 6 0.0000 0.0000 0.0000 0.0000 0.0000 46.8893
#
#
#
# Elastic Compliance Matrix: (Units=1/GPa)
#
#
# Indices 1 2 3 4 5 6 
#
# 1 0.029833 -0.006516 0.005046 0.000000 0.000000 0.000000
# 2 -0.006516 0.018027 -0.010962 0.000000 0.000000 0.000000
# 3 0.005046 -0.010962 0.019171 0.000000 0.000000 0.000000
# 4 0.000000 0.000000 0.000000 0.028782 0.000000 0.000000
# 5 0.000000 0.000000 0.000000 0.000000 0.048615 0.000000
# 6 0.000000 0.000000 0.000000 0.000000 0.000000 0.021327
#
#
# Mechanical properties :
#
#
# Convention : Reuss Voigt Hill
#
# Bulk Modulus (GPa) = 23.71491 35.20176 29.45833
# Shear Modulus (GPa) = 24.42908 30.40910 27.41909
#
# Velocity S-wave (km/s) = 3.39947 3.79280 3.60151
# Velocity P-wave (km/s) = 5.16014 5.98606 5.58838
#
# Compressibility (1/GPa) = 0.04216757
#
# Stress axis : x y z
#
# Youngs Moduli (GPa) = 33.51949 55.47260 52.16289
#
# Poissons Ratio (x) = 0.36144 -0.26323
# Poissons Ratio (y) = 0.21840 0.57183
# Poissons Ratio (z) = -0.16915 0.60811
#
# Static dielectric constant tensor:
#      x y z
#    x 1.776420 0.000000 0.000000 
#    y 0.000000 1.835670 0.000000 
#    z 0.000000 0.000000 1.745040 
# 
# From -- ./inp_files/27593.got.cif
#   From: 2010.05.17/outbox.cif.g08.bks.cpg/sg51_14_cif.got.tgz:27593.got - 2010.06.03 11:52:47.
