data_PCOD9403916
_publ_section_title
;
Structure prediction by ZEFSAII (Michael W. Deem and Ramdas Pophale) SiO2 
 PCOD9403916
Probable space group: P M M A
;
_chemical_formula_sum "Si O2"
_cell_formula_units_Z 64
_cell_length_a 8.609238
_cell_length_b 32.592852
_cell_length_c 14.704335
_cell_angle_alpha 90.000000
_cell_angle_beta 90.000000
_cell_angle_gamma 90.000000
_cell_volume 4126.030813
_symmetry_space_group_name_H-M "P M M A"
_symmetry_group_IT_number 51
_symmetry_cell_setting 'orthorhombic'
loop_
_space_group_symop_operation_xyz
x,y,z
1/2-x,-y,z
1/2+x,-y,-z
-x,y,-z
-x,-y,-z
1/2+x,y,-z
1/2-x,y,z
x,-y,z
loop_
_atom_site_type_symbol
_atom_site_label
_atom_site_fract_x
_atom_site_fract_y
_atom_site_fract_z
Si Si1 0.436872 0.633037 0.896514
Si Si2 0.563594 0.795316 0.215143
Si Si3 0.562480 0.544183 0.103428
Si Si4 0.437577 0.875973 0.898350
Si Si5 0.435942 0.174466 0.401915
Si Si6 0.937474 0.045408 0.215691
Si Si7 0.435690 0.921937 0.402281
Si Si8 0.064957 0.281116 0.103037
O O1 0.250000 0.636183 0.897602
O O2 0.482733 0.588507 0.855633
O O3 0.506581 0.675038 0.858428
O O4 0.500000 0.631995 0.000000
O O5 0.750000 0.793094 0.213797
O O6 0.514835 0.836316 0.160160
O O7 0.505198 0.800660 0.317870
O O8 0.494837 0.756014 0.164412
O O9 0.750000 0.544364 0.099953
O O10 0.513641 0.500000 0.144395
O O11 0.500000 0.544065 0.000000
O O12 0.250000 0.876481 0.900859
O O13 0.491887 0.917549 0.848605
O O14 0.500000 0.873211 0.000000
O O15 0.500000 0.187647 0.500000
O O16 0.250000 0.176963 0.401286
O O17 0.480040 0.126233 0.390660
O O18 0.750000 0.046598 0.216720
O O19 0.996142 0.053731 0.317428
O O20 0.986664 0.000000 0.185189
O O21 0.500000 0.935582 0.500000
O O22 0.250000 0.924762 0.402514
O O23 0.250000 0.281156 0.098060
O O24 0.000000 0.276532 0.000000
#
# Coordination Sequence:
#
# PCOD9403916 Si02
#       8
#     8   8   8   8   8   8   8   8
#     4   9  15  24  37  53  77 110 148 190 237 281
#     4  11  21  35  54  74  96 122 153 190 230 274
#     4   8  13  20  31  48  70  99 139 187 234 278
#     4  10  22  37  54  74  95 121 152 188 228 267
#     4  10  20  34  54  79 102 125 149 181 220 267
#     4  10  21  38  56  74  98 126 155 187 225 269
#     4  10  20  34  55  79 103 127 152 181 218 264
#     4  11  21  32  45  64  91 122 159 198 239 283
#
# _framework density 15.511276000000001
#
# number of rings (size 3 to 8) (size 9 to 14) (size 15 to 20)
#    0.000    2.125    1.250    3.750    0.000    4.750 
#    0.000    0.000    0.000    0.000    0.000    0.000 
#    0.000    0.000    0.000    0.000    0.000    0.625 
#
# Total GULP energy -356830.379711 kJ/mol
# GULP energy per Si atom -5575.474683 kJ/mol
# Density = 1.547597 g / cm^3
# Si number density = 15.511276 Si / 1000 Ang^3
#
#
#
# Elastic Constant Matrix: (Units=GPa)
#
#
# Indices 1 2 3 4 5 6 
#
# 1 42.3933 38.5724 20.1212 0.0000 0.0000 0.0000
# 2 38.5724 152.9741 56.0928 0.0000 0.0000 0.0000
# 3 20.1212 56.0928 78.2960 0.0000 0.0000 0.0000
# 4 0.0000 0.0000 0.0000 2.0358 0.0000 0.0000
# 5 0.0000 0.0000 0.0000 0.0000 23.5326 0.0000
# 6 0.0000 0.0000 0.0000 0.0000 0.0000 40.3851
#
#
#
# Elastic Compliance Matrix: (Units=1/GPa)
#
#
# Indices 1 2 3 4 5 6 
#
# 1 0.031203 -0.006683 -0.003231 0.000000 0.000000 0.000000
# 2 -0.006683 0.010298 -0.005660 0.000000 0.000000 0.000000
# 3 -0.003231 -0.005660 0.017657 0.000000 0.000000 0.000000
# 4 0.000000 0.000000 0.000000 0.491196 0.000000 0.000000
# 5 0.000000 0.000000 0.000000 0.000000 0.042494 0.000000
# 6 0.000000 0.000000 0.000000 0.000000 0.000000 0.024762
#
#
# Mechanical properties :
#
#
# Convention : Reuss Voigt Hill
#
# Bulk Modulus (GPa) = 35.70172 55.91516 45.80844
# Shear Modulus (GPa) = 7.59770 23.78250 15.69010
#
# Velocity S-wave (km/s) = 2.21558 3.91991 3.18390
# Velocity P-wave (km/s) = 5.44166 7.52422 6.56603
#
# Compressibility (1/GPa) = 0.02800985
#
# Stress axis : x y z
#
# Youngs Moduli (GPa) = 32.04836 97.11015 56.63400
#
# Poissons Ratio (x) = 0.64900 0.18298
# Poissons Ratio (y) = 0.21418 0.32054
# Poissons Ratio (z) = 0.10355 0.54964
#
# Static dielectric constant tensor:
#      x y z
#    x 1.517930 0.000000 0.000000 
#    y 0.000000 1.570330 0.000000 
#    z 0.000000 0.000000 1.449240 
# 
# From -- ./inp_files/22582.got.cif
#   From: 2010.05.17/outbox.cif.g08.bks.cpg/sg51_12_cif.got.tgz:22582.got - 2010.06.03 11:52:47.
