data_PCOD9403181
_publ_section_title
;
Structure prediction by ZEFSAII (Michael W. Deem and Ramdas Pophale) SiO2 
 PCOD9403181
Probable space group: P M M A
;
_chemical_formula_sum "Si O2"
_cell_formula_units_Z 48
_cell_length_a 9.382760
_cell_length_b 18.654393
_cell_length_c 15.054508
_cell_angle_alpha 90.000000
_cell_angle_beta 90.000000
_cell_angle_gamma 90.000000
_cell_volume 2634.985905
_symmetry_space_group_name_H-M "P M M A"
_symmetry_group_IT_number 51
_symmetry_cell_setting 'orthorhombic'
loop_
_space_group_symop_operation_xyz
x,y,z
1/2-x,-y,z
1/2+x,-y,-z
-x,y,-z
-x,-y,-z
1/2+x,y,-z
1/2-x,y,z
x,-y,z
loop_
_atom_site_type_symbol
_atom_site_label
_atom_site_fract_x
_atom_site_fract_y
_atom_site_fract_z
Si Si1 0.414078 0.081422 0.343433
Si Si2 0.580924 0.080026 0.158210
Si Si3 0.413951 0.680827 0.730643
Si Si4 0.589225 0.205305 0.424016
Si Si5 0.915685 0.585657 0.592701
Si Si6 0.579032 0.761764 0.089330
O O1 0.250000 0.105097 0.337741
O O2 0.486275 0.081922 0.246550
O O3 0.506677 0.132975 0.403241
O O4 0.417082 0.000000 0.376253
O O5 0.750000 0.084095 0.181047
O O6 0.547332 0.153449 0.106506
O O7 0.558860 0.000000 0.116787
O O8 0.250000 0.654083 0.738527
O O9 0.409465 0.749332 0.665575
O O10 0.510883 0.625029 0.676456
O O11 0.461457 0.712339 0.825906
O O12 0.500000 0.244374 0.500000
O O13 0.750000 0.192928 0.453320
O O14 0.750000 0.608125 0.583047
O O15 0.918847 0.500000 0.607831
O O16 0.000000 0.597720 0.500000
O O17 0.750000 0.756295 0.080104
O O18 0.500000 0.739281 0.000000
#
# Coordination Sequence:
#
# PCOD9403181 Si02
#       6
#     8   8   8   8   8   8
#     4  10  20  33  50  73 100 134 180 229 277 330
#     4   9  17  33  55  75 102 141 183 233 291 342
#     4  10  21  38  58  82 114 148 185 227 275 328
#     4  11  22  36  53  76 105 140 181 225 272 329
#     4  10  21  37  60  92 125 155 187 221 264 321
#     4  10  21  37  55  82 112 145 189 235 285 341
#
# _framework density 18.216415999999999
#
# number of rings (size 3 to 8) (size 9 to 14) (size 15 to 20)
#    0.000    2.000    1.667    2.000    0.000    6.667 
#    0.000    0.000    0.000    0.500    0.000    0.000 
#    0.000    0.000    0.000    0.000    0.000    0.000 
#
# Total GULP energy -267698.160376 kJ/mol
# GULP energy per Si atom -5577.045008 kJ/mol
# Density = 1.817495 g / cm^3
# Si number density = 18.216416 Si / 1000 Ang^3
#
#
#
# Elastic Constant Matrix: (Units=GPa)
#
#
# Indices 1 2 3 4 5 6 
#
# 1 101.9877 52.1990 58.2577 0.0000 0.0000 0.0000
# 2 52.1990 74.4543 47.1368 0.0000 0.0000 0.0000
# 3 58.2577 47.1368 127.3673 0.0000 0.0000 0.0000
# 4 0.0000 0.0000 0.0000 31.3727 0.0000 0.0000
# 5 0.0000 0.0000 0.0000 0.0000 29.9960 0.0000
# 6 0.0000 0.0000 0.0000 0.0000 0.0000 75.7944
#
#
#
# Elastic Compliance Matrix: (Units=1/GPa)
#
#
# Indices 1 2 3 4 5 6 
#
# 1 0.016985 -0.009128 -0.004391 0.000000 0.000000 0.000000
# 2 -0.009128 0.022447 -0.004132 0.000000 0.000000 0.000000
# 3 -0.004391 -0.004132 0.011389 0.000000 0.000000 0.000000
# 4 0.000000 0.000000 0.000000 0.031875 0.000000 0.000000
# 5 0.000000 0.000000 0.000000 0.000000 0.033338 0.000000
# 6 0.000000 0.000000 0.000000 0.000000 0.000000 0.013194
#
#
# Mechanical properties :
#
#
# Convention : Reuss Voigt Hill
#
# Bulk Modulus (GPa) = 64.43829 68.77734 66.60782
# Shear Modulus (GPa) = 29.46342 37.18036 33.32189
#
# Velocity S-wave (km/s) = 4.02607 4.52268 4.28158
# Velocity P-wave (km/s) = 7.55399 8.06911 7.81580
#
# Compressibility (1/GPa) = 0.01551872
#
# Stress axis : x y z
#
# Youngs Moduli (GPa) = 58.87459 44.54989 87.80563
#
# Poissons Ratio (x) = 0.40667 0.38553
# Poissons Ratio (y) = 0.53743 0.36280
# Poissons Ratio (z) = 0.25850 0.18408
#
# Static dielectric constant tensor:
#      x y z
#    x 1.620690 0.000000 0.000000 
#    y 0.000000 1.650550 0.000000 
#    z 0.000000 0.000000 1.643870 
# 
# From -- ./inp_files/21062.got.cif
#   From: 2010.05.17/outbox.cif.g08.bks.cpg/sg51_11_cif.got.tgz:21062.got - 2010.06.03 11:52:47.
