data_PCOD9403962
_publ_section_title
;
Structure prediction by ZEFSAII (Michael W. Deem and Ramdas Pophale) SiO2 
 PCOD9403962
Probable space group: P M M A
;
_chemical_formula_sum "Si O2"
_cell_formula_units_Z 48
_cell_length_a 9.413538
_cell_length_b 7.769741
_cell_length_c 31.832975
_cell_angle_alpha 90.000000
_cell_angle_beta 90.000000
_cell_angle_gamma 90.000000
_cell_volume 2328.287735
_symmetry_space_group_name_H-M "P M M A"
_symmetry_group_IT_number 51
_symmetry_cell_setting 'orthorhombic'
loop_
_space_group_symop_operation_xyz
x,y,z
1/2-x,-y,z
1/2+x,-y,-z
-x,y,-z
-x,-y,-z
1/2+x,y,-z
1/2-x,y,z
x,-y,z
loop_
_atom_site_type_symbol
_atom_site_label
_atom_site_fract_x
_atom_site_fract_y
_atom_site_fract_z
Si Si1 0.911706 0.295109 0.120193
Si Si2 0.912272 0.792642 0.376320
Si Si3 0.587622 0.292855 0.540344
Si Si4 0.087536 0.793185 0.786020
Si Si5 0.586583 0.789077 0.705313
Si Si6 0.409507 0.205269 0.039092
O O1 0.750000 0.226157 0.115772
O O2 0.905354 0.500000 0.117295
O O3 0.962440 0.249519 0.167029
O O4 0.010239 0.232172 0.082813
O O5 0.750000 0.728389 0.378774
O O6 0.002423 0.748171 0.417418
O O7 0.993961 0.732239 0.334597
O O8 0.905697 0.000000 0.373726
O O9 0.500000 0.228005 0.500000
O O10 0.750000 0.227916 0.541413
O O11 0.594798 0.500000 0.536879
O O12 0.250000 0.728192 0.781549
O O13 0.987416 0.731663 0.748515
O O14 0.093183 0.000000 0.782777
O O15 0.750000 0.733962 0.702117
O O16 0.586702 0.000000 0.705233
O O17 0.250000 0.276326 0.039957
O O18 0.398787 0.000000 0.032880
O O19 0.500000 0.275985 0.000000
#
# Coordination Sequence:
#
# PCOD9403962 Si02
#       6
#     8   8   8   8   8   8
#     4  10  21  36  54  78 109 143 177 214 259 310
#     4  10  20  34  54  80 108 138 174 216 262 312
#     4  10  21  37  56  77 103 137 176 216 260 312
#     4   9  17  31  52  75 100 134 175 216 258 307
#     4   9  17  30  50  76 104 134 171 217 265 310
#     4  10  21  37  58  82 106 135 174 218 262 310
#
# _framework density 20.616011
#
# number of rings (size 3 to 8) (size 9 to 14) (size 15 to 20)
#    0.000    2.333    0.000    2.500    0.000    7.333 
#    0.000    2.500    0.000    3.000    0.000    0.000 
#    0.000    0.000    0.000    0.000    0.000    0.000 
#
# Total GULP energy -268104.753694 kJ/mol
# GULP energy per Si atom -5585.515702 kJ/mol
# Density = 2.056909 g / cm^3
# Si number density = 20.616011 Si / 1000 Ang^3
#
#
#
# Elastic Constant Matrix: (Units=GPa)
#
#
# Indices 1 2 3 4 5 6 
#
# 1 200.1953 8.4614 145.8034 0.0000 0.0000 0.0000
# 2 8.4614 27.4798 -1.6108 0.0000 0.0000 0.0000
# 3 145.8034 -1.6108 216.3002 0.0000 0.0000 0.0000
# 4 0.0000 0.0000 0.0000 68.0919 0.0000 0.0000
# 5 0.0000 0.0000 0.0000 0.0000 42.0357 0.0000
# 6 0.0000 0.0000 0.0000 0.0000 0.0000 10.2132
#
#
#
# Elastic Compliance Matrix: (Units=1/GPa)
#
#
# Indices 1 2 3 4 5 6 
#
# 1 0.010143 -0.003525 -0.006863 0.000000 0.000000 0.000000
# 2 -0.003525 0.037632 0.002657 0.000000 0.000000 0.000000
# 3 -0.006863 0.002657 0.009269 0.000000 0.000000 0.000000
# 4 0.000000 0.000000 0.000000 0.014686 0.000000 0.000000
# 5 0.000000 0.000000 0.000000 0.000000 0.023789 0.000000
# 6 0.000000 0.000000 0.000000 0.000000 0.000000 0.097912
#
#
# Mechanical properties :
#
#
# Convention : Reuss Voigt Hill
#
# Bulk Modulus (GPa) = 24.05019 83.25370 53.65194
# Shear Modulus (GPa) = 22.44621 43.48960 32.96790
#
# Velocity S-wave (km/s) = 3.30324 4.59792 4.00326
# Velocity P-wave (km/s) = 5.12246 8.28604 6.88833
#
# Compressibility (1/GPa) = 0.04157972
#
# Stress axis : x y z
#
# Youngs Moduli (GPa) = 98.59389 26.57338 107.88291
#
# Poissons Ratio (x) = 0.09368 0.74042
# Poissons Ratio (y) = 0.34758 -0.28660
# Poissons Ratio (z) = 0.67667 -0.07060
#
# Static dielectric constant tensor:
#      x y z
#    x 1.730610 0.000000 0.000000 
#    y 0.000000 1.762270 0.000000 
#    z 0.000000 0.000000 1.691570 
# 
# From -- ./inp_files/36900.got.cif
#   From: 2010.05.17/outbox.cif.g08.bks.cpg/sg51_19_cif.got.tgz:36900.got - 2010.06.03 11:52:47.
