data_PCOD9403112
_publ_section_title
;
Structure prediction by ZEFSAII (Michael W. Deem and Ramdas Pophale) SiO2 
 PCOD9403112
Probable space group: P M M A
;
_chemical_formula_sum "Si O2"
_cell_formula_units_Z 48
_cell_length_a 9.049680
_cell_length_b 14.490047
_cell_length_c 21.179082
_cell_angle_alpha 90.000000
_cell_angle_beta 90.000000
_cell_angle_gamma 90.000000
_cell_volume 2777.219134
_symmetry_space_group_name_H-M "P M M A"
_symmetry_group_IT_number 51
_symmetry_cell_setting 'orthorhombic'
loop_
_space_group_symop_operation_xyz
x,y,z
1/2-x,-y,z
1/2+x,-y,-z
-x,y,-z
-x,-y,-z
1/2+x,y,-z
1/2-x,y,z
x,-y,z
loop_
_atom_site_type_symbol
_atom_site_label
_atom_site_fract_x
_atom_site_fract_y
_atom_site_fract_z
Si Si1 0.072456 0.304032 0.192313
Si Si2 0.085661 0.891074 0.941475
Si Si3 0.072929 0.899273 0.191214
Si Si4 0.079455 0.612551 0.435376
Si Si5 0.426833 0.609601 0.931543
Si Si6 0.917252 0.389889 0.308697
O O1 0.250000 0.309087 0.185302
O O2 0.030870 0.200844 0.217280
O O3 0.997753 0.331276 0.125525
O O4 0.012825 0.369719 0.246953
O O5 0.250000 0.852573 0.931406
O O6 0.985440 0.890056 0.880040
O O7 0.104701 0.000000 0.955695
O O8 0.000000 0.847595 0.000000
O O9 0.250000 0.902772 0.191899
O O10 0.018977 0.000000 0.215453
O O11 0.250000 0.641422 0.434232
O O12 0.078088 0.500000 0.435000
O O13 0.000000 0.641503 0.500000
O O14 0.994493 0.644761 0.372738
O O15 0.250000 0.623674 0.934337
O O16 0.452376 0.500000 0.917951
O O17 0.500000 0.628021 0.000000
O O18 0.750000 0.354088 0.301539
O O19 0.907873 0.500000 0.315416
#
# Coordination Sequence:
#
# PCOD9403112 Si02
#       6
#     8   8   8   8   8   8
#     4  11  22  34  51  73  95 123 160 202 247 293
#     4   9  16  26  42  62  81 103 133 171 219 275
#     4   9  19  35  50  64  86 116 150 190 237 288
#     4   9  16  27  45  70 101 136 170 200 231 272
#     4  10  21  37  55  73  94 122 157 199 246 294
#     4  10  20  33  49  71 101 135 167 199 236 279
#
# _framework density 17.283477000000001
#
# number of rings (size 3 to 8) (size 9 to 14) (size 15 to 20)
#    0.000    2.333    0.000    3.000    0.000   10.000 
#    0.000    0.000    0.000    0.000    0.000    0.000 
#    0.000    0.667    0.000    1.833    0.000    2.667 
#
# Total GULP energy -267411.444851 kJ/mol
# GULP energy per Si atom -5571.071768 kJ/mol
# Density = 1.724414 g / cm^3
# Si number density = 17.283477 Si / 1000 Ang^3
#
#
#
# Elastic Constant Matrix: (Units=GPa)
#
#
# Indices 1 2 3 4 5 6 
#
# 1 50.1343 24.7686 33.9137 0.0000 0.0000 0.0000
# 2 24.7686 62.8439 11.1540 0.0000 0.0000 0.0000
# 3 33.9137 11.1540 83.8568 0.0000 0.0000 0.0000
# 4 0.0000 0.0000 0.0000 9.4624 0.0000 0.0000
# 5 0.0000 0.0000 0.0000 0.0000 23.5665 0.0000
# 6 0.0000 0.0000 0.0000 0.0000 0.0000 9.8721
#
#
#
# Elastic Compliance Matrix: (Units=1/GPa)
#
#
# Indices 1 2 3 4 5 6 
#
# 1 0.033635 -0.011104 -0.012126 0.000000 0.000000 0.000000
# 2 -0.011104 0.019963 0.001836 0.000000 0.000000 0.000000
# 3 -0.012126 0.001836 0.016585 0.000000 0.000000 0.000000
# 4 0.000000 0.000000 0.000000 0.105681 0.000000 0.000000
# 5 0.000000 0.000000 0.000000 0.000000 0.042433 0.000000
# 6 0.000000 0.000000 0.000000 0.000000 0.000000 0.101295
#
#
# Mechanical properties :
#
#
# Convention : Reuss Voigt Hill
#
# Bulk Modulus (GPa) = 36.50453 37.38974 36.94713
# Shear Modulus (GPa) = 13.45845 17.04678 15.25262
#
# Velocity S-wave (km/s) = 2.79353 3.14396 2.97391
# Velocity P-wave (km/s) = 5.61889 5.90419 5.76331
#
# Compressibility (1/GPa) = 0.02739386
#
# Stress axis : x y z
#
# Youngs Moduli (GPa) = 29.73088 50.09211 60.29574
#
# Poissons Ratio (x) = 0.55624 0.73114
# Poissons Ratio (y) = 0.33014 -0.11067
# Poissons Ratio (z) = 0.36051 -0.09195
#
# Static dielectric constant tensor:
#      x y z
#    x 1.604770 0.000000 0.000000 
#    y 0.000000 1.662190 0.000000 
#    z 0.000000 0.000000 1.535720 
# 
# From -- ./inp_files/27555.got.cif
#   From: 2010.05.17/outbox.cif.g08.bks.cpg/sg51_14_cif.got.tgz:27555.got - 2010.06.03 11:52:47.
