data_PCOD9403878
_publ_section_title
;
Structure prediction by ZEFSAII (Michael W. Deem and Ramdas Pophale) SiO2 
 PCOD9403878
Probable space group: P M M A
;
_chemical_formula_sum "Si O2"
_cell_formula_units_Z 44
_cell_length_a 26.638016
_cell_length_b 10.052143
_cell_length_c 8.537158
_cell_angle_alpha 90.000000
_cell_angle_beta 90.000000
_cell_angle_gamma 90.000000
_cell_volume 2285.987508
_symmetry_space_group_name_H-M "P M M A"
_symmetry_group_IT_number 51
_symmetry_cell_setting 'orthorhombic'
loop_
_space_group_symop_operation_xyz
x,y,z
1/2-x,-y,z
1/2+x,-y,-z
-x,y,-z
-x,-y,-z
1/2+x,y,-z
1/2-x,y,z
x,-y,z
loop_
_atom_site_type_symbol
_atom_site_label
_atom_site_fract_x
_atom_site_fract_y
_atom_site_fract_z
Si Si1 0.000000 0.740798 0.000000
Si Si2 0.898813 0.342446 0.511138
Si Si3 0.103080 0.646971 0.121467
Si Si4 0.847059 0.146809 0.085071
Si Si5 0.450232 0.853574 0.712215
Si Si6 0.806625 0.158041 0.410249
O O1 0.992407 0.825739 0.157976
O O2 0.050799 0.659489 0.027127
O O3 0.895489 0.500000 0.468515
O O4 0.908493 0.333914 0.695970
O O5 0.941041 0.264197 0.411153
O O6 0.847531 0.259358 0.479400
O O7 0.123880 0.500000 0.099671
O O8 0.142303 0.751467 0.052476
O O9 0.899141 0.142536 0.184446
O O10 0.808171 0.179897 0.222012
O O11 0.836554 0.000000 0.022706
O O12 0.456397 0.000000 0.639855
O O13 0.750000 0.178948 0.468447
O O14 0.819764 0.000000 0.434118
#
# Coordination Sequence:
#
# PCOD9403878 Si02
#       6
#     4   8   8   8   8   8
#     4  10  20  34  54  76  98 134 182 226 260 302
#     4  10  21  35  51  76 109 140 170 210 260 309
#     4  10  21  35  51  73 104 139 174 213 257 306
#     4   8  16  31  52  75  99 128 163 206 251 296
#     4   9  18  34  53  74 101 133 171 213 257 303
#     4   9  18  35  58  81 103 130 168 210 253 307
#
# _framework density 19.247700999999999
#
# number of rings (size 3 to 8) (size 9 to 14) (size 15 to 20)
#    0.000    2.727    0.000    2.182    0.000   10.545 
#    0.000    3.636    0.000    3.273    0.000    0.000 
#    0.000    0.000    0.000    0.000    0.000    0.000 
#
# Total GULP energy -245087.649209 kJ/mol
# GULP energy per Si atom -5570.173846 kJ/mol
# Density = 1.920389 g / cm^3
# Si number density = 19.247701 Si / 1000 Ang^3
#
#
#
# Elastic Constant Matrix: (Units=GPa)
#
#
# Indices 1 2 3 4 5 6 
#
# 1 45.2742 24.0706 7.8286 0.0000 0.0000 0.0000
# 2 24.0706 138.4747 66.7286 0.0000 0.0000 0.0000
# 3 7.8286 66.7286 64.2040 0.0000 0.0000 0.0000
# 4 0.0000 0.0000 0.0000 35.7125 0.0000 0.0000
# 5 0.0000 0.0000 0.0000 0.0000 19.8722 0.0000
# 6 0.0000 0.0000 0.0000 0.0000 0.0000 -3.4716
#
#
#
# Elastic Compliance Matrix: (Units=1/GPa)
#
#
# Indices 1 2 3 4 5 6 
#
# 1 0.024602 -0.005671 0.002895 0.000000 0.000000 0.000000
# 2 -0.005671 0.015775 -0.015703 0.000000 0.000000 0.000000
# 3 0.002895 -0.015703 0.031543 0.000000 0.000000 0.000000
# 4 0.000000 0.000000 0.000000 0.028001 0.000000 0.000000
# 5 0.000000 0.000000 0.000000 0.000000 0.050322 0.000000
# 6 0.000000 0.000000 0.000000 0.000000 0.000000 -0.288053
#
#
# Mechanical properties :
#
#
# Convention : Reuss Voigt Hill
#
# Bulk Modulus (GPa) = 28.60422 49.46761 39.03592
# Shear Modulus (GPa) = -56.05576 20.37762 -17.83907
#
# Velocity S-wave (km/s) = -5.40246 3.25730 -3.04767
# Velocity P-wave (km/s) = 4.90123 6.31688 2.81789
#
# Compressibility (1/GPa) = 0.03495987
#
# Stress axis : x y z
#
# Youngs Moduli (GPa) = 40.64640 63.39342 31.70263
#
# Poissons Ratio (x) = 0.35953 -0.09177
# Poissons Ratio (y) = 0.23052 0.49783
# Poissons Ratio (z) = -0.11765 0.99548
#
# Static dielectric constant tensor:
#      x y z
#    x 1.702970 0.000000 0.000000 
#    y 0.000000 1.693530 0.000000 
#    z 0.000000 0.000000 1.682960 
# 
# From -- ./inp_files/12665.got.cif
#   From: 2010.05.17/outbox.cif.g08.bks.cpg/sg51_7_cif.got.tgz:12665.got - 2010.06.03 11:52:47.
