data_PCOD9403585
_publ_section_title
;
Structure prediction by ZEFSAII (Michael W. Deem and Ramdas Pophale) SiO2 
 PCOD9403585
Probable space group: P M M A
;
_chemical_formula_sum "Si O2"
_cell_formula_units_Z 36
_cell_length_a 7.299753
_cell_length_b 8.471465
_cell_length_c 25.384553
_cell_angle_alpha 90.000000
_cell_angle_beta 90.000000
_cell_angle_gamma 90.000000
_cell_volume 1569.770656
_symmetry_space_group_name_H-M "P M M A"
_symmetry_group_IT_number 51
_symmetry_cell_setting 'orthorhombic'
loop_
_space_group_symop_operation_xyz
x,y,z
1/2-x,-y,z
1/2+x,-y,-z
-x,y,-z
-x,-y,-z
1/2+x,y,-z
1/2-x,y,z
x,-y,z
loop_
_atom_site_type_symbol
_atom_site_label
_atom_site_fract_x
_atom_site_fract_y
_atom_site_fract_z
Si Si1 0.967695 0.500000 0.437886
Si Si2 0.473405 0.820061 0.832677
Si Si3 0.527418 0.322841 0.276365
Si Si4 0.468349 0.320482 0.942562
Si Si5 0.526810 0.174959 0.383427
O O1 0.750000 0.500000 0.426912
O O2 0.035475 0.667112 0.414077
O O3 0.000000 0.500000 0.500000
O O4 0.250000 0.813779 0.833315
O O5 0.533415 0.719642 0.782389
O O6 0.536739 0.762954 0.889951
O O7 0.526244 0.000000 0.824112
O O8 0.750000 0.321022 0.275411
O O9 0.471418 0.500000 0.290780
O O10 0.474100 0.203538 0.322432
O O11 0.250000 0.329024 0.937077
O O12 0.540119 0.500000 0.944235
O O13 0.500000 0.245626 0.000000
O O14 0.750000 0.174211 0.386032
O O15 0.467080 0.000000 0.401400
#
# Coordination Sequence:
#
# PCOD9403585 Si02
#       5
#     4   8   8   8   8
#     4  10  20  34  50  72 100 130 163 196 230 272
#     4   9  16  24  36  58  86 113 142 178 223 272
#     4   9  14  22  38  61  90 120 147 181 230 280
#     4   9  17  29  43  59  81 111 145 180 218 263
#     4   9  16  27  44  67  96 127 158 194 236 279
#
# _framework density 22.933285999999999
#
# number of rings (size 3 to 8) (size 9 to 14) (size 15 to 20)
#    0.000    2.889    1.111    1.333    0.000    6.222 
#    0.000    0.000    0.000    0.000    0.000    1.556 
#    0.000    3.556    0.000    0.000    0.000    0.000 
#
# Total GULP energy -200946.743163 kJ/mol
# GULP energy per Si atom -5581.853977 kJ/mol
# Density = 2.288109 g / cm^3
# Si number density = 22.933286 Si / 1000 Ang^3
#
#
#
# Elastic Constant Matrix: (Units=GPa)
#
#
# Indices 1 2 3 4 5 6 
#
# 1 94.6798 3.9221 -5.1626 0.0000 0.0000 0.0000
# 2 3.9221 161.7115 73.7380 0.0000 0.0000 0.0000
# 3 -5.1626 73.7380 141.6662 0.0000 0.0000 0.0000
# 4 0.0000 0.0000 0.0000 19.2422 0.0000 0.0000
# 5 0.0000 0.0000 0.0000 0.0000 9.3251 0.0000
# 6 0.0000 0.0000 0.0000 0.0000 0.0000 -15.3745
#
#
#
# Elastic Compliance Matrix: (Units=1/GPa)
#
#
# Indices 1 2 3 4 5 6 
#
# 1 0.010623 -0.000569 0.000683 0.000000 0.000000 0.000000
# 2 -0.000569 0.008139 -0.004257 0.000000 0.000000 0.000000
# 3 0.000683 -0.004257 0.009300 0.000000 0.000000 0.000000
# 4 0.000000 0.000000 0.000000 0.051969 0.000000 0.000000
# 5 0.000000 0.000000 0.000000 0.000000 0.107237 0.000000
# 6 0.000000 0.000000 0.000000 0.000000 0.000000 -0.065043
#
#
# Mechanical properties :
#
#
# Convention : Reuss Voigt Hill
#
# Bulk Modulus (GPa) = 50.56797 60.33917 55.45357
# Shear Modulus (GPa) = 36.46913 24.34257 30.40585
#
# Velocity S-wave (km/s) = 3.99209 3.26153 3.64516
# Velocity P-wave (km/s) = 6.58384 6.36799 6.47681
#
# Compressibility (1/GPa) = 0.01977536
#
# Stress axis : x y z
#
# Youngs Moduli (GPa) = 94.13744 122.86817 107.53189
#
# Poissons Ratio (x) = 0.06995 -0.07349
# Poissons Ratio (y) = 0.05359 0.45777
# Poissons Ratio (z) = -0.06434 0.52305
#
# Static dielectric constant tensor:
#      x y z
#    x 1.926520 0.000000 0.000000 
#    y 0.000000 1.829810 0.000000 
#    z 0.000000 0.000000 1.826040 
# 
# From -- ./inp_files/32752.got.cif
#   From: 2010.05.17/outbox.cif.g08.bks.cpg/sg51_17_cif.got.tgz:32752.got - 2010.06.03 11:52:47.
