data_PCOD9403311
_publ_section_title
;
Structure prediction by ZEFSAII (Michael W. Deem and Ramdas Pophale) SiO2 
 PCOD9403311
Probable space group: P M M A
;
_chemical_formula_sum "Si O2"
_cell_formula_units_Z 56
_cell_length_a 14.683047
_cell_length_b 9.165896
_cell_length_c 21.813559
_cell_angle_alpha 90.000000
_cell_angle_beta 90.000000
_cell_angle_gamma 90.000000
_cell_volume 2935.740357
_symmetry_space_group_name_H-M "P M M A"
_symmetry_group_IT_number 51
_symmetry_cell_setting 'orthorhombic'
loop_
_space_group_symop_operation_xyz
x,y,z
1/2-x,-y,z
1/2+x,-y,-z
-x,y,-z
-x,-y,-z
1/2+x,y,-z
1/2-x,y,z
x,-y,z
loop_
_atom_site_type_symbol
_atom_site_label
_atom_site_fract_x
_atom_site_fract_y
_atom_site_fract_z
Si Si1 0.855263 0.159865 0.908209
Si Si2 0.979269 0.174828 0.267214
Si Si3 0.857937 0.673979 0.163956
Si Si4 0.359159 0.669956 0.209769
Si Si5 0.102914 0.664759 0.975989
Si Si6 0.853539 0.822146 0.521995
Si Si7 0.968953 0.177233 0.405201
O O1 0.750000 0.143052 0.891222
O O2 0.888893 0.275921 0.858299
O O3 0.899980 0.000000 0.903885
O O4 0.855664 0.222376 0.976317
O O5 0.914793 0.242172 0.215210
O O6 0.081341 0.232625 0.255033
O O7 0.950738 0.221903 0.335676
O O8 0.977657 0.000000 0.263454
O O9 0.750000 0.702864 0.169406
O O10 0.872613 0.500000 0.171079
O O11 0.888025 0.711004 0.094380
O O12 0.250000 0.685240 0.217670
O O13 0.381494 0.500000 0.216434
O O14 0.141801 0.500000 0.981077
O O15 0.000000 0.656800 0.000000
O O16 0.750000 0.771834 0.532163
O O17 0.930765 0.776732 0.570892
O O18 0.894295 0.778040 0.455667
O O19 0.851757 0.000000 0.522950
O O20 0.969416 0.000000 0.405886
#
# Coordination Sequence:
#
# PCOD9403311 Si02
#       7
#     8   8   8   8   8   8   8
#     4  10  20  33  51  76 102 126 159 211 273 328
#     4  11  22  35  54  81 114 146 179 229 284 327
#     4  10  22  39  56  76 108 152 197 233 268 324
#     4  10  21  37  56  77 105 145 189 228 272 335
#     4  10  20  34  54  77  99 129 173 223 273 327
#     4   8  13  25  46  70 102 142 176 208 253 316
#     4   8  16  28  43  72 108 139 174 214 263 321
#
# _framework density 19.075257000000001
#
# number of rings (size 3 to 8) (size 9 to 14) (size 15 to 20)
#    0.000    2.429    0.000    3.429    0.000    5.714 
#    0.000    2.857    0.000    0.000    0.000    8.000 
#    0.000   13.714    0.000    0.000    0.000    0.000 
#
# Total GULP energy -312181.738536 kJ/mol
# GULP energy per Si atom -5574.673902 kJ/mol
# Density = 1.903184 g / cm^3
# Si number density = 19.075257 Si / 1000 Ang^3
#
#
#
# Elastic Constant Matrix: (Units=GPa)
#
#
# Indices 1 2 3 4 5 6 
#
# 1 73.0318 8.0559 9.1230 0.0000 0.0000 0.0000
# 2 8.0559 37.2440 14.6103 0.0000 0.0000 0.0000
# 3 9.1230 14.6103 83.6408 0.0000 0.0000 0.0000
# 4 0.0000 0.0000 0.0000 45.2174 0.0000 0.0000
# 5 0.0000 0.0000 0.0000 0.0000 14.2425 0.0000
# 6 0.0000 0.0000 0.0000 0.0000 0.0000 33.2227
#
#
#
# Elastic Compliance Matrix: (Units=1/GPa)
#
#
# Indices 1 2 3 4 5 6 
#
# 1 0.014118 -0.002630 -0.001081 0.000000 0.000000 0.000000
# 2 -0.002630 0.029315 -0.004834 0.000000 0.000000 0.000000
# 3 -0.001081 -0.004834 0.012918 0.000000 0.000000 0.000000
# 4 0.000000 0.000000 0.000000 0.022115 0.000000 0.000000
# 5 0.000000 0.000000 0.000000 0.000000 0.070212 0.000000
# 6 0.000000 0.000000 0.000000 0.000000 0.000000 0.030100
#
#
# Mechanical properties :
#
#
# Convention : Reuss Voigt Hill
#
# Bulk Modulus (GPa) = 25.46959 28.61057 27.04008
# Shear Modulus (GPa) = 23.92866 29.34502 26.63684
#
# Velocity S-wave (km/s) = 3.54564 3.92648 3.74091
# Velocity P-wave (km/s) = 5.49029 5.96554 5.73284
#
# Compressibility (1/GPa) = 0.03926251
#
# Stress axis : x y z
#
# Youngs Moduli (GPa) = 70.83292 34.11218 77.41068
#
# Poissons Ratio (x) = 0.08971 0.08364
# Poissons Ratio (y) = 0.18628 0.37419
# Poissons Ratio (z) = 0.07654 0.16489
#
# Static dielectric constant tensor:
#      x y z
#    x 1.631490 0.000000 0.000000 
#    y 0.000000 1.663330 0.000000 
#    z 0.000000 0.000000 1.657480 
# 
# From -- ./inp_files/33409.got.cif
#   From: 2010.05.17/outbox.cif.g08.bks.cpg/sg51_17_cif.got.tgz:33409.got - 2010.06.03 11:52:47.
