data_PCOD9403419
_publ_section_title
;
Structure prediction by ZEFSAII (Michael W. Deem and Ramdas Pophale) SiO2 
 PCOD9403419
Probable space group: P M M A
;
_chemical_formula_sum "Si O2"
_cell_formula_units_Z 64
_cell_length_a 13.908371
_cell_length_b 20.863694
_cell_length_c 10.023776
_cell_angle_alpha 90.000000
_cell_angle_beta 90.000000
_cell_angle_gamma 90.000000
_cell_volume 2908.699285
_symmetry_space_group_name_H-M "P M M A"
_symmetry_group_IT_number 51
_symmetry_cell_setting 'orthorhombic'
loop_
_space_group_symop_operation_xyz
x,y,z
1/2-x,-y,z
1/2+x,-y,-z
-x,y,-z
-x,-y,-z
1/2+x,y,-z
1/2-x,y,z
x,-y,z
loop_
_atom_site_type_symbol
_atom_site_label
_atom_site_fract_x
_atom_site_fract_y
_atom_site_fract_z
Si Si1 0.632769 0.186896 0.237772
Si Si2 0.132356 0.815217 0.067152
Si Si3 0.632996 0.926845 0.430888
Si Si4 0.632791 0.926652 0.734162
Si Si5 0.634100 0.302084 0.746835
Si Si6 0.906970 0.569608 0.402813
Si Si7 0.358235 0.712001 0.547706
Si Si8 0.033805 0.571887 0.150505
O O1 0.750000 0.186877 0.230022
O O2 0.603079 0.124196 0.320807
O O3 0.603674 0.248371 0.326346
O O4 0.599078 0.186127 0.085471
O O5 0.250000 0.816637 0.064968
O O6 0.101955 0.876522 0.154164
O O7 0.105422 0.751265 0.146659
O O8 0.750000 0.926901 0.430424
O O9 0.603865 0.909411 0.582263
O O10 0.602605 0.000000 0.404005
O O11 0.750000 0.925965 0.733470
O O12 0.603630 0.000000 0.761081
O O13 0.750000 0.303395 0.739446
O O14 0.596462 0.283596 0.599148
O O15 0.599442 0.371579 0.793542
O O16 0.860593 0.500000 0.428584
O O17 0.854469 0.636194 0.425375
O O18 0.000000 0.571668 0.500000
O O19 0.943968 0.570453 0.251251
O O20 0.250000 0.738150 0.531198
O O21 0.077597 0.500000 0.155986
O O22 0.000000 0.584065 0.000000
#
# Coordination Sequence:
#
# PCOD9403419 Si02
#       8
#     8   8   8   8   8   8   8   8
#     4   9  17  27  40  63  96 130 164 207 257 301
#     4   9  17  27  40  62  95 131 165 207 255 301
#     4   8  13  22  37  57  85 124 166 205 248 300
#     4   8  13  22  37  57  85 125 168 205 246 299
#     4  10  20  34  53  76 103 136 173 212 255 307
#     4  10  20  37  57  77 103 132 167 211 257 304
#     4  10  20  33  52  77 104 136 172 213 259 305
#     4  10  22  39  57  78 104 136 169 207 259 311
#
# _framework density 22.002962
#
# number of rings (size 3 to 8) (size 9 to 14) (size 15 to 20)
#    0.000    2.750    1.250    1.500    1.750    4.000 
#    0.000    3.750    0.000    2.250    0.000    0.000 
#    0.000    2.000    0.000    0.125    0.000    0.500 
#
# Total GULP energy -357495.005983 kJ/mol
# GULP energy per Si atom -5585.859468 kJ/mol
# Density = 2.195288 g / cm^3
# Si number density = 22.002962 Si / 1000 Ang^3
#
#
#
# Elastic Constant Matrix: (Units=GPa)
#
#
# Indices 1 2 3 4 5 6 
#
# 1 58.7696 18.2303 27.4393 0.0000 0.0000 0.0000
# 2 18.2303 155.4714 116.6460 0.0000 0.0000 0.0000
# 3 27.4393 116.6460 221.4535 0.0000 0.0000 0.0000
# 4 0.0000 0.0000 0.0000 25.0772 0.0000 0.0000
# 5 0.0000 0.0000 0.0000 0.0000 19.0801 0.0000
# 6 0.0000 0.0000 0.0000 0.0000 0.0000 67.9706
#
#
#
# Elastic Compliance Matrix: (Units=1/GPa)
#
#
# Indices 1 2 3 4 5 6 
#
# 1 0.018110 -0.000727 -0.001861 0.000000 0.000000 0.000000
# 2 -0.000727 0.010664 -0.005527 0.000000 0.000000 0.000000
# 3 -0.001861 -0.005527 0.007657 0.000000 0.000000 0.000000
# 4 0.000000 0.000000 0.000000 0.039877 0.000000 0.000000
# 5 0.000000 0.000000 0.000000 0.000000 0.052411 0.000000
# 6 0.000000 0.000000 0.000000 0.000000 0.000000 0.014712
#
#
# Mechanical properties :
#
#
# Convention : Reuss Voigt Hill
#
# Bulk Modulus (GPa) = 49.50216 84.48064 66.99140
# Shear Modulus (GPa) = 30.04893 40.65085 35.34989
#
# Velocity S-wave (km/s) = 3.69952 4.30294 4.01259
# Velocity P-wave (km/s) = 6.38712 7.94767 7.20975
#
# Compressibility (1/GPa) = 0.02020114
#
# Stress axis : x y z
#
# Youngs Moduli (GPa) = 55.21801 93.77297 130.59321
#
# Poissons Ratio (x) = 0.06822 0.24300
# Poissons Ratio (y) = 0.04017 0.72178
# Poissons Ratio (z) = 0.10275 0.51828
#
# Static dielectric constant tensor:
#      x y z
#    x 1.890360 0.000000 0.000000 
#    y 0.000000 1.785200 0.000000 
#    z 0.000000 0.000000 1.769060 
# 
# From -- ./inp_files/11180.got.cif
#   From: 2010.05.17/outbox.cif.g08.bks.cpg/sg51_6_cif.got.tgz:11180.got - 2010.06.03 11:52:47.
