data_PCOD9403546
_publ_section_title
;
Structure prediction by ZEFSAII (Michael W. Deem and Ramdas Pophale) SiO2 
 PCOD9403546
Probable space group: P M M A
;
_chemical_formula_sum "Si O2"
_cell_formula_units_Z 52
_cell_length_a 9.608991
_cell_length_b 15.637891
_cell_length_c 19.542376
_cell_angle_alpha 90.000000
_cell_angle_beta 90.000000
_cell_angle_gamma 90.000000
_cell_volume 2936.522503
_symmetry_space_group_name_H-M "P M M A"
_symmetry_group_IT_number 51
_symmetry_cell_setting 'orthorhombic'
loop_
_space_group_symop_operation_xyz
x,y,z
1/2-x,-y,z
1/2+x,-y,-z
-x,y,-z
-x,-y,-z
1/2+x,y,-z
1/2-x,y,z
x,-y,z
loop_
_atom_site_type_symbol
_atom_site_label
_atom_site_fract_x
_atom_site_fract_y
_atom_site_fract_z
Si Si1 0.411054 0.189077 0.797184
Si Si2 0.911237 0.636213 0.655800
Si Si3 0.084447 0.500000 0.071579
Si Si4 0.583890 0.000000 0.570124
Si Si5 0.085717 0.160218 0.331938
Si Si6 0.411533 0.643466 0.185363
Si Si7 0.581297 0.500000 0.427962
Si Si8 0.910325 0.901776 0.058905
O O1 0.250000 0.200051 0.778159
O O2 0.494392 0.146378 0.735389
O O3 0.483392 0.278523 0.813949
O O4 0.420911 0.136794 0.866630
O O5 0.750000 0.619573 0.634402
O O6 0.935513 0.739045 0.649084
O O7 0.920623 0.609826 0.736187
O O8 0.021962 0.582179 0.613187
O O9 0.250000 0.500000 0.055972
O O10 0.057343 0.420338 0.123021
O O11 0.000000 0.500000 0.000000
O O12 0.500000 0.000000 0.500000
O O13 0.552512 0.086932 0.612806
O O14 0.750000 0.000000 0.557376
O O15 0.250000 0.152576 0.316047
O O16 0.250000 0.671461 0.177846
O O17 0.750000 0.500000 0.433836
O O18 0.500000 0.500000 0.500000
O O19 0.750000 0.899327 0.037421
O O20 0.955611 0.000000 0.065055
O O21 0.000000 0.857997 0.000000
#
# Coordination Sequence:
#
# PCOD9403546 Si02
#       8
#     8   8   4   4   8   8   4   8
#     4  10  20  33  54  82 109 137 178 228 274 318
#     4   9  18  37  61  82 109 145 185 231 276 325
#     4  10  21  36  54  78 108 148 189 230 280 336
#     4  10  22  40  60  86 117 150 189 228 273 332
#     4   9  20  38  59  84 114 148 186 226 273 332
#     4   9  19  37  58  77 104 142 182 220 271 330
#     4  12  25  38  56  84 114 144 179 220 270 328
#     4   9  19  34  49  70 102 139 177 218 265 316
#
# _framework density 17.708020999999999
#
# number of rings (size 3 to 8) (size 9 to 14) (size 15 to 20)
#    0.000    2.462    0.000    2.538    1.077    7.385 
#    0.000    5.385    0.000    0.000    0.000    0.000 
#    0.000    0.000    0.000    0.000    0.000    0.000 
#
# Total GULP energy -289727.073623 kJ/mol
# GULP energy per Si atom -5571.674493 kJ/mol
# Density = 1.766772 g / cm^3
# Si number density = 17.708021 Si / 1000 Ang^3
#
#
#
# Elastic Constant Matrix: (Units=GPa)
#
#
# Indices 1 2 3 4 5 6 
#
# 1 95.4355 54.2297 82.6210 0.0000 0.0000 0.0000
# 2 54.2297 74.1120 59.8319 0.0000 0.0000 0.0000
# 3 82.6210 59.8319 122.3659 0.0000 0.0000 0.0000
# 4 0.0000 0.0000 0.0000 77.0416 0.0000 0.0000
# 5 0.0000 0.0000 0.0000 0.0000 39.3229 0.0000
# 6 0.0000 0.0000 0.0000 0.0000 0.0000 14.7333
#
#
#
# Elastic Compliance Matrix: (Units=1/GPa)
#
#
# Indices 1 2 3 4 5 6 
#
# 1 0.028260 -0.008714 -0.014821 0.000000 0.000000 0.000000
# 2 -0.008714 0.024980 -0.006331 0.000000 0.000000 0.000000
# 3 -0.014821 -0.006331 0.021274 0.000000 0.000000 0.000000
# 4 0.000000 0.000000 0.000000 0.012980 0.000000 0.000000
# 5 0.000000 0.000000 0.000000 0.000000 0.025430 0.000000
# 6 0.000000 0.000000 0.000000 0.000000 0.000000 0.067873
#
#
# Mechanical properties :
#
#
# Convention : Reuss Voigt Hill
#
# Bulk Modulus (GPa) = 67.63767 76.14208 71.88988
# Shear Modulus (GPa) = 20.37013 32.56828 26.46921
#
# Velocity S-wave (km/s) = 3.39534 4.29322 3.87040
# Velocity P-wave (km/s) = 7.32462 8.22604 7.78838
#
# Compressibility (1/GPa) = 0.01478466
#
# Stress axis : x y z
#
# Youngs Moduli (GPa) = 35.38513 40.03174 47.00486
#
# Poissons Ratio (x) = 0.34884 0.69664
# Poissons Ratio (y) = 0.30835 0.29757
# Poissons Ratio (z) = 0.52443 0.25342
#
# Static dielectric constant tensor:
#      x y z
#    x 1.593370 0.000000 0.000000 
#    y 0.000000 1.556470 0.000000 
#    z 0.000000 0.000000 1.608520 
# 
# From -- ./inp_files/31831.got.cif
#   From: 2010.05.17/outbox.cif.g08.bks.cpg/sg51_16_cif.got.tgz:31831.got - 2010.06.03 11:52:47.
