data_PCOD9403525
_publ_section_title
;
Structure prediction by ZEFSAII (Michael W. Deem and Ramdas Pophale) SiO2 
 PCOD9403525
Probable space group: P M M A
;
_chemical_formula_sum "Si O2"
_cell_formula_units_Z 40
_cell_length_a 14.339193
_cell_length_b 9.820626
_cell_length_c 14.412838
_cell_angle_alpha 90.000000
_cell_angle_beta 90.000000
_cell_angle_gamma 90.000000
_cell_volume 2029.613708
_symmetry_space_group_name_H-M "P M M A"
_symmetry_group_IT_number 51
_symmetry_cell_setting 'orthorhombic'
loop_
_space_group_symop_operation_xyz
x,y,z
1/2-x,-y,z
1/2+x,-y,-z
-x,y,-z
-x,-y,-z
1/2+x,y,-z
1/2-x,y,z
x,-y,z
loop_
_atom_site_type_symbol
_atom_site_label
_atom_site_fract_x
_atom_site_fract_y
_atom_site_fract_z
Si Si1 0.389650 0.160153 0.486493
Si Si2 0.888428 0.847349 0.991198
Si Si3 0.250000 0.667165 0.363279
Si Si4 0.250000 0.158856 0.176635
Si Si5 0.142304 0.852059 0.699554
Si Si6 0.358203 0.351591 0.843745
O O1 0.500000 0.178870 0.500000
O O2 0.338375 0.264700 0.417968
O O3 0.354105 0.180010 0.591339
O O4 0.372397 0.000000 0.460399
O O5 0.840081 0.824818 0.891476
O O6 0.858683 0.000000 0.020804
O O7 0.857513 0.732705 0.062233
O O8 0.000000 0.845560 0.000000
O O9 0.250000 0.500000 0.364323
O O10 0.250000 0.733767 0.260359
O O11 0.250000 0.000000 0.209440
O O12 0.250000 0.864774 0.730166
O O13 0.096050 0.738608 0.763123
O O14 0.096247 0.000000 0.710948
O O15 0.250000 0.369681 0.817194
O O16 0.401499 0.500000 0.854372
#
# Coordination Sequence:
#
# PCOD9403525 Si02
#       6
#     8   8   4   4   8   8
#     4  10  21  40  66  92 120 159 211 264 311 367
#     4  10  21  38  62  89 114 150 203 255 303 357
#     4  12  26  42  63  90 129 172 211 260 316 384
#     4  10  22  42  65  86 119 164 209 258 310 372
#     4   9  17  32  56  83 111 145 187 237 290 348
#     4  10  20  33  53  82 115 149 182 226 290 358
#
# _framework density 19.708182999999998
#
# number of rings (size 3 to 8) (size 9 to 14) (size 15 to 20)
#    0.000    2.000    2.000    1.500    0.000    4.800 
#    0.000    8.000    0.000    0.000    0.000    0.000 
#    0.000    0.000    0.000    0.000    0.000    0.000 
#
# Total GULP energy -222786.936160 kJ/mol
# GULP energy per Si atom -5569.673404 kJ/mol
# Density = 1.966333 g / cm^3
# Si number density = 19.708183 Si / 1000 Ang^3
#
#
#
# Elastic Constant Matrix: (Units=GPa)
#
#
# Indices 1 2 3 4 5 6 
#
# 1 84.7803 34.2208 23.3215 0.0000 0.0000 0.0000
# 2 34.2208 189.1916 113.7724 0.0000 0.0000 0.0000
# 3 23.3215 113.7724 108.0397 0.0000 0.0000 0.0000
# 4 0.0000 0.0000 0.0000 -41.2883 0.0000 0.0000
# 5 0.0000 0.0000 0.0000 0.0000 -28.8625 0.0000
# 6 0.0000 0.0000 0.0000 0.0000 0.0000 19.4743
#
#
#
# Elastic Compliance Matrix: (Units=1/GPa)
#
#
# Indices 1 2 3 4 5 6 
#
# 1 0.012755 -0.001776 -0.000883 0.000000 0.000000 0.000000
# 2 -0.001776 0.014660 -0.015055 0.000000 0.000000 0.000000
# 3 -0.000883 -0.015055 0.025300 0.000000 0.000000 0.000000
# 4 0.000000 0.000000 0.000000 -0.024220 0.000000 0.000000
# 5 0.000000 0.000000 0.000000 0.000000 -0.034647 0.000000
# 6 0.000000 0.000000 0.000000 0.000000 0.000000 0.051350
#
#
# Mechanical properties :
#
#
# Convention : Reuss Voigt Hill
#
# Bulk Modulus (GPa) = 57.84474 80.51568 69.18021
# Shear Modulus (GPa) = 57.87839 3.91115 30.89477
#
# Velocity S-wave (km/s) = 5.42508 1.41026 3.96360
# Velocity P-wave (km/s) = 8.28591 6.60261 7.49168
#
# Compressibility (1/GPa) = 0.01728766
#
# Stress axis : x y z
#
# Youngs Moduli (GPa) = 78.40063 68.21175 39.52575
#
# Poissons Ratio (x) = 0.12116 0.03490
# Poissons Ratio (y) = 0.13925 0.59505
# Poissons Ratio (z) = 0.06922 1.02691
#
# Static dielectric constant tensor:
#      x y z
#    x 1.772440 0.000000 0.000000 
#    y 0.000000 1.780630 0.000000 
#    z 0.000000 0.000000 1.674930 
# 
# From -- ./inp_files/23830.got.cif
#   From: 2010.05.17/outbox.cif.g08.bks.cpg/sg51_12_cif.got.tgz:23830.got - 2010.06.03 11:52:47.
