data_PCOD9403324
_publ_section_title
;
Structure prediction by ZEFSAII (Michael W. Deem and Ramdas Pophale) SiO2 
 PCOD9403324
Probable space group: P M M A
;
_chemical_formula_sum "Si O2"
_cell_formula_units_Z 48
_cell_length_a 9.136864
_cell_length_b 9.385902
_cell_length_c 31.967524
_cell_angle_alpha 90.000000
_cell_angle_beta 90.000000
_cell_angle_gamma 90.000000
_cell_volume 2741.461656
_symmetry_space_group_name_H-M "P M M A"
_symmetry_group_IT_number 51
_symmetry_cell_setting 'orthorhombic'
loop_
_space_group_symop_operation_xyz
x,y,z
1/2-x,-y,z
1/2+x,-y,-z
-x,y,-z
-x,-y,-z
1/2+x,y,-z
1/2-x,y,z
x,-y,z
loop_
_atom_site_type_symbol
_atom_site_label
_atom_site_fract_x
_atom_site_fract_y
_atom_site_fract_z
Si Si1 0.424389 0.830993 0.208857
Si Si2 0.077293 0.328950 0.372070
Si Si3 0.077110 0.829607 0.704220
Si Si4 0.081334 0.326389 0.542154
Si Si5 0.428418 0.663886 0.125828
Si Si6 0.925609 0.832191 0.956733
O O1 0.250000 0.808052 0.214828
O O2 0.508230 0.789387 0.251001
O O3 0.473449 0.745212 0.167953
O O4 0.446002 0.000000 0.201765
O O5 0.250000 0.298844 0.373258
O O6 0.058859 0.500000 0.368036
O O7 0.002262 0.251733 0.333201
O O8 0.002268 0.284024 0.415668
O O9 0.250000 0.800426 0.703627
O O10 0.055774 0.000000 0.699372
O O11 0.250000 0.280371 0.542811
O O12 0.080640 0.500000 0.541440
O O13 0.000000 0.278725 0.500000
O O14 0.250000 0.666974 0.125661
O O15 0.474944 0.500000 0.126065
O O16 0.475377 0.744184 0.083689
O O17 0.750000 0.817787 0.960559
O O18 0.957716 0.000000 0.950381
O O19 0.000000 0.786375 0.000000
#
# Coordination Sequence:
#
# PCOD9403324 Si02
#       6
#     8   8   8   8   8   8
#     4   9  17  31  51  71  91 120 159 199 238 285
#     4  10  20  33  51  76 103 132 169 211 253 298
#     4  10  21  36  53  74 101 133 167 204 250 303
#     4   9  16  27  45  70 101 135 170 209 252 298
#     4   9  17  29  47  71  96 122 155 196 240 285
#     4   9  17  30  48  69  93 123 159 196 234 279
#
# _framework density 17.508908000000002
#
# number of rings (size 3 to 8) (size 9 to 14) (size 15 to 20)
#    0.000    2.667    0.000    2.000    0.000    7.000 
#    0.000    2.500    0.000    5.500    0.000    0.000 
#    0.000    0.000    0.000    0.000    0.000    0.000 
#
# Total GULP energy -267728.681855 kJ/mol
# GULP energy per Si atom -5577.680872 kJ/mol
# Density = 1.746906 g / cm^3
# Si number density = 17.508908 Si / 1000 Ang^3
#
#
#
# Elastic Constant Matrix: (Units=GPa)
#
#
# Indices 1 2 3 4 5 6 
#
# 1 83.4985 48.4366 95.0496 0.0000 0.0000 0.0000
# 2 48.4366 47.0561 83.7910 0.0000 0.0000 0.0000
# 3 95.0496 83.7910 231.1755 0.0000 0.0000 0.0000
# 4 0.0000 0.0000 0.0000 32.5637 0.0000 0.0000
# 5 0.0000 0.0000 0.0000 0.0000 34.3312 0.0000
# 6 0.0000 0.0000 0.0000 0.0000 0.0000 16.4546
#
#
#
# Elastic Compliance Matrix: (Units=1/GPa)
#
#
# Indices 1 2 3 4 5 6 
#
# 1 0.030585 -0.025635 -0.003284 0.000000 0.000000 0.000000
# 2 -0.025635 0.081418 -0.018971 0.000000 0.000000 0.000000
# 3 -0.003284 -0.018971 0.012552 0.000000 0.000000 0.000000
# 4 0.000000 0.000000 0.000000 0.030709 0.000000 0.000000
# 5 0.000000 0.000000 0.000000 0.000000 0.029128 0.000000
# 6 0.000000 0.000000 0.000000 0.000000 0.000000 0.060773
#
#
# Mechanical properties :
#
#
# Convention : Reuss Voigt Hill
#
# Bulk Modulus (GPa) = 34.75051 90.69828 62.72440
# Shear Modulus (GPa) = 14.26390 25.63345 19.94868
#
# Velocity S-wave (km/s) = 2.85733 3.83041 3.37908
# Velocity P-wave (km/s) = 5.54763 8.45437 7.15026
#
# Compressibility (1/GPa) = 0.02877655
#
# Stress axis : x y z
#
# Youngs Moduli (GPa) = 32.69616 12.28225 79.67007
#
# Poissons Ratio (x) = 0.31486 0.26160
# Poissons Ratio (y) = 0.83817 1.51138
# Poissons Ratio (z) = 0.10736 0.23300
#
# Static dielectric constant tensor:
#      x y z
#    x 1.584850 0.000000 0.000000 
#    y 0.000000 1.587060 0.000000 
#    z 0.000000 0.000000 1.569740 
# 
# From -- ./inp_files/36891.got.cif
#   From: 2010.05.17/outbox.cif.g08.bks.cpg/sg51_19_cif.got.tgz:36891.got - 2010.06.03 11:52:47.
