data_PCOD9403060
_publ_section_title
;
Structure prediction by ZEFSAII (Michael W. Deem and Ramdas Pophale) SiO2 
 PCOD9403060
Probable space group: P M M A
;
_chemical_formula_sum "Si O2"
_cell_formula_units_Z 64
_cell_length_a 9.037874
_cell_length_b 14.420884
_cell_length_c 29.316724
_cell_angle_alpha 90.000000
_cell_angle_beta 90.000000
_cell_angle_gamma 90.000000
_cell_volume 3820.969792
_symmetry_space_group_name_H-M "P M M A"
_symmetry_group_IT_number 51
_symmetry_cell_setting 'orthorhombic'
loop_
_space_group_symop_operation_xyz
x,y,z
1/2-x,-y,z
1/2+x,-y,-z
-x,y,-z
-x,-y,-z
1/2+x,y,-z
1/2-x,y,z
x,-y,z
loop_
_atom_site_type_symbol
_atom_site_label
_atom_site_fract_x
_atom_site_fract_y
_atom_site_fract_z
Si Si1 0.922021 0.111254 0.692358
Si Si2 0.925258 0.710953 0.453239
Si Si3 0.072035 0.608713 0.265416
Si Si4 0.573031 0.893814 0.404226
Si Si5 0.073372 0.889735 0.141469
Si Si6 0.926518 0.781838 0.224904
Si Si7 0.579647 0.887337 0.046279
Si Si8 0.578999 0.388484 0.630126
O O1 0.750000 0.139685 0.695107
O O2 0.987647 0.130146 0.642339
O O3 0.014955 0.161079 0.731332
O O4 0.929235 0.000000 0.699017
O O5 0.750000 0.702089 0.457427
O O6 0.963207 0.818267 0.442301
O O7 0.000000 0.679860 0.500000
O O8 0.981373 0.655288 0.409263
O O9 0.250000 0.618720 0.261230
O O10 0.037180 0.500000 0.258682
O O11 0.033453 0.634435 0.317986
O O12 0.988773 0.678276 0.232145
O O13 0.750000 0.888661 0.395540
O O14 0.537179 0.000000 0.416624
O O15 0.250000 0.877089 0.142913
O O16 0.995297 0.830934 0.180686
O O17 0.009318 0.863158 0.091961
O O18 0.043821 0.000000 0.148455
O O19 0.750000 0.782761 0.222995
O O20 0.750000 0.856522 0.048458
O O21 0.581139 0.000000 0.044608
O O22 0.500000 0.855304 0.000000
O O23 0.750000 0.359007 0.624104
O O24 0.575033 0.500000 0.626962
#
# Coordination Sequence:
#
# PCOD9403060 Si02
#       8
#     8   8   8   8   8   8   8   8
#     4  10  20  33  50  72  97 128 165 200 236 284
#     4  11  23  36  52  74  98 125 154 187 230 278
#     4   9  19  37  59  79  99 126 160 198 241 291
#     4   9  19  36  54  72  95 122 155 195 236 278
#     4  10  20  33  48  68  98 137 180 222 260 299
#     4  12  23  32  47  72 103 136 166 202 249 297
#     4   9  16  27  44  66  94 131 175 219 261 304
#     4   9  19  37  59  79  98 121 150 187 232 282
#
# _framework density 16.749673999999999
#
# number of rings (size 3 to 8) (size 9 to 14) (size 15 to 20)
#    0.000    2.125    0.000    4.500    0.000    9.000 
#    0.000    1.250    0.000    0.000    0.000    0.000 
#    0.000    0.500    0.000    1.875    0.000    2.875 
#
# Total GULP energy -357340.819862 kJ/mol
# GULP energy per Si atom -5583.450310 kJ/mol
# Density = 1.671155 g / cm^3
# Si number density = 16.749674 Si / 1000 Ang^3
#
#
#
# Elastic Constant Matrix: (Units=GPa)
#
#
# Indices 1 2 3 4 5 6 
#
# 1 85.7266 42.1652 59.7035 0.0000 0.0000 0.0000
# 2 42.1652 51.4223 48.4606 0.0000 0.0000 0.0000
# 3 59.7035 48.4606 100.2389 0.0000 0.0000 0.0000
# 4 0.0000 0.0000 0.0000 15.3752 0.0000 0.0000
# 5 0.0000 0.0000 0.0000 0.0000 28.4625 0.0000
# 6 0.0000 0.0000 0.0000 0.0000 0.0000 21.9117
#
#
#
# Elastic Compliance Matrix: (Units=1/GPa)
#
#
# Indices 1 2 3 4 5 6 
#
# 1 0.022807 -0.010837 -0.008345 0.000000 0.000000 0.000000
# 2 -0.010837 0.040871 -0.013305 0.000000 0.000000 0.000000
# 3 -0.008345 -0.013305 0.021379 0.000000 0.000000 0.000000
# 4 0.000000 0.000000 0.000000 0.065040 0.000000 0.000000
# 5 0.000000 0.000000 0.000000 0.000000 0.035134 0.000000
# 6 0.000000 0.000000 0.000000 0.000000 0.000000 0.045638
#
#
# Mechanical properties :
#
#
# Convention : Reuss Voigt Hill
#
# Bulk Modulus (GPa) = 49.79138 59.78294 54.78716
# Shear Modulus (GPa) = 16.52697 18.95379 17.74038
#
# Velocity S-wave (km/s) = 3.14459 3.36756 3.25799
# Velocity P-wave (km/s) = 6.55560 7.13373 6.85077
#
# Compressibility (1/GPa) = 0.02008380
#
# Stress axis : x y z
#
# Youngs Moduli (GPa) = 43.84625 24.46711 46.77550
#
# Poissons Ratio (x) = 0.26515 0.39034
# Poissons Ratio (y) = 0.47516 0.62233
# Poissons Ratio (z) = 0.36590 0.32553
#
# Static dielectric constant tensor:
#      x y z
#    x 1.555770 0.000000 0.000000 
#    y 0.000000 1.576900 0.000000 
#    z 0.000000 0.000000 1.538410 
# 
# From -- ./inp_files/34818.got.cif
#   From: 2010.05.17/outbox.cif.g08.bks.cpg/sg51_18_cif.got.tgz:34818.got - 2010.06.03 11:52:47.
