data_PCOD9403011
_publ_section_title
;
Structure prediction by ZEFSAII (Michael W. Deem and Ramdas Pophale) SiO2 
 PCOD9403011
Probable space group: P M M A
;
_chemical_formula_sum "Si O2"
_cell_formula_units_Z 64
_cell_length_a 19.264830
_cell_length_b 13.983629
_cell_length_c 11.321176
_cell_angle_alpha 90.000000
_cell_angle_beta 90.000000
_cell_angle_gamma 90.000000
_cell_volume 3049.836911
_symmetry_space_group_name_H-M "P M M A"
_symmetry_group_IT_number 51
_symmetry_cell_setting 'orthorhombic'
loop_
_space_group_symop_operation_xyz
x,y,z
1/2-x,-y,z
1/2+x,-y,-z
-x,y,-z
-x,-y,-z
1/2+x,y,-z
1/2-x,y,z
x,-y,z
loop_
_atom_site_type_symbol
_atom_site_label
_atom_site_fract_x
_atom_site_fract_y
_atom_site_fract_z
Si Si1 0.469636 0.114354 0.633004
Si Si2 0.964729 0.609607 0.615149
Si Si3 0.536656 0.811938 0.881480
Si Si4 0.522412 0.606887 0.142080
Si Si5 0.174154 0.390891 0.837101
Si Si6 0.329045 0.110313 0.205403
Si Si7 0.826327 0.282774 0.625090
Si Si8 0.173795 0.225319 0.641969
O O1 0.500000 0.136350 0.500000
O O2 0.508835 0.154082 0.751466
O O3 0.392068 0.156304 0.644263
O O4 0.470246 0.000000 0.642132
O O5 0.946076 0.500000 0.587749
O O6 0.894828 0.659629 0.659259
O O7 0.000000 0.653555 0.500000
O O8 0.022839 0.610653 0.715684
O O9 0.523407 0.698379 0.887098
O O10 0.616274 0.843556 0.883224
O O11 0.500000 0.852205 0.000000
O O12 0.494621 0.500000 0.117451
O O13 0.600963 0.616282 0.095467
O O14 0.250000 0.382020 0.898136
O O15 0.172800 0.500000 0.787413
O O16 0.171010 0.306886 0.741441
O O17 0.250000 0.113863 0.161577
O O18 0.332005 0.176232 0.321760
O O19 0.346820 0.000000 0.230202
O O20 0.750000 0.320222 0.662821
O O21 0.827644 0.276919 0.484524
O O22 0.250000 0.177146 0.651845
#
# Coordination Sequence:
#
# PCOD9403011 Si02
#       8
#     8   8   8   8   8   8   8   8
#     4  11  25  43  65  92 125 168 213 266 327 387
#     4  10  20  32  52  84 123 166 210 261 322 383
#     4  12  25  43  69 100 130 166 212 270 318 379
#     4  10  20  36  59  89 123 165 211 256 312 376
#     4   9  17  31  53  82 119 164 211 256 307 375
#     4  10  22  42  65  88 120 164 212 263 322 388
#     4  10  20  33  55  86 120 162 211 263 318 382
#     4  10  20  33  54  86 123 163 205 259 322 383
#
# _framework density 20.984729000000002
#
# number of rings (size 3 to 8) (size 9 to 14) (size 15 to 20)
#    0.000    1.750    2.500    1.875    0.000    4.750 
#    0.000    3.750    0.000    1.125    0.000    0.000 
#    0.000    0.000    0.000    0.000    0.000    0.000 
#
# Total GULP energy -356718.790111 kJ/mol
# GULP energy per Si atom -5573.731095 kJ/mol
# Density = 2.093697 g / cm^3
# Si number density = 20.984729 Si / 1000 Ang^3
#
#
#
# Elastic Constant Matrix: (Units=GPa)
#
#
# Indices 1 2 3 4 5 6 
#
# 1 155.6308 66.5475 21.7839 0.0000 0.0000 0.0000
# 2 66.5475 126.7492 12.1403 0.0000 0.0000 0.0000
# 3 21.7839 12.1403 87.8947 0.0000 0.0000 0.0000
# 4 0.0000 0.0000 0.0000 -12.5000 0.0000 0.0000
# 5 0.0000 0.0000 0.0000 0.0000 16.8956 0.0000
# 6 0.0000 0.0000 0.0000 0.0000 0.0000 34.6860
#
#
#
# Elastic Compliance Matrix: (Units=1/GPa)
#
#
# Indices 1 2 3 4 5 6 
#
# 1 0.008478 -0.004307 -0.001506 0.000000 0.000000 0.000000
# 2 -0.004307 0.010183 -0.000339 0.000000 0.000000 0.000000
# 3 -0.001506 -0.000339 0.011797 0.000000 0.000000 0.000000
# 4 0.000000 0.000000 0.000000 -0.080000 0.000000 0.000000
# 5 0.000000 0.000000 0.000000 0.000000 0.059187 0.000000
# 6 0.000000 0.000000 0.000000 0.000000 0.000000 0.028830
#
#
# Mechanical properties :
#
#
# Convention : Reuss Voigt Hill
#
# Bulk Modulus (GPa) = 55.08420 63.46867 59.27643
# Shear Modulus (GPa) = 87.97897 25.80318 56.89108
#
# Velocity S-wave (km/s) = 6.48199 3.51039 5.21244
# Velocity P-wave (km/s) = 9.07350 6.83676 8.03336
#
# Compressibility (1/GPa) = 0.01815403
#
# Stress axis : x y z
#
# Youngs Moduli (GPa) = 117.95321 98.19950 84.76430
#
# Poissons Ratio (x) = 0.42294 0.12768
# Poissons Ratio (y) = 0.50802 0.02875
# Poissons Ratio (z) = 0.17767 0.03330
#
# Static dielectric constant tensor:
#      x y z
#    x 1.835550 0.000000 0.000000 
#    y 0.000000 1.750840 0.000000 
#    z 0.000000 0.000000 1.796340 
# 
# From -- ./inp_files/17583.got.cif
#   From: 2010.05.17/outbox.cif.g08.bks.cpg/sg51_9_cif.got.tgz:17583.got - 2010.06.03 11:52:47.
