data_PCOD9403766
_publ_section_title
;
Structure prediction by ZEFSAII (Michael W. Deem and Ramdas Pophale) SiO2 
 PCOD9403766
Probable space group: P M M A
;
_chemical_formula_sum "Si O2"
_cell_formula_units_Z 56
_cell_length_a 14.327091
_cell_length_b 7.611303
_cell_length_c 22.802269
_cell_angle_alpha 90.000000
_cell_angle_beta 90.000000
_cell_angle_gamma 90.000000
_cell_volume 2486.537970
_symmetry_space_group_name_H-M "P M M A"
_symmetry_group_IT_number 51
_symmetry_cell_setting 'orthorhombic'
loop_
_space_group_symop_operation_xyz
x,y,z
1/2-x,-y,z
1/2+x,-y,-z
-x,y,-z
-x,-y,-z
1/2+x,y,-z
1/2-x,y,z
x,-y,z
loop_
_atom_site_type_symbol
_atom_site_label
_atom_site_fract_x
_atom_site_fract_y
_atom_site_fract_z
Si Si1 0.052612 0.715336 0.413856
Si Si2 0.557278 0.697261 0.710633
Si Si3 0.354857 0.286079 0.535715
Si Si4 0.524890 0.798597 0.937368
Si Si5 0.145854 0.791389 0.167466
Si Si6 0.147996 0.795349 0.723579
Si Si7 0.646341 0.290654 0.139770
O O1 0.051344 0.500000 0.411923
O O2 0.088586 0.780159 0.350866
O O3 0.116979 0.762671 0.468996
O O4 0.945354 0.771539 0.426872
O O5 0.593648 0.500000 0.712482
O O6 0.585634 0.772538 0.773358
O O7 0.444985 0.698144 0.704496
O O8 0.250000 0.225461 0.551121
O O9 0.353774 0.500000 0.538536
O O10 0.598508 0.717215 0.891519
O O11 0.430597 0.797674 0.899743
O O12 0.554925 0.000000 0.949707
O O13 0.500000 0.715127 0.000000
O O14 0.250000 0.722284 0.176916
O O15 0.151321 0.000000 0.158056
O O16 0.250000 0.727332 0.704152
O O17 0.146159 0.781054 0.794257
O O18 0.140976 0.000000 0.707371
O O19 0.750000 0.264414 0.115341
O O20 0.628135 0.500000 0.143221
#
# Coordination Sequence:
#
# PCOD9403766 Si02
#       7
#     8   8   8   8   8   8   8
#     4   8  16  27  41  70 105 136 175 218 264 319
#     4  11  21  33  53  82 115 145 177 225 279 327
#     4   8  13  25  44  64  96 141 179 214 260 314
#     4  10  21  37  59  84 108 140 184 230 272 320
#     4  10  22  40  58  77 107 147 187 225 267 320
#     4  10  20  34  53  76 104 141 181 219 265 326
#     4  10  20  34  54  81 110 138 170 215 273 328
#
# _framework density 22.521273999999998
#
# number of rings (size 3 to 8) (size 9 to 14) (size 15 to 20)
#    0.000    2.429    1.429    2.143    0.000    4.000 
#    0.000    4.286    0.000    0.000    0.000    8.000 
#    0.000   13.714    0.000    0.000    0.000    0.000 
#
# Total GULP energy -312401.676805 kJ/mol
# GULP energy per Si atom -5578.601372 kJ/mol
# Density = 2.247001 g / cm^3
# Si number density = 22.521274 Si / 1000 Ang^3
#
#
#
# Elastic Constant Matrix: (Units=GPa)
#
#
# Indices 1 2 3 4 5 6 
#
# 1 76.2968 3.6544 24.2456 0.0000 0.0000 0.0000
# 2 3.6544 51.5594 0.1871 0.0000 0.0000 0.0000
# 3 24.2456 0.1871 134.6778 0.0000 0.0000 0.0000
# 4 0.0000 0.0000 0.0000 0.7384 0.0000 0.0000
# 5 0.0000 0.0000 0.0000 0.0000 0.3555 0.0000
# 6 0.0000 0.0000 0.0000 0.0000 0.0000 30.9218
#
#
#
# Elastic Compliance Matrix: (Units=1/GPa)
#
#
# Indices 1 2 3 4 5 6 
#
# 1 0.013951 -0.000980 -0.002510 0.000000 0.000000 0.000000
# 2 -0.000980 0.019464 0.000149 0.000000 0.000000 0.000000
# 3 -0.002510 0.000149 0.007877 0.000000 0.000000 0.000000
# 4 0.000000 0.000000 0.000000 1.354196 0.000000 0.000000
# 5 0.000000 0.000000 0.000000 0.000000 2.812738 0.000000
# 6 0.000000 0.000000 0.000000 0.000000 0.000000 0.032340
#
#
# Mechanical properties :
#
#
# Convention : Reuss Voigt Hill
#
# Bulk Modulus (GPa) = 28.89264 35.41203 32.15233
# Shear Modulus (GPa) = 1.17404 22.03295 11.60350
#
# Velocity S-wave (km/s) = 0.72280 3.13120 2.27232
# Velocity P-wave (km/s) = 3.68150 5.36940 4.60348
#
# Compressibility (1/GPa) = 0.03461089
#
# Stress axis : x y z
#
# Youngs Moduli (GPa) = 71.67773 51.37693 126.95460
#
# Poissons Ratio (x) = 0.05034 0.31869
# Poissons Ratio (y) = 0.07022 -0.01896
# Poissons Ratio (z) = 0.17993 -0.00767
#
# Static dielectric constant tensor:
#      x y z
#    x 1.841920 0.000000 0.000000 
#    y 0.000000 1.862730 0.000000 
#    z 0.000000 0.000000 1.836030 
# 
# From -- ./inp_files/33464.got.cif
#   From: 2010.05.17/outbox.cif.g08.bks.cpg/sg51_17_cif.got.tgz:33464.got - 2010.06.03 11:52:47.
