data_PCOD9403354
_publ_section_title
;
Structure prediction by ZEFSAII (Michael W. Deem and Ramdas Pophale) SiO2 
 PCOD9403354
Probable space group: P M M A
;
_chemical_formula_sum "Si O2"
_cell_formula_units_Z 64
_cell_length_a 18.882911
_cell_length_b 9.339576
_cell_length_c 20.696484
_cell_angle_alpha 90.000000
_cell_angle_beta 90.000000
_cell_angle_gamma 90.000000
_cell_volume 3649.998439
_symmetry_space_group_name_H-M "P M M A"
_symmetry_group_IT_number 51
_symmetry_cell_setting 'orthorhombic'
loop_
_space_group_symop_operation_xyz
x,y,z
1/2-x,-y,z
1/2+x,-y,-z
-x,y,-z
-x,-y,-z
1/2+x,y,-z
1/2-x,y,z
x,-y,z
loop_
_atom_site_type_symbol
_atom_site_label
_atom_site_fract_x
_atom_site_fract_y
_atom_site_fract_z
Si Si1 0.336237 0.164024 0.048739
Si Si2 0.833892 0.671725 0.222497
Si Si3 0.094442 0.831104 0.298211
Si Si4 0.571016 0.168968 0.326795
Si Si5 0.663765 0.334931 0.076784
Si Si6 0.834157 0.667500 0.584213
Si Si7 0.926936 0.669538 0.461936
Si Si8 0.835211 0.330955 0.821340
O O1 0.250000 0.163450 0.047064
O O2 0.355913 0.258115 0.110837
O O3 0.359692 0.000000 0.055099
O O4 0.360428 0.235460 0.981756
O O5 0.750000 0.701721 0.228661
O O6 0.842760 0.500000 0.228997
O O7 0.877878 0.754245 0.275979
O O8 0.856894 0.710163 0.149193
O O9 0.129431 0.766004 0.362551
O O10 0.126118 0.747348 0.237306
O O11 0.010181 0.811954 0.304209
O O12 0.109910 0.000000 0.292806
O O13 0.578560 0.239859 0.397167
O O14 0.585794 0.000000 0.330088
O O15 0.750000 0.334523 0.076578
O O16 0.642188 0.500000 0.066134
O O17 0.750000 0.683935 0.586333
O O18 0.851368 0.500000 0.598238
O O19 0.864828 0.698281 0.513266
O O20 0.926655 0.500000 0.445900
O O21 0.000000 0.699837 0.500000
O O22 0.750000 0.314346 0.813558
O O23 0.850478 0.500000 0.821867
#
# Coordination Sequence:
#
# PCOD9403354 Si02
#       8
#     8   8   8   8   8   8   8   8
#     4   9  16  26  44  73 107 142 178 217 267 324
#     4   9  19  36  58  83 110 142 182 227 272 321
#     4  11  23  37  53  76 109 146 181 219 268 326
#     4  11  24  38  56  82 112 145 180 221 270 327
#     4   8  14  27  48  74 104 137 175 220 267 316
#     4  10  21  37  58  84 109 136 178 228 272 318
#     4  10  20  37  60  81 104 140 182 221 267 323
#     4  10  20  33  51  76 106 141 183 230 273 316
#
# _framework density 17.534254000000001
#
# number of rings (size 3 to 8) (size 9 to 14) (size 15 to 20)
#    0.000    2.250    1.250    2.625    0.000    7.500 
#    0.000    2.500    0.000    0.750    0.000    5.250 
#    0.000    0.000    0.000    0.000    0.000    0.000 
#
# Total GULP energy -357171.799712 kJ/mol
# GULP energy per Si atom -5580.809371 kJ/mol
# Density = 1.749435 g / cm^3
# Si number density = 17.534254 Si / 1000 Ang^3
#
#
#
# Elastic Constant Matrix: (Units=GPa)
#
#
# Indices 1 2 3 4 5 6 
#
# 1 46.1866 59.8288 56.3812 0.0000 0.0000 0.0000
# 2 59.8288 129.4335 119.2142 0.0000 0.0000 0.0000
# 3 56.3812 119.2142 180.1861 0.0000 0.0000 0.0000
# 4 0.0000 0.0000 0.0000 -20.3176 0.0000 0.0000
# 5 0.0000 0.0000 0.0000 0.0000 -80.3065 0.0000
# 6 0.0000 0.0000 0.0000 0.0000 0.0000 22.9901
#
#
#
# Elastic Compliance Matrix: (Units=1/GPa)
#
#
# Indices 1 2 3 4 5 6 
#
# 1 0.054029 -0.024072 -0.000980 0.000000 0.000000 0.000000
# 2 -0.024072 0.030504 -0.012650 0.000000 0.000000 0.000000
# 3 -0.000980 -0.012650 0.014225 0.000000 0.000000 0.000000
# 4 0.000000 0.000000 0.000000 -0.049218 0.000000 0.000000
# 5 0.000000 0.000000 0.000000 0.000000 -0.012452 0.000000
# 6 0.000000 0.000000 0.000000 0.000000 0.000000 0.043497
#
#
# Mechanical properties :
#
#
# Convention : Reuss Voigt Hill
#
# Bulk Modulus (GPa) = 42.81519 91.85052 67.33286
# Shear Modulus (GPa) = 30.53021 -7.50133 11.51444
#
# Velocity S-wave (km/s) = 4.17727 -2.07060 2.56536
# Velocity P-wave (km/s) = 6.90920 6.83964 6.87451
#
# Compressibility (1/GPa) = 0.02335620
#
# Stress axis : x y z
#
# Youngs Moduli (GPa) = 18.50850 32.78293 70.29641
#
# Poissons Ratio (x) = 0.78915 0.06886
# Poissons Ratio (y) = 0.44554 0.88921
# Poissons Ratio (z) = 0.01813 0.41469
#
# Static dielectric constant tensor:
#      x y z
#    x 1.584320 0.000000 0.000000 
#    y 0.000000 1.584470 0.000000 
#    z 0.000000 0.000000 1.576000 
# 
# From -- ./inp_files/33826.got.cif
#   From: 2010.05.17/outbox.cif.g08.bks.cpg/sg51_17_cif.got.tgz:33826.got - 2010.06.03 11:52:47.
