data_PCOD9403897
_publ_section_title
;
Structure prediction by ZEFSAII (Michael W. Deem and Ramdas Pophale) SiO2 
 PCOD9403897
Probable space group: P M M A
;
_chemical_formula_sum "Si O2"
_cell_formula_units_Z 40
_cell_length_a 14.692294
_cell_length_b 9.530711
_cell_length_c 13.072622
_cell_angle_alpha 90.000000
_cell_angle_beta 90.000000
_cell_angle_gamma 90.000000
_cell_volume 1830.533219
_symmetry_space_group_name_H-M "P M M A"
_symmetry_group_IT_number 51
_symmetry_cell_setting 'orthorhombic'
loop_
_space_group_symop_operation_xyz
x,y,z
1/2-x,-y,z
1/2+x,-y,-z
-x,y,-z
-x,-y,-z
1/2+x,y,-z
1/2-x,y,z
x,-y,z
loop_
_atom_site_type_symbol
_atom_site_label
_atom_site_fract_x
_atom_site_fract_y
_atom_site_fract_z
Si Si1 0.102242 0.657967 0.459881
Si Si2 0.144605 0.843907 0.649916
Si Si3 0.860401 0.837442 0.735750
Si Si4 0.639120 0.838961 0.967109
Si Si5 0.861916 0.339316 0.161396
O O1 0.140890 0.500000 0.457810
O O2 0.145054 0.761040 0.543699
O O3 0.106001 0.731960 0.350411
O O4 0.000000 0.647163 0.500000
O O5 0.250000 0.860977 0.678814
O O6 0.104960 0.750180 0.741245
O O7 0.104082 0.000000 0.640576
O O8 0.750000 0.832251 0.733208
O O9 0.889381 0.802386 0.851715
O O10 0.885758 0.000000 0.714918
O O11 0.750000 0.837182 0.967016
O O12 0.612381 0.000000 0.989098
O O13 0.609296 0.735913 0.056691
O O14 0.750000 0.341550 0.162258
O O15 0.892043 0.500000 0.168224
#
# Coordination Sequence:
#
# PCOD9403897 Si02
#       5
#     8   8   8   8   8
#     4  11  24  38  51  71 101 135 170 210 257 305
#     4  10  20  34  54  78 102 131 169 210 251 297
#     4   9  18  33  54  79 104 132 169 210 250 296
#     4   8  14  26  45  71 103 133 161 198 243 291
#     4   9  16  26  44  73 106 135 163 198 243 294
#
# _framework density 21.851558000000001
#
# number of rings (size 3 to 8) (size 9 to 14) (size 15 to 20)
#    0.000    2.600    0.000    3.600    0.000    8.800 
#    0.000    2.000    0.000    1.200    0.000    8.400 
#    0.000    0.000    0.000    0.000    0.000    0.000 
#
# Total GULP energy -223423.472614 kJ/mol
# GULP energy per Si atom -5585.586815 kJ/mol
# Density = 2.180182 g / cm^3
# Si number density = 21.851558 Si / 1000 Ang^3
#
#
#
# Elastic Constant Matrix: (Units=GPa)
#
#
# Indices 1 2 3 4 5 6 
#
# 1 43.6941 5.6320 4.4421 0.0000 0.0000 0.0000
# 2 5.6320 212.8044 139.7354 0.0000 0.0000 0.0000
# 3 4.4421 139.7354 162.2394 0.0000 0.0000 0.0000
# 4 0.0000 0.0000 0.0000 -29.4506 0.0000 0.0000
# 5 0.0000 0.0000 0.0000 0.0000 12.1396 0.0000
# 6 0.0000 0.0000 0.0000 0.0000 0.0000 -21.1282
#
#
#
# Elastic Compliance Matrix: (Units=1/GPa)
#
#
# Indices 1 2 3 4 5 6 
#
# 1 0.022969 -0.000449 -0.000242 0.000000 0.000000 0.000000
# 2 -0.000449 0.010825 -0.009311 0.000000 0.000000 0.000000
# 3 -0.000242 -0.009311 0.014190 0.000000 0.000000 0.000000
# 4 0.000000 0.000000 0.000000 -0.033955 0.000000 0.000000
# 5 0.000000 0.000000 0.000000 0.000000 0.082375 0.000000
# 6 0.000000 0.000000 0.000000 0.000000 0.000000 -0.047330
#
#
# Mechanical properties :
#
#
# Convention : Reuss Voigt Hill
#
# Bulk Modulus (GPa) = 35.74079 79.81744 57.77911
# Shear Modulus (GPa) = 63.77105 10.24073 37.00589
#
# Velocity S-wave (km/s) = 5.40806 2.16718 4.11970
# Velocity P-wave (km/s) = 7.44230 6.54742 7.00915
#
# Compressibility (1/GPa) = 0.02797923
#
# Stress axis : x y z
#
# Youngs Moduli (GPa) = 43.53723 92.37667 70.47119
#
# Poissons Ratio (x) = 0.04145 0.01708
# Poissons Ratio (y) = 0.01954 0.65619
# Poissons Ratio (z) = 0.01055 0.86016
#
# Static dielectric constant tensor:
#      x y z
#    x 1.744210 0.000000 0.000000 
#    y 0.000000 1.777810 0.000000 
#    z 0.000000 0.000000 1.750610 
# 
# From -- ./inp_files/17094.got.cif
#   From: 2010.05.17/outbox.cif.g08.bks.cpg/sg51_9_cif.got.tgz:17094.got - 2010.06.03 11:52:47.
