data_PCOD9403067
_publ_section_title
;
Structure prediction by ZEFSAII (Michael W. Deem and Ramdas Pophale) SiO2 
 PCOD9403067
Probable space group: P M M A
;
_chemical_formula_sum "Si O2"
_cell_formula_units_Z 40
_cell_length_a 16.137532
_cell_length_b 7.650368
_cell_length_c 17.634926
_cell_angle_alpha 90.000000
_cell_angle_beta 90.000000
_cell_angle_gamma 90.000000
_cell_volume 2177.173724
_symmetry_space_group_name_H-M "P M M A"
_symmetry_group_IT_number 51
_symmetry_cell_setting 'orthorhombic'
loop_
_space_group_symop_operation_xyz
x,y,z
1/2-x,-y,z
1/2+x,-y,-z
-x,y,-z
-x,-y,-z
1/2+x,y,-z
1/2-x,y,z
x,-y,z
loop_
_atom_site_type_symbol
_atom_site_label
_atom_site_fract_x
_atom_site_fract_y
_atom_site_fract_z
Si Si1 0.078524 0.707679 0.305787
Si Si2 0.913125 0.787790 0.036159
Si Si3 0.841799 0.000000 0.312375
Si Si4 0.505884 0.000000 0.589907
Si Si5 0.412771 0.300642 0.787571
Si Si6 0.250000 0.290000 0.228781
Si Si7 0.750000 0.791800 0.948621
O O1 0.081861 0.500000 0.324464
O O2 0.051741 0.829669 0.375508
O O3 0.166241 0.765846 0.271131
O O4 0.006769 0.729986 0.242208
O O5 0.907265 0.730365 0.123075
O O6 0.913388 0.000000 0.035194
O O7 0.833848 0.724869 0.988217
O O8 0.000000 0.728844 0.000000
O O9 0.856457 0.833315 0.258473
O O10 0.913734 0.000000 0.374635
O O11 0.750000 0.000000 0.344724
O O12 0.500000 0.000000 0.500000
O O13 0.390998 0.500000 0.769838
O O14 0.250000 0.500000 0.230366
O O15 0.250000 0.238128 0.141012
O O16 0.750000 0.000000 0.960866
#
# Coordination Sequence:
#
# PCOD9403067 Si02
#       7
#     8   8   4   4   8   4   4
#     4   9  20  37  59  89 118 150 190 232 278 336
#     4  10  20  33  48  73 111 153 194 244 294 332
#     4  10  22  40  60  81 118 144 180 239 280 331
#     4  10  22  41  64  92 115 150 181 215 287 349
#     4  10  20  35  58  80 108 154 200 237 284 337
#     4  10  20  36  56  82 118 153 192 241 282 328
#     4  10  22  32  48  76 110 149 194 244 295 325
#
# _framework density 18.372441999999999
#
# number of rings (size 3 to 8) (size 9 to 14) (size 15 to 20)
#    0.000    2.200    1.000    1.200    2.800    2.000 
#    1.800    0.000    0.000    0.000    0.000    0.000 
#    0.000    0.000    0.000    0.000    0.000    0.000 
#
# Total GULP energy -223356.252920 kJ/mol
# GULP energy per Si atom -5583.906323 kJ/mol
# Density = 1.833063 g / cm^3
# Si number density = 18.372442 Si / 1000 Ang^3
#
#
#
# Elastic Constant Matrix: (Units=GPa)
#
#
# Indices 1 2 3 4 5 6 
#
# 1 142.0634 52.0957 75.1682 0.0000 0.0000 0.0000
# 2 52.0957 69.9170 41.3243 0.0000 0.0000 0.0000
# 3 75.1682 41.3243 159.4332 0.0000 0.0000 0.0000
# 4 0.0000 0.0000 0.0000 7.8745 0.0000 0.0000
# 5 0.0000 0.0000 0.0000 0.0000 10.4022 0.0000
# 6 0.0000 0.0000 0.0000 0.0000 0.0000 7.2360
#
#
#
# Elastic Compliance Matrix: (Units=1/GPa)
#
#
# Indices 1 2 3 4 5 6 
#
# 1 0.011279 -0.006213 -0.003707 0.000000 0.000000 0.000000
# 2 -0.006213 0.020312 -0.002336 0.000000 0.000000 0.000000
# 3 -0.003707 -0.002336 0.008626 0.000000 0.000000 0.000000
# 4 0.000000 0.000000 0.000000 0.126992 0.000000 0.000000
# 5 0.000000 0.000000 0.000000 0.000000 0.096133 0.000000
# 6 0.000000 0.000000 0.000000 0.000000 0.000000 0.138198
#
#
# Mechanical properties :
#
#
# Convention : Reuss Voigt Hill
#
# Bulk Modulus (GPa) = 63.67348 78.73221 71.20284
# Shear Modulus (GPa) = 11.59320 18.62424 15.10872
#
# Velocity S-wave (km/s) = 2.51472 3.18733 2.87079
# Velocity P-wave (km/s) = 6.56993 7.51611 7.05889
#
# Compressibility (1/GPa) = 0.01570513
#
# Stress axis : x y z
#
# Youngs Moduli (GPa) = 88.65976 49.23087 115.93454
#
# Poissons Ratio (x) = 0.30587 0.42982
# Poissons Ratio (y) = 0.55083 0.27079
# Poissons Ratio (z) = 0.32870 0.11499
#
# Static dielectric constant tensor:
#      x y z
#    x 1.644670 0.000000 0.000000 
#    y 0.000000 1.651600 0.000000 
#    z 0.000000 0.000000 1.566290 
# 
# From -- ./inp_files/23852.got.cif
#   From: 2010.05.17/outbox.cif.g08.bks.cpg/sg51_12_cif.got.tgz:23852.got - 2010.06.03 11:52:47.
