data_PCOD9403932
_publ_section_title
;
Structure prediction by ZEFSAII (Michael W. Deem and Ramdas Pophale) SiO2 
 PCOD9403932
Probable space group: P M M A
;
_chemical_formula_sum "Si O2"
_cell_formula_units_Z 48
_cell_length_a 9.488666
_cell_length_b 7.809724
_cell_length_c 35.126684
_cell_angle_alpha 90.000000
_cell_angle_beta 90.000000
_cell_angle_gamma 90.000000
_cell_volume 2603.022964
_symmetry_space_group_name_H-M "P M M A"
_symmetry_group_IT_number 51
_symmetry_cell_setting 'orthorhombic'
loop_
_space_group_symop_operation_xyz
x,y,z
1/2-x,-y,z
1/2+x,-y,-z
-x,y,-z
-x,-y,-z
1/2+x,y,-z
1/2-x,y,z
x,-y,z
loop_
_atom_site_type_symbol
_atom_site_label
_atom_site_fract_x
_atom_site_fract_y
_atom_site_fract_z
Si Si1 0.087865 0.290374 0.537048
Si Si2 0.080023 0.000000 0.823544
Si Si3 0.917975 0.301705 0.961079
Si Si4 0.912043 0.293388 0.610040
Si Si5 0.417134 0.691270 0.767980
Si Si6 0.580929 0.000000 0.902943
Si Si7 0.912637 0.796330 0.694844
O O1 0.250000 0.235096 0.535370
O O2 0.088050 0.500000 0.537137
O O3 0.000000 0.236694 0.500000
O O4 0.009718 0.233872 0.575536
O O5 0.040644 0.165298 0.798306
O O6 0.001961 0.000000 0.863582
O O7 0.250000 0.000000 0.828781
O O8 0.750000 0.287628 0.967937
O O9 0.948511 0.500000 0.950776
O O10 0.954195 0.167232 0.928206
O O11 0.000000 0.262269 0.000000
O O12 0.750000 0.232603 0.605512
O O13 0.909020 0.500000 0.608697
O O14 0.962737 0.241926 0.652014
O O15 0.250000 0.712036 0.761136
O O16 0.442377 0.500000 0.782757
O O17 0.496872 0.714716 0.728216
O O18 0.750000 0.000000 0.896330
O O19 0.750000 0.736400 0.696933
O O20 0.914787 0.000000 0.700474
#
# Coordination Sequence:
#
# PCOD9403932 Si02
#       7
#     8   4   8   8   8   4   8
#     4   9  16  26  42  65  93 125 161 202 249 302
#     4  10  22  39  55  78 111 144 183 231 276 326
#     4   9  18  33  53  79 111 145 184 230 277 325
#     4   9  17  29  45  68  98 128 160 201 250 305
#     4  10  21  38  59  80 105 140 180 224 276 329
#     4  10  21  35  53  78 110 146 184 227 275 326
#     4  10  20  34  54  79 106 135 170 214 265 322
#
# _framework density 18.440100000000001
#
# number of rings (size 3 to 8) (size 9 to 14) (size 15 to 20)
#    0.000    2.500    0.833    1.250    0.000    5.667 
#    0.000    1.667    0.000    0.500    0.000    0.000 
#    0.000    0.000    0.000    0.000    0.000    0.000 
#
# Total GULP energy -267894.622482 kJ/mol
# GULP energy per Si atom -5581.137968 kJ/mol
# Density = 1.839813 g / cm^3
# Si number density = 18.440100 Si / 1000 Ang^3
#
#
#
# Elastic Constant Matrix: (Units=GPa)
#
#
# Indices 1 2 3 4 5 6 
#
# 1 64.2126 43.4432 80.6219 0.0000 0.0000 0.0000
# 2 43.4432 83.3900 76.2619 0.0000 0.0000 0.0000
# 3 80.6219 76.2619 180.8675 0.0000 0.0000 0.0000
# 4 0.0000 0.0000 0.0000 16.7720 0.0000 0.0000
# 5 0.0000 0.0000 0.0000 0.0000 41.3276 0.0000
# 6 0.0000 0.0000 0.0000 0.0000 0.0000 -43.1954
#
#
#
# Elastic Compliance Matrix: (Units=1/GPa)
#
#
# Indices 1 2 3 4 5 6 
#
# 1 0.037690 -0.006951 -0.013869 0.000000 0.000000 0.000000
# 2 -0.006951 0.020800 -0.005672 0.000000 0.000000 0.000000
# 3 -0.013869 -0.005672 0.014103 0.000000 0.000000 0.000000
# 4 0.000000 0.000000 0.000000 0.059623 0.000000 0.000000
# 5 0.000000 0.000000 0.000000 0.000000 0.024197 0.000000
# 6 0.000000 0.000000 0.000000 0.000000 0.000000 -0.023151
#
#
# Mechanical properties :
#
#
# Convention : Reuss Voigt Hill
#
# Bulk Modulus (GPa) = 50.99980 81.01379 66.00680
# Shear Modulus (GPa) = 25.93599 11.52370 18.72985
#
# Velocity S-wave (km/s) = 3.75440 2.50256 3.19048
# Velocity P-wave (km/s) = 6.81990 7.23735 7.03173
#
# Compressibility (1/GPa) = 0.01960792
#
# Stress axis : x y z
#
# Youngs Moduli (GPa) = 26.53251 48.07666 70.90877
#
# Poissons Ratio (x) = 0.33419 0.98345
# Poissons Ratio (y) = 0.18443 0.40218
# Poissons Ratio (z) = 0.36799 0.27268
#
# Static dielectric constant tensor:
#      x y z
#    x 1.620530 0.000000 0.000000 
#    y 0.000000 1.665030 0.000000 
#    z 0.000000 0.000000 1.587640 
# 
# From -- ./inp_files/37104.got.cif
#   From: 2010.05.17/outbox.cif.g08.bks.cpg/sg51_19_cif.got.tgz:37104.got - 2010.06.03 11:52:47.
