data_PCOD9403356
_publ_section_title
;
Structure prediction by ZEFSAII (Michael W. Deem and Ramdas Pophale) SiO2 
 PCOD9403356
Probable space group: P M M A
;
_chemical_formula_sum "Si O2"
_cell_formula_units_Z 56
_cell_length_a 8.748025
_cell_length_b 15.955087
_cell_length_c 20.608043
_cell_angle_alpha 90.000000
_cell_angle_beta 90.000000
_cell_angle_gamma 90.000000
_cell_volume 2876.377905
_symmetry_space_group_name_H-M "P M M A"
_symmetry_group_IT_number 51
_symmetry_cell_setting 'orthorhombic'
loop_
_space_group_symop_operation_xyz
x,y,z
1/2-x,-y,z
1/2+x,-y,-z
-x,y,-z
-x,-y,-z
1/2+x,y,-z
1/2-x,y,z
x,-y,z
loop_
_atom_site_type_symbol
_atom_site_label
_atom_site_fract_x
_atom_site_fract_y
_atom_site_fract_z
Si Si1 0.564689 0.771456 0.930910
Si Si2 0.431119 0.177614 0.702197
Si Si3 0.429098 0.633699 0.748537
Si Si4 0.932760 0.408179 0.399397
Si Si5 0.568872 0.770437 0.567371
Si Si6 0.433862 0.906227 0.176828
Si Si7 0.067214 0.409216 0.116512
O O1 0.750000 0.771340 0.932323
O O2 0.515593 0.835033 0.874058
O O3 0.509696 0.676329 0.916378
O O4 0.500000 0.798497 0.000000
O O5 0.250000 0.167668 0.694826
O O6 0.458822 0.268025 0.736227
O O7 0.505345 0.183358 0.631253
O O8 0.498807 0.111325 0.752180
O O9 0.250000 0.621987 0.764580
O O10 0.456387 0.593305 0.678390
O O11 0.527597 0.599764 0.807452
O O12 0.750000 0.397434 0.410157
O O13 0.979662 0.500000 0.423768
O O14 0.018009 0.327178 0.426236
O O15 0.500000 0.802997 0.500000
O O16 0.750000 0.775285 0.566092
O O17 0.250000 0.900944 0.181112
O O18 0.474924 0.000000 0.154901
O O19 0.250000 0.409506 0.108838
O O20 0.007665 0.500000 0.093245
#
# Coordination Sequence:
#
# PCOD9403356 Si02
#       7
#     8   8   8   8   8   8   8
#     4  10  22  39  57  81 117 155 194 239 289 342
#     4  10  20  36  59  86 116 149 189 235 287 345
#     4   9  17  30  50  76 106 142 185 234 286 338
#     4   9  18  32  48  71 107 147 192 247 300 351
#     4  11  22  36  55  79 111 152 198 242 292 351
#     4  10  21  39  64  92 119 149 187 233 289 351
#     4  10  20  33  51  76 108 148 194 240 286 338
#
# _framework density 19.468931000000001
#
# number of rings (size 3 to 8) (size 9 to 14) (size 15 to 20)
#    0.000    2.143    1.429    3.000    0.000    5.714 
#    0.000    0.000    0.000    0.429    0.000    0.000 
#    0.000    0.000    0.000    0.000    0.000    0.000 
#
# Total GULP energy -312595.589316 kJ/mol
# GULP energy per Si atom -5582.064095 kJ/mol
# Density = 1.942462 g / cm^3
# Si number density = 19.468931 Si / 1000 Ang^3
#
#
#
# Elastic Constant Matrix: (Units=GPa)
#
#
# Indices 1 2 3 4 5 6 
#
# 1 22.9448 29.0909 25.0224 0.0000 0.0000 0.0000
# 2 29.0909 91.2645 47.1766 0.0000 0.0000 0.0000
# 3 25.0224 47.1766 111.6377 0.0000 0.0000 0.0000
# 4 0.0000 0.0000 0.0000 -10.3063 0.0000 0.0000
# 5 0.0000 0.0000 0.0000 0.0000 31.8112 0.0000
# 6 0.0000 0.0000 0.0000 0.0000 0.0000 12.7943
#
#
#
# Elastic Compliance Matrix: (Units=1/GPa)
#
#
# Indices 1 2 3 4 5 6 
#
# 1 0.079813 -0.020719 -0.009133 0.000000 0.000000 0.000000
# 2 -0.020719 0.019398 -0.003553 0.000000 0.000000 0.000000
# 3 -0.009133 -0.003553 0.012506 0.000000 0.000000 0.000000
# 4 0.000000 0.000000 0.000000 -0.097028 0.000000 0.000000
# 5 0.000000 0.000000 0.000000 0.000000 0.031435 0.000000
# 6 0.000000 0.000000 0.000000 0.000000 0.000000 0.078160
#
#
# Mechanical properties :
#
#
# Convention : Reuss Voigt Hill
#
# Bulk Modulus (GPa) = 22.26927 47.60299 34.93613
# Shear Modulus (GPa) = 24.26408 15.16364 19.71386
#
# Velocity S-wave (km/s) = 3.53412 2.79384 3.18556
# Velocity P-wave (km/s) = 5.30251 5.90857 5.61372
#
# Compressibility (1/GPa) = 0.04490494
#
# Stress axis : x y z
#
# Youngs Moduli (GPa) = 12.52933 51.55062 79.95928
#
# Poissons Ratio (x) = 1.06810 0.73030
# Poissons Ratio (y) = 0.25960 0.28413
# Poissons Ratio (z) = 0.11444 0.18318
#
# Static dielectric constant tensor:
#      x y z
#    x 1.649630 0.000000 0.000000 
#    y 0.000000 1.707670 0.000000 
#    z 0.000000 0.000000 1.669100 
# 
# From -- ./inp_files/31978.got.cif
#   From: 2010.05.17/outbox.cif.g08.bks.cpg/sg51_16_cif.got.tgz:31978.got - 2010.06.03 11:52:47.
