data_PCOD9403105
_publ_section_title
;
Structure prediction by ZEFSAII (Michael W. Deem and Ramdas Pophale) SiO2 
 PCOD9403105
Probable space group: P M M A
;
_chemical_formula_sum "Si O2"
_cell_formula_units_Z 48
_cell_length_a 24.410261
_cell_length_b 7.480209
_cell_length_c 11.016118
_cell_angle_alpha 90.000000
_cell_angle_beta 90.000000
_cell_angle_gamma 90.000000
_cell_volume 2011.475442
_symmetry_space_group_name_H-M "P M M A"
_symmetry_group_IT_number 51
_symmetry_cell_setting 'orthorhombic'
loop_
_space_group_symop_operation_xyz
x,y,z
1/2-x,-y,z
1/2+x,-y,-z
-x,y,-z
-x,-y,-z
1/2+x,y,-z
1/2-x,y,z
x,-y,z
loop_
_atom_site_type_symbol
_atom_site_label
_atom_site_fract_x
_atom_site_fract_y
_atom_site_fract_z
Si Si1 0.310693 0.286720 0.183865
Si Si2 0.920988 0.710540 0.918975
Si Si3 0.480627 0.203228 0.324241
Si Si4 0.628968 0.785175 0.563551
Si Si5 0.918728 0.784414 0.191003
Si Si6 0.312364 0.218410 0.683673
O O1 0.250000 0.211694 0.167917
O O2 0.307255 0.500000 0.168289
O O3 0.358315 0.222854 0.094101
O O4 0.333979 0.253110 0.318691
O O5 0.923299 0.500000 0.890448
O O6 0.954004 0.801630 0.810821
O O7 0.938383 0.734507 0.057047
O O8 0.432737 0.283289 0.408200
O O9 0.539910 0.284088 0.295303
O O10 0.489740 0.000000 0.365483
O O11 0.660694 0.724192 0.444156
O O12 0.623631 0.000000 0.554021
O O13 0.856704 0.725330 0.216029
O O14 0.919838 0.000000 0.198251
O O15 0.250000 0.279863 0.698717
O O16 0.310789 0.000000 0.682918
#
# Coordination Sequence:
#
# PCOD9403105 Si02
#       6
#     8   8   8   8   8   8
#     4   9  18  32  49  70  97 127 159 200 248 290
#     4  10  20  33  50  72  98 129 164 201 242 287
#     4   9  18  32  51  75  99 124 158 200 244 288
#     4   9  17  31  52  75  97 123 159 201 242 286
#     4  10  20  33  49  70  99 132 162 195 237 286
#     4   9  18  32  50  73 100 129 161 198 239 282
#
# _framework density 23.86308
#
# number of rings (size 3 to 8) (size 9 to 14) (size 15 to 20)
#    0.000    2.667    0.000    1.500    0.000    5.667 
#    0.000    4.167    0.000    1.000    0.000    5.833 
#    0.000    0.000    0.000    0.000    0.000    0.000 
#
# Total GULP energy -268075.203587 kJ/mol
# GULP energy per Si atom -5584.900075 kJ/mol
# Density = 2.380877 g / cm^3
# Si number density = 23.863080 Si / 1000 Ang^3
#
#
#
# Elastic Constant Matrix: (Units=GPa)
#
#
# Indices 1 2 3 4 5 6 
#
# 1 132.8606 8.1430 56.6750 0.0000 0.0000 0.0000
# 2 8.1430 77.3626 -3.1860 0.0000 0.0000 0.0000
# 3 56.6750 -3.1860 72.3102 0.0000 0.0000 0.0000
# 4 0.0000 0.0000 0.0000 4.9082 0.0000 0.0000
# 5 0.0000 0.0000 0.0000 0.0000 29.8705 0.0000
# 6 0.0000 0.0000 0.0000 0.0000 0.0000 2.1976
#
#
#
# Elastic Compliance Matrix: (Units=1/GPa)
#
#
# Indices 1 2 3 4 5 6 
#
# 1 0.011498 -0.001584 -0.009081 0.000000 0.000000 0.000000
# 2 -0.001584 0.013168 0.001822 0.000000 0.000000 0.000000
# 3 -0.009081 0.001822 0.021027 0.000000 0.000000 0.000000
# 4 0.000000 0.000000 0.000000 0.203740 0.000000 0.000000
# 5 0.000000 0.000000 0.000000 0.000000 0.033478 0.000000
# 6 0.000000 0.000000 0.000000 0.000000 0.000000 0.455034
#
#
# Mechanical properties :
#
#
# Convention : Reuss Voigt Hill
#
# Bulk Modulus (GPa) = 35.70737 45.08860 40.39799
# Shear Modulus (GPa) = 6.53622 22.12204 14.32913
#
# Velocity S-wave (km/s) = 1.65680 3.04804 2.45311
# Velocity P-wave (km/s) = 4.31925 5.59670 4.99895
#
# Compressibility (1/GPa) = 0.02800542
#
# Stress axis : x y z
#
# Youngs Moduli (GPa) = 86.97410 75.94213 47.55709
#
# Poissons Ratio (x) = 0.12031 0.43188
# Poissons Ratio (y) = 0.13779 -0.08664
# Poissons Ratio (z) = 0.78985 -0.13836
#
# Static dielectric constant tensor:
#      x y z
#    x 1.954630 0.000000 0.000000 
#    y 0.000000 1.867870 0.000000 
#    z 0.000000 0.000000 1.857240 
# 
# From -- ./inp_files/18597.got.cif
#   From: 2010.05.17/outbox.cif.g08.bks.cpg/sg51_10_cif.got.tgz:18597.got - 2010.06.03 11:52:47.
