data_PCOD9403683
_publ_section_title
;
Structure prediction by ZEFSAII (Michael W. Deem and Ramdas Pophale) SiO2 
 PCOD9403683
Probable space group: P M M A
;
_chemical_formula_sum "Si O2"
_cell_formula_units_Z 48
_cell_length_a 7.686947
_cell_length_b 19.628778
_cell_length_c 15.703137
_cell_angle_alpha 90.000000
_cell_angle_beta 90.000000
_cell_angle_gamma 90.000000
_cell_volume 2369.373733
_symmetry_space_group_name_H-M "P M M A"
_symmetry_group_IT_number 51
_symmetry_cell_setting 'orthorhombic'
loop_
_space_group_symop_operation_xyz
x,y,z
1/2-x,-y,z
1/2+x,-y,-z
-x,y,-z
-x,-y,-z
1/2+x,y,-z
1/2-x,y,z
x,-y,z
loop_
_atom_site_type_symbol
_atom_site_label
_atom_site_fract_x
_atom_site_fract_y
_atom_site_fract_z
Si Si1 0.042809 0.422823 0.097710
Si Si2 0.959310 0.422450 0.403724
Si Si3 0.541210 0.922693 0.402834
Si Si4 0.041166 0.922714 0.903279
Si Si5 0.455819 0.672801 0.746649
Si Si6 0.463886 0.172681 0.750528
O O1 0.250000 0.424895 0.105774
O O2 0.974758 0.500000 0.113660
O O3 0.976604 0.369249 0.166381
O O4 0.000000 0.405151 0.000000
O O5 0.750000 0.425295 0.395835
O O6 0.025361 0.500000 0.392559
O O7 0.028050 0.372115 0.331305
O O8 0.000000 0.400482 0.500000
O O9 0.500000 0.903837 0.500000
O O10 0.750000 0.925534 0.394908
O O11 0.479673 0.868769 0.333237
O O12 0.475094 0.000000 0.387853
O O13 0.250000 0.925634 0.895334
O O14 0.978122 0.869729 0.833116
O O15 0.974790 0.000000 0.889470
O O16 0.000000 0.902765 0.000000
O O17 0.250000 0.679767 0.730672
O O18 0.525394 0.749472 0.751568
O O19 0.250000 0.173295 0.751430
#
# Coordination Sequence:
#
# PCOD9403683 Si02
#       6
#     8   8   8   8   8   8
#     4  10  21  37  57  79 102 131 168 208 249 296
#     4   9  18  32  50  71  95 126 163 202 244 290
#     4   9  17  31  51  73  98 131 172 214 253 296
#     4   9  17  31  51  72  94 124 163 203 241 284
#     4  10  20  34  52  75 104 135 167 206 253 304
#     4   9  18  32  50  72  99 133 167 199 244 301
#
# _framework density 20.258517000000001
#
# number of rings (size 3 to 8) (size 9 to 14) (size 15 to 20)
#    0.000    2.667    0.000    1.500    0.000    5.667 
#    0.000    5.833    0.000    4.000    0.000    0.000 
#    0.000    0.000    0.000    0.000    0.000    0.000 
#
# Total GULP energy -267916.597163 kJ/mol
# GULP energy per Si atom -5581.595774 kJ/mol
# Density = 2.021241 g / cm^3
# Si number density = 20.258517 Si / 1000 Ang^3
#
#
#
# Elastic Constant Matrix: (Units=GPa)
#
#
# Indices 1 2 3 4 5 6 
#
# 1 31.8445 3.5528 -7.3811 0.0000 0.0000 0.0000
# 2 3.5528 171.5847 152.6506 0.0000 0.0000 0.0000
# 3 -7.3811 152.6506 181.6470 0.0000 0.0000 0.0000
# 4 0.0000 0.0000 0.0000 67.1751 0.0000 0.0000
# 5 0.0000 0.0000 0.0000 0.0000 26.3085 0.0000
# 6 0.0000 0.0000 0.0000 0.0000 0.0000 -39.5549
#
#
#
# Elastic Compliance Matrix: (Units=1/GPa)
#
#
# Indices 1 2 3 4 5 6 
#
# 1 0.034075 -0.007677 0.007836 0.000000 0.000000 0.000000
# 2 -0.007677 0.024823 -0.021173 0.000000 0.000000 0.000000
# 3 0.007836 -0.021173 0.023616 0.000000 0.000000 0.000000
# 4 0.000000 0.000000 0.000000 0.014886 0.000000 0.000000
# 5 0.000000 0.000000 0.000000 0.000000 0.038011 0.000000
# 6 0.000000 0.000000 0.000000 0.000000 0.000000 -0.025281
#
#
# Mechanical properties :
#
#
# Convention : Reuss Voigt Hill
#
# Bulk Modulus (GPa) = 24.69863 75.85786 50.27825
# Shear Modulus (GPa) = 30.18341 26.53598 28.35970
#
# Velocity S-wave (km/s) = 3.86413 3.62314 3.74557
# Velocity P-wave (km/s) = 5.66805 7.41816 6.60136
#
# Compressibility (1/GPa) = 0.04048807
#
# Stress axis : x y z
#
# Youngs Moduli (GPa) = 29.34671 40.28478 42.34335
#
# Poissons Ratio (x) = 0.30926 -0.33181
# Poissons Ratio (y) = 0.22529 0.89652
# Poissons Ratio (z) = -0.22996 0.85294
#
# Static dielectric constant tensor:
#      x y z
#    x 1.790380 0.000000 0.000000 
#    y 0.000000 1.716000 0.000000 
#    z 0.000000 0.000000 1.684160 
# 
# From -- ./inp_files/21419.got.cif
#   From: 2010.05.17/outbox.cif.g08.bks.cpg/sg51_11_cif.got.tgz:21419.got - 2010.06.03 11:52:47.
