data_PCOD9403852
_publ_section_title
;
Structure prediction by ZEFSAII (Michael W. Deem and Ramdas Pophale) SiO2 
 PCOD9403852
Probable space group: P M M A
;
_chemical_formula_sum "Si O2"
_cell_formula_units_Z 64
_cell_length_a 24.557847
_cell_length_b 7.548994
_cell_length_c 15.066191
_cell_angle_alpha 90.000000
_cell_angle_beta 90.000000
_cell_angle_gamma 90.000000
_cell_volume 2793.076548
_symmetry_space_group_name_H-M "P M M A"
_symmetry_group_IT_number 51
_symmetry_cell_setting 'orthorhombic'
loop_
_space_group_symop_operation_xyz
x,y,z
1/2-x,-y,z
1/2+x,-y,-z
-x,y,-z
-x,-y,-z
1/2+x,y,-z
1/2-x,y,z
x,-y,z
loop_
_atom_site_type_symbol
_atom_site_label
_atom_site_fract_x
_atom_site_fract_y
_atom_site_fract_z
Si Si1 0.188474 0.783924 0.372867
Si Si2 0.002042 0.213958 0.215859
Si Si3 0.398405 0.799899 0.885143
Si Si4 0.339607 0.797275 0.567872
Si Si5 0.535724 0.710683 0.415913
Si Si6 0.691110 0.296986 0.241983
Si Si7 0.375608 0.216104 0.203147
Si Si8 0.312115 0.216792 0.028663
O O1 0.250000 0.735935 0.348366
O O2 0.175200 0.722069 0.471860
O O3 0.146482 0.723962 0.298388
O O4 0.185595 0.000000 0.374747
O O5 0.954392 0.282368 0.150637
O O6 0.990104 0.256232 0.319104
O O7 0.062337 0.274398 0.189487
O O8 0.000379 0.000000 0.209863
O O9 0.359231 0.804895 0.799354
O O10 0.411274 0.000000 0.915797
O O11 0.358365 0.721286 0.959467
O O12 0.404515 0.792707 0.579082
O O13 0.313842 0.704559 0.652358
O O14 0.320294 0.000000 0.570791
O O15 0.500000 0.773045 0.500000
O O16 0.542718 0.500000 0.425194
O O17 0.750000 0.223992 0.214847
O O18 0.687350 0.500000 0.211920
O O19 0.334088 0.267037 0.125637
O O20 0.376342 0.000000 0.203646
O O21 0.250000 0.276209 0.012213
O O22 0.310975 0.000000 0.023412
#
# Coordination Sequence:
#
# PCOD9403852 Si02
#       8
#     8   8   8   8   8   8   8   8
#     4   9  17  29  47  74 107 142 180 225 280 336
#     4  10  20  34  53  80 111 146 187 231 281 332
#     4  10  20  34  54  81 112 147 186 228 275 327
#     4  11  21  34  54  80 109 143 184 233 283 333
#     4  11  23  37  54  77 109 150 192 232 275 331
#     4  11  23  37  54  78 110 148 187 228 277 333
#     4   9  17  30  50  77 110 144 181 229 281 334
#     4   9  17  30  51  80 112 146 184 229 282 336
#
# _framework density 22.913803000000001
#
# number of rings (size 3 to 8) (size 9 to 14) (size 15 to 20)
#    0.000    2.000    1.250    3.000    0.000    6.000 
#    0.000    2.500    0.000    0.750    0.000    1.750 
#    0.000    7.000    0.000    0.000    0.000    0.000 
#
# Total GULP energy -357667.309582 kJ/mol
# GULP energy per Si atom -5588.551712 kJ/mol
# Density = 2.286165 g / cm^3
# Si number density = 22.913803 Si / 1000 Ang^3
#
#
#
# Elastic Constant Matrix: (Units=GPa)
#
#
# Indices 1 2 3 4 5 6 
#
# 1 117.6289 -5.0828 16.9366 0.0000 0.0000 0.0000
# 2 -5.0828 62.9576 -7.6059 0.0000 0.0000 0.0000
# 3 16.9366 -7.6059 81.0686 0.0000 0.0000 0.0000
# 4 0.0000 0.0000 0.0000 -23.4788 0.0000 0.0000
# 5 0.0000 0.0000 0.0000 0.0000 45.4318 0.0000
# 6 0.0000 0.0000 0.0000 0.0000 0.0000 -16.9107
#
#
#
# Elastic Compliance Matrix: (Units=1/GPa)
#
#
# Indices 1 2 3 4 5 6 
#
# 1 0.008780 0.000493 -0.001788 0.000000 0.000000 0.000000
# 2 0.000493 0.016093 0.001407 0.000000 0.000000 0.000000
# 3 -0.001788 0.001407 0.012841 0.000000 0.000000 0.000000
# 4 0.000000 0.000000 0.000000 -0.042592 0.000000 0.000000
# 5 0.000000 0.000000 0.000000 0.000000 0.022011 0.000000
# 6 0.000000 0.000000 0.000000 0.000000 0.000000 -0.059134
#
#
# Mechanical properties :
#
#
# Convention : Reuss Voigt Hill
#
# Bulk Modulus (GPa) = 26.35899 30.01677 28.18788
# Shear Modulus (GPa) = -169.04437 18.16895 -75.43771
#
# Velocity S-wave (km/s) = -8.59850 2.81895 -5.74403
# Velocity P-wave (km/s) = 9.33008 4.87069 5.62702
#
# Compressibility (1/GPa) = 0.03793772
#
# Stress axis : x y z
#
# Youngs Moduli (GPa) = 113.89443 62.13703 77.87687
#
# Poissons Ratio (x) = -0.03062 0.13925
# Poissons Ratio (y) = -0.05613 -0.10957
# Poissons Ratio (z) = 0.20365 -0.08742
#
# Static dielectric constant tensor:
#      x y z
#    x 1.830480 0.000000 0.000000 
#    y 0.000000 1.874050 0.000000 
#    z 0.000000 0.000000 1.836150 
# 
# From -- ./inp_files/26300.got.cif
#   From: 2010.05.17/outbox.cif.g08.bks.cpg/sg51_14_cif.got.tgz:26300.got - 2010.06.03 11:52:47.
