data_PCOD9403791
_publ_section_title
;
Structure prediction by ZEFSAII (Michael W. Deem and Ramdas Pophale) SiO2 
 PCOD9403791
Probable space group: P M M A
;
_chemical_formula_sum "Si O2"
_cell_formula_units_Z 48
_cell_length_a 17.543275
_cell_length_b 9.210339
_cell_length_c 15.774108
_cell_angle_alpha 90.000000
_cell_angle_beta 90.000000
_cell_angle_gamma 90.000000
_cell_volume 2548.772640
_symmetry_space_group_name_H-M "P M M A"
_symmetry_group_IT_number 51
_symmetry_cell_setting 'orthorhombic'
loop_
_space_group_symop_operation_xyz
x,y,z
1/2-x,-y,z
1/2+x,-y,-z
-x,y,-z
-x,-y,-z
1/2+x,y,-z
1/2-x,y,z
x,-y,z
loop_
_atom_site_type_symbol
_atom_site_label
_atom_site_fract_x
_atom_site_fract_y
_atom_site_fract_z
Si Si1 0.429578 0.171547 0.638131
Si Si2 0.657654 0.668441 0.839250
Si Si3 0.608993 0.829314 0.670129
Si Si4 0.663634 0.671906 0.505693
Si Si5 0.157079 0.167694 0.991361
Si Si6 0.837825 0.176727 0.195526
O O1 0.519808 0.186593 0.647833
O O2 0.395431 0.258649 0.559728
O O3 0.388992 0.220250 0.725255
O O4 0.412657 0.000000 0.625612
O O5 0.750000 0.676642 0.836071
O O6 0.635937 0.500000 0.832500
O O7 0.625841 0.759764 0.760999
O O8 0.633079 0.736450 0.929104
O O9 0.654343 0.746514 0.596807
O O10 0.627944 0.000000 0.670780
O O11 0.750000 0.697015 0.474250
O O12 0.651537 0.500000 0.513713
O O13 0.250000 0.166888 0.989191
O O14 0.132850 0.000000 0.002936
O O15 0.133797 0.221829 0.897869
O O16 0.750000 0.223541 0.207350
O O17 0.837418 0.000000 0.192865
#
# Coordination Sequence:
#
# PCOD9403791 Si02
#       6
#     8   8   8   8   8   8
#     4  10  21  37  57  82 110 140 176 217 263 315
#     4  10  20  34  53  77 105 139 179 222 268 315
#     4  11  23  37  55  80 108 140 178 218 263 316
#     4  11  24  40  58  81 107 137 175 217 263 316
#     4   8  14  27  50  78 104 133 173 218 261 306
#     4   8  14  28  53  81 106 135 173 217 262 306
#
# _framework density 18.832592999999999
#
# number of rings (size 3 to 8) (size 9 to 14) (size 15 to 20)
#    0.000    2.333    0.000    4.000    0.000    8.333 
#    0.000    1.667    0.000    8.000    0.000    0.000 
#    0.000    0.000    0.000    0.000    0.000    0.000 
#
# Total GULP energy -267955.368427 kJ/mol
# GULP energy per Si atom -5582.403509 kJ/mol
# Density = 1.878973 g / cm^3
# Si number density = 18.832593 Si / 1000 Ang^3
#
#
#
# Elastic Constant Matrix: (Units=GPa)
#
#
# Indices 1 2 3 4 5 6 
#
# 1 26.3101 29.1947 13.9702 0.0000 0.0000 0.0000
# 2 29.1947 64.2577 28.1798 0.0000 0.0000 0.0000
# 3 13.9702 28.1798 95.7741 0.0000 0.0000 0.0000
# 4 0.0000 0.0000 0.0000 -31.9437 0.0000 0.0000
# 5 0.0000 0.0000 0.0000 0.0000 -12.1399 0.0000
# 6 0.0000 0.0000 0.0000 0.0000 0.0000 14.5312
#
#
#
# Elastic Compliance Matrix: (Units=1/GPa)
#
#
# Indices 1 2 3 4 5 6 
#
# 1 0.076749 -0.034399 -0.001074 0.000000 0.000000 0.000000
# 2 -0.034399 0.033286 -0.004776 0.000000 0.000000 0.000000
# 3 -0.001074 -0.004776 0.012003 0.000000 0.000000 0.000000
# 4 0.000000 0.000000 0.000000 -0.031305 0.000000 0.000000
# 5 0.000000 0.000000 0.000000 0.000000 -0.082373 0.000000
# 6 0.000000 0.000000 0.000000 0.000000 0.000000 0.068818
#
#
# Mechanical properties :
#
#
# Convention : Reuss Voigt Hill
#
# Bulk Modulus (GPa) = 24.07323 36.55904 30.31613
# Shear Modulus (GPa) = 29.15087 1.75599 15.45343
#
# Velocity S-wave (km/s) = 3.93860 0.96667 2.86766
# Velocity P-wave (km/s) = 5.78739 4.54980 5.20551
#
# Compressibility (1/GPa) = 0.04153992
#
# Stress axis : x y z
#
# Youngs Moduli (GPa) = 13.02950 30.04298 83.31167
#
# Poissons Ratio (x) = 1.03345 0.08946
# Poissons Ratio (y) = 0.44820 0.39790
# Poissons Ratio (z) = 0.01399 0.14349
#
# Static dielectric constant tensor:
#      x y z
#    x 1.651020 0.000000 0.000000 
#    y 0.000000 1.627130 0.000000 
#    z 0.000000 0.000000 1.641850 
# 
# From -- ./inp_files/24786.got.cif
#   From: 2010.05.17/outbox.cif.g08.bks.cpg/sg51_13_cif.got.tgz:24786.got - 2010.06.03 11:52:47.
