data_PCOD9403540
_publ_section_title
;
Structure prediction by ZEFSAII (Michael W. Deem and Ramdas Pophale) SiO2 
 PCOD9403540
Probable space group: P M M A
;
_chemical_formula_sum "Si O2"
_cell_formula_units_Z 64
_cell_length_a 19.475846
_cell_length_b 13.794519
_cell_length_c 12.510537
_cell_angle_alpha 90.000000
_cell_angle_beta 90.000000
_cell_angle_gamma 90.000000
_cell_volume 3361.079966
_symmetry_space_group_name_H-M "P M M A"
_symmetry_group_IT_number 51
_symmetry_cell_setting 'orthorhombic'
loop_
_space_group_symop_operation_xyz
x,y,z
1/2-x,-y,z
1/2+x,-y,-z
-x,y,-z
-x,-y,-z
1/2+x,y,-z
1/2-x,y,z
x,-y,z
loop_
_atom_site_type_symbol
_atom_site_label
_atom_site_fract_x
_atom_site_fract_y
_atom_site_fract_z
Si Si1 0.889731 0.884852 0.458302
Si Si2 0.327563 0.383021 0.038554
Si Si3 0.027116 0.115026 0.880321
Si Si4 0.601296 0.700111 0.165546
Si Si5 0.171942 0.301121 0.608587
Si Si6 0.049179 0.617466 0.194223
Si Si7 0.568846 0.616824 0.560785
Si Si8 0.533613 0.115750 0.663989
O O1 0.832862 0.814330 0.412132
O O2 0.909481 0.852037 0.579062
O O3 0.958973 0.866310 0.389018
O O4 0.875617 0.000000 0.454917
O O5 0.250000 0.352472 0.067511
O O6 0.328358 0.500000 0.036542
O O7 0.349104 0.344174 0.922963
O O8 0.387382 0.351767 0.120069
O O9 0.090633 0.185436 0.856164
O O10 0.971674 0.142951 0.788061
O O11 0.042204 0.000000 0.868462
O O12 0.000000 0.131181 0.000000
O O13 0.630176 0.678805 0.282976
O O14 0.524792 0.655249 0.155976
O O15 0.250000 0.333443 0.618031
O O16 0.133065 0.349256 0.508838
O O17 0.046114 0.500000 0.192393
O O18 0.063161 0.648775 0.316364
O O19 0.500000 0.649780 0.500000
O O20 0.569090 0.500000 0.561754
O O21 0.541679 0.000000 0.662957
#
# Coordination Sequence:
#
# PCOD9403540 Si02
#       8
#     8   8   8   8   8   8   8   8
#     4   9  18  34  56  80 113 150 191 241 286 340
#     4  10  22  40  61  87 120 154 191 244 306 356
#     4  10  20  33  53  86 121 149 191 246 293 337
#     4  12  22  37  59  86 123 156 199 246 289 347
#     4  12  26  37  56  88 121 158 194 235 299 363
#     4  10  21  38  65  91 111 149 203 246 290 352
#     4  10  22  41  62  86 117 154 196 243 289 347
#     4   8  15  29  53  82 105 142 192 237 288 331
#
# _framework density 19.041499000000002
#
# number of rings (size 3 to 8) (size 9 to 14) (size 15 to 20)
#    0.000    1.875    2.500    2.625    3.500    2.500 
#    0.000    1.250    0.000    1.125    0.000    0.000 
#    0.000    0.000    0.000    0.000    0.000    0.000 
#
# Total GULP energy -357220.653418 kJ/mol
# GULP energy per Si atom -5581.572710 kJ/mol
# Density = 1.899816 g / cm^3
# Si number density = 19.041499 Si / 1000 Ang^3
#
#
#
# Elastic Constant Matrix: (Units=GPa)
#
#
# Indices 1 2 3 4 5 6 
#
# 1 102.9975 13.6245 25.0772 0.0000 0.0000 0.0000
# 2 13.6245 37.1675 9.7149 0.0000 0.0000 0.0000
# 3 25.0772 9.7149 104.5270 0.0000 0.0000 0.0000
# 4 0.0000 0.0000 0.0000 25.6114 0.0000 0.0000
# 5 0.0000 0.0000 0.0000 0.0000 21.2800 0.0000
# 6 0.0000 0.0000 0.0000 0.0000 0.0000 16.5788
#
#
#
# Elastic Compliance Matrix: (Units=1/GPa)
#
#
# Indices 1 2 3 4 5 6 
#
# 1 0.010699 -0.003332 -0.002257 0.000000 0.000000 0.000000
# 2 -0.003332 0.028613 -0.001860 0.000000 0.000000 0.000000
# 3 -0.002257 -0.001860 0.010281 0.000000 0.000000 0.000000
# 4 0.000000 0.000000 0.000000 0.039045 0.000000 0.000000
# 5 0.000000 0.000000 0.000000 0.000000 0.046993 0.000000
# 6 0.000000 0.000000 0.000000 0.000000 0.000000 0.060318
#
#
# Mechanical properties :
#
#
# Convention : Reuss Voigt Hill
#
# Bulk Modulus (GPa) = 28.82256 37.94725 33.38491
# Shear Modulus (GPa) = 22.48078 25.77907 24.12992
#
# Velocity S-wave (km/s) = 3.43974 3.68344 3.56368
# Velocity P-wave (km/s) = 5.56285 6.16947 5.87400
#
# Compressibility (1/GPa) = 0.03469504
#
# Stress axis : x y z
#
# Youngs Moduli (GPa) = 93.46401 34.94942 97.26398
#
# Poissons Ratio (x) = 0.11645 0.21954
# Poissons Ratio (y) = 0.31143 0.18090
# Poissons Ratio (z) = 0.21097 0.06500
#
# Static dielectric constant tensor:
#      x y z
#    x 1.629390 0.000000 0.000000 
#    y 0.000000 1.717710 0.000000 
#    z 0.000000 0.000000 1.677400 
# 
# From -- ./inp_files/17539.got.cif
#   From: 2010.05.17/outbox.cif.g08.bks.cpg/sg51_9_cif.got.tgz:17539.got - 2010.06.03 11:52:47.
