data_PCOD9403848
_publ_section_title
;
Structure prediction by ZEFSAII (Michael W. Deem and Ramdas Pophale) SiO2 
 PCOD9403848
Probable space group: P M M A
;
_chemical_formula_sum "Si O2"
_cell_formula_units_Z 56
_cell_length_a 23.447676
_cell_length_b 7.848806
_cell_length_c 15.264163
_cell_angle_alpha 90.000000
_cell_angle_beta 90.000000
_cell_angle_gamma 90.000000
_cell_volume 2809.159472
_symmetry_space_group_name_H-M "P M M A"
_symmetry_group_IT_number 51
_symmetry_cell_setting 'orthorhombic'
loop_
_space_group_symop_operation_xyz
x,y,z
1/2-x,-y,z
1/2+x,-y,-z
-x,y,-z
-x,-y,-z
1/2+x,y,-z
1/2-x,y,z
x,-y,z
loop_
_atom_site_type_symbol
_atom_site_label
_atom_site_fract_x
_atom_site_fract_y
_atom_site_fract_z
Si Si1 0.576797 0.709023 0.586149
Si Si2 0.402653 0.197692 0.788814
Si Si3 0.640957 0.797119 0.876853
Si Si4 0.949750 0.701574 0.391413
Si Si5 0.187007 0.701754 0.308773
Si Si6 0.315451 0.791405 0.933230
Si Si7 0.511022 0.704248 0.899470
O O1 0.578301 0.500000 0.590642
O O2 0.514842 0.765102 0.623199
O O3 0.574922 0.763558 0.484195
O O4 0.632392 0.771457 0.637982
O O5 0.410569 0.269739 0.692156
O O6 0.355486 0.272063 0.854727
O O7 0.462653 0.218510 0.838439
O O8 0.389301 0.000000 0.778021
O O9 0.673974 0.723088 0.794083
O O10 0.574128 0.755433 0.870834
O O11 0.648871 0.000000 0.874639
O O12 0.662470 0.734073 0.971566
O O13 0.955883 0.500000 0.403131
O O14 0.250000 0.773332 0.329128
O O15 0.189145 0.500000 0.327468
O O16 0.250000 0.743487 0.921072
O O17 0.318699 0.000000 0.934051
O O18 0.506079 0.500000 0.894963
O O19 0.500000 0.758276 0.000000
#
# Coordination Sequence:
#
# PCOD9403848 Si02
#       7
#     8   8   8   8   8   8   8
#     4   8  16  33  55  76 101 138 178 216 269 333
#     4  11  21  34  54  80 109 140 178 221 266 317
#     4  11  21  35  56  79 107 142 184 226 267 319
#     4   9  17  33  57  79 102 136 177 222 273 326
#     4  10  20  34  53  79 111 146 185 229 276 329
#     4   9  19  35  52  70 100 144 184 214 252 309
#     4  11  22  35  53  78 110 142 175 218 271 322
#
# _framework density 19.934787
#
# number of rings (size 3 to 8) (size 9 to 14) (size 15 to 20)
#    0.000    2.143    1.429    3.429    0.000    2.571 
#    0.000    2.857    0.000    5.143    0.000    0.000 
#    0.000    0.000    0.000    0.000    0.000    0.000 
#
# Total GULP energy -312623.176572 kJ/mol
# GULP energy per Si atom -5582.556724 kJ/mol
# Density = 1.988941 g / cm^3
# Si number density = 19.934787 Si / 1000 Ang^3
#
#
#
# Elastic Constant Matrix: (Units=GPa)
#
#
# Indices 1 2 3 4 5 6 
#
# 1 156.0397 -3.3816 77.7264 0.0000 0.0000 0.0000
# 2 -3.3816 17.2297 -0.9073 0.0000 0.0000 0.0000
# 3 77.7264 -0.9073 128.2902 0.0000 0.0000 0.0000
# 4 0.0000 0.0000 0.0000 -254.9866 0.0000 0.0000
# 5 0.0000 0.0000 0.0000 0.0000 30.6677 0.0000
# 6 0.0000 0.0000 0.0000 0.0000 0.0000 10.0527
#
#
#
# Elastic Compliance Matrix: (Units=1/GPa)
#
#
# Indices 1 2 3 4 5 6 
#
# 1 0.009218 0.001516 -0.005574 0.000000 0.000000 0.000000
# 2 0.001516 0.058310 -0.000506 0.000000 0.000000 0.000000
# 3 -0.005574 -0.000506 0.011168 0.000000 0.000000 0.000000
# 4 0.000000 0.000000 0.000000 -0.003922 0.000000 0.000000
# 5 0.000000 0.000000 0.000000 0.000000 0.032608 0.000000
# 6 0.000000 0.000000 0.000000 0.000000 0.000000 0.099476
#
#
# Mechanical properties :
#
#
# Convention : Reuss Voigt Hill
#
# Bulk Modulus (GPa) = 14.37448 49.82607 32.10027
# Shear Modulus (GPa) = 20.90511 -27.64509 -3.36999
#
# Velocity S-wave (km/s) = 3.24184 -3.72798 -1.30161
# Velocity P-wave (km/s) = 4.60859 2.55310 3.72541
#
# Compressibility (1/GPa) = 0.06956772
#
# Stress axis : x y z
#
# Youngs Moduli (GPa) = 108.48237 17.14971 89.53793
#
# Poissons Ratio (x) = -0.02599 0.49910
# Poissons Ratio (y) = -0.16442 0.04530
# Poissons Ratio (z) = 0.60470 0.00868
#
# Static dielectric constant tensor:
#      x y z
#    x 1.693960 0.000000 0.000000 
#    y 0.000000 1.741940 0.000000 
#    z 0.000000 0.000000 1.697030 
# 
# From -- ./inp_files/25787.got.cif
#   From: 2010.05.17/outbox.cif.g08.bks.cpg/sg51_13_cif.got.tgz:25787.got - 2010.06.03 11:52:47.
