data_PCOD9403804
_publ_section_title
;
Structure prediction by ZEFSAII (Michael W. Deem and Ramdas Pophale) SiO2 
 PCOD9403804
Probable space group: P M M A
;
_chemical_formula_sum "Si O2"
_cell_formula_units_Z 64
_cell_length_a 9.408569
_cell_length_b 15.330971
_cell_length_c 23.829681
_cell_angle_alpha 90.000000
_cell_angle_beta 90.000000
_cell_angle_gamma 90.000000
_cell_volume 3437.252726
_symmetry_space_group_name_H-M "P M M A"
_symmetry_group_IT_number 51
_symmetry_cell_setting 'orthorhombic'
loop_
_space_group_symop_operation_xyz
x,y,z
1/2-x,-y,z
1/2+x,-y,-z
-x,y,-z
-x,-y,-z
1/2+x,y,-z
1/2-x,y,z
x,-y,z
loop_
_atom_site_type_symbol
_atom_site_label
_atom_site_fract_x
_atom_site_fract_y
_atom_site_fract_z
Si Si1 0.579697 0.600515 0.059665
Si Si2 0.911608 0.895352 0.446305
Si Si3 0.592808 0.405460 0.757521
Si Si4 0.416123 0.729507 0.142120
Si Si5 0.913600 0.605091 0.555592
Si Si6 0.586625 0.859097 0.320199
Si Si7 0.409302 0.655967 0.660809
Si Si8 0.419765 0.098771 0.206971
O O1 0.750000 0.611854 0.053980
O O2 0.556589 0.500000 0.080663
O O3 0.512390 0.675767 0.098637
O O4 0.500000 0.605572 0.000000
O O5 0.750000 0.859671 0.447414
O O6 0.968946 0.880028 0.383143
O O7 0.000000 0.862133 0.500000
O O8 0.903555 0.000000 0.452504
O O9 0.750000 0.398062 0.730463
O O10 0.586743 0.500000 0.786018
O O11 0.580062 0.328908 0.801741
O O12 0.474099 0.399833 0.710762
O O13 0.250000 0.732909 0.123229
O O14 0.462548 0.825940 0.162594
O O15 0.750000 0.630466 0.550579
O O16 0.920151 0.500000 0.563339
O O17 0.000000 0.626796 0.500000
O O18 0.989231 0.648615 0.607930
O O19 0.750000 0.892313 0.317235
O O20 0.591766 0.754796 0.317710
O O21 0.497008 0.890904 0.267090
O O22 0.250000 0.629218 0.645439
O O23 0.250000 0.110062 0.215674
O O24 0.445137 0.000000 0.186593
#
# Coordination Sequence:
#
# PCOD9403804 Si02
#       8
#     8   8   8   8   8   8   8   8
#     4  10  21  37  60  92 129 167 205 242 283 333
#     4   9  18  33  51  70  93 123 162 211 270 335
#     4  10  20  34  53  77 107 147 188 224 274 337
#     4  10  20  36  58  85 120 157 196 241 287 336
#     4  10  21  37  55  72  93 127 173 223 277 339
#     4  10  21  36  53  75 105 140 180 227 282 346
#     4  11  22  34  50  74 104 135 174 224 277 334
#     4  10  21  37  59  86 114 149 195 244 294 346
#
# _framework density 18.619520000000001
#
# number of rings (size 3 to 8) (size 9 to 14) (size 15 to 20)
#    0.000    2.000    1.250    2.250    0.000    7.000 
#    0.000    2.500    0.000    0.375    0.000    0.000 
#    0.000    0.000    0.000    0.000    0.000    0.000 
#
# Total GULP energy -357023.843681 kJ/mol
# GULP energy per Si atom -5578.497558 kJ/mol
# Density = 1.857714 g / cm^3
# Si number density = 18.619520 Si / 1000 Ang^3
#
#
#
# Elastic Constant Matrix: (Units=GPa)
#
#
# Indices 1 2 3 4 5 6 
#
# 1 99.3510 45.5445 49.6387 0.0000 0.0000 0.0000
# 2 45.5445 105.1537 49.5619 0.0000 0.0000 0.0000
# 3 49.6387 49.5619 74.2385 0.0000 0.0000 0.0000
# 4 0.0000 0.0000 0.0000 28.7741 0.0000 0.0000
# 5 0.0000 0.0000 0.0000 0.0000 34.0928 0.0000
# 6 0.0000 0.0000 0.0000 0.0000 0.0000 18.9298
#
#
#
# Elastic Compliance Matrix: (Units=1/GPa)
#
#
# Indices 1 2 3 4 5 6 
#
# 1 0.015619 -0.002689 -0.008648 0.000000 0.000000 0.000000
# 2 -0.002689 0.014339 -0.007775 0.000000 0.000000 0.000000
# 3 -0.008648 -0.007775 0.024443 0.000000 0.000000 0.000000
# 4 0.000000 0.000000 0.000000 0.034753 0.000000 0.000000
# 5 0.000000 0.000000 0.000000 0.000000 0.029332 0.000000
# 6 0.000000 0.000000 0.000000 0.000000 0.000000 0.052827
#
#
# Mechanical properties :
#
#
# Convention : Reuss Voigt Hill
#
# Bulk Modulus (GPa) = 61.81593 63.13706 62.47650
# Shear Modulus (GPa) = 23.26342 25.29255 24.27799
#
# Velocity S-wave (km/s) = 3.53853 3.68963 3.61487
# Velocity P-wave (km/s) = 7.06870 7.22038 7.14494
#
# Compressibility (1/GPa) = 0.01617706
#
# Stress axis : x y z
#
# Youngs Moduli (GPa) = 64.02520 69.73988 40.91085
#
# Poissons Ratio (x) = 0.18751 0.35381
# Poissons Ratio (y) = 0.17214 0.31808
# Poissons Ratio (z) = 0.55372 0.54223
#
# Static dielectric constant tensor:
#      x y z
#    x 1.655370 0.000000 0.000000 
#    y 0.000000 1.682280 0.000000 
#    z 0.000000 0.000000 1.615960 
# 
# From -- ./inp_files/34902.got.cif
#   From: 2010.05.17/outbox.cif.g08.bks.cpg/sg51_18_cif.got.tgz:34902.got - 2010.06.03 11:52:47.
