data_PCOD9403450
_publ_section_title
;
Structure prediction by ZEFSAII (Michael W. Deem and Ramdas Pophale) SiO2 
 PCOD9403450
Probable space group: P M M A
;
_chemical_formula_sum "Si O2"
_cell_formula_units_Z 48
_cell_length_a 7.782282
_cell_length_b 9.868762
_cell_length_c 31.225310
_cell_angle_alpha 90.000000
_cell_angle_beta 90.000000
_cell_angle_gamma 90.000000
_cell_volume 2398.150299
_symmetry_space_group_name_H-M "P M M A"
_symmetry_group_IT_number 51
_symmetry_cell_setting 'orthorhombic'
loop_
_space_group_symop_operation_xyz
x,y,z
1/2-x,-y,z
1/2+x,-y,-z
-x,y,-z
-x,-y,-z
1/2+x,y,-z
1/2-x,y,z
x,-y,z
loop_
_atom_site_type_symbol
_atom_site_label
_atom_site_fract_x
_atom_site_fract_y
_atom_site_fract_z
Si Si1 0.957321 0.846737 0.298653
Si Si2 0.040018 0.154142 0.799050
Si Si3 0.456914 0.845958 0.451362
Si Si4 0.454847 0.652648 0.874086
Si Si5 0.544512 0.346859 0.623841
Si Si6 0.454712 0.152773 0.048999
O O1 0.750000 0.848807 0.298459
O O2 0.013183 0.817364 0.249862
O O3 0.013507 0.736833 0.332920
O O4 0.015818 0.000000 0.309926
O O5 0.250000 0.155627 0.799445
O O6 0.976792 0.260823 0.833925
O O7 0.988185 0.000000 0.809946
O O8 0.500000 0.806901 0.500000
O O9 0.250000 0.850319 0.447862
O O10 0.523531 0.741638 0.415982
O O11 0.521102 0.000000 0.444178
O O12 0.250000 0.642554 0.867816
O O13 0.524416 0.500000 0.876711
O O14 0.481788 0.738391 0.917069
O O15 0.750000 0.356116 0.618292
O O16 0.475873 0.500000 0.625494
O O17 0.250000 0.148127 0.052406
O O18 0.522687 0.000000 0.057831
O O19 0.500000 0.186510 0.000000
#
# Coordination Sequence:
#
# PCOD9403450 Si02
#       6
#     8   8   8   8   8   8
#     4   9  18  33  54  79 103 130 170 216 256 297
#     4   8  15  30  52  76 102 133 170 212 254 296
#     4   9  18  33  52  72  95 126 165 208 252 298
#     4  10  20  33  52  79 108 138 170 205 251 305
#     4  10  21  35  50  72 104 139 171 204 248 303
#     4  10  21  37  57  79 102 132 172 215 257 301
#
# _framework density 20.015426000000001
#
# number of rings (size 3 to 8) (size 9 to 14) (size 15 to 20)
#    0.000    2.667    0.000    2.500    0.000    5.333 
#    0.000    4.167    0.000    1.000    0.000    0.000 
#    0.000    0.000    0.000    0.000    0.000    0.000 
#
# Total GULP energy -267895.350285 kJ/mol
# GULP energy per Si atom -5581.153131 kJ/mol
# Density = 1.996987 g / cm^3
# Si number density = 20.015426 Si / 1000 Ang^3
#
#
#
# Elastic Constant Matrix: (Units=GPa)
#
#
# Indices 1 2 3 4 5 6 
#
# 1 26.1338 8.2841 -1.4115 0.0000 0.0000 0.0000
# 2 8.2841 195.0134 149.5816 0.0000 0.0000 0.0000
# 3 -1.4115 149.5816 157.7964 0.0000 0.0000 0.0000
# 4 0.0000 0.0000 0.0000 -10.0312 0.0000 0.0000
# 5 0.0000 0.0000 0.0000 0.0000 21.1985 0.0000
# 6 0.0000 0.0000 0.0000 0.0000 0.0000 16.8358
#
#
#
# Elastic Compliance Matrix: (Units=1/GPa)
#
#
# Indices 1 2 3 4 5 6 
#
# 1 0.041015 -0.007416 0.007396 0.000000 0.000000 0.000000
# 2 -0.007416 0.020131 -0.019149 0.000000 0.000000 0.000000
# 3 0.007396 -0.019149 0.024556 0.000000 0.000000 0.000000
# 4 0.000000 0.000000 0.000000 -0.099689 0.000000 0.000000
# 5 0.000000 0.000000 0.000000 0.000000 0.047173 0.000000
# 6 0.000000 0.000000 0.000000 0.000000 0.000000 0.059397
#
#
# Mechanical properties :
#
#
# Convention : Reuss Voigt Hill
#
# Bulk Modulus (GPa) = 21.11280 76.87243 48.99261
# Shear Modulus (GPa) = 34.08114 20.43324 27.25719
#
# Velocity S-wave (km/s) = 4.13091 3.19858 3.69427
# Velocity P-wave (km/s) = 5.77267 7.22019 6.53662
#
# Compressibility (1/GPa) = 0.04736464
#
# Stress axis : x y z
#
# Youngs Moduli (GPa) = 24.38146 49.67457 40.72344
#
# Poissons Ratio (x) = 0.36836 -0.30120
# Poissons Ratio (y) = 0.18080 0.77983
# Poissons Ratio (z) = -0.18033 0.95124
#
# Static dielectric constant tensor:
#      x y z
#    x 1.743950 0.000000 0.000000 
#    y 0.000000 1.708630 0.000000 
#    z 0.000000 0.000000 1.679670 
# 
# From -- ./inp_files/36965.got.cif
#   From: 2010.05.17/outbox.cif.g08.bks.cpg/sg51_19_cif.got.tgz:36965.got - 2010.06.03 11:52:47.
