data_PCOD9403875
_publ_section_title
;
Structure prediction by ZEFSAII (Michael W. Deem and Ramdas Pophale) SiO2 
 PCOD9403875
Probable space group: P M M A
;
_chemical_formula_sum "Si O2"
_cell_formula_units_Z 56
_cell_length_a 23.471710
_cell_length_b 9.024902
_cell_length_c 15.792923
_cell_angle_alpha 90.000000
_cell_angle_beta 90.000000
_cell_angle_gamma 90.000000
_cell_volume 3345.413024
_symmetry_space_group_name_H-M "P M M A"
_symmetry_group_IT_number 51
_symmetry_cell_setting 'orthorhombic'
loop_
_space_group_symop_operation_xyz
x,y,z
1/2-x,-y,z
1/2+x,-y,-z
-x,y,-z
-x,-y,-z
1/2+x,y,-z
1/2-x,y,z
x,-y,z
loop_
_atom_site_type_symbol
_atom_site_label
_atom_site_fract_x
_atom_site_fract_y
_atom_site_fract_z
Si Si1 0.250000 0.675113 0.075808
Si Si2 0.926715 0.322307 0.666659
Si Si3 0.750000 0.822672 0.108194
Si Si4 0.868233 0.321873 0.152550
Si Si5 0.430964 0.829417 0.507241
Si Si6 0.432151 0.826546 0.004139
Si Si7 0.440579 0.322249 0.681244
Si Si8 0.128759 0.323203 0.158705
O O1 0.250000 0.500000 0.051747
O O2 0.306403 0.703224 0.130546
O O3 0.250000 0.769567 0.990011
O O4 0.925693 0.500000 0.656221
O O5 0.909820 0.248779 0.578049
O O6 0.886886 0.281924 0.745503
O O7 0.992427 0.280427 0.688724
O O8 0.693332 0.754657 0.149979
O O9 0.750000 0.000000 0.112570
O O10 0.862200 0.500000 0.149227
O O11 0.902043 0.265670 0.070070
O O12 0.904628 0.281438 0.235907
O O13 0.500000 0.823263 0.500000
O O14 0.416979 0.749078 0.595125
O O15 0.413533 0.000000 0.509855
O O16 0.417348 0.000000 0.994657
O O17 0.500000 0.810993 0.000000
O O18 0.410193 0.764964 0.093190
O O19 0.438764 0.500000 0.673043
O O20 0.117597 0.500000 0.149981
#
# Coordination Sequence:
#
# PCOD9403875 Si02
#       8
#     4   8   4   8   8   8   8   8
#     4  10  20  36  56  77 100 135 182 225 260 304
#     4   9  17  31  51  77 106 137 173 215 264 315
#     4  12  24  38  56  77 104 139 180 223 272 318
#     4  11  22  37  57  78 103 138 182 225 264 312
#     4   9  17  29  48  75 106 138 169 208 261 319
#     4  11  23  35  49  75 110 142 171 212 268 322
#     4   9  18  32  52  77 104 135 173 216 262 314
#     4  10  20  34  54  76 102 137 179 222 261 309
#
# _framework density 16.739338
#
# number of rings (size 3 to 8) (size 9 to 14) (size 15 to 20)
#    0.000    2.000    1.429    2.786    0.000    5.714 
#    0.000    2.857    0.000    0.857    0.000    5.000 
#    0.000    0.000    0.000    0.000    0.000    0.000 
#
# Total GULP energy -312535.592895 kJ/mol
# GULP energy per Si atom -5580.992730 kJ/mol
# Density = 1.670124 g / cm^3
# Si number density = 16.739338 Si / 1000 Ang^3
#
#
#
# Elastic Constant Matrix: (Units=GPa)
#
#
# Indices 1 2 3 4 5 6 
#
# 1 30.4549 17.3737 -4.5577 0.0000 0.0000 0.0000
# 2 17.3737 40.3978 20.4563 0.0000 0.0000 0.0000
# 3 -4.5577 20.4563 69.0778 0.0000 0.0000 0.0000
# 4 0.0000 0.0000 0.0000 -15.4911 0.0000 0.0000
# 5 0.0000 0.0000 0.0000 0.0000 7.3717 0.0000
# 6 0.0000 0.0000 0.0000 0.0000 0.0000 17.8465
#
#
#
# Elastic Compliance Matrix: (Units=1/GPa)
#
#
# Indices 1 2 3 4 5 6 
#
# 1 0.050137 -0.027336 0.011403 0.000000 0.000000 0.000000
# 2 -0.027336 0.044025 -0.014841 0.000000 0.000000 0.000000
# 3 0.011403 -0.014841 0.019624 0.000000 0.000000 0.000000
# 4 0.000000 0.000000 0.000000 -0.064553 0.000000 0.000000
# 5 0.000000 0.000000 0.000000 0.000000 0.135653 0.000000
# 6 0.000000 0.000000 0.000000 0.000000 0.000000 0.056033
#
#
# Mechanical properties :
#
#
# Convention : Reuss Voigt Hill
#
# Bulk Modulus (GPa) = 19.14334 22.94165 21.04250
# Shear Modulus (GPa) = 15.63085 9.05596 12.34341
#
# Velocity S-wave (km/s) = 3.05910 2.32846 2.71844
# Velocity P-wave (km/s) = 4.89269 4.57864 4.73827
#
# Compressibility (1/GPa) = 0.05223748
#
# Stress axis : x y z
#
# Youngs Moduli (GPa) = 19.94550 22.71422 50.95869
#
# Poissons Ratio (x) = 0.62092 -0.58109
# Poissons Ratio (y) = 0.54524 0.75628
# Poissons Ratio (z) = -0.22744 0.33710
#
# Static dielectric constant tensor:
#      x y z
#    x 1.557760 0.000000 0.000000 
#    y 0.000000 1.562170 0.000000 
#    z 0.000000 0.000000 1.542080 
# 
# From -- ./inp_files/25901.got.cif
#   From: 2010.05.17/outbox.cif.g08.bks.cpg/sg51_13_cif.got.tgz:25901.got - 2010.06.03 11:52:47.
