data_PCOD9403487
_publ_section_title
;
Structure prediction by ZEFSAII (Michael W. Deem and Ramdas Pophale) SiO2 
 PCOD9403487
Probable space group: P M M A
;
_chemical_formula_sum "Si O2"
_cell_formula_units_Z 64
_cell_length_a 14.796798
_cell_length_b 8.818930
_cell_length_c 25.330009
_cell_angle_alpha 90.000000
_cell_angle_beta 90.000000
_cell_angle_gamma 90.000000
_cell_volume 3305.361655
_symmetry_space_group_name_H-M "P M M A"
_symmetry_group_IT_number 51
_symmetry_cell_setting 'orthorhombic'
loop_
_space_group_symop_operation_xyz
x,y,z
1/2-x,-y,z
1/2+x,-y,-z
-x,y,-z
-x,-y,-z
1/2+x,y,-z
1/2-x,y,z
x,-y,z
loop_
_atom_site_type_symbol
_atom_site_label
_atom_site_fract_x
_atom_site_fract_y
_atom_site_fract_z
Si Si1 0.457282 0.819091 0.374548
Si Si2 0.648290 0.817389 0.411405
Si Si3 0.893884 0.325542 0.013885
Si Si4 0.648507 0.824248 0.907270
Si Si5 0.354309 0.683257 0.275223
Si Si6 0.643772 0.321665 0.527610
Si Si7 0.146206 0.180285 0.872402
Si Si8 0.477878 0.679969 0.176852
O O1 0.563556 0.775687 0.374755
O O2 0.399766 0.741635 0.328666
O O3 0.416248 0.767382 0.430499
O O4 0.450433 0.000000 0.369458
O O5 0.750000 0.776272 0.393242
O O6 0.633715 0.742297 0.468625
O O7 0.645886 0.000000 0.417938
O O8 0.863060 0.500000 0.010955
O O9 0.874957 0.259969 0.071626
O O10 0.850793 0.224442 0.968124
O O11 0.000000 0.323109 0.000000
O O12 0.750000 0.806401 0.885839
O O13 0.579977 0.720816 0.875056
O O14 0.621423 0.000000 0.902559
O O15 0.250000 0.734351 0.270153
O O16 0.353278 0.500000 0.275668
O O17 0.417338 0.731666 0.226318
O O18 0.750000 0.304988 0.541861
O O19 0.621477 0.500000 0.528781
O O20 0.250000 0.212909 0.857940
O O21 0.073834 0.239536 0.830213
O O22 0.136076 0.000000 0.879044
O O23 0.490942 0.500000 0.179927
#
# Coordination Sequence:
#
# PCOD9403487 Si02
#       8
#     8   8   8   8   8   8   8   8
#     4  11  22  35  56  85 114 149 193 238 286 340
#     4   9  19  36  55  78 113 154 193 234 281 333
#     4  11  22  36  57  87 119 155 194 234 282 336
#     4  11  23  37  57  86 118 152 188 230 284 343
#     4  10  23  43  64  86 114 147 184 231 287 343
#     4  10  20  33  52  81 117 155 193 234 283 340
#     4  11  24  41  62  88 119 155 193 236 287 342
#     4  11  23  41  64  87 112 147 191 239 290 341
#
# _framework density 19.362480999999999
#
# number of rings (size 3 to 8) (size 9 to 14) (size 15 to 20)
#    0.000    1.500    1.250    3.750    0.000   10.500 
#    0.000    0.625    0.000    2.250    0.000    0.000 
#    0.000    0.000    0.000    0.000    0.000    0.000 
#
# Total GULP energy -357650.019288 kJ/mol
# GULP energy per Si atom -5588.281551 kJ/mol
# Density = 1.931841 g / cm^3
# Si number density = 19.362481 Si / 1000 Ang^3
#
#
#
# Elastic Constant Matrix: (Units=GPa)
#
#
# Indices 1 2 3 4 5 6 
#
# 1 142.5575 32.8599 52.8082 0.0000 0.0000 0.0000
# 2 32.8599 31.3376 8.1109 0.0000 0.0000 0.0000
# 3 52.8082 8.1109 50.5513 0.0000 0.0000 0.0000
# 4 0.0000 0.0000 0.0000 45.3460 0.0000 0.0000
# 5 0.0000 0.0000 0.0000 0.0000 27.7598 0.0000
# 6 0.0000 0.0000 0.0000 0.0000 0.0000 24.4580
#
#
#
# Elastic Compliance Matrix: (Units=1/GPa)
#
#
# Indices 1 2 3 4 5 6 
#
# 1 0.014795 -0.012012 -0.013528 0.000000 0.000000 0.000000
# 2 -0.012012 0.043046 0.005642 0.000000 0.000000 0.000000
# 3 -0.013528 0.005642 0.033009 0.000000 0.000000 0.000000
# 4 0.000000 0.000000 0.000000 0.022053 0.000000 0.000000
# 5 0.000000 0.000000 0.000000 0.000000 0.036023 0.000000
# 6 0.000000 0.000000 0.000000 0.000000 0.000000 0.040886
#
#
# Mechanical properties :
#
#
# Convention : Reuss Voigt Hill
#
# Bulk Modulus (GPa) = 19.58761 45.77826 32.68294
# Shear Modulus (GPa) = 20.27362 28.22391 24.24877
#
# Velocity S-wave (km/s) = 3.23934 3.82207 3.54271
# Velocity P-wave (km/s) = 4.91216 6.57052 5.80091
#
# Compressibility (1/GPa) = 0.05105267
#
# Stress axis : x y z
#
# Youngs Moduli (GPa) = 67.59157 23.23095 30.29521
#
# Poissons Ratio (x) = 0.27905 0.40983
# Poissons Ratio (y) = 0.81192 -0.17092
# Poissons Ratio (z) = 0.91437 -0.13106
#
# Static dielectric constant tensor:
#      x y z
#    x 1.721660 0.000000 0.000000 
#    y 0.000000 1.649740 0.000000 
#    z 0.000000 0.000000 1.639520 
# 
# From -- ./inp_files/35840.got.cif
#   From: 2010.05.17/outbox.cif.g08.bks.cpg/sg51_18_cif.got.tgz:35840.got - 2010.06.03 11:52:47.
