data_PCOD9403725
_publ_section_title
;
Structure prediction by ZEFSAII (Michael W. Deem and Ramdas Pophale) SiO2 
 PCOD9403725
Probable space group: P M M A
;
_chemical_formula_sum "Si O2"
_cell_formula_units_Z 56
_cell_length_a 8.846369
_cell_length_b 14.809922
_cell_length_c 25.001049
_cell_angle_alpha 90.000000
_cell_angle_beta 90.000000
_cell_angle_gamma 90.000000
_cell_volume 3275.488306
_symmetry_space_group_name_H-M "P M M A"
_symmetry_group_IT_number 51
_symmetry_cell_setting 'orthorhombic'
loop_
_space_group_symop_operation_xyz
x,y,z
1/2-x,-y,z
1/2+x,-y,-z
-x,y,-z
-x,-y,-z
1/2+x,y,-z
1/2-x,y,z
x,-y,z
loop_
_atom_site_type_symbol
_atom_site_label
_atom_site_fract_x
_atom_site_fract_y
_atom_site_fract_z
Si Si1 0.075950 0.146777 0.056248
Si Si2 0.570329 0.103345 0.171367
Si Si3 0.422481 0.609382 0.554582
Si Si4 0.927140 0.261992 0.761552
Si Si5 0.075067 0.634682 0.055120
Si Si6 0.932407 0.395272 0.668294
Si Si7 0.577359 0.398394 0.163991
O O1 0.250000 0.116915 0.057034
O O2 0.073523 0.255996 0.056277
O O3 0.996741 0.118646 0.111690
O O4 0.000000 0.117405 0.000000
O O5 0.750000 0.116204 0.167746
O O6 0.505774 0.172541 0.215441
O O7 0.537877 0.000000 0.186696
O O8 0.500000 0.642273 0.500000
O O9 0.250000 0.641092 0.558406
O O10 0.418858 0.500000 0.551105
O O11 0.512803 0.628715 0.608780
O O12 0.750000 0.243835 0.754558
O O13 0.985037 0.317788 0.709646
O O14 0.957143 0.334830 0.807883
O O15 0.250000 0.606604 0.060627
O O16 0.969276 0.601571 0.102558
O O17 0.000000 0.605968 0.000000
O O18 0.750000 0.396478 0.670354
O O19 0.982132 0.500000 0.679946
O O20 0.750000 0.365352 0.170966
O O21 0.569005 0.500000 0.185320
#
# Coordination Sequence:
#
# PCOD9403725 Si02
#       7
#     8   8   8   8   8   8   8
#     4  10  20  35  57  81 102 127 157 197 252 313
#     4  11  24  40  58  79 103 132 165 206 258 315
#     4   9  16  26  43  69 103 143 184 222 258 294
#     4  11  22  37  56  77 102 135 171 214 260 301
#     4  10  20  34  53  74  96 125 159 199 247 298
#     4   9  18  32  50  74 106 143 181 217 254 298
#     4  11  23  36  52  74 100 132 167 204 247 297
#
# _framework density 17.096688
#
# number of rings (size 3 to 8) (size 9 to 14) (size 15 to 20)
#    0.000    1.857    1.429    3.000    0.000    7.429 
#    0.000    1.429    0.000    0.000    0.000    0.000 
#    0.000    0.571    0.000    1.857    0.000    2.714 
#
# Total GULP energy -312406.335662 kJ/mol
# GULP energy per Si atom -5578.684565 kJ/mol
# Density = 1.705777 g / cm^3
# Si number density = 17.096688 Si / 1000 Ang^3
#
#
#
# Elastic Constant Matrix: (Units=GPa)
#
#
# Indices 1 2 3 4 5 6 
#
# 1 51.8679 32.7049 26.5432 0.0000 0.0000 0.0000
# 2 32.7049 88.2582 47.0564 0.0000 0.0000 0.0000
# 3 26.5432 47.0564 122.5876 0.0000 0.0000 0.0000
# 4 0.0000 0.0000 0.0000 1.1248 0.0000 0.0000
# 5 0.0000 0.0000 0.0000 0.0000 26.9214 0.0000
# 6 0.0000 0.0000 0.0000 0.0000 0.0000 -56.2913
#
#
#
# Elastic Compliance Matrix: (Units=1/GPa)
#
#
# Indices 1 2 3 4 5 6 
#
# 1 0.025708 -0.008246 -0.002401 0.000000 0.000000 0.000000
# 2 -0.008246 0.016891 -0.004698 0.000000 0.000000 0.000000
# 3 -0.002401 -0.004698 0.010481 0.000000 0.000000 0.000000
# 4 0.000000 0.000000 0.000000 0.889079 0.000000 0.000000
# 5 0.000000 0.000000 0.000000 0.000000 0.037145 0.000000
# 6 0.000000 0.000000 0.000000 0.000000 0.000000 -0.017765
#
#
# Mechanical properties :
#
#
# Convention : Reuss Voigt Hill
#
# Bulk Modulus (GPa) = 44.66507 52.81362 48.73935
# Shear Modulus (GPa) = 5.00153 4.77826 4.88990
#
# Velocity S-wave (km/s) = 1.71225 1.67359 1.69303
# Velocity P-wave (km/s) = 5.48550 5.89006 5.69138
#
# Compressibility (1/GPa) = 0.02238886
#
# Stress axis : x y z
#
# Youngs Moduli (GPa) = 38.89836 59.20293 95.41262
#
# Poissons Ratio (x) = 0.48820 0.22909
# Poissons Ratio (y) = 0.32076 0.44828
# Poissons Ratio (z) = 0.09340 0.27815
#
# Static dielectric constant tensor:
#      x y z
#    x 1.585870 0.000000 0.000000 
#    y 0.000000 1.600520 0.000000 
#    z 0.000000 0.000000 1.584090 
# 
# From -- ./inp_files/31981.got.cif
#   From: 2010.05.17/outbox.cif.g08.bks.cpg/sg51_16_cif.got.tgz:31981.got - 2010.06.03 11:52:47.
