data_PCOD9403510
_publ_section_title
;
Structure prediction by ZEFSAII (Michael W. Deem and Ramdas Pophale) SiO2 
 PCOD9403510
Probable space group: P M M A
;
_chemical_formula_sum "Si O2"
_cell_formula_units_Z 56
_cell_length_a 16.102315
_cell_length_b 8.139221
_cell_length_c 21.744107
_cell_angle_alpha 90.000000
_cell_angle_beta 90.000000
_cell_angle_gamma 90.000000
_cell_volume 2849.789195
_symmetry_space_group_name_H-M "P M M A"
_symmetry_group_IT_number 51
_symmetry_cell_setting 'orthorhombic'
loop_
_space_group_symop_operation_xyz
x,y,z
1/2-x,-y,z
1/2+x,-y,-z
-x,y,-z
-x,-y,-z
1/2+x,y,-z
1/2-x,y,z
x,-y,z
loop_
_atom_site_type_symbol
_atom_site_label
_atom_site_fract_x
_atom_site_fract_y
_atom_site_fract_z
Si Si1 0.595434 0.692053 0.813163
Si Si2 0.657406 0.301670 0.370421
Si Si3 0.750000 0.299775 0.733964
Si Si4 0.995388 0.305248 0.931283
Si Si5 0.658305 0.196991 0.136284
Si Si6 0.937038 0.191935 0.255151
Si Si7 0.750000 0.194503 0.591316
Si Si8 0.597190 0.698130 0.504838
O O1 0.613934 0.500000 0.823459
O O2 0.670840 0.760400 0.773248
O O3 0.569265 0.763211 0.880091
O O4 0.514293 0.707799 0.770685
O O5 0.750000 0.246037 0.353244
O O6 0.655302 0.500000 0.367836
O O7 0.590377 0.234667 0.323191
O O8 0.637950 0.252901 0.439976
O O9 0.750000 0.500000 0.733026
O O10 0.750000 0.247617 0.662847
O O11 0.977857 0.500000 0.936609
O O12 0.085611 0.281015 0.901558
O O13 0.000000 0.234394 0.000000
O O14 0.750000 0.254425 0.120112
O O15 0.638464 0.225297 0.208097
O O16 0.653477 0.000000 0.126367
O O17 0.958226 0.000000 0.249986
O O18 0.835740 0.251462 0.557178
O O19 0.750000 0.000000 0.588489
O O20 0.500000 0.754826 0.500000
O O21 0.593394 0.500000 0.508377
#
# Coordination Sequence:
#
# PCOD9403510 Si02
#       8
#     8   8   4   8   8   8   4   8
#     4   9  19  37  58  81 109 146 193 233 276 336
#     4  10  20  35  55  81 111 142 183 230 276 334
#     4  10  22  40  62  80 106 155 204 241 278 337
#     4   9  18  34  55  83 115 143 177 227 283 331
#     4   9  18  33  51  74 106 144 184 217 256 323
#     4  10  20  33  53  80 112 145 177 222 280 334
#     4  12  26  42  62  90 124 153 190 251 312 359
#     4  10  22  42  65  85 111 152 199 241 287 355
#
# _framework density 19.650576000000001
#
# number of rings (size 3 to 8) (size 9 to 14) (size 15 to 20)
#    0.000    2.286    0.714    1.500    2.000    3.429 
#    1.286    0.000    0.000    0.000    0.000    0.000 
#    0.000    0.000    0.000    0.000    0.000    0.000 
#
# Total GULP energy -312127.436519 kJ/mol
# GULP energy per Si atom -5573.704224 kJ/mol
# Density = 1.960585 g / cm^3
# Si number density = 19.650576 Si / 1000 Ang^3
#
#
#
# Elastic Constant Matrix: (Units=GPa)
#
#
# Indices 1 2 3 4 5 6 
#
# 1 109.1610 8.0068 64.4188 0.0000 0.0000 0.0000
# 2 8.0068 13.0171 13.1444 0.0000 0.0000 0.0000
# 3 64.4188 13.1444 162.7644 0.0000 0.0000 0.0000
# 4 0.0000 0.0000 0.0000 -11.4666 0.0000 0.0000
# 5 0.0000 0.0000 0.0000 0.0000 18.5771 0.0000
# 6 0.0000 0.0000 0.0000 0.0000 0.0000 -22.1776
#
#
#
# Elastic Compliance Matrix: (Units=1/GPa)
#
#
# Indices 1 2 3 4 5 6 
#
# 1 0.012047 -0.002826 -0.004540 0.000000 0.000000 0.000000
# 2 -0.002826 0.084306 -0.005690 0.000000 0.000000 0.000000
# 3 -0.004540 -0.005690 0.008400 0.000000 0.000000 0.000000
# 4 0.000000 0.000000 0.000000 -0.087210 0.000000 0.000000
# 5 0.000000 0.000000 0.000000 0.000000 0.053830 0.000000
# 6 0.000000 0.000000 0.000000 0.000000 0.000000 -0.045091
#
#
# Mechanical properties :
#
#
# Convention : Reuss Voigt Hill
#
# Bulk Modulus (GPa) = 12.71590 50.67582 31.69586
# Shear Modulus (GPa) = 63.60779 10.27811 36.94295
#
# Velocity S-wave (km/s) = 5.69559 2.28950 4.34059
# Velocity P-wave (km/s) = 7.05252 5.73005 6.42540
#
# Compressibility (1/GPa) = 0.07864169
#
# Stress axis : x y z
#
# Youngs Moduli (GPa) = 83.00749 11.86161 119.04632
#
# Poissons Ratio (x) = 0.03352 0.54044
# Poissons Ratio (y) = 0.23458 0.67735
# Poissons Ratio (z) = 0.37684 0.06749
#
# Static dielectric constant tensor:
#      x y z
#    x 1.695920 0.000000 0.000000 
#    y 0.000000 1.695250 0.000000 
#    z 0.000000 0.000000 1.694140 
# 
# From -- ./inp_files/33533.got.cif
#   From: 2010.05.17/outbox.cif.g08.bks.cpg/sg51_17_cif.got.tgz:33533.got - 2010.06.03 11:52:47.
