data_PCOD9403405
_publ_section_title
;
Structure prediction by ZEFSAII (Michael W. Deem and Ramdas Pophale) SiO2 
 PCOD9403405
Probable space group: P M M A
;
_chemical_formula_sum "Si O2"
_cell_formula_units_Z 56
_cell_length_a 15.806540
_cell_length_b 18.261993
_cell_length_c 9.092171
_cell_angle_alpha 90.000000
_cell_angle_beta 90.000000
_cell_angle_gamma 90.000000
_cell_volume 2624.536287
_symmetry_space_group_name_H-M "P M M A"
_symmetry_group_IT_number 51
_symmetry_cell_setting 'orthorhombic'
loop_
_space_group_symop_operation_xyz
x,y,z
1/2-x,-y,z
1/2+x,-y,-z
-x,y,-z
-x,-y,-z
1/2+x,y,-z
1/2-x,y,z
x,-y,z
loop_
_atom_site_type_symbol
_atom_site_label
_atom_site_fract_x
_atom_site_fract_y
_atom_site_fract_z
Si Si1 0.350068 0.916451 0.636422
Si Si2 0.843314 0.255507 0.856762
Si Si3 0.151383 0.695467 0.723175
Si Si4 0.349627 0.581709 0.129490
Si Si5 0.585761 0.832129 0.094975
Si Si6 0.096706 0.221396 0.455301
Si Si7 0.486816 0.416137 0.664704
O O1 0.250000 0.908203 0.667531
O O2 0.397993 0.896321 0.788848
O O3 0.372101 0.858760 0.508126
O O4 0.367629 0.000000 0.593855
O O5 0.750000 0.260446 0.793797
O O6 0.860145 0.334968 0.933936
O O7 0.900108 0.239280 0.716405
O O8 0.847878 0.187686 0.967349
O O9 0.250000 0.687574 0.768464
O O10 0.101830 0.761231 0.803060
O O11 0.149509 0.720825 0.552286
O O12 0.090141 0.626434 0.739351
O O13 0.250000 0.579786 0.175152
O O14 0.362841 0.500000 0.056306
O O15 0.423160 0.584889 0.252349
O O16 0.500000 0.835700 0.000000
O O17 0.000000 0.224791 0.500000
O O18 0.500000 0.387347 0.500000
O O19 0.460201 0.500000 0.652587
#
# Coordination Sequence:
#
# PCOD9403405 Si02
#       7
#     8   8   8   8   8   8   8
#     4  10  22  42  63  84 118 159 191 227 294 381
#     4  11  20  33  56  84 112 144 193 248 290 339
#     4  11  22  38  58  82 119 163 203 244 303 374
#     4   9  18  32  50  75 110 151 192 240 300 352
#     4  11  22  38  60  86 115 149 194 246 297 355
#     4  11  21  36  59  86 114 147 192 243 293 351
#     4  10  20  33  51  79 114 152 201 257 306 354
#
# _framework density 21.337102999999999
#
# number of rings (size 3 to 8) (size 9 to 14) (size 15 to 20)
#    0.000    1.571    0.000    8.143    0.000    2.571 
#    0.000    2.857    0.000    6.857    0.000    0.000 
#    0.000    0.000    0.000    0.000    0.000    0.000 
#
# Total GULP energy -312002.729614 kJ/mol
# GULP energy per Si atom -5571.477315 kJ/mol
# Density = 2.128854 g / cm^3
# Si number density = 21.337103 Si / 1000 Ang^3
#
#
#
# Elastic Constant Matrix: (Units=GPa)
#
#
# Indices 1 2 3 4 5 6 
#
# 1 101.5733 36.0528 11.7283 0.0000 0.0000 0.0000
# 2 36.0528 112.7335 15.5841 0.0000 0.0000 0.0000
# 3 11.7283 15.5841 58.0520 0.0000 0.0000 0.0000
# 4 0.0000 0.0000 0.0000 24.6926 0.0000 0.0000
# 5 0.0000 0.0000 0.0000 0.0000 12.2334 0.0000
# 6 0.0000 0.0000 0.0000 0.0000 0.0000 23.3646
#
#
#
# Elastic Compliance Matrix: (Units=1/GPa)
#
#
# Indices 1 2 3 4 5 6 
#
# 1 0.011207 -0.003397 -0.001352 0.000000 0.000000 0.000000
# 2 -0.003397 0.010242 -0.002063 0.000000 0.000000 0.000000
# 3 -0.001352 -0.002063 0.018053 0.000000 0.000000 0.000000
# 4 0.000000 0.000000 0.000000 0.040498 0.000000 0.000000
# 5 0.000000 0.000000 0.000000 0.000000 0.081744 0.000000
# 6 0.000000 0.000000 0.000000 0.000000 0.000000 0.042800
#
#
# Mechanical properties :
#
#
# Convention : Reuss Voigt Hill
#
# Bulk Modulus (GPa) = 38.64426 44.34327 41.49377
# Shear Modulus (GPa) = 22.04642 25.99102 24.01872
#
# Velocity S-wave (km/s) = 3.21790 3.49394 3.35875
# Velocity P-wave (km/s) = 5.65306 6.09132 5.87628
#
# Compressibility (1/GPa) = 0.02587707
#
# Stress axis : x y z
#
# Youngs Moduli (GPa) = 89.22962 97.63609 55.39253
#
# Poissons Ratio (x) = 0.33168 0.07490
# Poissons Ratio (y) = 0.30313 0.11428
# Poissons Ratio (z) = 0.12066 0.20144
#
# Static dielectric constant tensor:
#      x y z
#    x 1.787650 0.000000 0.000000 
#    y 0.000000 1.806840 0.000000 
#    z 0.000000 0.000000 1.845620 
# 
# From -- ./inp_files/8580.got.cif
#   From: 2010.05.17/outbox.cif.g08.bks.cpg/sg51_5_cif.got.tgz:8580.got - 2010.06.03 11:52:47.
