data_PCOD9403416
_publ_section_title
;
Structure prediction by ZEFSAII (Michael W. Deem and Ramdas Pophale) SiO2 
 PCOD9403416
Probable space group: P M M A
;
_chemical_formula_sum "Si O2"
_cell_formula_units_Z 48
_cell_length_a 8.640818
_cell_length_b 32.115725
_cell_length_c 9.646102
_cell_angle_alpha 90.000000
_cell_angle_beta 90.000000
_cell_angle_gamma 90.000000
_cell_volume 2676.852481
_symmetry_space_group_name_H-M "P M M A"
_symmetry_group_IT_number 51
_symmetry_cell_setting 'orthorhombic'
loop_
_space_group_symop_operation_xyz
x,y,z
1/2-x,-y,z
1/2+x,-y,-z
-x,y,-z
-x,-y,-z
1/2+x,y,-z
1/2-x,y,z
x,-y,z
loop_
_atom_site_type_symbol
_atom_site_label
_atom_site_fract_x
_atom_site_fract_y
_atom_site_fract_z
Si Si1 0.936868 0.546167 0.845027
Si Si2 0.563397 0.378542 0.653243
Si Si3 0.435583 0.954671 0.342768
Si Si4 0.435963 0.283813 0.344946
Si Si5 0.564664 0.131981 0.343467
Si Si6 0.064210 0.210670 0.844596
O O1 0.750000 0.547469 0.849190
O O2 0.981724 0.500000 0.791631
O O3 0.991951 0.584819 0.753473
O O4 0.000000 0.549911 0.000000
O O5 0.500000 0.385719 0.500000
O O6 0.750000 0.379747 0.649612
O O7 0.519403 0.331337 0.693990
O O8 0.500000 0.955511 0.500000
O O9 0.250000 0.951548 0.346921
O O10 0.504661 0.912124 0.283783
O O11 0.476560 0.000000 0.280030
O O12 0.500000 0.275749 0.500000
O O13 0.250000 0.280959 0.348585
O O14 0.502299 0.250856 0.237102
O O15 0.500000 0.137392 0.500000
O O16 0.750000 0.130578 0.352896
O O17 0.517942 0.170157 0.245553
O O18 0.250000 0.212048 0.849133
O O19 0.000000 0.208780 0.000000
#
# Coordination Sequence:
#
# PCOD9403416 Si02
#       6
#     8   8   8   8   8   8
#     4   9  18  33  51  72 101 136 173 212 253 299
#     4   9  19  34  52  77 105 133 167 208 254 303
#     4   9  16  26  44  72 103 133 166 206 250 295
#     4  10  20  36  57  79 105 136 171 212 258 310
#     4  10  20  33  52  77 103 134 170 208 253 303
#     4  11  24  39  55  77 104 136 174 215 261 310
#
# _framework density 17.931507
#
# number of rings (size 3 to 8) (size 9 to 14) (size 15 to 20)
#    0.000    2.333    0.000    3.500    0.000    7.333 
#    0.000    1.667    0.000    0.500    0.000    0.000 
#    0.000    0.000    0.000    0.000    0.000    0.000 
#
# Total GULP energy -267694.872310 kJ/mol
# GULP energy per Si atom -5576.976506 kJ/mol
# Density = 1.789069 g / cm^3
# Si number density = 17.931507 Si / 1000 Ang^3
#
#
#
# Elastic Constant Matrix: (Units=GPa)
#
#
# Indices 1 2 3 4 5 6 
#
# 1 35.5380 46.7323 29.0921 0.0000 0.0000 0.0000
# 2 46.7323 201.7591 106.0053 0.0000 0.0000 0.0000
# 3 29.0921 106.0053 89.3689 0.0000 0.0000 0.0000
# 4 0.0000 0.0000 0.0000 -8.5836 0.0000 0.0000
# 5 0.0000 0.0000 0.0000 0.0000 27.6871 0.0000
# 6 0.0000 0.0000 0.0000 0.0000 0.0000 -46.4409
#
#
#
# Elastic Compliance Matrix: (Units=1/GPa)
#
#
# Indices 1 2 3 4 5 6 
#
# 1 0.041490 -0.006672 -0.005592 0.000000 0.000000 0.000000
# 2 -0.006672 0.014227 -0.014704 0.000000 0.000000 0.000000
# 3 -0.005592 -0.014704 0.030451 0.000000 0.000000 0.000000
# 4 0.000000 0.000000 0.000000 -0.116502 0.000000 0.000000
# 5 0.000000 0.000000 0.000000 0.000000 0.036118 0.000000
# 6 0.000000 0.000000 0.000000 0.000000 0.000000 -0.021533
#
#
# Mechanical properties :
#
#
# Convention : Reuss Voigt Hill
#
# Bulk Modulus (GPa) = 31.02455 76.70280 53.86367
# Shear Modulus (GPa) = 102.18133 4.18828 53.18481
#
# Velocity S-wave (km/s) = 7.55698 1.52996 5.45201
# Velocity P-wave (km/s) = 9.66867 6.78154 8.35082
#
# Compressibility (1/GPa) = 0.03223254
#
# Stress axis : x y z
#
# Youngs Moduli (GPa) = 24.10191 70.28772 32.83962
#
# Poissons Ratio (x) = 0.46896 0.18365
# Poissons Ratio (y) = 0.16081 0.48287
# Poissons Ratio (z) = 0.13479 1.03350
#
# Static dielectric constant tensor:
#      x y z
#    x 1.604570 0.000000 0.000000 
#    y 0.000000 1.658300 0.000000 
#    z 0.000000 0.000000 1.567070 
# 
# From -- ./inp_files/6006.got.cif
#   From: 2010.05.17/outbox.cif.g08.bks.cpg/sg51_4_cif.got.tgz:6006.got - 2010.06.03 11:52:47.
