data_PCOD9403476
_publ_section_title
;
Structure prediction by ZEFSAII (Michael W. Deem and Ramdas Pophale) SiO2 
 PCOD9403476
Probable space group: P M M A
;
_chemical_formula_sum "Si O2"
_cell_formula_units_Z 64
_cell_length_a 14.219144
_cell_length_b 8.999619
_cell_length_c 26.897014
_cell_angle_alpha 90.000000
_cell_angle_beta 90.000000
_cell_angle_gamma 90.000000
_cell_volume 3441.926923
_symmetry_space_group_name_H-M "P M M A"
_symmetry_group_IT_number 51
_symmetry_cell_setting 'orthorhombic'
loop_
_space_group_symop_operation_xyz
x,y,z
1/2-x,-y,z
1/2+x,-y,-z
-x,y,-z
-x,-y,-z
1/2+x,y,-z
1/2-x,y,z
x,-y,z
loop_
_atom_site_type_symbol
_atom_site_label
_atom_site_fract_x
_atom_site_fract_y
_atom_site_fract_z
Si Si1 0.136674 0.671731 0.968053
Si Si2 0.856867 0.321151 0.629487
Si Si3 0.859849 0.679803 0.220699
Si Si4 0.641624 0.177524 0.927513
Si Si5 0.043141 0.319186 0.677280
Si Si6 0.458308 0.823150 0.873932
Si Si7 0.864718 0.169496 0.526393
Si Si8 0.863435 0.326269 0.425574
O O1 0.250000 0.676775 0.964063
O O2 0.106900 0.500000 0.964305
O O3 0.094065 0.766101 0.923360
O O4 0.113118 0.738633 0.021974
O O5 0.750000 0.269680 0.639125
O O6 0.855621 0.500000 0.627523
O O7 0.888316 0.262961 0.575408
O O8 0.934446 0.275595 0.669808
O O9 0.750000 0.722205 0.219225
O O10 0.863914 0.500000 0.218846
O O11 0.907453 0.730797 0.272282
O O12 0.914633 0.744626 0.173767
O O13 0.750000 0.214993 0.916003
O O14 0.567989 0.211984 0.884147
O O15 0.636626 0.000000 0.936971
O O16 0.047570 0.500000 0.677880
O O17 0.096286 0.272029 0.626941
O O18 0.447630 0.000000 0.869405
O O19 0.750000 0.171011 0.524499
O O20 0.896465 0.238110 0.474148
O O21 0.895484 0.000000 0.531923
O O22 0.750000 0.318068 0.423324
O O23 0.888887 0.500000 0.431617
#
# Coordination Sequence:
#
# PCOD9403476 Si02
#       8
#     8   8   8   8   8   8   8   8
#     4  10  20  33  52  81 114 145 177 215 260 307
#     4   9  17  31  51  72  95 125 161 200 242 292
#     4  10  21  38  58  78 102 132 167 211 262 310
#     4   9  19  36  55  76 107 145 180 214 254 302
#     4   9  18  33  53  74  94 122 164 209 250 295
#     4  11  22  35  54  79 106 140 180 217 256 304
#     4   9  17  29  45  68 100 132 158 191 239 292
#     4   9  16  28  48  71  94 123 160 199 240 290
#
# _framework density 18.594235999999999
#
# number of rings (size 3 to 8) (size 9 to 14) (size 15 to 20)
#    0.000    2.500    0.000    2.250    0.000    8.500 
#    0.000    5.000    0.000    2.250    0.000    0.000 
#    0.000    0.000    0.000    0.000    0.000    0.000 
#
# Total GULP energy -357218.138985 kJ/mol
# GULP energy per Si atom -5581.533422 kJ/mol
# Density = 1.855191 g / cm^3
# Si number density = 18.594236 Si / 1000 Ang^3
#
#
#
# Elastic Constant Matrix: (Units=GPa)
#
#
# Indices 1 2 3 4 5 6 
#
# 1 96.3391 31.6975 80.4994 0.0000 0.0000 0.0000
# 2 31.6975 25.3889 31.2576 0.0000 0.0000 0.0000
# 3 80.4994 31.2576 131.9755 0.0000 0.0000 0.0000
# 4 0.0000 0.0000 0.0000 -29.6815 0.0000 0.0000
# 5 0.0000 0.0000 0.0000 0.0000 35.2357 0.0000
# 6 0.0000 0.0000 0.0000 0.0000 0.0000 16.8739
#
#
#
# Elastic Compliance Matrix: (Units=1/GPa)
#
#
# Indices 1 2 3 4 5 6 
#
# 1 0.026064 -0.018305 -0.011563 0.000000 0.000000 0.000000
# 2 -0.018305 0.068456 -0.005048 0.000000 0.000000 0.000000
# 3 -0.011563 -0.005048 0.015825 0.000000 0.000000 0.000000
# 4 0.000000 0.000000 0.000000 -0.033691 0.000000 0.000000
# 5 0.000000 0.000000 0.000000 0.000000 0.028380 0.000000
# 6 0.000000 0.000000 0.000000 0.000000 0.000000 0.059263
#
#
# Mechanical properties :
#
#
# Convention : Reuss Voigt Hill
#
# Bulk Modulus (GPa) = 24.68288 60.06806 42.37547
# Shear Modulus (GPa) = 20.19102 11.83554 16.01328
#
# Velocity S-wave (km/s) = 3.29884 2.52567 2.93780
# Velocity P-wave (km/s) = 5.27381 6.39376 5.86060
#
# Compressibility (1/GPa) = 0.04051391
#
# Stress axis : x y z
#
# Youngs Moduli (GPa) = 38.36647 14.60793 63.18941
#
# Poissons Ratio (x) = 0.26741 0.73064
# Poissons Ratio (y) = 0.70232 0.31897
# Poissons Ratio (z) = 0.44362 0.07374
#
# Static dielectric constant tensor:
#      x y z
#    x 1.695610 0.000000 0.000000 
#    y 0.000000 1.627200 0.000000 
#    z 0.000000 0.000000 1.597610 
# 
# From -- ./inp_files/35686.got.cif
#   From: 2010.05.17/outbox.cif.g08.bks.cpg/sg51_18_cif.got.tgz:35686.got - 2010.06.03 11:52:47.
