data_PCOD9403648
_publ_section_title
;
Structure prediction by ZEFSAII (Michael W. Deem and Ramdas Pophale) SiO2 
 PCOD9403648
Probable space group: P M M A
;
_chemical_formula_sum "Si O2"
_cell_formula_units_Z 48
_cell_length_a 8.553748
_cell_length_b 31.972335
_cell_length_c 9.736501
_cell_angle_alpha 90.000000
_cell_angle_beta 90.000000
_cell_angle_gamma 90.000000
_cell_volume 2662.770390
_symmetry_space_group_name_H-M "P M M A"
_symmetry_group_IT_number 51
_symmetry_cell_setting 'orthorhombic'
loop_
_space_group_symop_operation_xyz
x,y,z
1/2-x,-y,z
1/2+x,-y,-z
-x,y,-z
-x,-y,-z
1/2+x,y,-z
1/2-x,y,z
x,-y,z
loop_
_atom_site_type_symbol
_atom_site_label
_atom_site_fract_x
_atom_site_fract_y
_atom_site_fract_z
Si Si1 0.937719 0.196562 0.346038
Si Si2 0.938003 0.287418 0.653767
Si Si3 0.439072 0.636253 0.155390
Si Si4 0.937257 0.951497 0.650068
Si Si5 0.061107 0.455081 0.156690
Si Si6 0.062692 0.119560 0.845909
O O1 0.750000 0.197844 0.351512
O O2 0.987548 0.160013 0.242804
O O3 0.000000 0.188514 0.500000
O O4 0.000134 0.241977 0.301660
O O5 0.750000 0.286305 0.651212
O O6 0.991028 0.325009 0.751976
O O7 0.000000 0.294371 0.500000
O O8 0.250000 0.636908 0.151484
O O9 0.488252 0.590348 0.212642
O O10 0.500000 0.640152 0.000000
O O11 0.750000 0.949326 0.648812
O O12 0.000000 0.938636 0.500000
O O13 0.002954 0.921262 0.766077
O O14 0.983915 0.000000 0.671836
O O15 0.250000 0.455197 0.155130
O O16 0.010133 0.500000 0.218687
O O17 0.000000 0.455166 0.000000
O O18 0.250000 0.118942 0.848725
O O19 0.000000 0.121319 0.000000
#
# Coordination Sequence:
#
# PCOD9403648 Si02
#       6
#     8   8   8   8   8   8
#     4  10  21  37  57  79 101 131 172 213 255 304
#     4  10  20  34  52  73  98 130 167 206 249 299
#     4   9  18  30  46  71  98 125 160 201 247 297
#     4  10  21  38  61  87 114 146 184 223 261 306
#     4   8  13  23  40  62  89 120 154 194 239 287
#     4  11  24  39  57  82 112 145 178 217 265 313
#
# _framework density 18.026340000000001
#
# number of rings (size 3 to 8) (size 9 to 14) (size 15 to 20)
#    0.000    2.333    0.000    3.500    0.000    7.333 
#    0.000    3.333    0.000    0.500    0.000    0.000 
#    0.000    0.000    0.000    0.000    0.000    0.667 
#
# Total GULP energy -267678.377280 kJ/mol
# GULP energy per Si atom -5576.632860 kJ/mol
# Density = 1.798531 g / cm^3
# Si number density = 18.026340 Si / 1000 Ang^3
#
#
#
# Elastic Constant Matrix: (Units=GPa)
#
#
# Indices 1 2 3 4 5 6 
#
# 1 31.3001 34.0252 23.0477 0.0000 0.0000 0.0000
# 2 34.0252 166.2084 98.2767 0.0000 0.0000 0.0000
# 3 23.0477 98.2767 91.2040 0.0000 0.0000 0.0000
# 4 0.0000 0.0000 0.0000 25.8112 0.0000 0.0000
# 5 0.0000 0.0000 0.0000 0.0000 25.3973 0.0000
# 6 0.0000 0.0000 0.0000 0.0000 0.0000 20.6532
#
#
#
# Elastic Compliance Matrix: (Units=1/GPa)
#
#
# Indices 1 2 3 4 5 6 
#
# 1 0.041536 -0.006329 -0.003676 0.000000 0.000000 0.000000
# 2 -0.006329 0.017545 -0.017306 0.000000 0.000000 0.000000
# 3 -0.003676 -0.017306 0.030542 0.000000 0.000000 0.000000
# 4 0.000000 0.000000 0.000000 0.038743 0.000000 0.000000
# 5 0.000000 0.000000 0.000000 0.000000 0.039374 0.000000
# 6 0.000000 0.000000 0.000000 0.000000 0.000000 0.048419
#
#
# Mechanical properties :
#
#
# Convention : Reuss Voigt Hill
#
# Bulk Modulus (GPa) = 28.57195 66.60129 47.58662
# Shear Modulus (GPa) = 17.70228 23.26322 20.48275
#
# Velocity S-wave (km/s) = 3.13712 3.59627 3.37451
# Velocity P-wave (km/s) = 5.38578 7.36689 6.45281
#
# Compressibility (1/GPa) = 0.03499936
#
# Stress axis : x y z
#
# Youngs Moduli (GPa) = 24.07547 56.99522 32.74180
#
# Poissons Ratio (x) = 0.36074 0.12036
# Poissons Ratio (y) = 0.15238 0.56665
# Poissons Ratio (z) = 0.08851 0.98639
#
# Static dielectric constant tensor:
#      x y z
#    x 1.610250 0.000000 0.000000 
#    y 0.000000 1.661740 0.000000 
#    z 0.000000 0.000000 1.577980 
# 
# From -- ./inp_files/6091.got.cif
#   From: 2010.05.17/outbox.cif.g08.bks.cpg/sg51_4_cif.got.tgz:6091.got - 2010.06.03 11:52:47.
