data_PCOD9403271
_publ_section_title
;
Structure prediction by ZEFSAII (Michael W. Deem and Ramdas Pophale) SiO2 
 PCOD9403271
Probable space group: P M M A
;
_chemical_formula_sum "Si O2"
_cell_formula_units_Z 48
_cell_length_a 14.782164
_cell_length_b 10.558681
_cell_length_c 17.240778
_cell_angle_alpha 90.000000
_cell_angle_beta 90.000000
_cell_angle_gamma 90.000000
_cell_volume 2690.943288
_symmetry_space_group_name_H-M "P M M A"
_symmetry_group_IT_number 51
_symmetry_cell_setting 'orthorhombic'
loop_
_space_group_symop_operation_xyz
x,y,z
1/2-x,-y,z
1/2+x,-y,-z
-x,y,-z
-x,-y,-z
1/2+x,y,-z
1/2-x,y,z
x,-y,z
loop_
_atom_site_type_symbol
_atom_site_label
_atom_site_fract_x
_atom_site_fract_y
_atom_site_fract_z
Si Si1 0.648664 0.785813 0.129817
Si Si2 0.485183 0.153575 0.412715
Si Si3 0.052083 0.857945 0.117733
Si Si4 0.853054 0.153181 0.719303
Si Si5 0.351155 0.148692 0.700068
Si Si6 0.644416 0.359864 0.980855
O O1 0.750000 0.841930 0.114766
O O2 0.556471 0.860190 0.112435
O O3 0.644580 0.768853 0.222182
O O4 0.642501 0.665995 0.073072
O O5 0.500000 0.200979 0.500000
O O6 0.401022 0.198200 0.359937
O O7 0.573754 0.180855 0.361934
O O8 0.477036 0.000000 0.417626
O O9 0.085629 0.822433 0.204708
O O10 0.091233 0.752220 0.060913
O O11 0.086689 0.000000 0.100557
O O12 0.750000 0.198985 0.728853
O O13 0.849594 0.000000 0.714528
O O14 0.250000 0.156793 0.667494
O O15 0.365309 0.000000 0.723753
O O16 0.750000 0.352367 0.957346
O O17 0.609884 0.500000 0.962364
#
# Coordination Sequence:
#
# PCOD9403271 Si02
#       6
#     8   8   8   8   8   8
#     4  10  20  33  51  73 102 140 178 219 266 314
#     4   9  16  26  41  63  94 132 170 207 254 314
#     4  11  21  34  54  79 106 140 182 223 264 313
#     4   9  17  29  44  65  97 133 170 214 260 307
#     4   9  16  27  43  65  96 131 168 211 256 304
#     4  10  23  41  57  77 108 142 177 220 268 318
#
# _framework density 17.837610999999999
#
# number of rings (size 3 to 8) (size 9 to 14) (size 15 to 20)
#    0.000    2.333    1.667    1.500    0.000    6.000 
#    0.000    6.667    0.000    0.000    0.000    0.000 
#    0.000    2.667    0.000    8.500    0.000    2.333 
#
# Total GULP energy -267250.989306 kJ/mol
# GULP energy per Si atom -5567.728944 kJ/mol
# Density = 1.779701 g / cm^3
# Si number density = 17.837611 Si / 1000 Ang^3
#
#
#
# Elastic Constant Matrix: (Units=GPa)
#
#
# Indices 1 2 3 4 5 6 
#
# 1 114.9744 34.1393 48.5324 0.0000 0.0000 0.0000
# 2 34.1393 53.3894 37.2114 0.0000 0.0000 0.0000
# 3 48.5324 37.2114 111.5074 0.0000 0.0000 0.0000
# 4 0.0000 0.0000 0.0000 -2.0485 0.0000 0.0000
# 5 0.0000 0.0000 0.0000 0.0000 18.0275 0.0000
# 6 0.0000 0.0000 0.0000 0.0000 0.0000 6.6067
#
#
#
# Elastic Compliance Matrix: (Units=1/GPa)
#
#
# Indices 1 2 3 4 5 6 
#
# 1 0.011629 -0.005093 -0.003362 0.000000 0.000000 0.000000
# 2 -0.005093 0.026638 -0.006673 0.000000 0.000000 0.000000
# 3 -0.003362 -0.006673 0.012658 0.000000 0.000000 0.000000
# 4 0.000000 0.000000 0.000000 -0.488170 0.000000 0.000000
# 5 0.000000 0.000000 0.000000 0.000000 0.055471 0.000000
# 6 0.000000 0.000000 0.000000 0.000000 0.000000 0.151361
#
#
# Mechanical properties :
#
#
# Convention : Reuss Voigt Hill
#
# Bulk Modulus (GPa) = 48.37986 57.73751 53.05868
# Shear Modulus (GPa) = -25.87063 15.18302 -5.34381
#
# Velocity S-wave (km/s) = -3.81247 2.92066 -1.73272
# Velocity P-wave (km/s) = 2.79310 6.61909 5.08005
#
# Compressibility (1/GPa) = 0.02066976
#
# Stress axis : x y z
#
# Youngs Moduli (GPa) = 85.99288 37.54088 79.00161
#
# Poissons Ratio (x) = 0.19119 0.26559
# Poissons Ratio (y) = 0.43795 0.52715
# Poissons Ratio (z) = 0.28909 0.25050
#
# Static dielectric constant tensor:
#      x y z
#    x 1.657830 0.000000 0.000000 
#    y 0.000000 1.587390 0.000000 
#    z 0.000000 0.000000 1.621460 
# 
# From -- ./inp_files/29730.got.cif
#   From: 2010.05.17/outbox.cif.g08.bks.cpg/sg51_15_cif.got.tgz:29730.got - 2010.06.03 11:52:47.
