data_PCOD9403325
_publ_section_title
;
Structure prediction by ZEFSAII (Michael W. Deem and Ramdas Pophale) SiO2 
 PCOD9403325
Probable space group: P M M A
;
_chemical_formula_sum "Si O2"
_cell_formula_units_Z 64
_cell_length_a 9.497320
_cell_length_b 16.821443
_cell_length_c 21.463525
_cell_angle_alpha 90.000000
_cell_angle_beta 90.000000
_cell_angle_gamma 90.000000
_cell_volume 3428.983285
_symmetry_space_group_name_H-M "P M M A"
_symmetry_group_IT_number 51
_symmetry_cell_setting 'orthorhombic'
loop_
_space_group_symop_operation_xyz
x,y,z
1/2-x,-y,z
1/2+x,-y,-z
-x,y,-z
-x,-y,-z
1/2+x,y,-z
1/2-x,y,z
x,-y,z
loop_
_atom_site_type_symbol
_atom_site_label
_atom_site_fract_x
_atom_site_fract_y
_atom_site_fract_z
Si Si1 0.915763 0.595313 0.561073
Si Si2 0.411809 0.095761 0.816694
Si Si3 0.088378 0.667613 0.308696
Si Si4 0.913804 0.097123 0.938289
Si Si5 0.582326 0.594784 0.196183
Si Si6 0.587219 0.402908 0.058955
Si Si7 0.587117 0.142697 0.695322
Si Si8 0.089959 0.095497 0.441652
O O1 0.750000 0.612399 0.552995
O O2 0.932040 0.500000 0.567814
O O3 0.964540 0.636432 0.624639
O O4 0.000000 0.620858 0.500000
O O5 0.250000 0.125278 0.818225
O O6 0.503269 0.123512 0.876166
O O7 0.490887 0.116579 0.752704
O O8 0.405990 0.000000 0.820808
O O9 0.250000 0.638794 0.302177
O O10 0.089347 0.762350 0.307487
O O11 0.997147 0.636251 0.251934
O O12 0.750000 0.122390 0.939148
O O13 0.912690 0.000000 0.937916
O O14 0.000000 0.121396 0.000000
O O15 0.750000 0.608300 0.199734
O O16 0.559790 0.500000 0.200595
O O17 0.534506 0.621821 0.127244
O O18 0.750000 0.379969 0.052808
O O19 0.583523 0.500000 0.058965
O O20 0.500000 0.374316 0.000000
O O21 0.750000 0.114158 0.703563
O O22 0.535218 0.113730 0.627610
O O23 0.250000 0.126892 0.444701
O O24 0.000000 0.125922 0.500000
O O25 0.095810 0.000000 0.447119
#
# Coordination Sequence:
#
# PCOD9403325 Si02
#       8
#     8   8   8   8   8   8   8   8
#     4   9  18  33  52  74 100 129 163 204 248 295
#     4  10  20  33  51  76 103 132 170 214 257 303
#     4  10  21  35  51  73 101 133 170 210 248 292
#     4   9  16  27  46  73 104 135 167 207 255 304
#     4   9  18  32  50  73 101 132 166 205 250 300
#     4   8  14  25  42  67  97 125 156 197 243 290
#     4  10  21  36  52  72 101 136 171 207 251 302
#     4   9  18  33  53  75  99 128 162 201 246 297
#
# _framework density 18.664425000000001
#
# number of rings (size 3 to 8) (size 9 to 14) (size 15 to 20)
#    0.000    2.750    0.000    2.250    0.000    6.000 
#    0.000    3.750    0.000    0.750    0.000    1.750 
#    0.000    0.000    0.000    0.000    0.000    0.000 
#
# Total GULP energy -356909.033482 kJ/mol
# GULP energy per Si atom -5576.703648 kJ/mol
# Density = 1.862194 g / cm^3
# Si number density = 18.664425 Si / 1000 Ang^3
#
#
#
# Elastic Constant Matrix: (Units=GPa)
#
#
# Indices 1 2 3 4 5 6 
#
# 1 85.3724 16.5101 85.9240 0.0000 0.0000 0.0000
# 2 16.5101 5.7994 22.6140 0.0000 0.0000 0.0000
# 3 85.9240 22.6140 189.0633 0.0000 0.0000 0.0000
# 4 0.0000 0.0000 0.0000 -16.2732 0.0000 0.0000
# 5 0.0000 0.0000 0.0000 0.0000 40.0341 0.0000
# 6 0.0000 0.0000 0.0000 0.0000 0.0000 13.7783
#
#
#
# Elastic Compliance Matrix: (Units=1/GPa)
#
#
# Indices 1 2 3 4 5 6 
#
# 1 0.029613 -0.059644 -0.006324 0.000000 0.000000 0.000000
# 2 -0.059644 0.443285 -0.025915 0.000000 0.000000 0.000000
# 3 -0.006324 -0.025915 0.011263 0.000000 0.000000 0.000000
# 4 0.000000 0.000000 0.000000 -0.061451 0.000000 0.000000
# 5 0.000000 0.000000 0.000000 0.000000 0.024979 0.000000
# 6 0.000000 0.000000 0.000000 0.000000 0.000000 0.072578
#
#
# Mechanical properties :
#
#
# Convention : Reuss Voigt Hill
#
# Bulk Modulus (GPa) = 3.32895 58.92569 31.12732
# Shear Modulus (GPa) = 6.21762 17.85364 12.03563
#
# Velocity S-wave (km/s) = 1.82716 3.09619 2.54213
# Velocity P-wave (km/s) = 2.49776 6.66494 5.03291
#
# Compressibility (1/GPa) = 0.30039475
#
# Stress axis : x y z
#
# Youngs Moduli (GPa) = 33.76903 2.25588 88.78530
#
# Poissons Ratio (x) = 0.13455 0.56149
# Poissons Ratio (y) = 2.01412 2.30089
# Poissons Ratio (z) = 0.21356 0.05846
#
# Static dielectric constant tensor:
#      x y z
#    x 1.641110 0.000000 0.000000 
#    y 0.000000 1.633630 0.000000 
#    z 0.000000 0.000000 1.633880 
# 
# From -- ./inp_files/32308.got.cif
#   From: 2010.05.17/outbox.cif.g08.bks.cpg/sg51_17_cif.got.tgz:32308.got - 2010.06.03 11:52:47.
