data_PCOD9403100
_publ_section_title
;
Structure prediction by ZEFSAII (Michael W. Deem and Ramdas Pophale) SiO2 
 PCOD9403100
Probable space group: P M M A
;
_chemical_formula_sum "Si O2"
_cell_formula_units_Z 56
_cell_length_a 13.773094
_cell_length_b 9.374035
_cell_length_c 21.756695
_cell_angle_alpha 90.000000
_cell_angle_beta 90.000000
_cell_angle_gamma 90.000000
_cell_volume 2808.995256
_symmetry_space_group_name_H-M "P M M A"
_symmetry_group_IT_number 51
_symmetry_cell_setting 'orthorhombic'
loop_
_space_group_symop_operation_xyz
x,y,z
1/2-x,-y,z
1/2+x,-y,-z
-x,y,-z
-x,-y,-z
1/2+x,y,-z
1/2-x,y,z
x,-y,z
loop_
_atom_site_type_symbol
_atom_site_label
_atom_site_fract_x
_atom_site_fract_y
_atom_site_fract_z
Si Si1 0.552965 0.171791 0.785101
Si Si2 0.359463 0.173110 0.723985
Si Si3 0.356279 0.672899 0.961195
Si Si4 0.938426 0.671821 0.906619
Si Si5 0.131245 0.663483 0.465978
Si Si6 0.131669 0.163944 0.586031
Si Si7 0.866557 0.163105 0.653384
O O1 0.440101 0.212144 0.773500
O O2 0.592552 0.250444 0.844718
O O3 0.603886 0.213228 0.721098
O O4 0.560884 0.000000 0.791790
O O5 0.250000 0.224850 0.735658
O O6 0.392896 0.214430 0.655026
O O7 0.356139 0.000000 0.722183
O O8 0.250000 0.725175 0.941598
O O9 0.355817 0.500000 0.958250
O O10 0.450623 0.717198 0.922797
O O11 0.376565 0.708148 0.032687
O O12 0.935688 0.500000 0.899425
O O13 0.250000 0.666117 0.465815
O O14 0.100983 0.500000 0.463774
O O15 0.101303 0.739231 0.529189
O O16 0.099541 0.746894 0.404937
O O17 0.250000 0.161839 0.586254
O O18 0.100628 0.000000 0.576627
O O19 0.750000 0.160956 0.650917
O O20 0.901647 0.000000 0.647469
#
# Coordination Sequence:
#
# PCOD9403100 Si02
#       7
#     8   8   8   8   8   8   8
#     4  10  20  33  49  70  98 129 158 192 234 276
#     4   8  15  29  48  68  90 120 159 197 233 281
#     4   8  15  31  54  76  99 128 160 191 223 266
#     4   9  18  32  51  75  99 125 159 194 227 268
#     4   9  16  26  43  67  91 115 149 198 251 291
#     4   8  13  24  44  65  84 112 151 193 238 288
#     4   9  18  32  47  63  88 125 164 195 228 279
#
# _framework density 19.935953999999999
#
# number of rings (size 3 to 8) (size 9 to 14) (size 15 to 20)
#    0.000    3.286    0.000    2.143    0.000    3.429 
#    0.000    2.857    0.000    6.000    0.000    0.000 
#    0.000    0.000    0.000    0.000    0.000    0.000 
#
# Total GULP energy -312364.780094 kJ/mol
# GULP energy per Si atom -5577.942502 kJ/mol
# Density = 1.989058 g / cm^3
# Si number density = 19.935954 Si / 1000 Ang^3
#
#
#
# Elastic Constant Matrix: (Units=GPa)
#
#
# Indices 1 2 3 4 5 6 
#
# 1 44.9947 -5.8526 -11.9287 0.0000 0.0000 0.0000
# 2 -5.8526 33.2566 29.2472 0.0000 0.0000 0.0000
# 3 -11.9287 29.2472 87.3799 0.0000 0.0000 0.0000
# 4 0.0000 0.0000 0.0000 31.9076 0.0000 0.0000
# 5 0.0000 0.0000 0.0000 0.0000 14.6806 0.0000
# 6 0.0000 0.0000 0.0000 0.0000 0.0000 8.4325
#
#
#
# Elastic Compliance Matrix: (Units=1/GPa)
#
#
# Indices 1 2 3 4 5 6 
#
# 1 0.023138 0.001834 0.002545 0.000000 0.000000 0.000000
# 2 0.001834 0.042758 -0.014061 0.000000 0.000000 0.000000
# 3 0.002545 -0.014061 0.016498 0.000000 0.000000 0.000000
# 4 0.000000 0.000000 0.000000 0.031340 0.000000 0.000000
# 5 0.000000 0.000000 0.000000 0.000000 0.068117 0.000000
# 6 0.000000 0.000000 0.000000 0.000000 0.000000 0.118589
#
#
# Mechanical properties :
#
#
# Convention : Reuss Voigt Hill
#
# Bulk Modulus (GPa) = 15.86570 20.95145 18.40858
# Shear Modulus (GPa) = 14.67068 21.28182 17.97625
#
# Velocity S-wave (km/s) = 2.71567 3.27082 3.00609
# Velocity P-wave (km/s) = 4.22005 4.97961 4.61548
#
# Compressibility (1/GPa) = 0.06302904
#
# Stress axis : x y z
#
# Youngs Moduli (GPa) = 43.21882 23.38742 60.61266
#
# Poissons Ratio (x) = -0.04289 -0.15425
# Poissons Ratio (y) = -0.07925 0.85229
# Poissons Ratio (z) = -0.10999 0.32886
#
# Static dielectric constant tensor:
#      x y z
#    x 1.783830 0.000000 0.000000 
#    y 0.000000 1.660870 0.000000 
#    z 0.000000 0.000000 1.671680 
# 
# From -- ./inp_files/33432.got.cif
#   From: 2010.05.17/outbox.cif.g08.bks.cpg/sg51_17_cif.got.tgz:33432.got - 2010.06.03 11:52:47.
