data_PCOD9403790
_publ_section_title
;
Structure prediction by ZEFSAII (Michael W. Deem and Ramdas Pophale) SiO2 
 PCOD9403790
Probable space group: P M M A
;
_chemical_formula_sum "Si O2"
_cell_formula_units_Z 44
_cell_length_a 9.299199
_cell_length_b 7.686950
_cell_length_c 30.931836
_cell_angle_alpha 90.000000
_cell_angle_beta 90.000000
_cell_angle_gamma 90.000000
_cell_volume 2211.084279
_symmetry_space_group_name_H-M "P M M A"
_symmetry_group_IT_number 51
_symmetry_cell_setting 'orthorhombic'
loop_
_space_group_symop_operation_xyz
x,y,z
1/2-x,-y,z
1/2+x,-y,-z
-x,y,-z
-x,-y,-z
1/2+x,y,-z
1/2-x,y,z
x,-y,z
loop_
_atom_site_type_symbol
_atom_site_label
_atom_site_fract_x
_atom_site_fract_y
_atom_site_fract_z
Si Si1 0.922114 0.500000 0.454304
Si Si2 0.415568 0.213037 0.956912
Si Si3 0.913538 0.790789 0.700931
Si Si4 0.921472 0.794743 0.385733
Si Si5 0.412338 0.793037 0.126918
Si Si6 0.912675 0.293457 0.212539
O O1 0.750000 0.500000 0.460757
O O2 0.958413 0.670158 0.425676
O O3 0.000000 0.500000 0.500000
O O4 0.250000 0.269250 0.957445
O O5 0.497478 0.274435 0.913911
O O6 0.414555 0.000000 0.956504
O O7 0.500000 0.266179 0.000000
O O8 0.750000 0.724372 0.703784
O O9 0.992830 0.736507 0.656932
O O10 0.005279 0.745729 0.743058
O O11 0.907041 0.000000 0.699236
O O12 0.750000 0.777879 0.377597
O O13 0.950601 0.000000 0.393998
O O14 0.250000 0.722078 0.129065
O O15 0.496603 0.768449 0.171501
O O16 0.400578 0.000000 0.120207
O O17 0.750000 0.221314 0.212728
O O18 0.903017 0.500000 0.208711
#
# Coordination Sequence:
#
# PCOD9403790 Si02
#       6
#     4   8   8   8   8   8
#     4  10  22  38  58  86 118 154 198 242 289 346
#     4   9  16  27  46  73 103 134 171 217 268 321
#     4  10  21  37  58  85 113 142 181 229 280 333
#     4   9  19  37  59  83 115 154 193 238 289 342
#     4  10  20  34  53  77 105 137 175 221 271 324
#     4  11  24  38  53  76 107 144 183 222 268 326
#
# _framework density 19.899740000000001
#
# number of rings (size 3 to 8) (size 9 to 14) (size 15 to 20)
#    0.000    2.182    0.000    2.727    1.273    9.091 
#    0.000    0.000    0.000    0.545    0.000    0.000 
#    0.000    0.000    0.000    0.000    0.000    0.000 
#
# Total GULP energy -245779.668140 kJ/mol
# GULP energy per Si atom -5585.901549 kJ/mol
# Density = 1.985445 g / cm^3
# Si number density = 19.899740 Si / 1000 Ang^3
#
#
#
# Elastic Constant Matrix: (Units=GPa)
#
#
# Indices 1 2 3 4 5 6 
#
# 1 180.8443 31.6444 125.1470 0.0000 0.0000 0.0000
# 2 31.6444 48.1327 31.7160 0.0000 0.0000 0.0000
# 3 125.1470 31.7160 207.7427 0.0000 0.0000 0.0000
# 4 0.0000 0.0000 0.0000 66.0060 0.0000 0.0000
# 5 0.0000 0.0000 0.0000 0.0000 44.8300 0.0000
# 6 0.0000 0.0000 0.0000 0.0000 0.0000 3.7934
#
#
#
# Elastic Compliance Matrix: (Units=1/GPa)
#
#
# Indices 1 2 3 4 5 6 
#
# 1 0.009821 -0.002844 -0.005482 0.000000 0.000000 0.000000
# 2 -0.002844 0.023924 -0.001939 0.000000 0.000000 0.000000
# 3 -0.005482 -0.001939 0.008412 0.000000 0.000000 0.000000
# 4 0.000000 0.000000 0.000000 0.015150 0.000000 0.000000
# 5 0.000000 0.000000 0.000000 0.000000 0.022306 0.000000
# 6 0.000000 0.000000 0.000000 0.000000 0.000000 0.263616
#
#
# Mechanical properties :
#
#
# Convention : Reuss Voigt Hill
#
# Bulk Modulus (GPa) = 46.24082 90.41495 68.32788
# Shear Modulus (GPa) = 13.47823 39.47337 26.47580
#
# Velocity S-wave (km/s) = 2.60534 4.45861 3.65150
# Velocity P-wave (km/s) = 5.68662 8.48761 7.22417
#
# Compressibility (1/GPa) = 0.02162592
#
# Stress axis : x y z
#
# Youngs Moduli (GPa) = 101.82257 41.79989 118.87628
#
# Poissons Ratio (x) = 0.11890 0.65169
# Poissons Ratio (y) = 0.28963 0.23048
# Poissons Ratio (z) = 0.55820 0.08104
#
# Static dielectric constant tensor:
#      x y z
#    x 1.700460 0.000000 0.000000 
#    y 0.000000 1.733020 0.000000 
#    z 0.000000 0.000000 1.650740 
# 
# From -- ./inp_files/36737.got.cif
#   From: 2010.05.17/outbox.cif.g08.bks.cpg/sg51_19_cif.got.tgz:36737.got - 2010.06.03 11:52:47.
