data_PCOD9403969
_publ_section_title
;
Structure prediction by ZEFSAII (Michael W. Deem and Ramdas Pophale) SiO2 
 PCOD9403969
Probable space group: P M M A
;
_chemical_formula_sum "Si O2"
_cell_formula_units_Z 48
_cell_length_a 9.323122
_cell_length_b 8.612790
_cell_length_c 31.745535
_cell_angle_alpha 90.000000
_cell_angle_beta 90.000000
_cell_angle_gamma 90.000000
_cell_volume 2549.105888
_symmetry_space_group_name_H-M "P M M A"
_symmetry_group_IT_number 51
_symmetry_cell_setting 'orthorhombic'
loop_
_space_group_symop_operation_xyz
x,y,z
1/2-x,-y,z
1/2+x,-y,-z
-x,y,-z
-x,-y,-z
1/2+x,y,-z
1/2-x,y,z
x,-y,z
loop_
_atom_site_type_symbol
_atom_site_label
_atom_site_fract_x
_atom_site_fract_y
_atom_site_fract_z
Si Si1 0.417493 0.814126 0.213350
Si Si2 0.082947 0.685660 0.122203
Si Si3 0.415846 0.313944 0.706602
Si Si4 0.416312 0.187923 0.374088
Si Si5 0.916042 0.187613 0.041982
Si Si6 0.584361 0.810433 0.458132
O O1 0.250000 0.768187 0.219426
O O2 0.462068 0.755467 0.167176
O O3 0.512963 0.744578 0.250319
O O4 0.424941 0.000000 0.214672
O O5 0.250000 0.730570 0.115468
O O6 0.075041 0.500000 0.124445
O O7 0.989772 0.746628 0.083641
O O8 0.250000 0.263066 0.703715
O O9 0.419739 0.500000 0.705801
O O10 0.505275 0.249528 0.667281
O O11 0.250000 0.236532 0.375491
O O12 0.501126 0.238213 0.416006
O O13 0.418773 0.000000 0.372991
O O14 0.750000 0.233991 0.039462
O O15 0.922573 0.000000 0.043740
O O16 0.000000 0.238135 0.000000
O O17 0.500000 0.760505 0.500000
O O18 0.750000 0.760030 0.458193
O O19 0.584845 0.000000 0.458379
#
# Coordination Sequence:
#
# PCOD9403969 Si02
#       6
#     8   8   8   8   8   8
#     4  10  21  38  61  86 110 140 180 224 270 322
#     4  10  21  37  58  84 114 148 184 223 271 326
#     4  11  24  39  55  78 109 144 181 222 270 324
#     4  10  20  34  54  80 108 140 181 226 272 324
#     4  10  21  37  58  83 111 146 188 232 277 324
#     4   9  16  27  46  74 108 143 179 222 270 318
#
# _framework density 18.830131000000002
#
# number of rings (size 3 to 8) (size 9 to 14) (size 15 to 20)
#    0.000    2.000    0.000    3.500    0.000   10.333 
#    0.000    0.000    0.000    0.500    0.000    0.000 
#    0.000    0.000    0.000    0.000    0.000    0.000 
#
# Total GULP energy -268197.611156 kJ/mol
# GULP energy per Si atom -5587.450232 kJ/mol
# Density = 1.878727 g / cm^3
# Si number density = 18.830131 Si / 1000 Ang^3
#
#
#
# Elastic Constant Matrix: (Units=GPa)
#
#
# Indices 1 2 3 4 5 6 
#
# 1 177.4506 36.3032 134.1045 0.0000 0.0000 0.0000
# 2 36.3032 15.7519 33.3250 0.0000 0.0000 0.0000
# 3 134.1045 33.3250 205.5040 0.0000 0.0000 0.0000
# 4 0.0000 0.0000 0.0000 -72.0120 0.0000 0.0000
# 5 0.0000 0.0000 0.0000 0.0000 42.9928 0.0000
# 6 0.0000 0.0000 0.0000 0.0000 0.0000 18.9407
#
#
#
# Elastic Compliance Matrix: (Units=1/GPa)
#
#
# Indices 1 2 3 4 5 6 
#
# 1 0.014396 -0.020252 -0.006111 0.000000 0.000000 0.000000
# 2 -0.020252 0.125127 -0.007075 0.000000 0.000000 0.000000
# 3 -0.006111 -0.007075 0.010001 0.000000 0.000000 0.000000
# 4 0.000000 0.000000 0.000000 -0.013887 0.000000 0.000000
# 5 0.000000 0.000000 0.000000 0.000000 0.023260 0.000000
# 6 0.000000 0.000000 0.000000 0.000000 0.000000 0.052796
#
#
# Mechanical properties :
#
#
# Convention : Reuss Voigt Hill
#
# Bulk Modulus (GPa) = 12.09935 89.57466 50.83701
# Shear Modulus (GPa) = 16.33355 10.98255 13.65805
#
# Velocity S-wave (km/s) = 2.94839 2.41766 2.69612
# Velocity P-wave (km/s) = 4.24619 7.44759 6.06204
#
# Compressibility (1/GPa) = 0.08264905
#
# Stress axis : x y z
#
# Youngs Moduli (GPa) = 69.46185 7.99190 99.99076
#
# Poissons Ratio (x) = 0.16185 0.61099
# Poissons Ratio (y) = 1.40672 0.70746
# Poissons Ratio (z) = 0.42445 0.05655
#
# Static dielectric constant tensor:
#      x y z
#    x 1.640090 0.000000 0.000000 
#    y 0.000000 1.636680 0.000000 
#    z 0.000000 0.000000 1.608140 
# 
# From -- ./inp_files/36975.got.cif
#   From: 2010.05.17/outbox.cif.g08.bks.cpg/sg51_19_cif.got.tgz:36975.got - 2010.06.03 11:52:47.
