data_PCOD9403153
_publ_section_title
;
Structure prediction by ZEFSAII (Michael W. Deem and Ramdas Pophale) SiO2 
 PCOD9403153
Probable space group: P M M A
;
_chemical_formula_sum "Si O2"
_cell_formula_units_Z 40
_cell_length_a 8.413188
_cell_length_b 14.118410
_cell_length_c 19.337414
_cell_angle_alpha 90.000000
_cell_angle_beta 90.000000
_cell_angle_gamma 90.000000
_cell_volume 2296.914232
_symmetry_space_group_name_H-M "P M M A"
_symmetry_group_IT_number 51
_symmetry_cell_setting 'orthorhombic'
loop_
_space_group_symop_operation_xyz
x,y,z
1/2-x,-y,z
1/2+x,-y,-z
-x,y,-z
-x,-y,-z
1/2+x,y,-z
1/2-x,y,z
x,-y,z
loop_
_atom_site_type_symbol
_atom_site_label
_atom_site_fract_x
_atom_site_fract_y
_atom_site_fract_z
Si Si1 0.441877 0.109801 0.074872
Si Si2 0.558180 0.791391 0.785758
Si Si3 0.059760 0.393535 0.713687
Si Si4 0.943552 0.894007 0.645341
Si Si5 0.059558 0.297924 0.424617
O O1 0.250000 0.110778 0.074992
O O2 0.498132 0.170361 0.140404
O O3 0.492820 0.000000 0.083120
O O4 0.500000 0.143371 0.000000
O O5 0.750000 0.792196 0.786209
O O6 0.503264 0.686670 0.765437
O O7 0.509034 0.860329 0.722461
O O8 0.250000 0.391758 0.715074
O O9 0.004686 0.500000 0.729597
O O10 0.003642 0.363201 0.637152
O O11 0.750000 0.895904 0.644223
O O12 0.993704 0.809781 0.594098
O O13 0.000259 0.000000 0.629675
O O14 0.250000 0.300150 0.422826
O O15 0.000000 0.325486 0.500000
#
# Coordination Sequence:
#
# PCOD9403153 Si02
#       5
#     8   8   8   8   8
#     4   9  17  29  47  74 107 139 167 194 229 275
#     4   9  17  30  50  73  97 127 161 198 237 279
#     4  10  21  36  53  72  93 119 154 199 249 295
#     4   8  14  26  45  68  93 123 158 192 228 273
#     4  10  20  33  50  71  96 126 158 195 238 284
#
# _framework density 17.414667999999999
#
# number of rings (size 3 to 8) (size 9 to 14) (size 15 to 20)
#    0.000    2.800    0.000    3.000    0.000    5.600 
#    0.000    0.000    0.000   19.800    0.000    0.000 
#    0.000    0.000    0.000    0.000    0.000    0.000 
#
# Total GULP energy -223011.959408 kJ/mol
# GULP energy per Si atom -5575.298985 kJ/mol
# Density = 1.737503 g / cm^3
# Si number density = 17.414668 Si / 1000 Ang^3
#
#
#
# Elastic Constant Matrix: (Units=GPa)
#
#
# Indices 1 2 3 4 5 6 
#
# 1 9.9299 2.1858 7.7135 0.0000 0.0000 0.0000
# 2 2.1858 70.3817 22.7359 0.0000 0.0000 0.0000
# 3 7.7135 22.7359 109.2726 0.0000 0.0000 0.0000
# 4 0.0000 0.0000 0.0000 9.7662 0.0000 0.0000
# 5 0.0000 0.0000 0.0000 0.0000 24.5528 0.0000
# 6 0.0000 0.0000 0.0000 0.0000 0.0000 14.6743
#
#
#
# Elastic Compliance Matrix: (Units=1/GPa)
#
#
# Indices 1 2 3 4 5 6 
#
# 1 0.106606 -0.000943 -0.007329 0.000000 0.000000 0.000000
# 2 -0.000943 0.015240 -0.003104 0.000000 0.000000 0.000000
# 3 -0.007329 -0.003104 0.010315 0.000000 0.000000 0.000000
# 4 0.000000 0.000000 0.000000 0.102394 0.000000 0.000000
# 5 0.000000 0.000000 0.000000 0.000000 0.040729 0.000000
# 6 0.000000 0.000000 0.000000 0.000000 0.000000 0.068146
#
#
# Mechanical properties :
#
#
# Convention : Reuss Voigt Hill
#
# Bulk Modulus (GPa) = 9.14009 28.31719 18.72864
# Shear Modulus (GPa) = 12.41765 20.26195 16.33980
#
# Velocity S-wave (km/s) = 2.67321 3.41471 3.06646
# Velocity P-wave (km/s) = 3.84551 5.64295 4.82860
#
# Compressibility (1/GPa) = 0.10940807
#
# Stress axis : x y z
#
# Youngs Moduli (GPa) = 9.38030 65.61518 96.94896
#
# Poissons Ratio (x) = 0.06189 0.71055
# Poissons Ratio (y) = 0.00885 0.30097
# Poissons Ratio (z) = 0.06875 0.20370
#
# Static dielectric constant tensor:
#      x y z
#    x 1.599810 0.000000 0.000000 
#    y 0.000000 1.597400 0.000000 
#    z 0.000000 0.000000 1.577840 
# 
# From -- ./inp_files/27216.got.cif
#   From: 2010.05.17/outbox.cif.g08.bks.cpg/sg51_14_cif.got.tgz:27216.got - 2010.06.03 11:52:47.
