data_PCOD9403755
_publ_section_title
;
Structure prediction by ZEFSAII (Michael W. Deem and Ramdas Pophale) SiO2 
 PCOD9403755
Probable space group: P M M A
;
_chemical_formula_sum "Si O2"
_cell_formula_units_Z 56
_cell_length_a 14.597218
_cell_length_b 9.165782
_cell_length_c 21.500898
_cell_angle_alpha 90.000000
_cell_angle_beta 90.000000
_cell_angle_gamma 90.000000
_cell_volume 2876.710885
_symmetry_space_group_name_H-M "P M M A"
_symmetry_group_IT_number 51
_symmetry_cell_setting 'orthorhombic'
loop_
_space_group_symop_operation_xyz
x,y,z
1/2-x,-y,z
1/2+x,-y,-z
-x,y,-z
-x,-y,-z
1/2+x,y,-z
1/2-x,y,z
x,-y,z
loop_
_atom_site_type_symbol
_atom_site_label
_atom_site_fract_x
_atom_site_fract_y
_atom_site_fract_z
Si Si1 0.397459 0.164509 0.973818
Si Si2 0.144417 0.339749 0.092582
Si Si3 0.359759 0.171151 0.213539
Si Si4 0.141377 0.672952 0.846709
Si Si5 0.464101 0.176086 0.597564
Si Si6 0.521902 0.673986 0.275072
Si Si7 0.353905 0.176982 0.474021
O O1 0.390700 0.233918 0.905945
O O2 0.359317 0.000000 0.974520
O O3 0.500000 0.155599 0.000000
O O4 0.354604 0.272510 0.024340
O O5 0.250000 0.358149 0.109973
O O6 0.099206 0.500000 0.094681
O O7 0.110433 0.228843 0.145079
O O8 0.250000 0.188999 0.222152
O O9 0.421184 0.261955 0.260921
O O10 0.379676 0.000000 0.218903
O O11 0.250000 0.696921 0.837969
O O12 0.128070 0.500000 0.859503
O O13 0.085636 0.709450 0.784355
O O14 0.442390 0.252771 0.662101
O O15 0.393433 0.214290 0.542308
O O16 0.566334 0.220399 0.574249
O O17 0.463308 0.000000 0.604338
O O18 0.518420 0.500000 0.280997
O O19 0.250000 0.229609 0.463423
O O20 0.351447 0.000000 0.471596
#
# Coordination Sequence:
#
# PCOD9403755 Si02
#       7
#     8   8   8   8   8   8   8
#     4  11  23  36  53  79 107 135 175 231 288 338
#     4  10  20  34  53  76 102 133 170 215 271 334
#     4  10  21  37  57  81 110 145 187 236 287 340
#     4  10  23  42  59  77 107 150 197 239 282 336
#     4   9  18  33  55  83 112 144 186 230 270 323
#     4  11  23  38  57  81 114 153 189 231 282 336
#     4   8  15  31  56  84 113 145 182 226 274 322
#
# _framework density 19.466676
#
# number of rings (size 3 to 8) (size 9 to 14) (size 15 to 20)
#    0.000    2.143    0.000    3.857    0.000    9.429 
#    0.000    2.857    0.000    0.857    0.000    0.000 
#    0.000    0.000    0.000    0.000    0.000    0.000 
#
# Total GULP energy -312430.011281 kJ/mol
# GULP energy per Si atom -5579.107344 kJ/mol
# Density = 1.942237 g / cm^3
# Si number density = 19.466676 Si / 1000 Ang^3
#
#
#
# Elastic Constant Matrix: (Units=GPa)
#
#
# Indices 1 2 3 4 5 6 
#
# 1 80.4579 17.6905 7.1490 0.0000 0.0000 0.0000
# 2 17.6905 58.2572 26.7542 0.0000 0.0000 0.0000
# 3 7.1490 26.7542 77.0392 0.0000 0.0000 0.0000
# 4 0.0000 0.0000 0.0000 34.7829 0.0000 0.0000
# 5 0.0000 0.0000 0.0000 0.0000 13.9642 0.0000
# 6 0.0000 0.0000 0.0000 0.0000 0.0000 -12.8709
#
#
#
# Elastic Compliance Matrix: (Units=1/GPa)
#
#
# Indices 1 2 3 4 5 6 
#
# 1 0.013321 -0.004137 0.000201 0.000000 0.000000 0.000000
# 2 -0.004137 0.021707 -0.007155 0.000000 0.000000 0.000000
# 3 0.000201 -0.007155 0.015446 0.000000 0.000000 0.000000
# 4 0.000000 0.000000 0.000000 0.028750 0.000000 0.000000
# 5 0.000000 0.000000 0.000000 0.000000 0.071612 0.000000
# 6 0.000000 0.000000 0.000000 0.000000 0.000000 -0.077695
#
#
# Mechanical properties :
#
#
# Convention : Reuss Voigt Hill
#
# Bulk Modulus (GPa) = 35.34545 35.43797 35.39171
# Shear Modulus (GPa) = 47.73080 18.11927 32.92503
#
# Velocity S-wave (km/s) = 4.95706 3.05418 4.11707
# Velocity P-wave (km/s) = 7.13860 5.53907 6.38909
#
# Compressibility (1/GPa) = 0.02829219
#
# Stress axis : x y z
#
# Youngs Moduli (GPa) = 75.07129 46.06763 64.73984
#
# Poissons Ratio (x) = 0.19059 -0.01299
# Poissons Ratio (y) = 0.31058 0.46319
# Poissons Ratio (z) = -0.01506 0.32959
#
# Static dielectric constant tensor:
#      x y z
#    x 1.664130 0.000000 0.000000 
#    y 0.000000 1.672400 0.000000 
#    z 0.000000 0.000000 1.658990 
# 
# From -- ./inp_files/33388.got.cif
#   From: 2010.05.17/outbox.cif.g08.bks.cpg/sg51_17_cif.got.tgz:33388.got - 2010.06.03 11:52:47.
