data_PCOD9403070
_publ_section_title
;
Structure prediction by ZEFSAII (Michael W. Deem and Ramdas Pophale) SiO2 
 PCOD9403070
Probable space group: P M M A
;
_chemical_formula_sum "Si O2"
_cell_formula_units_Z 56
_cell_length_a 9.070838
_cell_length_b 18.688243
_cell_length_c 21.769772
_cell_angle_alpha 90.000000
_cell_angle_beta 90.000000
_cell_angle_gamma 90.000000
_cell_volume 3690.368749
_symmetry_space_group_name_H-M "P M M A"
_symmetry_group_IT_number 51
_symmetry_cell_setting 'orthorhombic'
loop_
_space_group_symop_operation_xyz
x,y,z
1/2-x,-y,z
1/2+x,-y,-z
-x,y,-z
-x,-y,-z
1/2+x,y,-z
1/2-x,y,z
x,-y,z
loop_
_atom_site_type_symbol
_atom_site_label
_atom_site_fract_x
_atom_site_fract_y
_atom_site_fract_z
Si Si1 0.418673 0.206665 0.375148
Si Si2 0.572311 0.165855 0.187000
Si Si3 0.428110 0.350203 0.436228
Si Si4 0.080352 0.295101 0.246623
Si Si5 0.572784 0.916440 0.063947
Si Si6 0.572906 0.081654 0.311410
Si Si7 0.575945 0.584005 0.316241
O O1 0.250000 0.187086 0.388765
O O2 0.469033 0.266717 0.423414
O O3 0.420217 0.250525 0.310782
O O4 0.511887 0.135973 0.362492
O O5 0.750000 0.173427 0.188107
O O6 0.497659 0.242222 0.198901
O O7 0.528511 0.129775 0.122936
O O8 0.532503 0.114029 0.244415
O O9 0.500000 0.373645 0.500000
O O10 0.250000 0.355129 0.436855
O O11 0.492888 0.394741 0.379226
O O12 0.250000 0.309585 0.230708
O O13 0.992300 0.366845 0.262783
O O14 0.750000 0.912614 0.058548
O O15 0.533856 0.000000 0.074298
O O16 0.500000 0.893533 0.000000
O O17 0.750000 0.081680 0.314274
O O18 0.520822 0.000000 0.317684
O O19 0.750000 0.599808 0.323001
O O20 0.557724 0.500000 0.304379
#
# Coordination Sequence:
#
# PCOD9403070 Si02
#       7
#     8   8   8   8   8   8   8
#     4   8  16  29  42  59  82 107 135 170 214 258
#     4   9  16  27  43  61  85 117 151 186 222 262
#     4  10  20  33  49  67  87 113 146 179 211 253
#     4   9  17  29  45  65  88 113 143 179 218 259
#     4   9  17  28  41  59  87 124 162 197 232 267
#     4   9  16  25  40  62  83 105 137 177 220 263
#     4  10  20  33  49  69  93 119 144 171 208 255
#
# _framework density 15.174635
#
# number of rings (size 3 to 8) (size 9 to 14) (size 15 to 20)
#    0.000    2.857    0.000    2.571    0.000    8.000 
#    0.000    0.000    0.000    3.000    0.000    0.000 
#    0.000    0.571    0.000    1.857    0.000    2.286 
#
# Total GULP energy -311921.367426 kJ/mol
# GULP energy per Si atom -5570.024418 kJ/mol
# Density = 1.514010 g / cm^3
# Si number density = 15.174635 Si / 1000 Ang^3
#
#
#
# Elastic Constant Matrix: (Units=GPa)
#
#
# Indices 1 2 3 4 5 6 
#
# 1 48.6160 45.5179 19.3084 0.0000 0.0000 0.0000
# 2 45.5179 92.0125 24.9818 0.0000 0.0000 0.0000
# 3 19.3084 24.9818 41.7302 0.0000 0.0000 0.0000
# 4 0.0000 0.0000 0.0000 18.8719 0.0000 0.0000
# 5 0.0000 0.0000 0.0000 0.0000 20.5079 0.0000
# 6 0.0000 0.0000 0.0000 0.0000 0.0000 21.9700
#
#
#
# Elastic Compliance Matrix: (Units=1/GPa)
#
#
# Indices 1 2 3 4 5 6 
#
# 1 0.040459 -0.017830 -0.008046 0.000000 0.000000 0.000000
# 2 -0.017830 0.020835 -0.004223 0.000000 0.000000 0.000000
# 3 -0.008046 -0.004223 0.030214 0.000000 0.000000 0.000000
# 4 0.000000 0.000000 0.000000 0.052989 0.000000 0.000000
# 5 0.000000 0.000000 0.000000 0.000000 0.048762 0.000000
# 6 0.000000 0.000000 0.000000 0.000000 0.000000 0.045517
#
#
# Mechanical properties :
#
#
# Convention : Reuss Voigt Hill
#
# Bulk Modulus (GPa) = 31.93881 40.21944 36.07913
# Shear Modulus (GPa) = 16.15974 18.43999 17.29987
#
# Velocity S-wave (km/s) = 3.26685 3.48973 3.38013
# Velocity P-wave (km/s) = 5.94331 6.54214 6.24990
#
# Compressibility (1/GPa) = 0.03130987
#
# Stress axis : x y z
#
# Youngs Moduli (GPa) = 24.71646 47.99592 33.09670
#
# Poissons Ratio (x) = 0.85577 0.26630
# Poissons Ratio (y) = 0.44070 0.13977
# Poissons Ratio (z) = 0.19887 0.20269
#
# Static dielectric constant tensor:
#      x y z
#    x 1.512700 0.000000 0.000000 
#    y 0.000000 1.504920 0.000000 
#    z 0.000000 0.000000 1.485820 
# 
# From -- ./inp_files/32210.got.cif
#   From: 2010.05.17/outbox.cif.g08.bks.cpg/sg51_17_cif.got.tgz:32210.got - 2010.06.03 11:52:47.
