data_PCOD9403409
_publ_section_title
;
Structure prediction by ZEFSAII (Michael W. Deem and Ramdas Pophale) SiO2 
 PCOD9403409
Probable space group: P M M A
;
_chemical_formula_sum "Si O2"
_cell_formula_units_Z 48
_cell_length_a 16.594509
_cell_length_b 7.709303
_cell_length_c 18.791715
_cell_angle_alpha 90.000000
_cell_angle_beta 90.000000
_cell_angle_gamma 90.000000
_cell_volume 2404.063525
_symmetry_space_group_name_H-M "P M M A"
_symmetry_group_IT_number 51
_symmetry_cell_setting 'orthorhombic'
loop_
_space_group_symop_operation_xyz
x,y,z
1/2-x,-y,z
1/2+x,-y,-z
-x,y,-z
-x,-y,-z
1/2+x,y,-z
1/2-x,y,z
x,-y,z
loop_
_atom_site_type_symbol
_atom_site_label
_atom_site_fract_x
_atom_site_fract_y
_atom_site_fract_z
Si Si1 0.582967 0.708527 0.963087
Si Si2 0.568510 0.292466 0.802196
Si Si3 0.250000 0.214025 0.793561
Si Si4 0.409529 0.204891 0.714938
Si Si5 0.994217 0.213023 0.581431
Si Si6 0.662142 0.207605 0.665337
Si Si7 0.250000 0.206119 0.956828
O O1 0.576722 0.500000 0.960595
O O2 0.584037 0.772898 0.881684
O O3 0.666764 0.745417 0.003431
O O4 0.500000 0.772482 0.000000
O O5 0.563500 0.500000 0.804298
O O6 0.485064 0.227017 0.768060
O O7 0.637632 0.242601 0.746580
O O8 0.329456 0.274433 0.751799
O O9 0.250000 0.000000 0.794816
O O10 0.250000 0.273151 0.875544
O O11 0.437462 0.272123 0.637528
O O12 0.396236 0.000000 0.705476
O O13 0.000000 0.268598 0.500000
O O14 0.909980 0.271769 0.615823
O O15 0.995509 0.000000 0.581899
O O16 0.750000 0.278673 0.648720
O O17 0.664096 0.000000 0.656272
O O18 0.250000 0.000000 0.952701
#
# Coordination Sequence:
#
# PCOD9403409 Si02
#       7
#     8   8   4   8   8   8   4
#     4  10  22  39  55  74 104 139 175 218 268 317
#     4  10  20  33  52  74  98 130 171 212 252 302
#     4   9  18  33  51  75 102 131 170 208 249 299
#     4   9  17  32  53  74 102 137 169 206 250 299
#     4   8  14  27  47  73 104 132 161 200 245 291
#     4   9  18  32  50  73 101 134 167 203 248 298
#     4  11  23  35  53  79 106 135 174 222 265 315
#
# _framework density 19.966194999999999
#
# number of rings (size 3 to 8) (size 9 to 14) (size 15 to 20)
#    0.000    2.667    0.000    2.750    1.167    2.000 
#    1.500    1.250    0.000    8.000    0.000    0.000 
#    0.000    0.000    0.000    0.000    0.000    0.000 
#
# Total GULP energy -267728.305569 kJ/mol
# GULP energy per Si atom -5577.673033 kJ/mol
# Density = 1.992075 g / cm^3
# Si number density = 19.966195 Si / 1000 Ang^3
#
#
#
# Elastic Constant Matrix: (Units=GPa)
#
#
# Indices 1 2 3 4 5 6 
#
# 1 146.9785 -3.2032 89.6271 0.0000 0.0000 0.0000
# 2 -3.2032 28.4520 -3.9775 0.0000 0.0000 0.0000
# 3 89.6271 -3.9775 220.5082 0.0000 0.0000 0.0000
# 4 0.0000 0.0000 0.0000 20.0777 0.0000 0.0000
# 5 0.0000 0.0000 0.0000 0.0000 18.4020 0.0000
# 6 0.0000 0.0000 0.0000 0.0000 0.0000 2.3245
#
#
#
# Elastic Compliance Matrix: (Units=1/GPa)
#
#
# Indices 1 2 3 4 5 6 
#
# 1 0.009053 0.000506 -0.003671 0.000000 0.000000 0.000000
# 2 0.000506 0.035264 0.000430 0.000000 0.000000 0.000000
# 3 -0.003671 0.000430 0.006035 0.000000 0.000000 0.000000
# 4 0.000000 0.000000 0.000000 0.049806 0.000000 0.000000
# 5 0.000000 0.000000 0.000000 0.000000 0.054342 0.000000
# 6 0.000000 0.000000 0.000000 0.000000 0.000000 0.430194
#
#
# Mechanical properties :
#
#
# Convention : Reuss Voigt Hill
#
# Bulk Modulus (GPa) = 22.27982 62.31460 42.29721
# Shear Modulus (GPa) = 8.26278 29.06035 18.66156
#
# Velocity S-wave (km/s) = 2.03651 3.81921 3.06053
# Velocity P-wave (km/s) = 4.08813 7.12224 5.80685
#
# Compressibility (1/GPa) = 0.04488366
#
# Stress axis : x y z
#
# Youngs Moduli (GPa) = 110.46028 28.35745 165.70950
#
# Poissons Ratio (x) = -0.01435 0.60824
# Poissons Ratio (y) = -0.05590 -0.07132
# Poissons Ratio (z) = 0.40545 -0.01220
#
# Static dielectric constant tensor:
#      x y z
#    x 1.694600 0.000000 0.000000 
#    y 0.000000 1.736490 0.000000 
#    z 0.000000 0.000000 1.693780 
# 
# From -- ./inp_files/29583.got.cif
#   From: 2010.05.17/outbox.cif.g08.bks.cpg/sg51_15_cif.got.tgz:29583.got - 2010.06.03 11:52:47.
