data_PCOD9403806
_publ_section_title
;
Structure prediction by ZEFSAII (Michael W. Deem and Ramdas Pophale) SiO2 
 PCOD9403806
Probable space group: P M M A
;
_chemical_formula_sum "Si O2"
_cell_formula_units_Z 52
_cell_length_a 11.566822
_cell_length_b 7.574542
_cell_length_c 29.717656
_cell_angle_alpha 90.000000
_cell_angle_beta 90.000000
_cell_angle_gamma 90.000000
_cell_volume 2603.664259
_symmetry_space_group_name_H-M "P M M A"
_symmetry_group_IT_number 51
_symmetry_cell_setting 'orthorhombic'
loop_
_space_group_symop_operation_xyz
x,y,z
1/2-x,-y,z
1/2+x,-y,-z
-x,y,-z
-x,-y,-z
1/2+x,y,-z
1/2-x,y,z
x,-y,z
loop_
_atom_site_type_symbol
_atom_site_label
_atom_site_fract_x
_atom_site_fract_y
_atom_site_fract_z
Si Si1 0.750000 0.213268 0.289266
Si Si2 0.250000 0.787186 0.816143
Si Si3 0.613721 0.284423 0.030087
Si Si4 0.892370 0.500000 0.535222
Si Si5 0.621843 0.209015 0.791096
Si Si6 0.969830 0.699930 0.127066
Si Si7 0.612744 0.198914 0.607631
Si Si8 0.500721 0.216273 0.700064
O O1 0.750000 0.250894 0.236251
O O2 0.629591 0.278219 0.308003
O O3 0.750000 0.000000 0.293828
O O4 0.139241 0.709435 0.840128
O O5 0.250000 0.000000 0.821421
O O6 0.750000 0.229695 0.020321
O O7 0.618642 0.500000 0.029191
O O8 0.575836 0.222443 0.080100
O O9 0.500000 0.234972 0.000000
O O10 0.750000 0.500000 0.522406
O O11 0.912380 0.669976 0.567022
O O12 0.000000 0.500000 0.500000
O O13 0.750000 0.285170 0.789084
O O14 0.569930 0.227072 0.841033
O O15 0.546446 0.277226 0.748941
O O16 0.628800 0.000000 0.783301
O O17 0.003386 0.500000 0.116307
O O18 0.750000 0.185848 0.609798
O O19 0.573589 0.266070 0.656595
O O20 0.564819 0.000000 0.600869
O O21 0.500663 0.000000 0.701856
#
# Coordination Sequence:
#
# PCOD9403806 Si02
#       8
#     4   4   8   4   8   8   8   8
#     4   9  16  27  49  77 107 145 189 225 259 318
#     4  11  19  33  55  75 101 145 185 209 259 331
#     4   9  18  33  53  76 101 133 173 221 276 334
#     4  10  22  42  64  88 120 154 196 248 299 350
#     4  10  20  34  53  77 108 149 188 221 266 328
#     4  11  21  34  53  79 107 133 176 228 273 322
#     4   9  18  35  60  85 113 154 197 236 286 346
#     4   9  16  30  51  78 110 146 191 231 266 323
#
# _framework density 19.971854
#
# number of rings (size 3 to 8) (size 9 to 14) (size 15 to 20)
#    0.000    2.308    2.308    1.154    0.000    3.077 
#    2.769    1.538    0.000    1.846    0.000    0.000 
#    0.000    0.000    0.000    0.000    0.000    0.000 
#
# Total GULP energy -289494.784988 kJ/mol
# GULP energy per Si atom -5567.207404 kJ/mol
# Density = 1.992640 g / cm^3
# Si number density = 19.971854 Si / 1000 Ang^3
#
#
#
# Elastic Constant Matrix: (Units=GPa)
#
#
# Indices 1 2 3 4 5 6 
#
# 1 121.1440 16.8330 60.4548 0.0000 0.0000 0.0000
# 2 16.8330 49.3228 29.6909 0.0000 0.0000 0.0000
# 3 60.4548 29.6909 89.0065 0.0000 0.0000 0.0000
# 4 0.0000 0.0000 0.0000 18.3908 0.0000 0.0000
# 5 0.0000 0.0000 0.0000 0.0000 26.5508 0.0000
# 6 0.0000 0.0000 0.0000 0.0000 0.0000 7.6498
#
#
#
# Elastic Compliance Matrix: (Units=1/GPa)
#
#
# Indices 1 2 3 4 5 6 
#
# 1 0.012531 0.001060 -0.008865 0.000000 0.000000 0.000000
# 2 0.001060 0.025458 -0.009212 0.000000 0.000000 0.000000
# 3 -0.008865 -0.009212 0.020329 0.000000 0.000000 0.000000
# 4 0.000000 0.000000 0.000000 0.054375 0.000000 0.000000
# 5 0.000000 0.000000 0.000000 0.000000 0.037664 0.000000
# 6 0.000000 0.000000 0.000000 0.000000 0.000000 0.130722
#
#
# Mechanical properties :
#
#
# Convention : Reuss Voigt Hill
#
# Bulk Modulus (GPa) = 41.17912 52.60342 46.89127
# Shear Modulus (GPa) = 15.46983 20.68458 18.07720
#
# Velocity S-wave (km/s) = 2.78615 3.22170 3.01181
# Velocity P-wave (km/s) = 5.56898 6.34311 5.96861
#
# Compressibility (1/GPa) = 0.02428415
#
# Stress axis : x y z
#
# Youngs Moduli (GPa) = 79.80009 39.27977 49.18973
#
# Poissons Ratio (x) = -0.04163 0.43607
# Poissons Ratio (y) = -0.08457 0.45315
# Poissons Ratio (z) = 0.70743 0.36185
#
# Static dielectric constant tensor:
#      x y z
#    x 1.731930 0.000000 0.000000 
#    y 0.000000 1.771760 0.000000 
#    z 0.000000 0.000000 1.670810 
# 
# From -- ./inp_files/36606.got.cif
#   From: 2010.05.17/outbox.cif.g08.bks.cpg/sg51_19_cif.got.tgz:36606.got - 2010.06.03 11:52:47.
