data_PCOD9403111
_publ_section_title
;
Structure prediction by ZEFSAII (Michael W. Deem and Ramdas Pophale) SiO2 
 PCOD9403111
Probable space group: P M M A
;
_chemical_formula_sum "Si O2"
_cell_formula_units_Z 56
_cell_length_a 15.144128
_cell_length_b 9.206161
_cell_length_c 19.130238
_cell_angle_alpha 90.000000
_cell_angle_beta 90.000000
_cell_angle_gamma 90.000000
_cell_volume 2667.124019
_symmetry_space_group_name_H-M "P M M A"
_symmetry_group_IT_number 51
_symmetry_cell_setting 'orthorhombic'
loop_
_space_group_symop_operation_xyz
x,y,z
1/2-x,-y,z
1/2+x,-y,-z
-x,y,-z
-x,-y,-z
1/2+x,y,-z
1/2-x,y,z
x,-y,z
loop_
_atom_site_type_symbol
_atom_site_label
_atom_site_fract_x
_atom_site_fract_y
_atom_site_fract_z
Si Si1 0.914826 0.173314 0.351500
Si Si2 0.641406 0.667807 0.911918
Si Si3 0.852475 0.323020 0.063971
Si Si4 0.897710 0.671939 0.639052
Si Si5 0.891735 0.165899 0.503075
Si Si6 0.144196 0.334283 0.784399
Si Si7 0.853459 0.839291 0.777812
O O1 0.862240 0.199746 0.424006
O O2 0.873574 0.227259 0.279439
O O3 0.002336 0.269618 0.358607
O O4 0.933290 0.000000 0.350523
O O5 0.750000 0.667824 0.913258
O O6 0.614441 0.500000 0.903045
O O7 0.609509 0.759654 0.846033
O O8 0.610599 0.721132 0.988388
O O9 0.750000 0.274960 0.063742
O O10 0.852474 0.500000 0.063108
O O11 0.891034 0.283429 0.139635
O O12 0.891506 0.500000 0.641915
O O13 0.861005 0.731752 0.565517
O O14 0.858682 0.744202 0.708249
O O15 0.000000 0.170767 0.500000
O O16 0.867823 0.000000 0.520213
O O17 0.250000 0.344642 0.792020
O O18 0.111821 0.500000 0.769990
O O19 0.750000 0.855260 0.792661
O O20 0.892095 0.000000 0.766322
#
# Coordination Sequence:
#
# PCOD9403111 Si02
#       7
#     8   8   8   8   8   8   8
#     4  10  20  34  52  73  99 130 162 196 239 291
#     4   8  13  24  44  68  93 123 161 199 233 276
#     4   7  11  22  42  67  94 125 159 196 237 278
#     4  11  21  33  53  76  96 122 160 203 242 283
#     4   8  16  32  51  70  94 125 159 195 237 287
#     4   9  17  30  49  74 103 132 164 202 241 281
#     4  10  20  33  49  71 101 132 159 193 241 291
#
# _framework density 20.996399
#
# number of rings (size 3 to 8) (size 9 to 14) (size 15 to 20)
#    0.000    3.000    0.000    4.714    0.000    4.286 
#    0.000    1.429    0.000    4.286    0.000    6.000 
#    0.000    0.000    0.000    0.000    0.000    0.000 
#
# Total GULP energy -312061.273587 kJ/mol
# GULP energy per Si atom -5572.522743 kJ/mol
# Density = 2.094861 g / cm^3
# Si number density = 20.996399 Si / 1000 Ang^3
#
#
#
# Elastic Constant Matrix: (Units=GPa)
#
#
# Indices 1 2 3 4 5 6 
#
# 1 26.8075 8.5338 9.4030 0.0000 0.0000 0.0000
# 2 8.5338 123.5709 107.6074 0.0000 0.0000 0.0000
# 3 9.4030 107.6074 230.9947 0.0000 0.0000 0.0000
# 4 0.0000 0.0000 0.0000 51.3335 0.0000 0.0000
# 5 0.0000 0.0000 0.0000 0.0000 18.1372 0.0000
# 6 0.0000 0.0000 0.0000 0.0000 0.0000 11.2346
#
#
#
# Elastic Compliance Matrix: (Units=1/GPa)
#
#
# Indices 1 2 3 4 5 6 
#
# 1 0.038183 -0.002159 -0.000548 0.000000 0.000000 0.000000
# 2 -0.002159 0.013738 -0.006312 0.000000 0.000000 0.000000
# 3 -0.000548 -0.006312 0.007292 0.000000 0.000000 0.000000
# 4 0.000000 0.000000 0.000000 0.019480 0.000000 0.000000
# 5 0.000000 0.000000 0.000000 0.000000 0.055135 0.000000
# 6 0.000000 0.000000 0.000000 0.000000 0.000000 0.089010
#
#
# Mechanical properties :
#
#
# Convention : Reuss Voigt Hill
#
# Bulk Modulus (GPa) = 24.28753 70.27350 47.28052
# Shear Modulus (GPa) = 19.63844 33.19634 26.41739
#
# Velocity S-wave (km/s) = 3.06163 3.98055 3.55094
# Velocity P-wave (km/s) = 4.90822 7.39381 6.27531
#
# Compressibility (1/GPa) = 0.04117339
#
# Stress axis : x y z
#
# Youngs Moduli (GPa) = 26.18982 72.78988 137.14037
#
# Poissons Ratio (x) = 0.15718 0.07520
# Poissons Ratio (y) = 0.05655 0.86562
# Poissons Ratio (z) = 0.01436 0.45945
#
# Static dielectric constant tensor:
#      x y z
#    x 1.864490 0.000000 0.000000 
#    y 0.000000 1.718370 0.000000 
#    z 0.000000 0.000000 1.814500 
# 
# From -- ./inp_files/25660.got.cif
#   From: 2010.05.17/outbox.cif.g08.bks.cpg/sg51_13_cif.got.tgz:25660.got - 2010.06.03 11:52:47.
