data_PCOD9403503
_publ_section_title
;
Structure prediction by ZEFSAII (Michael W. Deem and Ramdas Pophale) SiO2 
 PCOD9403503
Probable space group: P M M A
;
_chemical_formula_sum "Si O2"
_cell_formula_units_Z 40
_cell_length_a 8.748912
_cell_length_b 26.384029
_cell_length_c 9.335555
_cell_angle_alpha 90.000000
_cell_angle_beta 90.000000
_cell_angle_gamma 90.000000
_cell_volume 2154.940611
_symmetry_space_group_name_H-M "P M M A"
_symmetry_group_IT_number 51
_symmetry_cell_setting 'orthorhombic'
loop_
_space_group_symop_operation_xyz
x,y,z
1/2-x,-y,z
1/2+x,-y,-z
-x,y,-z
-x,-y,-z
1/2+x,y,-z
1/2-x,y,z
x,-y,z
loop_
_atom_site_type_symbol
_atom_site_label
_atom_site_fract_x
_atom_site_fract_y
_atom_site_fract_z
Si Si1 0.432300 0.559511 0.157142
Si Si2 0.567467 0.840920 0.660062
Si Si3 0.933199 0.055274 0.338441
Si Si4 0.433444 0.259324 0.159044
Si Si5 0.932505 0.648167 0.341633
O O1 0.250000 0.567813 0.155882
O O2 0.460799 0.500000 0.186237
O O3 0.510340 0.595855 0.271636
O O4 0.500000 0.570935 0.000000
O O5 0.500000 0.834400 0.500000
O O6 0.750000 0.845275 0.648181
O O7 0.501796 0.893290 0.724896
O O8 0.529654 0.792356 0.755809
O O9 0.750000 0.059291 0.345055
O O10 0.000000 0.054354 0.500000
O O11 0.971947 0.000000 0.273492
O O12 0.250000 0.264761 0.154395
O O13 0.504514 0.306462 0.243680
O O14 0.500000 0.257495 0.000000
O O15 0.750000 0.649624 0.346200
O O16 0.000000 0.653689 0.500000
#
# Coordination Sequence:
#
# PCOD9403503 Si02
#       5
#     8   8   8   8   8
#     4  10  21  39  63  90 121 157 195 234 278 330
#     4  10  20  33  53  80 109 142 180 225 275 327
#     4   9  16  26  44  72 105 140 177 219 268 322
#     4  11  24  41  60  83 111 146 188 231 281 338
#     4  12  25  41  62  87 117 151 189 235 284 334
#
# _framework density 18.561995
#
# number of rings (size 3 to 8) (size 9 to 14) (size 15 to 20)
#    0.000    1.600    0.000    6.600    0.000    7.600 
#    0.000    0.000    0.000    0.600    0.000    0.000 
#    0.000    0.000    0.000    0.000    0.000    0.000 
#
# Total GULP energy -223465.310015 kJ/mol
# GULP energy per Si atom -5586.632750 kJ/mol
# Density = 1.851975 g / cm^3
# Si number density = 18.561995 Si / 1000 Ang^3
#
#
#
# Elastic Constant Matrix: (Units=GPa)
#
#
# Indices 1 2 3 4 5 6 
#
# 1 107.5588 76.6785 58.3759 0.0000 0.0000 0.0000
# 2 76.6785 126.9931 81.6585 0.0000 0.0000 0.0000
# 3 58.3759 81.6585 115.7490 0.0000 0.0000 0.0000
# 4 0.0000 0.0000 0.0000 -182.5294 0.0000 0.0000
# 5 0.0000 0.0000 0.0000 0.0000 30.3636 0.0000
# 6 0.0000 0.0000 0.0000 0.0000 0.0000 37.9302
#
#
#
# Elastic Compliance Matrix: (Units=1/GPa)
#
#
# Indices 1 2 3 4 5 6 
#
# 1 0.016678 -0.008532 -0.002392 0.000000 0.000000 0.000000
# 2 -0.008532 0.018777 -0.008944 0.000000 0.000000 0.000000
# 3 -0.002392 -0.008944 0.016156 0.000000 0.000000 0.000000
# 4 0.000000 0.000000 0.000000 -0.005479 0.000000 0.000000
# 5 0.000000 0.000000 0.000000 0.000000 0.032934 0.000000
# 6 0.000000 0.000000 0.000000 0.000000 0.000000 0.026364
#
#
# Mechanical properties :
#
#
# Convention : Reuss Voigt Hill
#
# Bulk Modulus (GPa) = 84.21317 87.08076 85.64696
# Shear Modulus (GPa) = 33.52899 -13.94125 9.79387
#
# Velocity S-wave (km/s) = 4.25470 -2.74353 2.29951
# Velocity P-wave (km/s) = 8.34288 6.08107 7.30011
#
# Compressibility (1/GPa) = 0.01187463
#
# Stress axis : x y z
#
# Youngs Moduli (GPa) = 59.95936 53.25615 61.89830
#
# Poissons Ratio (x) = 0.45438 0.14806
# Poissons Ratio (y) = 0.51158 0.55361
# Poissons Ratio (z) = 0.14343 0.47632
#
# Static dielectric constant tensor:
#      x y z
#    x 1.618480 0.000000 0.000000 
#    y 0.000000 1.667870 0.000000 
#    z 0.000000 0.000000 1.601590 
# 
# From -- ./inp_files/5268.got.cif
#   From: 2010.05.17/outbox.cif.g08.bks.cpg/sg51_3_cif.got.tgz:5268.got - 2010.06.03 11:52:47.
