data_PCOD9403235
_publ_section_title
;
Structure prediction by ZEFSAII (Michael W. Deem and Ramdas Pophale) SiO2 
 PCOD9403235
Probable space group: P M M A
;
_chemical_formula_sum "Si O2"
_cell_formula_units_Z 64
_cell_length_a 8.856919
_cell_length_b 29.218493
_cell_length_c 14.187097
_cell_angle_alpha 90.000000
_cell_angle_beta 90.000000
_cell_angle_gamma 90.000000
_cell_volume 3671.419613
_symmetry_space_group_name_H-M "P M M A"
_symmetry_group_IT_number 51
_symmetry_cell_setting 'orthorhombic'
loop_
_space_group_symop_operation_xyz
x,y,z
1/2-x,-y,z
1/2+x,-y,-z
-x,y,-z
-x,-y,-z
1/2+x,y,-z
1/2-x,y,z
x,-y,z
loop_
_atom_site_type_symbol
_atom_site_label
_atom_site_fract_x
_atom_site_fract_y
_atom_site_fract_z
Si Si1 0.930020 0.553512 0.397006
Si Si2 0.422359 0.055656 0.595955
Si Si3 0.430681 0.276923 0.602866
Si Si4 0.431676 0.363901 0.289624
Si Si5 0.068132 0.225467 0.226393
Si Si6 0.569691 0.686375 0.897664
Si Si7 0.431955 0.947933 0.205512
Si Si8 0.568341 0.140661 0.900030
O O1 0.750000 0.560743 0.400207
O O2 0.958454 0.500000 0.375705
O O3 0.000000 0.563012 0.500000
O O4 0.005849 0.587683 0.323368
O O5 0.500000 0.072183 0.500000
O O6 0.250000 0.071287 0.601629
O O7 0.511542 0.066549 0.691058
O O8 0.420947 0.000000 0.591191
O O9 0.500000 0.269105 0.500000
O O10 0.250000 0.279039 0.598560
O O11 0.496524 0.324545 0.644453
O O12 0.485419 0.238690 0.677401
O O13 0.250000 0.361831 0.298409
O O14 0.472412 0.350814 0.182049
O O15 0.250000 0.227541 0.241415
O O16 0.029488 0.264817 0.149751
O O17 0.027915 0.176993 0.180914
O O18 0.750000 0.685551 0.907299
O O19 0.500000 0.680132 0.000000
O O20 0.250000 0.948430 0.206732
O O21 0.482051 0.910057 0.130818
O O22 0.484392 0.000000 0.186629
O O23 0.750000 0.141066 0.907519
O O24 0.500000 0.153844 0.000000
#
# Coordination Sequence:
#
# PCOD9403235 Si02
#       8
#     8   8   8   8   8   8   8   8
#     4  10  20  33  50  74 104 139 179 222 266 312
#     4   9  16  27  46  71  96 123 155 193 237 284
#     4  11  21  34  54  79 107 139 171 206 251 303
#     4  10  20  34  51  75 107 141 177 217 261 307
#     4   9  19  36  53  74 103 132 166 206 250 299
#     4   9  18  31  50  74  99 127 161 207 256 302
#     4   9  18  33  51  73 102 134 168 206 248 294
#     4  10  21  36  55  76 101 133 167 208 254 300
#
# _framework density 17.431948999999999
#
# number of rings (size 3 to 8) (size 9 to 14) (size 15 to 20)
#    0.000    2.375    0.000    3.750    0.000    6.000 
#    0.000    0.625    0.000    0.375    0.000    0.000 
#    0.000    0.000    0.000    0.000    0.000    0.000 
#
# Total GULP energy -357048.660617 kJ/mol
# GULP energy per Si atom -5578.885322 kJ/mol
# Density = 1.739227 g / cm^3
# Si number density = 17.431949 Si / 1000 Ang^3
#
#
#
# Elastic Constant Matrix: (Units=GPa)
#
#
# Indices 1 2 3 4 5 6 
#
# 1 57.3537 38.0444 48.6422 0.0000 0.0000 0.0000
# 2 38.0444 81.3451 59.3241 0.0000 0.0000 0.0000
# 3 48.6422 59.3241 136.8125 0.0000 0.0000 0.0000
# 4 0.0000 0.0000 0.0000 21.7859 0.0000 0.0000
# 5 0.0000 0.0000 0.0000 0.0000 33.2611 0.0000
# 6 0.0000 0.0000 0.0000 0.0000 0.0000 18.9099
#
#
#
# Elastic Compliance Matrix: (Units=1/GPa)
#
#
# Indices 1 2 3 4 5 6 
#
# 1 0.028659 -0.008735 -0.006402 0.000000 0.000000 0.000000
# 2 -0.008735 0.020641 -0.005845 0.000000 0.000000 0.000000
# 3 -0.006402 -0.005845 0.012120 0.000000 0.000000 0.000000
# 4 0.000000 0.000000 0.000000 0.045901 0.000000 0.000000
# 5 0.000000 0.000000 0.000000 0.000000 0.030065 0.000000
# 6 0.000000 0.000000 0.000000 0.000000 0.000000 0.052882
#
#
# Mechanical properties :
#
#
# Convention : Reuss Voigt Hill
#
# Bulk Modulus (GPa) = 51.39508 63.05917 57.22712
# Shear Modulus (GPa) = 20.94528 23.42476 22.18502
#
# Velocity S-wave (km/s) = 3.47009 3.66974 3.57131
# Velocity P-wave (km/s) = 6.75297 7.36268 7.06441
#
# Compressibility (1/GPa) = 0.01945711
#
# Stress axis : x y z
#
# Youngs Moduli (GPa) = 34.89272 48.44738 82.50995
#
# Poissons Ratio (x) = 0.42318 0.52822
# Poissons Ratio (y) = 0.30478 0.48224
# Poissons Ratio (z) = 0.22338 0.28316
#
# Static dielectric constant tensor:
#      x y z
#    x 1.583720 0.000000 0.000000 
#    y 0.000000 1.602600 0.000000 
#    z 0.000000 0.000000 1.570080 
# 
# From -- ./inp_files/14849.got.cif
#   From: 2010.05.17/outbox.cif.g08.bks.cpg/sg51_8_cif.got.tgz:14849.got - 2010.06.03 11:52:47.
