data_PCOD9403443
_publ_section_title
;
Structure prediction by ZEFSAII (Michael W. Deem and Ramdas Pophale) SiO2 
 PCOD9403443
Probable space group: P M M A
;
_chemical_formula_sum "Si O2"
_cell_formula_units_Z 52
_cell_length_a 9.386885
_cell_length_b 19.468374
_cell_length_c 15.136950
_cell_angle_alpha 90.000000
_cell_angle_beta 90.000000
_cell_angle_gamma 90.000000
_cell_volume 2766.238073
_symmetry_space_group_name_H-M "P M M A"
_symmetry_group_IT_number 51
_symmetry_cell_setting 'orthorhombic'
loop_
_space_group_symop_operation_xyz
x,y,z
1/2-x,-y,z
1/2+x,-y,-z
-x,y,-z
-x,-y,-z
1/2+x,y,-z
1/2-x,y,z
x,-y,z
loop_
_atom_site_type_symbol
_atom_site_label
_atom_site_fract_x
_atom_site_fract_y
_atom_site_fract_z
Si Si1 0.420587 0.131192 0.784935
Si Si2 0.419806 0.683980 0.588736
Si Si3 0.585419 0.607871 0.912912
Si Si4 0.415214 0.773748 0.088319
Si Si5 0.417836 0.576646 0.737559
Si Si6 0.419249 0.153602 0.588910
Si Si7 0.081011 0.000000 0.907387
O O1 0.250000 0.145406 0.787324
O O2 0.506524 0.193963 0.827552
O O3 0.458093 0.118964 0.682255
O O4 0.450802 0.066408 0.847449
O O5 0.500000 0.663043 0.500000
O O6 0.250000 0.676505 0.577248
O O7 0.462667 0.635896 0.669885
O O8 0.448428 0.764870 0.603112
O O9 0.750000 0.587192 0.917660
O O10 0.580479 0.691178 0.908372
O O11 0.508410 0.581012 0.826080
O O12 0.500000 0.586639 0.000000
O O13 0.250000 0.795297 0.083397
O O14 0.500000 0.795739 0.000000
O O15 0.250000 0.587041 0.758405
O O16 0.432361 0.500000 0.698643
O O17 0.500000 0.131606 0.500000
O O18 0.250000 0.145373 0.575117
O O19 0.250000 0.000000 0.925183
O O20 0.000000 0.000000 0.000000
#
# Coordination Sequence:
#
# PCOD9403443 Si02
#       7
#     8   8   8   8   8   8   4
#     4  10  20  35  55  78 107 144 180 216 260 308
#     4   9  18  33  53  77 104 134 169 212 262 312
#     4  10  21  36  54  76 102 133 171 217 267 317
#     4  10  20  33  52  79 106 133 170 217 266 316
#     4  10  21  36  53  74 102 137 176 216 259 311
#     4   9  18  33  54  78 104 135 172 216 264 310
#     4  10  22  38  55  78 110 146 183 218 255 306
#
# _framework density 18.798093000000001
#
# number of rings (size 3 to 8) (size 9 to 14) (size 15 to 20)
#    0.000    2.308    0.000    2.308    0.000    7.077 
#    0.000    3.462    0.000    0.000    0.000    0.000 
#    0.000    0.000    0.000    0.000    0.000    0.000 
#
# Total GULP energy -290305.096321 kJ/mol
# GULP energy per Si atom -5582.790314 kJ/mol
# Density = 1.875531 g / cm^3
# Si number density = 18.798093 Si / 1000 Ang^3
#
#
#
# Elastic Constant Matrix: (Units=GPa)
#
#
# Indices 1 2 3 4 5 6 
#
# 1 54.9580 29.2198 57.9451 0.0000 0.0000 0.0000
# 2 29.2198 39.0497 40.1856 0.0000 0.0000 0.0000
# 3 57.9451 40.1856 159.7152 0.0000 0.0000 0.0000
# 4 0.0000 0.0000 0.0000 -30.5460 0.0000 0.0000
# 5 0.0000 0.0000 0.0000 0.0000 38.7315 0.0000
# 6 0.0000 0.0000 0.0000 0.0000 0.0000 15.4422
#
#
#
# Elastic Compliance Matrix: (Units=1/GPa)
#
#
# Indices 1 2 3 4 5 6 
#
# 1 0.037695 -0.019070 -0.008878 0.000000 0.000000 0.000000
# 2 -0.019070 0.044204 -0.004203 0.000000 0.000000 0.000000
# 3 -0.008878 -0.004203 0.010540 0.000000 0.000000 0.000000
# 4 0.000000 0.000000 0.000000 -0.032738 0.000000 0.000000
# 5 0.000000 0.000000 0.000000 0.000000 0.025819 0.000000
# 6 0.000000 0.000000 0.000000 0.000000 0.000000 0.064757
#
#
# Mechanical properties :
#
#
# Convention : Reuss Voigt Hill
#
# Bulk Modulus (GPa) = 35.54171 56.49154 46.01663
# Shear Modulus (GPa) = 22.32564 13.15038 17.73801
#
# Velocity S-wave (km/s) = 3.44998 2.64779 3.07515
# Velocity P-wave (km/s) = 5.90067 6.28209 6.09437
#
# Compressibility (1/GPa) = 0.02813596
#
# Stress axis : x y z
#
# Youngs Moduli (GPa) = 26.52874 22.62257 94.88076
#
# Poissons Ratio (x) = 0.43142 0.84231
# Poissons Ratio (y) = 0.50591 0.39881
# Poissons Ratio (z) = 0.23551 0.09509
#
# Static dielectric constant tensor:
#      x y z
#    x 1.627460 0.000000 0.000000 
#    y 0.000000 1.674280 0.000000 
#    z 0.000000 0.000000 1.625400 
# 
# From -- ./inp_files/21529.got.cif
#   From: 2010.05.17/outbox.cif.g08.bks.cpg/sg51_11_cif.got.tgz:21529.got - 2010.06.03 11:52:47.
