data_PCOD9403742
_publ_section_title
;
Structure prediction by ZEFSAII (Michael W. Deem and Ramdas Pophale) SiO2 
 PCOD9403742
Probable space group: P M M A
;
_chemical_formula_sum "Si O2"
_cell_formula_units_Z 48
_cell_length_a 9.278044
_cell_length_b 7.526973
_cell_length_c 31.866248
_cell_angle_alpha 90.000000
_cell_angle_beta 90.000000
_cell_angle_gamma 90.000000
_cell_volume 2225.398124
_symmetry_space_group_name_H-M "P M M A"
_symmetry_group_IT_number 51
_symmetry_cell_setting 'orthorhombic'
loop_
_space_group_symop_operation_xyz
x,y,z
1/2-x,-y,z
1/2+x,-y,-z
-x,y,-z
-x,-y,-z
1/2+x,y,-z
1/2-x,y,z
x,-y,z
loop_
_atom_site_type_symbol
_atom_site_label
_atom_site_fract_x
_atom_site_fract_y
_atom_site_fract_z
Si Si1 0.083776 0.217045 0.374508
Si Si2 0.916314 0.782859 0.458154
Si Si3 0.913219 0.288588 0.124270
Si Si4 0.083781 0.782533 0.709267
Si Si5 0.586814 0.788209 0.791186
Si Si6 0.912744 0.211511 0.960055
O O1 0.250000 0.274025 0.374591
O O2 0.999753 0.273681 0.416277
O O3 0.000646 0.272721 0.332531
O O4 0.084187 0.000000 0.374604
O O5 0.750000 0.726242 0.458199
O O6 0.000000 0.726482 0.500000
O O7 0.916107 0.000000 0.458142
O O8 0.750000 0.215772 0.124619
O O9 0.903432 0.500000 0.123747
O O10 0.000388 0.239486 0.165951
O O11 0.999503 0.236088 0.082686
O O12 0.250000 0.726015 0.708876
O O13 0.001520 0.720794 0.751033
O O14 0.084316 0.000000 0.709525
O O15 0.750000 0.717502 0.793549
O O16 0.597865 0.000000 0.785380
O O17 0.750000 0.283057 0.957077
O O18 0.900361 0.000000 0.966376
O O19 0.000000 0.284236 0.000000
#
# Coordination Sequence:
#
# PCOD9403742 Si02
#       6
#     8   8   8   8   8   8
#     4   9  15  22  32  47  69  97 132 178 229 279
#     4   9  15  21  28  39  58  88 128 173 222 277
#     4  11  24  39  55  78 108 141 175 210 251 299
#     4   9  16  26  41  61  84 111 145 188 238 288
#     4  10  20  34  53  76 100 128 165 208 253 301
#     4  10  21  38  61  87 112 140 175 213 253 297
#
# _framework density 21.569171999999998
#
# number of rings (size 3 to 8) (size 9 to 14) (size 15 to 20)
#    0.000    2.333    0.000    3.500    0.000   11.667 
#    0.000    0.000    0.000    0.000    0.000    0.000 
#    0.000    0.000    0.000    0.000    0.000    0.833 
#
# Total GULP energy -268302.537251 kJ/mol
# GULP energy per Si atom -5589.636193 kJ/mol
# Density = 2.152008 g / cm^3
# Si number density = 21.569172 Si / 1000 Ang^3
#
#
#
# Elastic Constant Matrix: (Units=GPa)
#
#
# Indices 1 2 3 4 5 6 
#
# 1 281.5353 6.9179 169.4157 0.0000 0.0000 0.0000
# 2 6.9179 54.8599 -3.0279 0.0000 0.0000 0.0000
# 3 169.4157 -3.0279 258.3408 0.0000 0.0000 0.0000
# 4 0.0000 0.0000 0.0000 -72.8242 0.0000 0.0000
# 5 0.0000 0.0000 0.0000 0.0000 48.9375 0.0000
# 6 0.0000 0.0000 0.0000 0.0000 0.0000 -4.1433
#
#
#
# Elastic Compliance Matrix: (Units=1/GPa)
#
#
# Indices 1 2 3 4 5 6 
#
# 1 0.005918 -0.000961 -0.003892 0.000000 0.000000 0.000000
# 2 -0.000961 0.018396 0.000846 0.000000 0.000000 0.000000
# 3 -0.003892 0.000846 0.006433 0.000000 0.000000 0.000000
# 4 0.000000 0.000000 0.000000 -0.013732 0.000000 0.000000
# 5 0.000000 0.000000 0.000000 0.000000 0.020434 0.000000
# 6 0.000000 0.000000 0.000000 0.000000 0.000000 -0.241355
#
#
# Mechanical properties :
#
#
# Convention : Reuss Voigt Hill
#
# Bulk Modulus (GPa) = 43.98985 104.59415 74.29200
# Shear Modulus (GPa) = -26.55134 22.48936 -2.03099
#
# Velocity S-wave (km/s) = -3.51235 3.23253 -0.97142
# Velocity P-wave (km/s) = 1.99757 7.90759 5.76716
#
# Compressibility (1/GPa) = 0.02273252
#
# Stress axis : x y z
#
# Youngs Moduli (GPa) = 168.98925 54.35930 155.44833
#
# Poissons Ratio (x) = 0.05224 0.60499
# Poissons Ratio (y) = 0.16240 -0.13148
# Poissons Ratio (z) = 0.65769 -0.04598
#
# Static dielectric constant tensor:
#      x y z
#    x 1.757300 0.000000 0.000000 
#    y 0.000000 1.816730 0.000000 
#    z 0.000000 0.000000 1.730950 
# 
# From -- ./inp_files/36989.got.cif
#   From: 2010.05.17/outbox.cif.g08.bks.cpg/sg51_19_cif.got.tgz:36989.got - 2010.06.03 11:52:47.
