data_PCOD9403669
_publ_section_title
;
Structure prediction by ZEFSAII (Michael W. Deem and Ramdas Pophale) SiO2 
 PCOD9403669
Probable space group: P M M A
;
_chemical_formula_sum "Si O2"
_cell_formula_units_Z 48
_cell_length_a 8.870531
_cell_length_b 14.081207
_cell_length_c 19.953643
_cell_angle_alpha 90.000000
_cell_angle_beta 90.000000
_cell_angle_gamma 90.000000
_cell_volume 2492.365314
_symmetry_space_group_name_H-M "P M M A"
_symmetry_group_IT_number 51
_symmetry_cell_setting 'orthorhombic'
loop_
_space_group_symop_operation_xyz
x,y,z
1/2-x,-y,z
1/2+x,-y,-z
-x,y,-z
-x,-y,-z
1/2+x,y,-z
1/2-x,y,z
x,-y,z
loop_
_atom_site_type_symbol
_atom_site_label
_atom_site_fract_x
_atom_site_fract_y
_atom_site_fract_z
Si Si1 0.426490 0.767814 0.188379
Si Si2 0.422346 0.384228 0.569648
Si Si3 0.078516 0.884474 0.431409
Si Si4 0.580445 0.113516 0.296204
Si Si5 0.567476 0.389473 0.281048
Si Si6 0.569306 0.108441 0.074039
O O1 0.250000 0.753801 0.177656
O O2 0.460918 0.847532 0.244128
O O3 0.500535 0.675205 0.222437
O O4 0.503542 0.810817 0.122236
O O5 0.500000 0.356124 0.500000
O O6 0.250000 0.351178 0.567159
O O7 0.421302 0.500000 0.570159
O O8 0.485414 0.359292 0.643665
O O9 0.250000 0.849596 0.424945
O O10 0.000000 0.856085 0.500000
O O11 0.972353 0.857958 0.369890
O O12 0.085759 0.000000 0.431411
O O13 0.750000 0.148707 0.280947
O O14 0.584346 0.000000 0.293330
O O15 0.750000 0.383466 0.281301
O O16 0.527389 0.500000 0.271691
O O17 0.750000 0.115750 0.071520
O O18 0.533440 0.000000 0.098204
O O19 0.500000 0.117057 0.000000
#
# Coordination Sequence:
#
# PCOD9403669 Si02
#       6
#     8   8   8   8   8   8
#     4  12  24  36  55  84 116 148 184 227 276 334
#     4   8  14  26  47  74 102 135 177 228 287 344
#     4   9  16  27  44  66  94 131 175 221 270 325
#     4  10  20  34  52  74 102 138 180 226 275 326
#     4   9  19  37  58  79 108 149 195 241 290 343
#     4  10  21  39  64  93 124 156 188 223 267 323
#
# _framework density 19.258814999999998
#
# number of rings (size 3 to 8) (size 9 to 14) (size 15 to 20)
#    0.000    2.333    0.000    4.500    0.000    7.000 
#    0.000    2.500    0.000    2.500    0.000    0.000 
#    0.000    0.000    0.000    0.000    0.000    0.000 
#
# Total GULP energy -267992.890562 kJ/mol
# GULP energy per Si atom -5583.185220 kJ/mol
# Density = 1.921498 g / cm^3
# Si number density = 19.258815 Si / 1000 Ang^3
#
#
#
# Elastic Constant Matrix: (Units=GPa)
#
#
# Indices 1 2 3 4 5 6 
#
# 1 75.7837 33.6179 36.3086 0.0000 0.0000 0.0000
# 2 33.6179 108.6912 53.0015 0.0000 0.0000 0.0000
# 3 36.3086 53.0015 115.9617 0.0000 0.0000 0.0000
# 4 0.0000 0.0000 0.0000 55.8898 0.0000 0.0000
# 5 0.0000 0.0000 0.0000 0.0000 31.1242 0.0000
# 6 0.0000 0.0000 0.0000 0.0000 0.0000 20.2414
#
#
#
# Elastic Compliance Matrix: (Units=1/GPa)
#
#
# Indices 1 2 3 4 5 6 
#
# 1 0.016398 -0.003305 -0.003624 0.000000 0.000000 0.000000
# 2 -0.003305 0.012505 -0.004681 0.000000 0.000000 0.000000
# 3 -0.003624 -0.004681 0.011898 0.000000 0.000000 0.000000
# 4 0.000000 0.000000 0.000000 0.017892 0.000000 0.000000
# 5 0.000000 0.000000 0.000000 0.000000 0.032129 0.000000
# 6 0.000000 0.000000 0.000000 0.000000 0.000000 0.049404
#
#
# Mechanical properties :
#
#
# Convention : Reuss Voigt Hill
#
# Bulk Modulus (GPa) = 56.87749 60.69919 58.78834
# Shear Modulus (GPa) = 29.53254 33.28498 31.40876
#
# Velocity S-wave (km/s) = 3.92018 4.16179 4.04279
# Velocity P-wave (km/s) = 7.07727 7.39460 7.23767
#
# Compressibility (1/GPa) = 0.01758165
#
# Stress axis : x y z
#
# Youngs Moduli (GPa) = 60.98457 79.96780 84.05051
#
# Poissons Ratio (x) = 0.26426 0.30458
# Poissons Ratio (y) = 0.20153 0.39343
# Poissons Ratio (z) = 0.22100 0.37432
#
# Static dielectric constant tensor:
#      x y z
#    x 1.662830 0.000000 0.000000 
#    y 0.000000 1.731840 0.000000 
#    z 0.000000 0.000000 1.676140 
# 
# From -- ./inp_files/27586.got.cif
#   From: 2010.05.17/outbox.cif.g08.bks.cpg/sg51_14_cif.got.tgz:27586.got - 2010.06.03 11:52:47.
