data_PCOD9403566
_publ_section_title
;
Structure prediction by ZEFSAII (Michael W. Deem and Ramdas Pophale) SiO2 
 PCOD9403566
Probable space group: P M M A
;
_chemical_formula_sum "Si O2"
_cell_formula_units_Z 52
_cell_length_a 8.647683
_cell_length_b 27.283450
_cell_length_c 13.881903
_cell_angle_alpha 90.000000
_cell_angle_beta 90.000000
_cell_angle_gamma 90.000000
_cell_volume 3275.277130
_symmetry_space_group_name_H-M "P M M A"
_symmetry_group_IT_number 51
_symmetry_cell_setting 'orthorhombic'
loop_
_space_group_symop_operation_xyz
x,y,z
1/2-x,-y,z
1/2+x,-y,-z
-x,y,-z
-x,-y,-z
1/2+x,y,-z
1/2-x,y,z
x,-y,z
loop_
_atom_site_type_symbol
_atom_site_label
_atom_site_fract_x
_atom_site_fract_y
_atom_site_fract_z
Si Si1 0.434568 0.155284 0.109039
Si Si2 0.065013 0.500000 0.391533
Si Si3 0.564720 0.351295 0.104332
Si Si4 0.935068 0.302333 0.604563
Si Si5 0.563464 0.599390 0.302063
Si Si6 0.064519 0.946378 0.890845
Si Si7 0.063729 0.748539 0.791165
O O1 0.250000 0.156020 0.104892
O O2 0.491937 0.103069 0.151051
O O3 0.498196 0.200839 0.169208
O O4 0.500000 0.159349 0.000000
O O5 0.250000 0.500000 0.394310
O O6 0.000000 0.500000 0.500000
O O7 0.003866 0.451645 0.337892
O O8 0.750000 0.351830 0.099308
O O9 0.519403 0.387212 0.191866
O O10 0.518008 0.296460 0.137871
O O11 0.500000 0.363531 0.000000
O O12 0.750000 0.303039 0.604230
O O13 0.000000 0.289224 0.500000
O O14 0.999006 0.356067 0.633556
O O15 0.997457 0.266144 0.687228
O O16 0.750000 0.599136 0.308741
O O17 0.250000 0.941581 0.893935
O O18 0.026921 0.000000 0.847386
O O19 0.000000 0.947813 0.000000
O O20 0.250000 0.749906 0.787181
#
# Coordination Sequence:
#
# PCOD9403566 Si02
#       7
#     8   4   8   8   8   8   8
#     4  11  20  29  43  65  94 129 165 203 245 288
#     4  12  24  38  57  80 101 126 157 198 246 292
#     4   9  19  33  52  73  97 128 161 196 235 276
#     4  11  21  35  54  76 100 128 159 194 238 289
#     4  10  21  38  55  76 103 131 161 197 237 282
#     4   9  16  26  40  58  83 119 161 202 243 287
#     4  10  20  34  49  70  98 128 163 203 242 285
#
# _framework density 15.876518000000001
#
# number of rings (size 3 to 8) (size 9 to 14) (size 15 to 20)
#    0.000    1.846    0.000    7.615    0.000    5.846 
#    0.000    0.385    0.000    0.000    0.000    0.000 
#    0.000    0.615    0.000    2.308    0.000    3.846 
#
# Total GULP energy -290205.361142 kJ/mol
# GULP energy per Si atom -5580.872330 kJ/mol
# Density = 1.584038 g / cm^3
# Si number density = 15.876518 Si / 1000 Ang^3
#
#
#
# Elastic Constant Matrix: (Units=GPa)
#
#
# Indices 1 2 3 4 5 6 
#
# 1 112.8812 60.0398 42.0175 0.0000 0.0000 0.0000
# 2 60.0398 155.9129 65.0904 0.0000 0.0000 0.0000
# 3 42.0175 65.0904 99.6929 0.0000 0.0000 0.0000
# 4 0.0000 0.0000 0.0000 16.2351 0.0000 0.0000
# 5 0.0000 0.0000 0.0000 0.0000 26.7193 0.0000
# 6 0.0000 0.0000 0.0000 0.0000 0.0000 33.5652
#
#
#
# Elastic Compliance Matrix: (Units=1/GPa)
#
#
# Indices 1 2 3 4 5 6 
#
# 1 0.011655 -0.003351 -0.002725 0.000000 0.000000 0.000000
# 2 -0.003351 0.009781 -0.004974 0.000000 0.000000 0.000000
# 3 -0.002725 -0.004974 0.014426 0.000000 0.000000 0.000000
# 4 0.000000 0.000000 0.000000 0.061595 0.000000 0.000000
# 5 0.000000 0.000000 0.000000 0.000000 0.037426 0.000000
# 6 0.000000 0.000000 0.000000 0.000000 0.000000 0.029793
#
#
# Mechanical properties :
#
#
# Convention : Reuss Voigt Hill
#
# Bulk Modulus (GPa) = 72.65131 78.08690 75.36911
# Shear Modulus (GPa) = 26.12847 28.72654 27.42751
#
# Velocity S-wave (km/s) = 4.06116 4.25829 4.16089
# Velocity P-wave (km/s) = 8.23713 8.57135 8.40590
#
# Compressibility (1/GPa) = 0.01376438
#
# Stress axis : x y z
#
# Youngs Moduli (GPa) = 85.79800 102.24382 69.31743
#
# Poissons Ratio (x) = 0.34260 0.18886
# Poissons Ratio (y) = 0.28750 0.34475
# Poissons Ratio (z) = 0.23376 0.50851
#
# Static dielectric constant tensor:
#      x y z
#    x 1.528190 0.000000 0.000000 
#    y 0.000000 1.543770 0.000000 
#    z 0.000000 0.000000 1.514580 
# 
# From -- ./inp_files/14619.got.cif
#   From: 2010.05.17/outbox.cif.g08.bks.cpg/sg51_8_cif.got.tgz:14619.got - 2010.06.03 11:52:47.
