data_PCOD9403832
_publ_section_title
;
Structure prediction by ZEFSAII (Michael W. Deem and Ramdas Pophale) SiO2 
 PCOD9403832
Probable space group: P M M A
;
_chemical_formula_sum "Si O2"
_cell_formula_units_Z 64
_cell_length_a 8.670556
_cell_length_b 20.176302
_cell_length_c 21.191843
_cell_angle_alpha 90.000000
_cell_angle_beta 90.000000
_cell_angle_gamma 90.000000
_cell_volume 3707.295851
_symmetry_space_group_name_H-M "P M M A"
_symmetry_group_IT_number 51
_symmetry_cell_setting 'orthorhombic'
loop_
_space_group_symop_operation_xyz
x,y,z
1/2-x,-y,z
1/2+x,-y,-z
-x,y,-z
-x,-y,-z
1/2+x,y,-z
1/2-x,y,z
x,-y,z
loop_
_atom_site_type_symbol
_atom_site_label
_atom_site_fract_x
_atom_site_fract_y
_atom_site_fract_z
Si Si1 0.934119 0.709386 0.566584
Si Si2 0.063866 0.787463 0.308754
Si Si3 0.565955 0.075060 0.115211
Si Si4 0.565253 0.074161 0.744280
Si Si5 0.562705 0.573246 0.234869
Si Si6 0.435346 0.712700 0.813798
Si Si7 0.564058 0.425158 0.382817
Si Si8 0.932871 0.790519 0.933380
O O1 0.750000 0.711017 0.564423
O O2 0.986764 0.753594 0.626152
O O3 0.000000 0.732721 0.500000
O O4 0.988857 0.634232 0.579118
O O5 0.250000 0.780782 0.304538
O O6 0.025831 0.865200 0.301418
O O7 0.990469 0.750584 0.248987
O O8 0.750000 0.081633 0.109119
O O9 0.518861 0.082896 0.188681
O O10 0.484669 0.133500 0.077616
O O11 0.521345 0.000000 0.096402
O O12 0.750000 0.077425 0.756242
O O13 0.530017 0.000000 0.720624
O O14 0.750000 0.572526 0.233379
O O15 0.509077 0.500000 0.214880
O O16 0.512573 0.636331 0.194611
O O17 0.521439 0.582554 0.308671
O O18 0.250000 0.714902 0.816710
O O19 0.502606 0.748269 0.875010
O O20 0.750000 0.420218 0.387094
O O21 0.520076 0.500000 0.402276
O O22 0.750000 0.786928 0.933937
O O23 0.000000 0.767250 0.000000
#
# Coordination Sequence:
#
# PCOD9403832 Si02
#       8
#     8   8   8   8   8   8   8   8
#     4  11  23  36  51  73 106 143 183 224 272 321
#     4  10  20  34  53  79 107 138 177 225 269 316
#     4  10  20  34  53  80 112 144 181 220 262 317
#     4   9  17  31  53  79 106 138 174 216 269 320
#     4   8  15  29  52  82 111 138 172 214 262 319
#     4  11  20  33  58  85 109 141 178 219 271 320
#     4   9  17  32  53  76 104 139 178 217 261 316
#     4  12  25  40  56  77 110 147 186 226 268 320
#
# _framework density 17.263256999999999
#
# number of rings (size 3 to 8) (size 9 to 14) (size 15 to 20)
#    0.000    2.000    2.500    3.000    0.000    2.000 
#    0.000    0.000    0.000    2.250    0.000    0.000 
#    0.000    0.000    0.000    0.000    0.000    0.125 
#
# Total GULP energy -357180.779819 kJ/mol
# GULP energy per Si atom -5580.949685 kJ/mol
# Density = 1.722397 g / cm^3
# Si number density = 17.263257 Si / 1000 Ang^3
#
#
#
# Elastic Constant Matrix: (Units=GPa)
#
#
# Indices 1 2 3 4 5 6 
#
# 1 42.5379 35.6516 37.3084 0.0000 0.0000 0.0000
# 2 35.6516 117.3498 68.4445 0.0000 0.0000 0.0000
# 3 37.3084 68.4445 122.0238 0.0000 0.0000 0.0000
# 4 0.0000 0.0000 0.0000 18.8886 0.0000 0.0000
# 5 0.0000 0.0000 0.0000 0.0000 23.3497 0.0000
# 6 0.0000 0.0000 0.0000 0.0000 0.0000 -0.8357
#
#
#
# Elastic Compliance Matrix: (Units=1/GPa)
#
#
# Indices 1 2 3 4 5 6 
#
# 1 0.035230 -0.006570 -0.007086 0.000000 0.000000 0.000000
# 2 -0.006570 0.013890 -0.005782 0.000000 0.000000 0.000000
# 3 -0.007086 -0.005782 0.013605 0.000000 0.000000 0.000000
# 4 0.000000 0.000000 0.000000 0.052942 0.000000 0.000000
# 5 0.000000 0.000000 0.000000 0.000000 0.042827 0.000000
# 6 0.000000 0.000000 0.000000 0.000000 0.000000 -1.196575
#
#
# Mechanical properties :
#
#
# Convention : Reuss Voigt Hill
#
# Bulk Modulus (GPa) = 41.93239 62.74671 52.33955
# Shear Modulus (GPa) = -5.04411 17.64765 6.30177
#
# Velocity S-wave (km/s) = -1.71120 3.20076 1.91267
# Velocity P-wave (km/s) = 4.52089 7.07712 5.93819
#
# Compressibility (1/GPa) = 0.02384791
#
# Stress axis : x y z
#
# Youngs Moduli (GPa) = 28.38498 71.99366 73.50185
#
# Poissons Ratio (x) = 0.47300 0.52085
# Poissons Ratio (y) = 0.18649 0.42501
# Poissons Ratio (z) = 0.20114 0.41629
#
# Static dielectric constant tensor:
#      x y z
#    x 1.581470 0.000000 0.000000 
#    y 0.000000 1.610430 0.000000 
#    z 0.000000 0.000000 1.564290 
# 
# From -- ./inp_files/28459.got.cif
#   From: 2010.05.17/outbox.cif.g08.bks.cpg/sg51_15_cif.got.tgz:28459.got - 2010.06.03 11:52:47.
