data_PCOD9403127
_publ_section_title
;
Structure prediction by ZEFSAII (Michael W. Deem and Ramdas Pophale) SiO2 
 PCOD9403127
Probable space group: P M M A
;
_chemical_formula_sum "Si O2"
_cell_formula_units_Z 56
_cell_length_a 7.806196
_cell_length_b 14.559230
_cell_length_c 24.151566
_cell_angle_alpha 90.000000
_cell_angle_beta 90.000000
_cell_angle_gamma 90.000000
_cell_volume 2744.878682
_symmetry_space_group_name_H-M "P M M A"
_symmetry_group_IT_number 51
_symmetry_cell_setting 'orthorhombic'
loop_
_space_group_symop_operation_xyz
x,y,z
1/2-x,-y,z
1/2+x,-y,-z
-x,y,-z
-x,-y,-z
1/2+x,y,-z
1/2-x,y,z
x,-y,z
loop_
_atom_site_type_symbol
_atom_site_label
_atom_site_fract_x
_atom_site_fract_y
_atom_site_fract_z
Si Si1 0.456210 0.902215 0.934664
Si Si2 0.046345 0.600771 0.170333
Si Si3 0.045808 0.215428 0.562856
Si Si4 0.544003 0.719256 0.730929
Si Si5 0.953792 0.897157 0.669446
Si Si6 0.043277 0.603895 0.623397
Si Si7 0.045613 0.702023 0.935697
O O1 0.250000 0.902076 0.929057
O O2 0.521205 0.802788 0.915969
O O3 0.520380 0.000000 0.911229
O O4 0.500000 0.903373 0.000000
O O5 0.250000 0.596957 0.180079
O O6 0.974229 0.500000 0.182725
O O7 0.976913 0.678913 0.211402
O O8 0.019646 0.626906 0.106735
O O9 0.250000 0.215463 0.568402
O O10 0.982618 0.317589 0.580493
O O11 0.000000 0.194253 0.500000
O O12 0.977917 0.143049 0.607718
O O13 0.750000 0.728556 0.734280
O O14 0.475489 0.817693 0.710095
O O15 0.505368 0.644555 0.683290
O O16 0.750000 0.902599 0.679102
O O17 0.024992 0.000000 0.675388
O O18 0.250000 0.600694 0.620284
O O19 0.979054 0.500000 0.615003
O O20 0.250000 0.703452 0.932446
O O21 0.000000 0.688145 0.000000
#
# Coordination Sequence:
#
# PCOD9403127 Si02
#       7
#     8   8   8   8   8   8   8
#     4   8  14  26  45  68  93 121 153 189 230 276
#     4  10  21  36  53  74 102 134 166 204 251 302
#     4  10  20  33  49  72 104 140 177 215 254 299
#     4   9  18  34  55  77 100 127 164 208 252 302
#     4   9  18  34  56  79 103 133 168 208 255 304
#     4   9  18  32  50  73 101 132 167 211 261 306
#     4  10  20  34  53  76 103 135 170 208 249 296
#
# _framework density 20.401630999999998
#
# number of rings (size 3 to 8) (size 9 to 14) (size 15 to 20)
#    0.000    2.714    0.000    1.286    0.000    4.000 
#    0.000    0.714    0.000    0.857    0.000    0.000 
#    0.000    0.000    0.000    0.000    0.000    0.000 
#
# Total GULP energy -312133.957835 kJ/mol
# GULP energy per Si atom -5573.820676 kJ/mol
# Density = 2.035520 g / cm^3
# Si number density = 20.401631 Si / 1000 Ang^3
#
#
#
# Elastic Constant Matrix: (Units=GPa)
#
#
# Indices 1 2 3 4 5 6 
#
# 1 27.7559 10.1053 -4.7346 0.0000 0.0000 0.0000
# 2 10.1053 165.5253 60.3420 0.0000 0.0000 0.0000
# 3 -4.7346 60.3420 90.8316 0.0000 0.0000 0.0000
# 4 0.0000 0.0000 0.0000 59.1064 0.0000 0.0000
# 5 0.0000 0.0000 0.0000 0.0000 16.9987 0.0000
# 6 0.0000 0.0000 0.0000 0.0000 0.0000 12.4030
#
#
#
# Elastic Compliance Matrix: (Units=1/GPa)
#
#
# Indices 1 2 3 4 5 6 
#
# 1 0.038300 -0.004046 0.004684 0.000000 0.000000 0.000000
# 2 -0.004046 0.008399 -0.005791 0.000000 0.000000 0.000000
# 3 0.004684 -0.005791 0.015101 0.000000 0.000000 0.000000
# 4 0.000000 0.000000 0.000000 0.016919 0.000000 0.000000
# 5 0.000000 0.000000 0.000000 0.000000 0.058828 0.000000
# 6 0.000000 0.000000 0.000000 0.000000 0.000000 0.080625
#
#
# Mechanical properties :
#
#
# Convention : Reuss Voigt Hill
#
# Bulk Modulus (GPa) = 19.41924 46.17090 32.79507
# Shear Modulus (GPa) = 20.35476 32.26164 26.30820
#
# Velocity S-wave (km/s) = 3.16207 3.98090 3.59488
# Velocity P-wave (km/s) = 4.78233 6.61893 5.77412
#
# Compressibility (1/GPa) = 0.05149533
#
# Stress axis : x y z
#
# Youngs Moduli (GPa) = 26.10940 119.05585 66.22263
#
# Poissons Ratio (x) = 0.48168 -0.31020
# Poissons Ratio (y) = 0.10563 0.38349
# Poissons Ratio (z) = -0.12230 0.68944
#
# Static dielectric constant tensor:
#      x y z
#    x 1.756070 0.000000 0.000000 
#    y 0.000000 1.790490 0.000000 
#    z 0.000000 0.000000 1.679240 
# 
# From -- ./inp_files/31893.got.cif
#   From: 2010.05.17/outbox.cif.g08.bks.cpg/sg51_16_cif.got.tgz:31893.got - 2010.06.03 11:52:47.
