data_PCOD9403651
_publ_section_title
;
Structure prediction by ZEFSAII (Michael W. Deem and Ramdas Pophale) SiO2 
 PCOD9403651
Probable space group: P M M A
;
_chemical_formula_sum "Si O2"
_cell_formula_units_Z 64
_cell_length_a 34.589576
_cell_length_b 7.723720
_cell_length_c 11.109880
_cell_angle_alpha 90.000000
_cell_angle_beta 90.000000
_cell_angle_gamma 90.000000
_cell_volume 2968.117762
_symmetry_space_group_name_H-M "P M M A"
_symmetry_group_IT_number 51
_symmetry_cell_setting 'orthorhombic'
loop_
_space_group_symop_operation_xyz
x,y,z
1/2-x,-y,z
1/2+x,-y,-z
-x,y,-z
-x,-y,-z
1/2+x,y,-z
1/2-x,y,z
x,-y,z
loop_
_atom_site_type_symbol
_atom_site_label
_atom_site_fract_x
_atom_site_fract_y
_atom_site_fract_z
Si Si1 0.293329 0.291804 0.580217
Si Si2 0.369070 0.293394 0.708185
Si Si3 0.632563 0.800460 0.833203
Si Si4 0.010972 0.801266 0.816295
Si Si5 0.914749 0.202975 0.054830
Si Si6 0.793559 0.790808 0.698625
Si Si7 0.437425 0.299170 0.312319
Si Si8 0.553896 0.705780 0.423761
O O1 0.250000 0.226176 0.606653
O O2 0.292753 0.500000 0.592750
O O3 0.327651 0.226293 0.665101
O O4 0.301759 0.253964 0.440343
O O5 0.366514 0.500000 0.729832
O O6 0.387767 0.214232 0.827370
O O7 0.400608 0.270590 0.602597
O O8 0.672629 0.723682 0.785443
O O9 0.601226 0.796323 0.726616
O O10 0.640754 0.000000 0.866884
O O11 0.609536 0.718418 0.945171
O O12 0.042973 0.725212 0.907753
O O13 0.032232 0.794479 0.686413
O O14 0.969891 0.716063 0.790508
O O15 0.003470 0.000000 0.848790
O O16 0.921651 0.000000 0.027320
O O17 0.750000 0.729705 0.726774
O O18 0.793601 0.000000 0.706229
O O19 0.427545 0.500000 0.330022
O O20 0.453983 0.236336 0.440522
O O21 0.544453 0.500000 0.413631
#
# Coordination Sequence:
#
# PCOD9403651 Si02
#       8
#     8   8   8   8   8   8   8   8
#     4   9  17  30  50  77 108 137 163 197 247 305
#     4   9  17  31  51  72  96 129 166 203 246 295
#     4  10  21  37  54  72  99 134 171 209 249 295
#     4  10  20  34  52  73  99 132 169 207 250 300
#     4   9  20  37  53  70  96 133 173 211 250 293
#     4   9  18  33  54  79 104 130 162 202 247 294
#     4  11  22  34  51  76 104 131 164 207 252 300
#     4   9  18  32  49  71 100 130 161 203 254 303
#
# _framework density 21.562487999999998
#
# number of rings (size 3 to 8) (size 9 to 14) (size 15 to 20)
#    0.000    2.500    0.000    1.875    0.000    6.000 
#    0.000    5.625    0.000    0.750    0.000    0.000 
#    0.000    0.000    0.000    0.000    0.000    0.000 
#
# Total GULP energy -357228.262129 kJ/mol
# GULP energy per Si atom -5581.691596 kJ/mol
# Density = 2.151341 g / cm^3
# Si number density = 21.562488 Si / 1000 Ang^3
#
#
#
# Elastic Constant Matrix: (Units=GPa)
#
#
# Indices 1 2 3 4 5 6 
#
# 1 114.5977 2.0874 30.5569 0.0000 0.0000 0.0000
# 2 2.0874 34.9699 -2.1617 0.0000 0.0000 0.0000
# 3 30.5569 -2.1617 68.5286 0.0000 0.0000 0.0000
# 4 0.0000 0.0000 0.0000 15.8880 0.0000 0.0000
# 5 0.0000 0.0000 0.0000 0.0000 34.7515 0.0000
# 6 0.0000 0.0000 0.0000 0.0000 0.0000 22.3672
#
#
#
# Elastic Compliance Matrix: (Units=1/GPa)
#
#
# Indices 1 2 3 4 5 6 
#
# 1 0.009930 -0.000868 -0.004455 0.000000 0.000000 0.000000
# 2 -0.000868 0.028728 0.001293 0.000000 0.000000 0.000000
# 3 -0.004455 0.001293 0.016620 0.000000 0.000000 0.000000
# 4 0.000000 0.000000 0.000000 0.062941 0.000000 0.000000
# 5 0.000000 0.000000 0.000000 0.000000 0.028776 0.000000
# 6 0.000000 0.000000 0.000000 0.000000 0.000000 0.044708
#
#
# Mechanical properties :
#
#
# Convention : Reuss Voigt Hill
#
# Bulk Modulus (GPa) = 21.17858 31.00684 26.09271
# Shear Modulus (GPa) = 23.20171 27.10891 25.15531
#
# Velocity S-wave (km/s) = 3.28384 3.54958 3.41929
# Velocity P-wave (km/s) = 4.92152 5.58665 5.26460
#
# Compressibility (1/GPa) = 0.04721752
#
# Stress axis : x y z
#
# Youngs Moduli (GPa) = 100.70558 34.80954 60.16923
#
# Poissons Ratio (x) = 0.03022 0.26806
# Poissons Ratio (y) = 0.08743 -0.07782
# Poissons Ratio (z) = 0.44866 -0.04502
#
# Static dielectric constant tensor:
#      x y z
#    x 1.802930 0.000000 0.000000 
#    y 0.000000 1.767200 0.000000 
#    z 0.000000 0.000000 1.790920 
# 
# From -- ./inp_files/19465.got.cif
#   From: 2010.05.17/outbox.cif.g08.bks.cpg/sg51_10_cif.got.tgz:19465.got - 2010.06.03 11:52:47.
