data_PCOD9403950
_publ_section_title
;
Structure prediction by ZEFSAII (Michael W. Deem and Ramdas Pophale) SiO2 
 PCOD9403950
Probable space group: P M M A
;
_chemical_formula_sum "Si O2"
_cell_formula_units_Z 48
_cell_length_a 7.837189
_cell_length_b 9.424992
_cell_length_c 31.725123
_cell_angle_alpha 90.000000
_cell_angle_beta 90.000000
_cell_angle_gamma 90.000000
_cell_volume 2343.390285
_symmetry_space_group_name_H-M "P M M A"
_symmetry_group_IT_number 51
_symmetry_cell_setting 'orthorhombic'
loop_
_space_group_symop_operation_xyz
x,y,z
1/2-x,-y,z
1/2+x,-y,-z
-x,y,-z
-x,-y,-z
1/2+x,y,-z
1/2-x,y,z
x,-y,z
loop_
_atom_site_type_symbol
_atom_site_label
_atom_site_fract_x
_atom_site_fract_y
_atom_site_fract_z
Si Si1 0.044725 0.337501 0.046935
Si Si2 0.546374 0.838055 0.547604
Si Si3 0.040924 0.663351 0.210592
Si Si4 0.547157 0.839922 0.708941
Si Si5 0.958855 0.836986 0.872164
Si Si6 0.548683 0.660282 0.371736
O O1 0.250000 0.342431 0.049800
O O2 0.981261 0.500000 0.051378
O O3 0.983502 0.238717 0.084836
O O4 0.000000 0.287040 0.000000
O O5 0.500000 0.795634 0.500000
O O6 0.750000 0.841810 0.551053
O O7 0.480586 0.732902 0.583173
O O8 0.481484 0.000000 0.554091
O O9 0.250000 0.661895 0.210994
O O10 0.985362 0.500000 0.210540
O O11 0.980712 0.746761 0.252096
O O12 0.988697 0.746438 0.168514
O O13 0.750000 0.851663 0.715779
O O14 0.523096 0.758974 0.665096
O O15 0.476778 0.000000 0.707721
O O16 0.750000 0.837467 0.872390
O O17 0.014198 0.000000 0.869442
O O18 0.750000 0.652344 0.364567
O O19 0.477899 0.500000 0.370319
#
# Coordination Sequence:
#
# PCOD9403950 Si02
#       6
#     8   8   8   8   8   8
#     4   9  17  29  45  65  90 121 157 197 243 295
#     4  10  21  38  61  87 113 143 180 221 266 315
#     4   9  16  27  46  72 101 131 163 203 252 303
#     4  10  20  34  54  80 107 135 170 213 261 311
#     4   9  16  26  42  66  95 125 159 201 247 295
#     4  11  24  39  55  78 109 145 183 220 260 308
#
# _framework density 20.483145
#
# number of rings (size 3 to 8) (size 9 to 14) (size 15 to 20)
#    0.000    2.333    0.000    3.000    0.000   10.000 
#    0.000    0.000    0.000    1.000    0.000    2.333 
#    0.000    0.000    0.000    0.000    0.000    0.000 
#
# Total GULP energy -268087.318113 kJ/mol
# GULP energy per Si atom -5585.152461 kJ/mol
# Density = 2.043652 g / cm^3
# Si number density = 20.483145 Si / 1000 Ang^3
#
#
#
# Elastic Constant Matrix: (Units=GPa)
#
#
# Indices 1 2 3 4 5 6 
#
# 1 22.5458 3.1660 -9.4681 0.0000 0.0000 0.0000
# 2 3.1660 194.9591 127.0699 0.0000 0.0000 0.0000
# 3 -9.4681 127.0699 169.6825 0.0000 0.0000 0.0000
# 4 0.0000 0.0000 0.0000 42.7358 0.0000 0.0000
# 5 0.0000 0.0000 0.0000 0.0000 19.6706 0.0000
# 6 0.0000 0.0000 0.0000 0.0000 0.0000 -30.6160
#
#
#
# Elastic Compliance Matrix: (Units=1/GPa)
#
#
# Indices 1 2 3 4 5 6 
#
# 1 0.047702 -0.004902 0.006333 0.000000 0.000000 0.000000
# 2 -0.004902 0.010524 -0.008154 0.000000 0.000000 0.000000
# 3 0.006333 -0.008154 0.012353 0.000000 0.000000 0.000000
# 4 0.000000 0.000000 0.000000 0.023400 0.000000 0.000000
# 5 0.000000 0.000000 0.000000 0.000000 0.050837 0.000000
# 6 0.000000 0.000000 0.000000 0.000000 0.000000 -0.032663
#
#
# Mechanical properties :
#
#
# Convention : Reuss Voigt Hill
#
# Bulk Modulus (GPa) = 17.50354 69.85812 43.68083
# Shear Modulus (GPa) = 34.56743 24.11939 29.34341
#
# Velocity S-wave (km/s) = 4.11250 3.43523 3.78903
# Velocity P-wave (km/s) = 5.57800 7.06496 6.36505
#
# Compressibility (1/GPa) = 0.05713131
#
# Stress axis : x y z
#
# Youngs Moduli (GPa) = 20.96352 95.02277 80.94964
#
# Poissons Ratio (x) = 0.46582 -0.51264
# Poissons Ratio (y) = 0.10277 0.66010
# Poissons Ratio (z) = -0.13276 0.77486
#
# Static dielectric constant tensor:
#      x y z
#    x 1.758440 0.000000 0.000000 
#    y 0.000000 1.722040 0.000000 
#    z 0.000000 0.000000 1.697840 
# 
# From -- ./inp_files/36884.got.cif
#   From: 2010.05.17/outbox.cif.g08.bks.cpg/sg51_19_cif.got.tgz:36884.got - 2010.06.03 11:52:47.
