data_PCOD9403523
_publ_section_title
;
Structure prediction by ZEFSAII (Michael W. Deem and Ramdas Pophale) SiO2 
 PCOD9403523
Probable space group: P M M A
;
_chemical_formula_sum "Si O2"
_cell_formula_units_Z 52
_cell_length_a 9.577164
_cell_length_b 14.617764
_cell_length_c 15.681304
_cell_angle_alpha 90.000000
_cell_angle_beta 90.000000
_cell_angle_gamma 90.000000
_cell_volume 2195.331175
_symmetry_space_group_name_H-M "P M M A"
_symmetry_group_IT_number 51
_symmetry_cell_setting 'orthorhombic'
loop_
_space_group_symop_operation_xyz
x,y,z
1/2-x,-y,z
1/2+x,-y,-z
-x,y,-z
-x,-y,-z
1/2+x,y,-z
1/2-x,y,z
x,-y,z
loop_
_atom_site_type_symbol
_atom_site_label
_atom_site_fract_x
_atom_site_fract_y
_atom_site_fract_z
Si Si1 0.409455 0.107793 0.254866
Si Si2 0.958648 0.389390 0.297654
Si Si3 0.458419 0.345096 0.891039
Si Si4 0.587685 0.112263 0.416203
Si Si5 0.250000 0.614377 0.031092
Si Si6 0.750000 0.388464 0.442547
Si Si7 0.250000 0.611896 0.363711
Si Si8 0.086060 0.866404 0.917217
O O1 0.250000 0.144379 0.247275
O O2 0.503687 0.144865 0.332398
O O3 0.498205 0.112905 0.167756
O O4 0.394458 0.000000 0.273318
O O5 0.949064 0.500000 0.293206
O O6 0.912001 0.354100 0.206442
O O7 0.115153 0.359698 0.313254
O O8 0.878663 0.361615 0.383191
O O9 0.369110 0.402138 0.957261
O O10 0.417969 0.243238 0.921407
O O11 0.622910 0.365617 0.899978
O O12 0.500000 0.138635 0.500000
O O13 0.750000 0.142068 0.417565
O O14 0.591357 0.000000 0.414762
O O15 0.750000 0.500000 0.448089
O O16 0.750000 0.354854 0.538732
O O17 0.250000 0.500000 0.367260
O O18 0.250000 0.894447 0.915594
O O19 0.000000 0.899494 0.000000
#
# Coordination Sequence:
#
# PCOD9403523 Si02
#       8
#     8   8   8   8   4   4   4   8
#     4  10  22  38  58  89 120 145 183 236 290 342
#     4  10  20  33  53  82 114 145 184 235 282 328
#     4  11  20  37  56  80 106 143 192 233 277 338
#     4   9  16  29  52  82 117 154 189 225 270 329
#     4  10  20  36  57  74 105 142 186 240 272 328
#     4   9  17  30  53  79 109 146 182 226 278 337
#     4   9  17  32  51  79 111 144 186 228 280 337
#     4  12  23  39  62  81 107 148 192 235 281 345
#
# _framework density 23.686631999999999
#
# number of rings (size 3 to 8) (size 9 to 14) (size 15 to 20)
#    0.000    1.846    2.308    2.769    1.077    4.923 
#    0.000    2.308    0.000    1.846    0.000    0.000 
#    0.000    0.000    0.000    0.000    0.000    0.000 
#
# Total GULP energy -289543.619320 kJ/mol
# GULP energy per Si atom -5568.146525 kJ/mol
# Density = 2.363272 g / cm^3
# Si number density = 23.686632 Si / 1000 Ang^3
#
#
#
# Elastic Constant Matrix: (Units=GPa)
#
#
# Indices 1 2 3 4 5 6 
#
# 1 261.0043 6.2113 91.7172 0.0000 0.0000 0.0000
# 2 6.2113 65.9501 -1.8658 0.0000 0.0000 0.0000
# 3 91.7172 -1.8658 213.8123 0.0000 0.0000 0.0000
# 4 0.0000 0.0000 0.0000 18.9691 0.0000 0.0000
# 5 0.0000 0.0000 0.0000 0.0000 36.8206 0.0000
# 6 0.0000 0.0000 0.0000 0.0000 0.0000 -22.6580
#
#
#
# Elastic Compliance Matrix: (Units=1/GPa)
#
#
# Indices 1 2 3 4 5 6 
#
# 1 0.004527 -0.000481 -0.001946 0.000000 0.000000 0.000000
# 2 -0.000481 0.015218 0.000339 0.000000 0.000000 0.000000
# 3 -0.001946 0.000339 0.005515 0.000000 0.000000 0.000000
# 4 0.000000 0.000000 0.000000 0.052717 0.000000 0.000000
# 5 0.000000 0.000000 0.000000 0.000000 0.027159 0.000000
# 6 0.000000 0.000000 0.000000 0.000000 0.000000 -0.044135
#
#
# Mechanical properties :
#
#
# Convention : Reuss Voigt Hill
#
# Bulk Modulus (GPa) = 47.43122 81.43246 64.43184
# Shear Modulus (GPa) = 69.24783 36.27329 52.76056
#
# Velocity S-wave (km/s) = 5.41280 3.91753 4.72470
# Velocity P-wave (km/s) = 7.68977 7.41056 7.55146
#
# Compressibility (1/GPa) = 0.02108316
#
# Stress axis : x y z
#
# Youngs Moduli (GPa) = 220.91559 65.71202 181.33377
#
# Poissons Ratio (x) = 0.03163 0.35287
# Poissons Ratio (y) = 0.10634 -0.06152
# Poissons Ratio (z) = 0.42989 -0.02230
#
# Static dielectric constant tensor:
#      x y z
#    x 1.681170 0.000000 0.000000 
#    y 0.000000 8.214900 0.000000 
#    z 0.000000 0.000000 1.826000 
# 
# From -- ./inp_files/21682.got.cif
#   From: 2010.05.17/outbox.cif.g08.bks.cpg/sg51_11_cif.got.tgz:21682.got - 2010.06.03 11:52:47.
