data_PCOD9403706
_publ_section_title
;
Structure prediction by ZEFSAII (Michael W. Deem and Ramdas Pophale) SiO2 
 PCOD9403706
Probable space group: P M M A
;
_chemical_formula_sum "Si O2"
_cell_formula_units_Z 64
_cell_length_a 9.098636
_cell_length_b 27.653854
_cell_length_c 13.564791
_cell_angle_alpha 90.000000
_cell_angle_beta 90.000000
_cell_angle_gamma 90.000000
_cell_volume 3413.068962
_symmetry_space_group_name_H-M "P M M A"
_symmetry_group_IT_number 51
_symmetry_cell_setting 'orthorhombic'
loop_
_space_group_symop_operation_xyz
x,y,z
1/2-x,-y,z
1/2+x,-y,-z
-x,y,-z
-x,-y,-z
1/2+x,y,-z
1/2-x,y,z
x,-y,z
loop_
_atom_site_type_symbol
_atom_site_label
_atom_site_fract_x
_atom_site_fract_y
_atom_site_fract_z
Si Si1 0.926049 0.054386 0.180206
Si Si2 0.925950 0.812508 0.299788
Si Si3 0.081762 0.372366 0.761829
Si Si4 0.915743 0.446235 0.413080
Si Si5 0.426601 0.291566 0.606384
Si Si6 0.924543 0.086297 0.398386
Si Si7 0.073476 0.849443 0.103416
Si Si8 0.574652 0.446381 0.893856
O O1 0.750000 0.064194 0.170121
O O2 0.960216 0.057955 0.297449
O O3 0.016835 0.095916 0.125840
O O4 0.955372 0.000000 0.145428
O O5 0.750000 0.815015 0.279267
O O6 0.956584 0.762701 0.355728
O O7 0.962165 0.858174 0.369680
O O8 0.012226 0.819213 0.197101
O O9 0.250000 0.362466 0.795742
O O10 0.086397 0.416192 0.684445
O O11 0.027909 0.327506 0.695561
O O12 0.982185 0.397002 0.844061
O O13 0.750000 0.450784 0.447854
O O14 0.978544 0.500000 0.398114
O O15 0.000000 0.420098 0.500000
O O16 0.500000 0.299890 0.500000
O O17 0.250000 0.298075 0.595684
O O18 0.750000 0.082814 0.412485
O O19 0.000000 0.071401 0.500000
O O20 0.250000 0.847580 0.098248
O O21 0.000000 0.834041 0.000000
O O22 0.750000 0.444748 0.900392
O O23 0.536990 0.500000 0.847727
O O24 0.500000 0.447560 0.000000
#
# Coordination Sequence:
#
# PCOD9403706 Si02
#       8
#     8   8   8   8   8   8   8   8
#     4   9  19  36  54  75 109 149 184 220 265 318
#     4   9  19  37  56  77 107 141 181 227 273 321
#     4  10  20  34  52  77 109 143 177 216 265 317
#     4   9  17  28  43  65  96 134 172 209 249 297
#     4  10  21  36  57  84 115 149 182 221 269 321
#     4   9  17  29  48  73 102 138 178 222 268 313
#     4  11  22  37  59  84 108 137 176 223 273 323
#     4  10  21  37  58  82 106 137 179 226 274 324
#
# _framework density 18.751453999999999
#
# number of rings (size 3 to 8) (size 9 to 14) (size 15 to 20)
#    0.000    2.375    0.000    3.375    0.000    5.500 
#    0.000    1.875    0.000    0.000    0.000    0.000 
#    0.000    0.000    0.000    0.000    0.000    0.000 
#
# Total GULP energy -356606.628754 kJ/mol
# GULP energy per Si atom -5571.978574 kJ/mol
# Density = 1.870877 g / cm^3
# Si number density = 18.751454 Si / 1000 Ang^3
#
#
#
# Elastic Constant Matrix: (Units=GPa)
#
#
# Indices 1 2 3 4 5 6 
#
# 1 50.8018 17.7763 34.8537 0.0000 0.0000 0.0000
# 2 17.7763 82.6715 8.9785 0.0000 0.0000 0.0000
# 3 34.8537 8.9785 71.0008 0.0000 0.0000 0.0000
# 4 0.0000 0.0000 0.0000 13.7323 0.0000 0.0000
# 5 0.0000 0.0000 0.0000 0.0000 34.4044 0.0000
# 6 0.0000 0.0000 0.0000 0.0000 0.0000 19.9347
#
#
#
# Elastic Compliance Matrix: (Units=1/GPa)
#
#
# Indices 1 2 3 4 5 6 
#
# 1 0.031746 -0.005205 -0.014925 0.000000 0.000000 0.000000
# 2 -0.005205 0.013118 0.000896 0.000000 0.000000 0.000000
# 3 -0.014925 0.000896 0.021298 0.000000 0.000000 0.000000
# 4 0.000000 0.000000 0.000000 0.072821 0.000000 0.000000
# 5 0.000000 0.000000 0.000000 0.000000 0.029066 0.000000
# 6 0.000000 0.000000 0.000000 0.000000 0.000000 0.050164
#
#
# Mechanical properties :
#
#
# Convention : Reuss Voigt Hill
#
# Bulk Modulus (GPa) = 36.11037 36.41010 36.26024
# Shear Modulus (GPa) = 18.80324 23.13866 20.97095
#
# Velocity S-wave (km/s) = 3.17008 3.51660 3.34782
# Velocity P-wave (km/s) = 5.71825 5.99566 5.85860
#
# Compressibility (1/GPa) = 0.02769288
#
# Stress axis : x y z
#
# Youngs Moduli (GPa) = 31.50043 76.23147 46.95320
#
# Poissons Ratio (x) = 0.39679 0.70080
# Poissons Ratio (y) = 0.16396 -0.04208
# Poissons Ratio (z) = 0.47016 -0.06832
#
# Static dielectric constant tensor:
#      x y z
#    x 1.647290 0.000000 0.000000 
#    y 0.000000 1.681770 0.000000 
#    z 0.000000 0.000000 1.607290 
# 
# From -- ./inp_files/14831.got.cif
#   From: 2010.05.17/outbox.cif.g08.bks.cpg/sg51_8_cif.got.tgz:14831.got - 2010.06.03 11:52:47.
