data_PCOD9403884
_publ_section_title
;
Structure prediction by ZEFSAII (Michael W. Deem and Ramdas Pophale) SiO2 
 PCOD9403884
Probable space group: P M M A
;
_chemical_formula_sum "Si O2"
_cell_formula_units_Z 48
_cell_length_a 9.583576
_cell_length_b 7.798569
_cell_length_c 35.684328
_cell_angle_alpha 90.000000
_cell_angle_beta 90.000000
_cell_angle_gamma 90.000000
_cell_volume 2666.981683
_symmetry_space_group_name_H-M "P M M A"
_symmetry_group_IT_number 51
_symmetry_cell_setting 'orthorhombic'
loop_
_space_group_symop_operation_xyz
x,y,z
1/2-x,-y,z
1/2+x,-y,-z
-x,y,-z
-x,-y,-z
1/2+x,y,-z
1/2-x,y,z
x,-y,z
loop_
_atom_site_type_symbol
_atom_site_label
_atom_site_fract_x
_atom_site_fract_y
_atom_site_fract_z
Si Si1 0.581036 0.000000 0.461045
Si Si2 0.092681 0.294884 0.677540
Si Si3 0.919647 0.697256 0.404583
Si Si4 0.092250 0.203670 0.251565
Si Si5 0.417049 0.000000 0.961402
Si Si6 0.416362 0.298308 0.903058
Si Si7 0.409042 0.294585 0.169282
O O1 0.500000 0.000000 0.500000
O O2 0.543008 0.831780 0.436633
O O3 0.750000 0.000000 0.466258
O O4 0.250000 0.226247 0.682866
O O5 0.102609 0.500000 0.673984
O O6 0.035679 0.239162 0.636863
O O7 0.999106 0.257914 0.713277
O O8 0.750000 0.693771 0.402754
O O9 0.965720 0.500000 0.411149
O O10 0.250000 0.276222 0.254019
O O11 0.034866 0.251600 0.210575
O O12 0.101232 0.000000 0.252615
O O13 0.450593 0.830841 0.936764
O O14 0.250000 0.000000 0.968057
O O15 0.500000 0.000000 0.000000
O O16 0.250000 0.287735 0.896580
O O17 0.449154 0.500000 0.910790
O O18 0.497391 0.240381 0.865680
O O19 0.250000 0.226535 0.166724
O O20 0.402298 0.500000 0.167161
#
# Coordination Sequence:
#
# PCOD9403884 Si02
#       7
#     4   8   8   8   4   8   8
#     4  10  20  34  54  77 102 133 163 202 257 308
#     4   9  18  33  53  75  97 128 175 221 255 297
#     4   8  16  32  53  76 101 131 169 210 253 304
#     4  10  21  33  46  72 108 142 173 210 257 306
#     4  10  22  38  56  81 108 135 167 206 257 310
#     4   9  19  36  56  78 106 137 170 212 258 302
#     4   9  18  33  52  73  99 135 176 212 249 298
#
# _framework density 17.997873999999999
#
# number of rings (size 3 to 8) (size 9 to 14) (size 15 to 20)
#    0.000    2.833    0.000    1.500    2.333    3.333 
#    0.000    2.500    0.000    1.000    0.000    0.000 
#    0.000    0.000    0.000    0.000    0.000    0.000 
#
# Total GULP energy -267484.553880 kJ/mol
# GULP energy per Si atom -5572.594873 kJ/mol
# Density = 1.795691 g / cm^3
# Si number density = 17.997874 Si / 1000 Ang^3
#
#
#
# Elastic Constant Matrix: (Units=GPa)
#
#
# Indices 1 2 3 4 5 6 
#
# 1 38.1638 28.8388 72.6396 0.0000 0.0000 0.0000
# 2 28.8388 72.6716 70.4874 0.0000 0.0000 0.0000
# 3 72.6396 70.4874 211.1911 0.0000 0.0000 0.0000
# 4 0.0000 0.0000 0.0000 34.7455 0.0000 0.0000
# 5 0.0000 0.0000 0.0000 0.0000 40.8064 0.0000
# 6 0.0000 0.0000 0.0000 0.0000 0.0000 13.6988
#
#
#
# Elastic Compliance Matrix: (Units=1/GPa)
#
#
# Indices 1 2 3 4 5 6 
#
# 1 0.078433 -0.007333 -0.024530 0.000000 0.000000 0.000000
# 2 -0.007333 0.021033 -0.004498 0.000000 0.000000 0.000000
# 3 -0.024530 -0.004498 0.014673 0.000000 0.000000 0.000000
# 4 0.000000 0.000000 0.000000 0.028781 0.000000 0.000000
# 5 0.000000 0.000000 0.000000 0.000000 0.024506 0.000000
# 6 0.000000 0.000000 0.000000 0.000000 0.000000 0.072999
#
#
# Mechanical properties :
#
#
# Convention : Reuss Voigt Hill
#
# Bulk Modulus (GPa) = 24.14369 73.99537 49.06953
# Shear Modulus (GPa) = 15.29274 27.85417 21.57346
#
# Velocity S-wave (km/s) = 2.91812 3.93827 3.46593
# Velocity P-wave (km/s) = 4.97973 7.86655 6.58333
#
# Compressibility (1/GPa) = 0.04141868
#
# Stress axis : x y z
#
# Youngs Moduli (GPa) = 12.74975 47.54386 68.15047
#
# Poissons Ratio (x) = 0.34862 1.67172
# Poissons Ratio (y) = 0.09349 0.30654
# Poissons Ratio (z) = 0.31275 0.21385
#
# Static dielectric constant tensor:
#      x y z
#    x 1.187270 0.000000 0.000000 
#    y 0.000000 1.637080 0.000000 
#    z 0.000000 0.000000 1.610450 
# 
# From -- ./inp_files/37094.got.cif
#   From: 2010.05.17/outbox.cif.g08.bks.cpg/sg51_19_cif.got.tgz:37094.got - 2010.06.03 11:52:47.
