data_PCOD9403124
_publ_section_title
;
Structure prediction by ZEFSAII (Michael W. Deem and Ramdas Pophale) SiO2 
 PCOD9403124
Probable space group: P M M A
;
_chemical_formula_sum "Si O2"
_cell_formula_units_Z 48
_cell_length_a 24.414681
_cell_length_b 8.588326
_cell_length_c 14.135396
_cell_angle_alpha 90.000000
_cell_angle_beta 90.000000
_cell_angle_gamma 90.000000
_cell_volume 2963.927356
_symmetry_space_group_name_H-M "P M M A"
_symmetry_group_IT_number 51
_symmetry_cell_setting 'orthorhombic'
loop_
_space_group_symop_operation_xyz
x,y,z
1/2-x,-y,z
1/2+x,-y,-z
-x,y,-z
-x,-y,-z
1/2+x,y,-z
1/2-x,y,z
x,-y,z
loop_
_atom_site_type_symbol
_atom_site_label
_atom_site_fract_x
_atom_site_fract_y
_atom_site_fract_z
Si Si1 0.186849 0.686389 0.634479
Si Si2 0.481980 0.684644 0.357040
Si Si3 0.975246 0.188416 0.850532
Si Si4 0.415157 0.189011 0.963659
Si Si5 0.583498 0.815125 0.469709
Si Si6 0.687552 0.811559 0.155051
O O1 0.250000 0.729451 0.612796
O O2 0.182276 0.500000 0.631596
O O3 0.142695 0.760335 0.564780
O O4 0.175449 0.744495 0.741141
O O5 0.488878 0.500000 0.361969
O O6 0.467950 0.737768 0.251584
O O7 0.538478 0.763846 0.391742
O O8 0.436522 0.737456 0.432901
O O9 0.034598 0.231104 0.894337
O O10 0.973658 0.000000 0.842200
O O11 0.931356 0.237927 0.930388
O O12 0.357894 0.241861 0.919852
O O13 0.414361 0.000000 0.965811
O O14 0.581590 0.000000 0.479881
O O15 0.750000 0.768271 0.129974
O O16 0.685041 0.000000 0.161092
#
# Coordination Sequence:
#
# PCOD9403124 Si02
#       6
#     8   8   8   8   8   8
#     4  10  20  33  49  72 102 131 157 192 240 286
#     4  11  21  33  49  72 100 126 156 197 247 293
#     4   9  16  29  47  66  90 123 160 194 232 277
#     4   8  15  27  45  67  91 121 157 196 233 271
#     4  11  21  34  52  72  95 126 163 198 235 283
#     4   9  16  27  45  69  95 124 158 193 230 276
#
# _framework density 16.19473
#
# number of rings (size 3 to 8) (size 9 to 14) (size 15 to 20)
#    0.000    2.333    0.000    6.500    0.000    2.333 
#    0.000    2.500    0.000    1.000    0.000    2.333 
#    0.000    0.000    0.000    0.000    0.000    0.000 
#
# Total GULP energy -267765.368028 kJ/mol
# GULP energy per Si atom -5578.445167 kJ/mol
# Density = 1.615787 g / cm^3
# Si number density = 16.194730 Si / 1000 Ang^3
#
#
#
# Elastic Constant Matrix: (Units=GPa)
#
#
# Indices 1 2 3 4 5 6 
#
# 1 77.0262 1.6164 46.4082 0.0000 0.0000 0.0000
# 2 1.6164 23.6753 4.7852 0.0000 0.0000 0.0000
# 3 46.4082 4.7852 94.9222 0.0000 0.0000 0.0000
# 4 0.0000 0.0000 0.0000 -80.5344 0.0000 0.0000
# 5 0.0000 0.0000 0.0000 0.0000 22.1430 0.0000
# 6 0.0000 0.0000 0.0000 0.0000 0.0000 17.8473
#
#
#
# Elastic Compliance Matrix: (Units=1/GPa)
#
#
# Indices 1 2 3 4 5 6 
#
# 1 0.018411 0.000568 -0.009030 0.000000 0.000000 0.000000
# 2 0.000568 0.042690 -0.002430 0.000000 0.000000 0.000000
# 3 -0.009030 -0.002430 0.015072 0.000000 0.000000 0.000000
# 4 0.000000 0.000000 0.000000 -0.012417 0.000000 0.000000
# 5 0.000000 0.000000 0.000000 0.000000 0.045161 0.000000
# 6 0.000000 0.000000 0.000000 0.000000 0.000000 0.056031
#
#
# Mechanical properties :
#
#
# Convention : Reuss Voigt Hill
#
# Bulk Modulus (GPa) = 18.38558 33.47146 25.92852
# Shear Modulus (GPa) = 24.40662 1.41211 12.90936
#
# Velocity S-wave (km/s) = 3.88631 0.93480 2.82642
# Velocity P-wave (km/s) = 5.61386 4.67741 5.16689
#
# Compressibility (1/GPa) = 0.05439046
#
# Stress axis : x y z
#
# Youngs Moduli (GPa) = 54.31455 23.42445 66.34689
#
# Poissons Ratio (x) = -0.01331 0.59912
# Poissons Ratio (y) = -0.03086 0.16121
# Poissons Ratio (z) = 0.49046 0.05692
#
# Static dielectric constant tensor:
#      x y z
#    x 1.545180 0.000000 0.000000 
#    y 0.000000 1.541940 0.000000 
#    z 0.000000 0.000000 1.521680 
# 
# From -- ./inp_files/26012.got.cif
#   From: 2010.05.17/outbox.cif.g08.bks.cpg/sg51_14_cif.got.tgz:26012.got - 2010.06.03 11:52:47.
