data_PCOD9403188
_publ_section_title
;
Structure prediction by ZEFSAII (Michael W. Deem and Ramdas Pophale) SiO2 
 PCOD9403188
Probable space group: P M M A
;
_chemical_formula_sum "Si O2"
_cell_formula_units_Z 48
_cell_length_a 9.391167
_cell_length_b 8.335274
_cell_length_c 32.185452
_cell_angle_alpha 90.000000
_cell_angle_beta 90.000000
_cell_angle_gamma 90.000000
_cell_volume 2519.411206
_symmetry_space_group_name_H-M "P M M A"
_symmetry_group_IT_number 51
_symmetry_cell_setting 'orthorhombic'
loop_
_space_group_symop_operation_xyz
x,y,z
1/2-x,-y,z
1/2+x,-y,-z
-x,y,-z
-x,-y,-z
1/2+x,y,-z
1/2-x,y,z
x,-y,z
loop_
_atom_site_type_symbol
_atom_site_label
_atom_site_fract_x
_atom_site_fract_y
_atom_site_fract_z
Si Si1 0.922948 0.314428 0.711138
Si Si2 0.413206 0.806091 0.540487
Si Si3 0.085873 0.696224 0.041040
Si Si4 0.414630 0.694214 0.379777
Si Si5 0.412019 0.692887 0.878288
Si Si6 0.586254 0.810134 0.800149
O O1 0.750000 0.311245 0.709412
O O2 0.966980 0.500000 0.714915
O O3 0.967528 0.250632 0.665876
O O4 0.964458 0.226197 0.753277
O O5 0.500000 0.750055 0.500000
O O6 0.250000 0.750548 0.538855
O O7 0.490178 0.751246 0.582364
O O8 0.412989 0.000000 0.539816
O O9 0.250000 0.748367 0.040181
O O10 0.086665 0.500000 0.041265
O O11 0.005221 0.750628 0.082622
O O12 0.000000 0.745865 0.000000
O O13 0.250000 0.746362 0.385750
O O14 0.414097 0.500000 0.378379
O O15 0.250000 0.753726 0.879930
O O16 0.406437 0.500000 0.881480
O O17 0.488107 0.735303 0.835310
O O18 0.750000 0.749047 0.803972
O O19 0.588921 0.000000 0.806109
#
# Coordination Sequence:
#
# PCOD9403188 Si02
#       6
#     8   8   8   8   8   8
#     4   8  15  30  52  76 102 132 167 207 250 299
#     4  10  21  36  53  74 101 135 174 212 251 297
#     4   9  16  27  46  73 103 132 164 206 253 299
#     4   9  18  33  54  80 106 132 165 206 253 304
#     4  10  20  33  50  73 101 135 174 212 252 299
#     4  10  20  33  51  76 103 132 169 211 254 301
#
# _framework density 19.052071999999999
#
# number of rings (size 3 to 8) (size 9 to 14) (size 15 to 20)
#    0.000    2.667    0.000    3.000    0.000    6.333 
#    0.000    2.500    0.000    1.500    0.000    0.000 
#    0.000    0.000    0.000    0.000    0.000    0.000 
#
# Total GULP energy -267736.263447 kJ/mol
# GULP energy per Si atom -5577.838822 kJ/mol
# Density = 1.900871 g / cm^3
# Si number density = 19.052072 Si / 1000 Ang^3
#
#
#
# Elastic Constant Matrix: (Units=GPa)
#
#
# Indices 1 2 3 4 5 6 
#
# 1 140.7759 14.1855 105.4232 0.0000 0.0000 0.0000
# 2 14.1855 2.9523 10.4254 0.0000 0.0000 0.0000
# 3 105.4232 10.4254 193.9135 0.0000 0.0000 0.0000
# 4 0.0000 0.0000 0.0000 -273.4924 0.0000 0.0000
# 5 0.0000 0.0000 0.0000 0.0000 31.4871 0.0000
# 6 0.0000 0.0000 0.0000 0.0000 0.0000 15.8330
#
#
#
# Elastic Compliance Matrix: (Units=1/GPa)
#
#
# Indices 1 2 3 4 5 6 
#
# 1 0.018822 -0.067030 -0.006629 0.000000 0.000000 0.000000
# 2 -0.067030 0.656808 0.001130 0.000000 0.000000 0.000000
# 3 -0.006629 0.001130 0.008700 0.000000 0.000000 0.000000
# 4 0.000000 0.000000 0.000000 -0.003656 0.000000 0.000000
# 5 0.000000 0.000000 0.000000 0.000000 0.031759 0.000000
# 6 0.000000 0.000000 0.000000 0.000000 0.000000 0.063159
#
#
# Mechanical properties :
#
#
# Convention : Reuss Voigt Hill
#
# Bulk Modulus (GPa) = 1.85436 66.41221 34.13328
# Shear Modulus (GPa) = 4.54376 -31.39397 -13.42510
#
# Velocity S-wave (km/s) = 1.54599 -4.06371 -2.65741
# Velocity P-wave (km/s) = 2.04015 3.59383 2.92214
#
# Compressibility (1/GPa) = 0.53927078
#
# Stress axis : x y z
#
# Youngs Moduli (GPa) = 53.12837 1.52251 114.93928
#
# Poissons Ratio (x) = 0.10205 0.76195
# Poissons Ratio (y) = 3.56121 -0.12983
# Poissons Ratio (z) = 0.35220 -0.00172
#
# Static dielectric constant tensor:
#      x y z
#    x 1.652400 0.000000 0.000000 
#    y 0.000000 1.667420 0.000000 
#    z 0.000000 0.000000 1.651010 
# 
# From -- ./inp_files/36983.got.cif
#   From: 2010.05.17/outbox.cif.g08.bks.cpg/sg51_19_cif.got.tgz:36983.got - 2010.06.03 11:52:47.
