data_PCOD9403646
_publ_section_title
;
Structure prediction by ZEFSAII (Michael W. Deem and Ramdas Pophale) SiO2 
 PCOD9403646
Probable space group: P M M A
;
_chemical_formula_sum "Si O2"
_cell_formula_units_Z 56
_cell_length_a 9.264201
_cell_length_b 18.915217
_cell_length_c 19.340548
_cell_angle_alpha 90.000000
_cell_angle_beta 90.000000
_cell_angle_gamma 90.000000
_cell_volume 3389.128788
_symmetry_space_group_name_H-M "P M M A"
_symmetry_group_IT_number 51
_symmetry_cell_setting 'orthorhombic'
loop_
_space_group_symop_operation_xyz
x,y,z
1/2-x,-y,z
1/2+x,-y,-z
-x,y,-z
-x,-y,-z
1/2+x,y,-z
1/2-x,y,z
x,-y,z
loop_
_atom_site_type_symbol
_atom_site_label
_atom_site_fract_x
_atom_site_fract_y
_atom_site_fract_z
Si Si1 0.078311 0.712002 0.800475
Si Si2 0.577755 0.581860 0.292367
Si Si3 0.922663 0.083590 0.428621
Si Si4 0.585032 0.413909 0.567625
Si Si5 0.922416 0.852303 0.283449
Si Si6 0.577203 0.218759 0.927618
Si Si7 0.077427 0.079221 0.155076
O O1 0.250000 0.715312 0.816551
O O2 0.043977 0.635812 0.768811
O O3 0.050673 0.772161 0.742112
O O4 0.986090 0.731506 0.867433
O O5 0.750000 0.585487 0.305076
O O6 0.541614 0.500000 0.277155
O O7 0.495986 0.604376 0.361850
O O8 0.750000 0.091051 0.436904
O O9 0.968102 0.127961 0.361100
O O10 0.000000 0.103855 0.500000
O O11 0.952561 0.000000 0.415885
O O12 0.500000 0.388955 0.500000
O O13 0.750000 0.389786 0.567318
O O14 0.586144 0.500000 0.564944
O O15 0.750000 0.864427 0.279726
O O16 0.999974 0.900867 0.226617
O O17 0.750000 0.225504 0.933214
O O18 0.541560 0.139339 0.900794
O O19 0.500000 0.232375 0.000000
O O20 0.250000 0.082337 0.165766
O O21 0.038232 0.000000 0.133325
#
# Coordination Sequence:
#
# PCOD9403646 Si02
#       7
#     8   8   8   8   8   8   8
#     4   9  18  33  52  72  95 123 154 189 232 283
#     4   9  17  30  49  72  97 125 157 195 240 288
#     4   9  17  28  42  61  85 115 153 195 235 272
#     4   9  16  26  42  65  93 124 157 193 233 278
#     4   9  17  30  47  66  90 121 157 195 234 278
#     4  10  20  34  52  73  98 127 157 188 225 272
#     4   9  18  31  47  70  98 125 154 189 228 270
#
# _framework density 16.523420000000002
#
# number of rings (size 3 to 8) (size 9 to 14) (size 15 to 20)
#    0.000    2.857    0.000    1.286    0.000    4.571 
#    0.000    2.143    0.000    2.143    0.000    0.000 
#    0.000    0.000    0.000    0.000    0.000    0.000 
#
# Total GULP energy -312086.295216 kJ/mol
# GULP energy per Si atom -5572.969557 kJ/mol
# Density = 1.648581 g / cm^3
# Si number density = 16.523420 Si / 1000 Ang^3
#
#
#
# Elastic Constant Matrix: (Units=GPa)
#
#
# Indices 1 2 3 4 5 6 
#
# 1 47.6517 42.5605 65.4096 0.0000 0.0000 0.0000
# 2 42.5605 70.8354 60.7326 0.0000 0.0000 0.0000
# 3 65.4096 60.7326 149.2664 0.0000 0.0000 0.0000
# 4 0.0000 0.0000 0.0000 11.7206 0.0000 0.0000
# 5 0.0000 0.0000 0.0000 0.0000 31.2511 0.0000
# 6 0.0000 0.0000 0.0000 0.0000 0.0000 15.8171
#
#
#
# Elastic Compliance Matrix: (Units=1/GPa)
#
#
# Indices 1 2 3 4 5 6 
#
# 1 0.074210 -0.025657 -0.022080 0.000000 0.000000 0.000000
# 2 -0.025657 0.030551 -0.001187 0.000000 0.000000 0.000000
# 3 -0.022080 -0.001187 0.016858 0.000000 0.000000 0.000000
# 4 0.000000 0.000000 0.000000 0.085320 0.000000 0.000000
# 5 0.000000 0.000000 0.000000 0.000000 0.031999 0.000000
# 6 0.000000 0.000000 0.000000 0.000000 0.000000 0.063223
#
#
# Mechanical properties :
#
#
# Convention : Reuss Voigt Hill
#
# Bulk Modulus (GPa) = 42.06967 67.23990 54.65478
# Shear Modulus (GPa) = 12.25691 18.36114 15.30903
#
# Velocity S-wave (km/s) = 2.72654 3.33711 3.04716
# Velocity P-wave (km/s) = 5.95214 7.45858 6.74753
#
# Compressibility (1/GPa) = 0.02377009
#
# Stress axis : x y z
#
# Youngs Moduli (GPa) = 13.47524 32.73226 59.31835
#
# Poissons Ratio (x) = 0.83982 1.30976
# Poissons Ratio (y) = 0.34574 0.07042
# Poissons Ratio (z) = 0.29754 0.03886
#
# Static dielectric constant tensor:
#      x y z
#    x 1.550620 0.000000 0.000000 
#    y 0.000000 1.565660 0.000000 
#    z 0.000000 0.000000 1.526500 
# 
# From -- ./inp_files/28229.got.cif
#   From: 2010.05.17/outbox.cif.g08.bks.cpg/sg51_15_cif.got.tgz:28229.got - 2010.06.03 11:52:47.
