data_PCOD9403592
_publ_section_title
;
Structure prediction by ZEFSAII (Michael W. Deem and Ramdas Pophale) SiO2 
 PCOD9403592
Probable space group: P M M A
;
_chemical_formula_sum "Si O2"
_cell_formula_units_Z 40
_cell_length_a 9.754479
_cell_length_b 14.036685
_cell_length_c 15.880995
_cell_angle_alpha 90.000000
_cell_angle_beta 90.000000
_cell_angle_gamma 90.000000
_cell_volume 2174.434555
_symmetry_space_group_name_H-M "P M M A"
_symmetry_group_IT_number 51
_symmetry_cell_setting 'orthorhombic'
loop_
_space_group_symop_operation_xyz
x,y,z
1/2-x,-y,z
1/2+x,-y,-z
-x,y,-z
-x,-y,-z
1/2+x,y,-z
1/2-x,y,z
x,-y,z
loop_
_atom_site_type_symbol
_atom_site_label
_atom_site_fract_x
_atom_site_fract_y
_atom_site_fract_z
Si Si1 0.750000 0.613601 0.136334
Si Si2 0.592822 0.114631 0.576766
Si Si3 0.250000 0.613695 0.050032
Si Si4 0.092705 0.811926 0.242184
Si Si5 0.454116 0.387387 0.197005
Si Si6 0.085418 0.115116 0.915422
O O1 0.750000 0.500000 0.124580
O O2 0.613515 0.632378 0.186366
O O3 0.750000 0.655853 0.042512
O O4 0.500000 0.150018 0.500000
O O5 0.750000 0.147606 0.567594
O O6 0.545327 0.143390 0.669938
O O7 0.593326 0.000000 0.573289
O O8 0.250000 0.500000 0.041820
O O9 0.118285 0.633769 0.107106
O O10 0.250000 0.844189 0.223818
O O11 0.098293 0.697411 0.254624
O O12 0.992883 0.840090 0.165251
O O13 0.429291 0.500000 0.216406
O O14 0.250000 0.136582 0.918576
O O15 0.074948 0.000000 0.908504
O O16 0.000000 0.142963 0.000000
#
# Coordination Sequence:
#
# PCOD9403592 Si02
#       6
#     4   8   4   8   8   8
#     4   9  18  30  46  68  98 139 188 240 282 311
#     4   9  19  37  61  87 112 137 171 222 284 343
#     4   9  16  30  48  66  94 137 188 234 274 317
#     4  11  22  36  56  84 113 149 187 229 279 333
#     4  10  20  34  50  73 106 146 188 230 279 326
#     4  10  22  39  57  79 111 151 192 233 276 329
#
# _framework density 18.395586000000002
#
# number of rings (size 3 to 8) (size 9 to 14) (size 15 to 20)
#    0.000    2.200    1.000    1.800    1.400    6.800 
#    0.000    2.000    0.000    0.600    0.000    0.000 
#    0.000    0.000    0.000    0.000    0.000    0.000 
#
# Total GULP energy -222882.688201 kJ/mol
# GULP energy per Si atom -5572.067205 kJ/mol
# Density = 1.835372 g / cm^3
# Si number density = 18.395586 Si / 1000 Ang^3
#
#
#
# Elastic Constant Matrix: (Units=GPa)
#
#
# Indices 1 2 3 4 5 6 
#
# 1 123.5594 19.9077 60.7165 0.0000 0.0000 0.0000
# 2 19.9077 58.6397 26.5866 0.0000 0.0000 0.0000
# 3 60.7165 26.5866 113.5878 0.0000 0.0000 0.0000
# 4 0.0000 0.0000 0.0000 8.5962 0.0000 0.0000
# 5 0.0000 0.0000 0.0000 0.0000 35.5628 0.0000
# 6 0.0000 0.0000 0.0000 0.0000 0.0000 26.3672
#
#
#
# Elastic Compliance Matrix: (Units=1/GPa)
#
#
# Indices 1 2 3 4 5 6 
#
# 1 0.011052 -0.001201 -0.005626 0.000000 0.000000 0.000000
# 2 -0.001201 0.019208 -0.003854 0.000000 0.000000 0.000000
# 3 -0.005626 -0.003854 0.012713 0.000000 0.000000 0.000000
# 4 0.000000 0.000000 0.000000 0.116330 0.000000 0.000000
# 5 0.000000 0.000000 0.000000 0.000000 0.028119 0.000000
# 6 0.000000 0.000000 0.000000 0.000000 0.000000 0.037926
#
#
# Mechanical properties :
#
#
# Convention : Reuss Voigt Hill
#
# Bulk Modulus (GPa) = 46.27357 56.68985 51.48171
# Shear Modulus (GPa) = 19.69167 26.67699 23.18433
#
# Velocity S-wave (km/s) = 3.27533 3.81226 3.55395
# Velocity P-wave (km/s) = 6.28594 7.08955 6.69981
#
# Compressibility (1/GPa) = 0.02161061
#
# Stress axis : x y z
#
# Youngs Moduli (GPa) = 90.48527 52.06064 78.65789
#
# Poissons Ratio (x) = 0.06252 0.44255
# Poissons Ratio (y) = 0.10867 0.30315
# Poissons Ratio (z) = 0.50910 0.20064
#
# Static dielectric constant tensor:
#      x y z
#    x 1.665180 0.000000 0.000000 
#    y 0.000000 1.675310 0.000000 
#    z 0.000000 0.000000 1.611120 
# 
# From -- ./inp_files/20588.got.cif
#   From: 2010.05.17/outbox.cif.g08.bks.cpg/sg51_11_cif.got.tgz:20588.got - 2010.06.03 11:52:47.
