data_PCOD9403423
_publ_section_title
;
Structure prediction by ZEFSAII (Michael W. Deem and Ramdas Pophale) SiO2 
 PCOD9403423
Probable space group: P M M A
;
_chemical_formula_sum "Si O2"
_cell_formula_units_Z 64
_cell_length_a 18.749561
_cell_length_b 20.977560
_cell_length_c 8.760571
_cell_angle_alpha 90.000000
_cell_angle_beta 90.000000
_cell_angle_gamma 90.000000
_cell_volume 3445.708144
_symmetry_space_group_name_H-M "P M M A"
_symmetry_group_IT_number 51
_symmetry_cell_setting 'orthorhombic'
loop_
_space_group_symop_operation_xyz
x,y,z
1/2-x,-y,z
1/2+x,-y,-z
-x,y,-z
-x,-y,-z
1/2+x,y,-z
1/2-x,y,z
x,-y,z
loop_
_atom_site_type_symbol
_atom_site_label
_atom_site_fract_x
_atom_site_fract_y
_atom_site_fract_z
Si Si1 0.924707 0.571804 0.089600
Si Si2 0.330948 0.184290 0.230392
Si Si3 0.334877 0.572904 0.210167
Si Si4 0.904406 0.071395 0.157437
Si Si5 0.404095 0.694885 0.358383
Si Si6 0.935793 0.303485 0.283784
Si Si7 0.567589 0.071458 0.790459
Si Si8 0.831757 0.799553 0.135517
O O1 0.920988 0.500000 0.153832
O O2 0.920891 0.627621 0.211237
O O3 0.863350 0.579341 0.962756
O O4 0.000000 0.577118 0.000000
O O5 0.250000 0.164173 0.260350
O O6 0.349965 0.249585 0.313473
O O7 0.385464 0.128356 0.275091
O O8 0.337202 0.197689 0.048660
O O9 0.250000 0.581675 0.217265
O O10 0.351829 0.500000 0.257920
O O11 0.374630 0.626500 0.306987
O O12 0.852850 0.129792 0.193173
O O13 0.983052 0.082050 0.227442
O O14 0.879720 0.000000 0.198564
O O15 0.916698 0.071374 0.973352
O O16 0.479267 0.708560 0.273410
O O17 0.417287 0.696010 0.538156
O O18 0.888267 0.250836 0.199415
O O19 0.584800 0.000000 0.734435
O O20 0.750000 0.783612 0.175569
#
# Coordination Sequence:
#
# PCOD9403423 Si02
#       8
#     8   8   8   8   8   8   8   8
#     4  10  20  38  63  89 113 141 180 227 277 327
#     4  10  20  33  52  77 108 148 186 225 276 331
#     4  10  21  38  61  87 114 145 181 223 273 328
#     4   8  14  27  48  75 107 141 177 226 286 335
#     4  11  23  38  54  79 111 146 188 226 271 332
#     4  11  24  37  56  82 110 146 185 230 278 325
#     4   8  14  26  47  76 106 137 180 230 276 327
#     4  10  21  34  52  81 111 144 188 233 277 331
#
# _framework density 18.573831999999999
#
# number of rings (size 3 to 8) (size 9 to 14) (size 15 to 20)
#    0.000    2.250    1.250    2.625    0.000    4.500 
#    0.000    3.750    0.000    2.250    0.000    5.250 
#    0.000    0.000    0.000    0.000    0.000    0.000 
#
# Total GULP energy -357135.971138 kJ/mol
# GULP energy per Si atom -5580.249549 kJ/mol
# Density = 1.853156 g / cm^3
# Si number density = 18.573832 Si / 1000 Ang^3
#
#
#
# Elastic Constant Matrix: (Units=GPa)
#
#
# Indices 1 2 3 4 5 6 
#
# 1 66.7617 31.1941 13.7688 0.0000 0.0000 0.0000
# 2 31.1941 94.4651 19.9016 0.0000 0.0000 0.0000
# 3 13.7688 19.9016 10.7489 0.0000 0.0000 0.0000
# 4 0.0000 0.0000 0.0000 -11.8684 0.0000 0.0000
# 5 0.0000 0.0000 0.0000 0.0000 15.6576 0.0000
# 6 0.0000 0.0000 0.0000 0.0000 0.0000 19.6486
#
#
#
# Elastic Compliance Matrix: (Units=1/GPa)
#
#
# Indices 1 2 3 4 5 6 
#
# 1 0.020593 -0.002038 -0.022606 0.000000 0.000000 0.000000
# 2 -0.002038 0.017558 -0.029898 0.000000 0.000000 0.000000
# 3 -0.022606 -0.029898 0.177346 0.000000 0.000000 0.000000
# 4 0.000000 0.000000 0.000000 -0.084257 0.000000 0.000000
# 5 0.000000 0.000000 0.000000 0.000000 0.063867 0.000000
# 6 0.000000 0.000000 0.000000 0.000000 0.000000 0.050894
#
#
# Mechanical properties :
#
#
# Convention : Reuss Voigt Hill
#
# Bulk Modulus (GPa) = 9.39728 33.52275 21.46002
# Shear Modulus (GPa) = 12.80233 11.82830 12.31532
#
# Velocity S-wave (km/s) = 2.62824 2.52628 2.57776
# Velocity P-wave (km/s) = 3.77897 5.15723 4.52093
#
# Compressibility (1/GPa) = 0.10641375
#
# Stress axis : x y z
#
# Youngs Moduli (GPa) = 48.56037 56.95560 5.63870
#
# Poissons Ratio (x) = 0.11605 0.12747
# Poissons Ratio (y) = 0.09895 0.16858
# Poissons Ratio (z) = 1.09775 1.70284
#
# Static dielectric constant tensor:
#      x y z
#    x 1.640500 0.000000 0.000000 
#    y 0.000000 1.635520 0.000000 
#    z 0.000000 0.000000 1.625920 
# 
# From -- ./inp_files/11203.got.cif
#   From: 2010.05.17/outbox.cif.g08.bks.cpg/sg51_6_cif.got.tgz:11203.got - 2010.06.03 11:52:47.
