data_PCOD9403342
_publ_section_title
;
Structure prediction by ZEFSAII (Michael W. Deem and Ramdas Pophale) SiO2 
 PCOD9403342
Probable space group: P M M A
;
_chemical_formula_sum "Si O2"
_cell_formula_units_Z 64
_cell_length_a 34.937262
_cell_length_b 7.996846
_cell_length_c 11.258748
_cell_angle_alpha 90.000000
_cell_angle_beta 90.000000
_cell_angle_gamma 90.000000
_cell_volume 3145.558004
_symmetry_space_group_name_H-M "P M M A"
_symmetry_group_IT_number 51
_symmetry_cell_setting 'orthorhombic'
loop_
_space_group_symop_operation_xyz
x,y,z
1/2-x,-y,z
1/2+x,-y,-z
-x,y,-z
-x,-y,-z
1/2+x,y,-z
1/2-x,y,z
x,-y,z
loop_
_atom_site_type_symbol
_atom_site_label
_atom_site_fract_x
_atom_site_fract_y
_atom_site_fract_z
Si Si1 0.293037 0.698379 0.793071
Si Si2 0.131080 0.203386 0.178712
Si Si3 0.941804 0.297315 0.202890
Si Si4 0.092526 0.200840 0.424906
Si Si5 0.792561 0.800934 0.938602
Si Si6 0.481953 0.298064 0.304703
Si Si7 0.056106 0.301992 0.060057
Si Si8 0.868252 0.801987 0.335726
O O1 0.250000 0.755999 0.758414
O O2 0.291700 0.500000 0.808524
O O3 0.301892 0.773790 0.922671
O O4 0.326790 0.737211 0.701739
O O5 0.115545 0.258179 0.307376
O O6 0.100804 0.270159 0.083080
O O7 0.130144 0.000000 0.175688
O O8 0.173293 0.262823 0.143863
O O9 0.940986 0.500000 0.201103
O O10 0.899920 0.235894 0.236001
O O11 0.973903 0.243639 0.298538
O O12 0.953818 0.239095 0.070883
O O13 0.047999 0.245337 0.405009
O O14 0.113023 0.267271 0.542839
O O15 0.094515 0.000000 0.427760
O O16 0.750000 0.730315 0.917289
O O17 0.790701 0.000000 0.919095
O O18 0.481741 0.500000 0.305360
O O19 0.464400 0.235713 0.178448
O O20 0.047968 0.500000 0.059239
O O21 0.864614 0.000000 0.348399
#
# Coordination Sequence:
#
# PCOD9403342 Si02
#       8
#     8   8   8   8   8   8   8   8
#     4  10  21  37  57  80 106 134 163 200 248 299
#     4   9  17  31  50  71  97 129 166 206 249 297
#     4  10  20  33  51  76 105 134 167 210 256 303
#     4   9  20  37  52  69  98 136 175 214 253 293
#     4   9  17  30  51  79 107 131 157 195 245 302
#     4   9  18  33  53  75  99 132 171 210 256 306
#     4   9  17  30  49  73 100 129 163 205 255 308
#     4  11  23  37  53  74 102 137 176 213 250 295
#
# _framework density 20.346153000000001
#
# number of rings (size 3 to 8) (size 9 to 14) (size 15 to 20)
#    0.000    2.500    0.000    1.875    0.000    7.250 
#    0.000    3.125    0.000    6.000    0.000    1.750 
#    0.000    0.000    0.000    0.000    0.000    0.000 
#
# Total GULP energy -357032.094410 kJ/mol
# GULP energy per Si atom -5578.626475 kJ/mol
# Density = 2.029984 g / cm^3
# Si number density = 20.346153 Si / 1000 Ang^3
#
#
#
# Elastic Constant Matrix: (Units=GPa)
#
#
# Indices 1 2 3 4 5 6 
#
# 1 87.3553 -0.2519 5.2391 0.0000 0.0000 0.0000
# 2 -0.2519 13.2751 -5.2443 0.0000 0.0000 0.0000
# 3 5.2391 -5.2443 42.6008 0.0000 0.0000 0.0000
# 4 0.0000 0.0000 0.0000 -214.9031 0.0000 0.0000
# 5 0.0000 0.0000 0.0000 0.0000 19.7335 0.0000
# 6 0.0000 0.0000 0.0000 0.0000 0.0000 30.8773
#
#
#
# Elastic Compliance Matrix: (Units=1/GPa)
#
#
# Indices 1 2 3 4 5 6 
#
# 1 0.011534 -0.000359 -0.001463 0.000000 0.000000 0.000000
# 2 -0.000359 0.079190 0.009793 0.000000 0.000000 0.000000
# 3 -0.001463 0.009793 0.024859 0.000000 0.000000 0.000000
# 4 0.000000 0.000000 0.000000 -0.004653 0.000000 0.000000
# 5 0.000000 0.000000 0.000000 0.000000 0.050675 0.000000
# 6 0.000000 0.000000 0.000000 0.000000 0.000000 0.032386
#
#
# Mechanical properties :
#
#
# Convention : Reuss Voigt Hill
#
# Bulk Modulus (GPa) = 7.60306 15.85746 11.73026
# Shear Modulus (GPa) = 22.53350 -23.29256 -0.37953
#
# Velocity S-wave (km/s) = 3.33153 -3.38718 -0.43237
# Velocity P-wave (km/s) = 4.30625 2.73616 2.35130
#
# Compressibility (1/GPa) = 0.13152593
#
# Stress axis : x y z
#
# Youngs Moduli (GPa) = 86.69879 12.62778 40.22662
#
# Poissons Ratio (x) = 0.00453 0.05884
# Poissons Ratio (y) = 0.03112 -0.39393
# Poissons Ratio (z) = 0.12681 -0.12366
#
# Static dielectric constant tensor:
#      x y z
#    x 1.739820 0.000000 0.000000 
#    y 0.000000 1.721060 0.000000 
#    z 0.000000 0.000000 1.738760 
# 
# From -- ./inp_files/19577.got.cif
#   From: 2010.05.17/outbox.cif.g08.bks.cpg/sg51_10_cif.got.tgz:19577.got - 2010.06.03 11:52:47.
