data_PCOD9403040
_publ_section_title
;
Structure prediction by ZEFSAII (Michael W. Deem and Ramdas Pophale) SiO2 
 PCOD9403040
Probable space group: P M M A
;
_chemical_formula_sum "Si O2"
_cell_formula_units_Z 56
_cell_length_a 16.099682
_cell_length_b 7.583209
_cell_length_c 21.669628
_cell_angle_alpha 90.000000
_cell_angle_beta 90.000000
_cell_angle_gamma 90.000000
_cell_volume 2645.585366
_symmetry_space_group_name_H-M "P M M A"
_symmetry_group_IT_number 51
_symmetry_cell_setting 'orthorhombic'
loop_
_space_group_symop_operation_xyz
x,y,z
1/2-x,-y,z
1/2+x,-y,-z
-x,y,-z
-x,-y,-z
1/2+x,y,-z
1/2-x,y,z
x,-y,z
loop_
_atom_site_type_symbol
_atom_site_label
_atom_site_fract_x
_atom_site_fract_y
_atom_site_fract_z
Si Si1 0.843597 0.713395 0.066371
Si Si2 0.006938 0.704364 0.848194
Si Si3 0.000155 0.794736 0.292580
Si Si4 0.158411 0.215966 0.633900
Si Si5 0.843215 0.207667 0.922303
Si Si6 0.096226 0.785326 0.500080
Si Si7 0.158421 0.216007 0.366267
O O1 0.750000 0.770398 0.084283
O O2 0.844892 0.500000 0.067111
O O3 0.917603 0.778041 0.110218
O O4 0.857310 0.767274 0.995415
O O5 0.026068 0.500000 0.837608
O O6 0.920139 0.716339 0.884635
O O7 0.999863 0.785969 0.780812
O O8 0.916172 0.720834 0.322617
O O9 0.083940 0.720440 0.322752
O O10 0.000214 0.000000 0.311009
O O11 0.250000 0.274448 0.653072
O O12 0.139506 0.269508 0.563449
O O13 0.159100 0.000000 0.634871
O O14 0.750000 0.278057 0.908626
O O15 0.842167 0.000000 0.909054
O O16 0.139575 0.730583 0.436723
O O17 0.000000 0.730271 0.500000
O O18 0.096790 0.000000 0.500088
O O19 0.250000 0.274301 0.347066
O O20 0.159086 0.000000 0.365211
#
# Coordination Sequence:
#
# PCOD9403040 Si02
#       7
#     8   8   8   8   8   8   8
#     4   9  19  37  59  82 109 140 175 216 260 308
#     4  11  23  37  55  78 106 144 185 218 257 307
#     4  10  20  33  47  68 100 135 172 215 258 305
#     4   9  16  26  42  66  97 131 166 209 265 321
#     4  10  21  37  59  87 114 138 168 211 263 314
#     4   9  13  21  39  64  96 128 158 202 261 319
#     4   9  16  26  42  65  94 128 164 205 257 312
#
# _framework density 21.167337
#
# number of rings (size 3 to 8) (size 9 to 14) (size 15 to 20)
#    0.000    2.429    1.429    1.714    0.000    6.571 
#    0.000    1.429    0.000    0.000    0.000    2.000 
#    0.000    2.286    0.000    0.000    0.000    0.000 
#
# Total GULP energy -312674.847967 kJ/mol
# GULP energy per Si atom -5583.479428 kJ/mol
# Density = 2.111916 g / cm^3
# Si number density = 21.167337 Si / 1000 Ang^3
#
#
#
# Elastic Constant Matrix: (Units=GPa)
#
#
# Indices 1 2 3 4 5 6 
#
# 1 207.2471 0.2304 94.5143 0.0000 0.0000 0.0000
# 2 0.2304 44.4499 -12.0621 0.0000 0.0000 0.0000
# 3 94.5143 -12.0621 102.8803 0.0000 0.0000 0.0000
# 4 0.0000 0.0000 0.0000 84.2784 0.0000 0.0000
# 5 0.0000 0.0000 0.0000 0.0000 1.5374 0.0000
# 6 0.0000 0.0000 0.0000 0.0000 0.0000 1.4390
#
#
#
# Elastic Compliance Matrix: (Units=1/GPa)
#
#
# Indices 1 2 3 4 5 6 
#
# 1 0.008515 -0.002238 -0.008085 0.000000 0.000000 0.000000
# 2 -0.002238 0.023825 0.004849 0.000000 0.000000 0.000000
# 3 -0.008085 0.004849 0.017716 0.000000 0.000000 0.000000
# 4 0.000000 0.000000 0.000000 0.011865 0.000000 0.000000
# 5 0.000000 0.000000 0.000000 0.000000 0.650463 0.000000
# 6 0.000000 0.000000 0.000000 0.000000 0.000000 0.694943
#
#
# Mechanical properties :
#
#
# Convention : Reuss Voigt Hill
#
# Bulk Modulus (GPa) = 25.56982 57.77139 41.67061
# Shear Modulus (GPa) = 3.49331 35.57727 19.53529
#
# Velocity S-wave (km/s) = 1.28604 4.10416 3.04122
# Velocity P-wave (km/s) = 3.78303 7.05767 5.66225
#
# Compressibility (1/GPa) = 0.03910860
#
# Stress axis : x y z
#
# Youngs Moduli (GPa) = 117.44532 41.97311 56.44690
#
# Poissons Ratio (x) = 0.09394 0.45635
# Poissons Ratio (y) = 0.26284 -0.27373
# Poissons Ratio (z) = 0.94950 -0.20354
#
# Static dielectric constant tensor:
#      x y z
#    x 1.771050 0.000000 0.000000 
#    y 0.000000 1.817720 0.000000 
#    z 0.000000 0.000000 1.701010 
# 
# From -- ./inp_files/33324.got.cif
#   From: 2010.05.17/outbox.cif.g08.bks.cpg/sg51_17_cif.got.tgz:33324.got - 2010.06.03 11:52:47.
