data_PCOD9403445
_publ_section_title
;
Structure prediction by ZEFSAII (Michael W. Deem and Ramdas Pophale) SiO2 
 PCOD9403445
Probable space group: P M M A
;
_chemical_formula_sum "Si O2"
_cell_formula_units_Z 48
_cell_length_a 9.315072
_cell_length_b 9.313833
_cell_length_c 32.145585
_cell_angle_alpha 90.000000
_cell_angle_beta 90.000000
_cell_angle_gamma 90.000000
_cell_volume 2788.919612
_symmetry_space_group_name_H-M "P M M A"
_symmetry_group_IT_number 51
_symmetry_cell_setting 'orthorhombic'
loop_
_space_group_symop_operation_xyz
x,y,z
1/2-x,-y,z
1/2+x,-y,-z
-x,y,-z
-x,-y,-z
1/2+x,y,-z
1/2-x,y,z
x,-y,z
loop_
_atom_site_type_symbol
_atom_site_label
_atom_site_fract_x
_atom_site_fract_y
_atom_site_fract_z
Si Si1 0.921244 0.670544 0.117763
Si Si2 0.075492 0.165291 0.799148
Si Si3 0.415974 0.674991 0.459370
Si Si4 0.577004 0.331024 0.632651
Si Si5 0.081820 0.172936 0.706569
Si Si6 0.580619 0.171707 0.957082
O O1 0.750000 0.699020 0.112605
O O2 0.942133 0.500000 0.117375
O O3 0.966611 0.736860 0.162168
O O4 0.007752 0.745556 0.080893
O O5 0.250000 0.163980 0.797778
O O6 0.030018 0.214436 0.753072
O O7 0.029536 0.000000 0.805773
O O8 0.500000 0.725102 0.500000
O O9 0.250000 0.717272 0.462860
O O10 0.419915 0.500000 0.459188
O O11 0.470732 0.718387 0.413630
O O12 0.750000 0.318546 0.633648
O O13 0.542141 0.500000 0.636966
O O14 0.506502 0.243910 0.669764
O O15 0.250000 0.212104 0.702620
O O16 0.072796 0.000000 0.704669
O O17 0.750000 0.203405 0.960215
O O18 0.564466 0.000000 0.950719
O O19 0.500000 0.208610 0.000000
#
# Coordination Sequence:
#
# PCOD9403445 Si02
#       6
#     8   8   8   8   8   8
#     4  10  20  33  52  79 107 134 164 200 246 296
#     4   8  15  30  51  72  96 128 165 204 243 284
#     4   8  14  25  41  62  89 119 152 192 236 283
#     4   9  18  31  46  68  98 128 158 195 241 292
#     4   9  18  32  50  73  98 125 162 205 244 285
#     4  10  21  37  57  79 102 132 171 210 246 287
#
# _framework density 17.210965999999999
#
# number of rings (size 3 to 8) (size 9 to 14) (size 15 to 20)
#    0.000    3.000    0.000    3.000    0.000    4.333 
#    0.000    4.167    0.000    1.500    0.000    0.000 
#    0.000    0.000    0.000    0.000    0.000    0.000 
#
# Total GULP energy -267459.797418 kJ/mol
# GULP energy per Si atom -5572.079113 kJ/mol
# Density = 1.717179 g / cm^3
# Si number density = 17.210966 Si / 1000 Ang^3
#
#
#
# Elastic Constant Matrix: (Units=GPa)
#
#
# Indices 1 2 3 4 5 6 
#
# 1 49.6294 37.3642 74.5646 0.0000 0.0000 0.0000
# 2 37.3642 35.4486 68.7780 0.0000 0.0000 0.0000
# 3 74.5646 68.7780 209.8008 0.0000 0.0000 0.0000
# 4 0.0000 0.0000 0.0000 30.1323 0.0000 0.0000
# 5 0.0000 0.0000 0.0000 0.0000 32.9951 0.0000
# 6 0.0000 0.0000 0.0000 0.0000 0.0000 23.2069
#
#
#
# Elastic Compliance Matrix: (Units=1/GPa)
#
#
# Indices 1 2 3 4 5 6 
#
# 1 0.098135 -0.098277 -0.002660 0.000000 0.000000 0.000000
# 2 -0.098277 0.175930 -0.022746 0.000000 0.000000 0.000000
# 3 -0.002660 -0.022746 0.013169 0.000000 0.000000 0.000000
# 4 0.000000 0.000000 0.000000 0.033187 0.000000 0.000000
# 5 0.000000 0.000000 0.000000 0.000000 0.030307 0.000000
# 6 0.000000 0.000000 0.000000 0.000000 0.000000 0.043091
#
#
# Mechanical properties :
#
#
# Convention : Reuss Voigt Hill
#
# Bulk Modulus (GPa) = 25.08318 72.92137 49.00228
# Shear Modulus (GPa) = 7.63972 24.87835 16.25903
#
# Velocity S-wave (km/s) = 2.10915 3.80609 3.07692
# Velocity P-wave (km/s) = 4.53177 7.85978 6.41534
#
# Compressibility (1/GPa) = 0.03986735
#
# Stress axis : x y z
#
# Youngs Moduli (GPa) = 10.19002 5.68409 75.93820
#
# Poissons Ratio (x) = 0.55861 0.20201
# Poissons Ratio (y) = 1.00144 1.72729
# Poissons Ratio (z) = 0.02711 0.12929
#
# Static dielectric constant tensor:
#      x y z
#    x 1.573730 0.000000 0.000000 
#    y 0.000000 1.571230 0.000000 
#    z 0.000000 0.000000 1.586890 
# 
# From -- ./inp_files/37034.got.cif
#   From: 2010.05.17/outbox.cif.g08.bks.cpg/sg51_19_cif.got.tgz:37034.got - 2010.06.03 11:52:47.
