data_PCOD9403682
_publ_section_title
;
Structure prediction by ZEFSAII (Michael W. Deem and Ramdas Pophale) SiO2 
 PCOD9403682
Probable space group: P M M A
;
_chemical_formula_sum "Si O2"
_cell_formula_units_Z 48
_cell_length_a 16.127301
_cell_length_b 8.891563
_cell_length_c 19.293866
_cell_angle_alpha 90.000000
_cell_angle_beta 90.000000
_cell_angle_gamma 90.000000
_cell_volume 2766.680822
_symmetry_space_group_name_H-M "P M M A"
_symmetry_group_IT_number 51
_symmetry_cell_setting 'orthorhombic'
loop_
_space_group_symop_operation_xyz
x,y,z
1/2-x,-y,z
1/2+x,-y,-z
-x,y,-z
-x,-y,-z
1/2+x,y,-z
1/2-x,y,z
x,-y,z
loop_
_atom_site_type_symbol
_atom_site_label
_atom_site_fract_x
_atom_site_fract_y
_atom_site_fract_z
Si Si1 0.570567 0.317435 0.054614
Si Si2 0.155960 0.820683 0.584241
Si Si3 0.064893 0.177887 0.792559
Si Si4 0.250000 0.677491 0.951277
Si Si5 0.843702 0.179143 0.581645
Si Si6 0.250000 0.823588 0.803445
Si Si7 0.001520 0.321534 0.339944
O O1 0.571885 0.500000 0.062558
O O2 0.558274 0.245104 0.130213
O O3 0.660400 0.265489 0.025386
O O4 0.500000 0.278176 0.000000
O O5 0.250000 0.774667 0.604422
O O6 0.148658 0.798938 0.501243
O O7 0.080390 0.737455 0.620431
O O8 0.148972 0.000000 0.598065
O O9 0.161301 0.199718 0.767976
O O10 0.006086 0.257486 0.737709
O O11 0.049685 0.000000 0.794175
O O12 0.250000 0.500000 0.963922
O O13 0.250000 0.714263 0.869413
O O14 0.750000 0.226007 0.601581
O O15 0.916743 0.261317 0.621786
O O16 0.850852 0.000000 0.593781
O O17 0.250000 0.000000 0.826473
O O18 0.001639 0.500000 0.339002
#
# Coordination Sequence:
#
# PCOD9403682 Si02
#       7
#     8   8   8   4   8   4   8
#     4   9  17  31  52  76 104 134 166 207 259 315
#     4   9  19  36  57  80 107 140 179 219 262 315
#     4  10  20  34  52  75 103 138 179 218 261 312
#     4   8  14  26  46  72  98 128 159 190 239 304
#     4   9  19  38  61  79  98 135 184 227 266 313
#     4   8  16  30  48  70  96 128 165 208 253 302
#     4  12  24  34  50  79 113 143 175 217 271 323
#
# _framework density 17.349308000000001
#
# number of rings (size 3 to 8) (size 9 to 14) (size 15 to 20)
#    0.000    2.500    0.000    3.500    1.167    4.333 
#    0.000    1.667    1.833    0.000    0.000    0.000 
#    0.000    0.000    0.000    0.000    0.000    0.000 
#
# Total GULP energy -267592.582503 kJ/mol
# GULP energy per Si atom -5574.845469 kJ/mol
# Density = 1.730982 g / cm^3
# Si number density = 17.349308 Si / 1000 Ang^3
#
#
#
# Elastic Constant Matrix: (Units=GPa)
#
#
# Indices 1 2 3 4 5 6 
#
# 1 153.5751 61.7390 76.8911 0.0000 0.0000 0.0000
# 2 61.7390 56.9908 45.4076 0.0000 0.0000 0.0000
# 3 76.8911 45.4076 74.0010 0.0000 0.0000 0.0000
# 4 0.0000 0.0000 0.0000 25.0110 0.0000 0.0000
# 5 0.0000 0.0000 0.0000 0.0000 26.3013 0.0000
# 6 0.0000 0.0000 0.0000 0.0000 0.0000 6.2700
#
#
#
# Elastic Compliance Matrix: (Units=1/GPa)
#
#
# Indices 1 2 3 4 5 6 
#
# 1 0.015059 -0.007526 -0.011029 0.000000 0.000000 0.000000
# 2 -0.007526 0.038092 -0.015553 0.000000 0.000000 0.000000
# 3 -0.011029 -0.015553 0.034517 0.000000 0.000000 0.000000
# 4 0.000000 0.000000 0.000000 0.039982 0.000000 0.000000
# 5 0.000000 0.000000 0.000000 0.000000 0.038021 0.000000
# 6 0.000000 0.000000 0.000000 0.000000 0.000000 0.159489
#
#
# Mechanical properties :
#
#
# Convention : Reuss Voigt Hill
#
# Bulk Modulus (GPa) = 51.41222 72.51580 61.96401
# Shear Modulus (GPa) = 12.50430 18.21840 15.36135
#
# Velocity S-wave (km/s) = 2.68757 3.24403 2.97882
# Velocity P-wave (km/s) = 6.27125 7.47796 6.90103
#
# Compressibility (1/GPa) = 0.01945063
#
# Stress axis : x y z
#
# Youngs Moduli (GPa) = 66.40503 26.25194 28.97139
#
# Poissons Ratio (x) = 0.19758 0.31953
# Poissons Ratio (y) = 0.49979 0.45061
# Poissons Ratio (z) = 0.73238 0.40831
#
# Static dielectric constant tensor:
#      x y z
#    x 1.613010 0.000000 0.000000 
#    y 0.000000 1.574100 0.000000 
#    z 0.000000 0.000000 1.568690 
# 
# From -- ./inp_files/29594.got.cif
#   From: 2010.05.17/outbox.cif.g08.bks.cpg/sg51_15_cif.got.tgz:29594.got - 2010.06.03 11:52:47.
