data_PCOD9403980
_publ_section_title
;
Structure prediction by ZEFSAII (Michael W. Deem and Ramdas Pophale) SiO2 
 PCOD9403980
Probable space group: P M M A
;
_chemical_formula_sum "Si O2"
_cell_formula_units_Z 64
_cell_length_a 10.665126
_cell_length_b 14.819489
_cell_length_c 20.943216
_cell_angle_alpha 90.000000
_cell_angle_beta 90.000000
_cell_angle_gamma 90.000000
_cell_volume 3310.111258
_symmetry_space_group_name_H-M "P M M A"
_symmetry_group_IT_number 51
_symmetry_cell_setting 'orthorhombic'
loop_
_space_group_symop_operation_xyz
x,y,z
1/2-x,-y,z
1/2+x,-y,-z
-x,y,-z
-x,-y,-z
1/2+x,y,-z
1/2-x,y,z
x,-y,z
loop_
_atom_site_type_symbol
_atom_site_label
_atom_site_fract_x
_atom_site_fract_y
_atom_site_fract_z
Si Si1 0.888314 0.108092 0.954797
Si Si2 0.096492 0.205199 0.446352
Si Si3 0.600797 0.597263 0.595642
Si Si4 0.115264 0.295181 0.819636
Si Si5 0.604297 0.604934 0.748094
Si Si6 0.978188 0.896751 0.177806
Si Si7 0.107435 0.105526 0.315236
Si Si8 0.612198 0.392582 0.045118
O O1 0.750000 0.145848 0.968596
O O2 0.923086 0.116942 0.880084
O O3 0.882280 0.000000 0.966665
O O4 0.000000 0.143216 0.000000
O O5 0.250000 0.194910 0.457922
O O6 0.063569 0.310760 0.437798
O O7 0.067769 0.160351 0.377608
O O8 0.000000 0.168817 0.500000
O O9 0.750000 0.591973 0.585438
O O10 0.544863 0.500000 0.576591
O O11 0.584887 0.607593 0.671868
O O12 0.250000 0.321880 0.790333
O O13 0.106836 0.341013 0.888522
O O14 0.996253 0.330497 0.780514
O O15 0.112382 0.187792 0.828135
O O16 0.750000 0.628883 0.761110
O O17 0.586323 0.500000 0.768319
O O18 0.034128 0.887731 0.248919
O O19 0.930022 0.000000 0.170610
O O20 0.250000 0.133938 0.301363
O O21 0.106658 0.000000 0.332987
O O22 0.750000 0.378280 0.015772
O O23 0.599456 0.500000 0.057320
O O24 0.500000 0.364190 0.000000
#
# Coordination Sequence:
#
# PCOD9403980 Si02
#       8
#     8   8   8   8   8   8   8   8
#     4   9  18  33  54  79 106 138 177 224 278 332
#     4  10  20  34  54  80 110 143 179 224 278 333
#     4   8  15  30  52  77 106 141 179 216 256 310
#     4  11  23  36  53  80 113 147 181 224 286 347
#     4   9  18  34  58  86 111 138 179 228 274 327
#     4  10  21  37  57  81 110 148 199 248 282 325
#     4   9  18  35  59  82 104 138 188 241 289 335
#     4   9  19  37  58  78 103 137 178 224 274 330
#
# _framework density 19.334697999999999
#
# number of rings (size 3 to 8) (size 9 to 14) (size 15 to 20)
#    0.000    2.625    0.000    2.250    0.000    6.500 
#    0.000    6.250    0.000    1.500    0.000    0.000 
#    0.000    0.000    0.000    0.000    0.000    0.000 
#
# Total GULP energy -356622.048771 kJ/mol
# GULP energy per Si atom -5572.219512 kJ/mol
# Density = 1.929069 g / cm^3
# Si number density = 19.334698 Si / 1000 Ang^3
#
#
#
# Elastic Constant Matrix: (Units=GPa)
#
#
# Indices 1 2 3 4 5 6 
#
# 1 107.7607 45.9039 52.6574 0.0000 0.0000 0.0000
# 2 45.9039 72.7247 37.9717 0.0000 0.0000 0.0000
# 3 52.6574 37.9717 78.8769 0.0000 0.0000 0.0000
# 4 0.0000 0.0000 0.0000 22.1342 0.0000 0.0000
# 5 0.0000 0.0000 0.0000 0.0000 12.1564 0.0000
# 6 0.0000 0.0000 0.0000 0.0000 0.0000 11.5731
#
#
#
# Elastic Compliance Matrix: (Units=1/GPa)
#
#
# Indices 1 2 3 4 5 6 
#
# 1 0.015421 -0.005822 -0.007492 0.000000 0.000000 0.000000
# 2 -0.005822 0.020565 -0.006014 0.000000 0.000000 0.000000
# 3 -0.007492 -0.006014 0.020575 0.000000 0.000000 0.000000
# 4 0.000000 0.000000 0.000000 0.045179 0.000000 0.000000
# 5 0.000000 0.000000 0.000000 0.000000 0.082261 0.000000
# 6 0.000000 0.000000 0.000000 0.000000 0.000000 0.086408
#
#
# Mechanical properties :
#
#
# Convention : Reuss Voigt Hill
#
# Bulk Modulus (GPa) = 55.84865 59.15870 57.50368
# Shear Modulus (GPa) = 15.87143 17.36136 16.61640
#
# Velocity S-wave (km/s) = 2.86821 2.99981 2.93475
# Velocity P-wave (km/s) = 6.31797 6.53162 6.42568
#
# Compressibility (1/GPa) = 0.01790554
#
# Stress axis : x y z
#
# Youngs Moduli (GPa) = 64.84731 48.62621 48.60357
#
# Poissons Ratio (x) = 0.28309 0.36415
# Poissons Ratio (y) = 0.37753 0.29228
# Poissons Ratio (z) = 0.48585 0.29242
#
# Static dielectric constant tensor:
#      x y z
#    x 1.678560 0.000000 0.000000 
#    y 0.000000 1.715240 0.000000 
#    z 0.000000 0.000000 1.663850 
# 
# From -- ./inp_files/29128.got.cif
#   From: 2010.05.17/outbox.cif.g08.bks.cpg/sg51_15_cif.got.tgz:29128.got - 2010.06.03 11:52:47.
