data_PCOD9403965
_publ_section_title
;
Structure prediction by ZEFSAII (Michael W. Deem and Ramdas Pophale) SiO2 
 PCOD9403965
Probable space group: P M M A
;
_chemical_formula_sum "Si O2"
_cell_formula_units_Z 48
_cell_length_a 9.350926
_cell_length_b 7.784721
_cell_length_c 32.019954
_cell_angle_alpha 90.000000
_cell_angle_beta 90.000000
_cell_angle_gamma 90.000000
_cell_volume 2330.871739
_symmetry_space_group_name_H-M "P M M A"
_symmetry_group_IT_number 51
_symmetry_cell_setting 'orthorhombic'
loop_
_space_group_symop_operation_xyz
x,y,z
1/2-x,-y,z
1/2+x,-y,-z
-x,y,-z
-x,-y,-z
1/2+x,y,-z
1/2-x,y,z
x,-y,z
loop_
_atom_site_type_symbol
_atom_site_label
_atom_site_fract_x
_atom_site_fract_y
_atom_site_fract_z
Si Si1 0.084917 0.210287 0.041502
Si Si2 0.914053 0.206407 0.631812
Si Si3 0.587447 0.295075 0.794517
Si Si4 0.912176 0.793339 0.288276
Si Si5 0.912614 0.794223 0.122739
Si Si6 0.086882 0.293050 0.460073
O O1 0.250000 0.265706 0.041101
O O2 0.001887 0.269755 0.082879
O O3 0.085960 0.000000 0.041874
O O4 0.000000 0.262925 0.000000
O O5 0.750000 0.271664 0.634717
O O6 0.971566 0.248081 0.585692
O O7 0.009788 0.271781 0.669900
O O8 0.907816 0.000000 0.635172
O O9 0.750000 0.226014 0.795505
O O10 0.595311 0.500000 0.795526
O O11 0.506239 0.244776 0.752299
O O12 0.497186 0.239229 0.834693
O O13 0.750000 0.727908 0.284036
O O14 0.904160 0.000000 0.291739
O O15 0.750000 0.726979 0.124106
O O16 0.903152 0.000000 0.117991
O O17 0.250000 0.228577 0.461646
O O18 0.090587 0.500000 0.462548
O O19 0.000000 0.228903 0.500000
#
# Coordination Sequence:
#
# PCOD9403965 Si02
#       6
#     8   8   8   8   8   8
#     4   9  16  27  46  74 107 140 175 217 262 307
#     4   9  18  33  52  74 101 133 167 205 252 304
#     4  11  24  39  55  77 105 138 176 216 259 310
#     4  10  21  37  57  81 107 135 170 213 261 313
#     4  10  20  34  54  80 108 139 176 217 262 312
#     4   9  18  32  49  70  98 132 169 208 250 298
#
# _framework density 20.593153999999998
#
# number of rings (size 3 to 8) (size 9 to 14) (size 15 to 20)
#    0.000    2.333    0.000    2.500    0.000    9.000 
#    0.000    1.667    0.000    0.500    0.000    0.000 
#    0.000    0.000    0.000    0.000    0.000    0.000 
#
# Total GULP energy -268068.023128 kJ/mol
# GULP energy per Si atom -5584.750482 kJ/mol
# Density = 2.054628 g / cm^3
# Si number density = 20.593154 Si / 1000 Ang^3
#
#
#
# Elastic Constant Matrix: (Units=GPa)
#
#
# Indices 1 2 3 4 5 6 
#
# 1 191.9246 7.3674 134.6980 0.0000 0.0000 0.0000
# 2 7.3674 26.4268 -1.5511 0.0000 0.0000 0.0000
# 3 134.6980 -1.5511 234.4240 0.0000 0.0000 0.0000
# 4 0.0000 0.0000 0.0000 60.0937 0.0000 0.0000
# 5 0.0000 0.0000 0.0000 0.0000 45.6221 0.0000
# 6 0.0000 0.0000 0.0000 0.0000 0.0000 9.5836
#
#
#
# Elastic Compliance Matrix: (Units=1/GPa)
#
#
# Indices 1 2 3 4 5 6 
#
# 1 0.008933 -0.002793 -0.005151 0.000000 0.000000 0.000000
# 2 -0.002793 0.038728 0.001861 0.000000 0.000000 0.000000
# 3 -0.005151 0.001861 0.007238 0.000000 0.000000 0.000000
# 4 0.000000 0.000000 0.000000 0.016641 0.000000 0.000000
# 5 0.000000 0.000000 0.000000 0.000000 0.021919 0.000000
# 6 0.000000 0.000000 0.000000 0.000000 0.000000 0.104345
#
#
# Mechanical properties :
#
#
# Convention : Reuss Voigt Hill
#
# Bulk Modulus (GPa) = 23.40113 81.53378 52.46745
# Shear Modulus (GPa) = 22.30008 43.87729 33.08869
#
# Velocity S-wave (km/s) = 3.29430 4.62093 4.01282
# Velocity P-wave (km/s) = 5.08508 8.25526 6.85592
#
# Compressibility (1/GPa) = 0.04273299
#
# Stress axis : x y z
#
# Youngs Moduli (GPa) = 111.94635 25.82097 138.16098
#
# Poissons Ratio (x) = 0.07211 0.71170
# Poissons Ratio (y) = 0.31263 -0.25711
# Poissons Ratio (z) = 0.57666 -0.04805
#
# Static dielectric constant tensor:
#      x y z
#    x 1.729370 0.000000 0.000000 
#    y 0.000000 1.756740 0.000000 
#    z 0.000000 0.000000 1.698870 
# 
# From -- ./inp_files/36980.got.cif
#   From: 2010.05.17/outbox.cif.g08.bks.cpg/sg51_19_cif.got.tgz:36980.got - 2010.06.03 11:52:47.
