data_PCOD9403380
_publ_section_title
;
Structure prediction by ZEFSAII (Michael W. Deem and Ramdas Pophale) SiO2 
 PCOD9403380
Probable space group: P M M A
;
_chemical_formula_sum "Si O2"
_cell_formula_units_Z 56
_cell_length_a 8.843309
_cell_length_b 22.577487
_cell_length_c 15.242763
_cell_angle_alpha 90.000000
_cell_angle_beta 90.000000
_cell_angle_gamma 90.000000
_cell_volume 3043.365396
_symmetry_space_group_name_H-M "P M M A"
_symmetry_group_IT_number 51
_symmetry_cell_setting 'orthorhombic'
loop_
_space_group_symop_operation_xyz
x,y,z
1/2-x,-y,z
1/2+x,-y,-z
-x,y,-z
-x,-y,-z
1/2+x,y,-z
1/2-x,y,z
x,-y,z
loop_
_atom_site_type_symbol
_atom_site_label
_atom_site_fract_x
_atom_site_fract_y
_atom_site_fract_z
Si Si1 0.069602 0.069389 0.594017
Si Si2 0.431475 0.789715 0.092255
Si Si3 0.571329 0.432918 0.774500
Si Si4 0.430566 0.659183 0.907169
Si Si5 0.069492 0.834667 0.279775
Si Si6 0.427621 0.598726 0.593201
Si Si7 0.427333 0.258921 0.593470
O O1 0.250000 0.075699 0.589884
O O2 0.000000 0.087052 0.500000
O O3 0.003842 0.110205 0.670238
O O4 0.032941 0.000000 0.607889
O O5 0.250000 0.784675 0.084784
O O6 0.500430 0.724394 0.108320
O O7 0.468282 0.829179 0.176972
O O8 0.500000 0.811032 0.000000
O O9 0.750000 0.419941 0.778680
O O10 0.546503 0.500000 0.806731
O O11 0.480984 0.385596 0.831801
O O12 0.514728 0.428910 0.674717
O O13 0.250000 0.663170 0.912654
O O14 0.500000 0.638684 0.000000
O O15 0.250000 0.837414 0.288273
O O16 0.009745 0.776237 0.329611
O O17 0.500000 0.582221 0.500000
O O18 0.250000 0.583844 0.595167
O O19 0.441676 0.670231 0.602720
O O20 0.500000 0.242397 0.500000
O O21 0.250000 0.243843 0.593604
#
# Coordination Sequence:
#
# PCOD9403380 Si02
#       7
#     8   8   8   8   8   8   8
#     4  10  21  37  57  81 112 151 191 230 270 314
#     4  10  21  37  58  84 113 144 179 221 270 323
#     4  11  24  40  57  78 105 138 178 224 271 322
#     4  11  22  38  61  85 111 142 175 217 271 329
#     4  11  22  34  53  81 112 146 181 222 270 318
#     4  10  21  37  57  79 105 140 179 221 271 324
#     4  10  20  33  51  77 108 140 174 216 265 319
#
# _framework density 18.400683000000001
#
# number of rings (size 3 to 8) (size 9 to 14) (size 15 to 20)
#    0.000    1.571    0.000    6.000    0.000    8.857 
#    0.000    0.000    0.000    0.429    0.000    0.000 
#    0.000    0.000    0.000    0.000    0.000    0.000 
#
# Total GULP energy -313092.867459 kJ/mol
# GULP energy per Si atom -5590.944062 kJ/mol
# Density = 1.835880 g / cm^3
# Si number density = 18.400683 Si / 1000 Ang^3
#
#
#
# Elastic Constant Matrix: (Units=GPa)
#
#
# Indices 1 2 3 4 5 6 
#
# 1 96.9108 39.1159 59.3155 0.0000 0.0000 0.0000
# 2 39.1159 50.2005 54.1946 0.0000 0.0000 0.0000
# 3 59.3155 54.1946 146.1964 0.0000 0.0000 0.0000
# 4 0.0000 0.0000 0.0000 46.4738 0.0000 0.0000
# 5 0.0000 0.0000 0.0000 0.0000 35.7624 0.0000
# 6 0.0000 0.0000 0.0000 0.0000 0.0000 -58.5919
#
#
#
# Elastic Compliance Matrix: (Units=1/GPa)
#
#
# Indices 1 2 3 4 5 6 
#
# 1 0.015847 -0.009014 -0.003088 0.000000 0.000000 0.000000
# 2 -0.009014 0.038338 -0.010555 0.000000 0.000000 0.000000
# 3 -0.003088 -0.010555 0.012006 0.000000 0.000000 0.000000
# 4 0.000000 0.000000 0.000000 0.021517 0.000000 0.000000
# 5 0.000000 0.000000 0.000000 0.000000 0.027962 0.000000
# 6 0.000000 0.000000 0.000000 0.000000 0.000000 -0.017067
#
#
# Mechanical properties :
#
#
# Convention : Reuss Voigt Hill
#
# Bulk Modulus (GPa) = 47.89895 66.50661 57.20278
# Shear Modulus (GPa) = 33.13959 14.10764 23.62361
#
# Velocity S-wave (km/s) = 4.24842 2.77192 3.58696
# Velocity P-wave (km/s) = 7.08188 6.81665 6.95053
#
# Compressibility (1/GPa) = 0.02087728
#
# Stress axis : x y z
#
# Youngs Moduli (GPa) = 63.10227 26.08350 83.29473
#
# Poissons Ratio (x) = 0.23513 0.25722
# Poissons Ratio (y) = 0.56883 0.87914
# Poissons Ratio (z) = 0.19486 0.27530
#
# Static dielectric constant tensor:
#      x y z
#    x 1.610170 0.000000 0.000000 
#    y 0.000000 1.629760 0.000000 
#    z 0.000000 0.000000 1.624680 
# 
# From -- ./inp_files/21767.got.cif
#   From: 2010.05.17/outbox.cif.g08.bks.cpg/sg51_11_cif.got.tgz:21767.got - 2010.06.03 11:52:47.
