data_PCOD9403466
_publ_section_title
;
Structure prediction by ZEFSAII (Michael W. Deem and Ramdas Pophale) SiO2 
 PCOD9403466
Probable space group: P M M A
;
_chemical_formula_sum "Si O2"
_cell_formula_units_Z 48
_cell_length_a 8.307147
_cell_length_b 14.867375
_cell_length_c 21.161088
_cell_angle_alpha 90.000000
_cell_angle_beta 90.000000
_cell_angle_gamma 90.000000
_cell_volume 2613.510111
_symmetry_space_group_name_H-M "P M M A"
_symmetry_group_IT_number 51
_symmetry_cell_setting 'orthorhombic'
loop_
_space_group_symop_operation_xyz
x,y,z
1/2-x,-y,z
1/2+x,-y,-z
-x,y,-z
-x,-y,-z
1/2+x,y,-z
1/2-x,y,z
x,-y,z
loop_
_atom_site_type_symbol
_atom_site_label
_atom_site_fract_x
_atom_site_fract_y
_atom_site_fract_z
Si Si1 0.942674 0.400648 0.614087
Si Si2 0.941545 0.600928 0.243001
Si Si3 0.055591 0.210744 0.432347
Si Si4 0.057313 0.102759 0.929355
Si Si5 0.442333 0.780568 0.187087
Si Si6 0.946622 0.896652 0.692071
O O1 0.750000 0.403056 0.605862
O O2 0.007552 0.500000 0.596764
O O3 0.004890 0.313376 0.577474
O O4 0.977440 0.385752 0.688388
O O5 0.750000 0.604157 0.252289
O O6 0.984952 0.500000 0.221255
O O7 0.992666 0.680247 0.196747
O O8 0.250000 0.212275 0.431083
O O9 0.001883 0.151501 0.372676
O O10 0.000000 0.175929 0.500000
O O11 0.250000 0.103229 0.928217
O O12 0.994003 0.170626 0.876833
O O13 0.001469 0.000000 0.915580
O O14 0.000000 0.125225 0.000000
O O15 0.250000 0.777219 0.189803
O O16 0.500006 0.839878 0.247086
O O17 0.750000 0.896396 0.692435
O O18 0.999292 0.000000 0.695426
#
# Coordination Sequence:
#
# PCOD9403466 Si02
#       6
#     8   8   8   8   8   8
#     4   9  17  32  52  72  97 130 171 218 270 331
#     4  10  20  33  52  80 111 140 174 221 274 326
#     4  10  20  34  49  70  98 134 175 218 271 327
#     4  10  21  37  57  85 121 156 189 226 268 317
#     4  11  20  34  58  84 110 145 185 225 271 322
#     4   9  18  33  52  74 101 134 175 220 267 320
#
# _framework density 18.366104
#
# number of rings (size 3 to 8) (size 9 to 14) (size 15 to 20)
#    0.000    2.167    1.667    2.000    0.000    4.000 
#    0.000    0.000    0.000    2.500    0.000    0.000 
#    0.000    0.000    0.000    0.000    0.000    0.000 
#
# Total GULP energy -267921.858926 kJ/mol
# GULP energy per Si atom -5581.705394 kJ/mol
# Density = 1.832430 g / cm^3
# Si number density = 18.366104 Si / 1000 Ang^3
#
#
#
# Elastic Constant Matrix: (Units=GPa)
#
#
# Indices 1 2 3 4 5 6 
#
# 1 9.8898 9.2089 -0.0430 0.0000 0.0000 0.0000
# 2 9.2089 121.4064 63.2702 0.0000 0.0000 0.0000
# 3 -0.0430 63.2702 95.2833 0.0000 0.0000 0.0000
# 4 0.0000 0.0000 0.0000 22.0746 0.0000 0.0000
# 5 0.0000 0.0000 0.0000 0.0000 25.1006 0.0000
# 6 0.0000 0.0000 0.0000 0.0000 0.0000 17.6303
#
#
#
# Elastic Compliance Matrix: (Units=1/GPa)
#
#
# Indices 1 2 3 4 5 6 
#
# 1 0.113444 -0.013199 0.008816 0.000000 0.000000 0.000000
# 2 -0.013199 0.014131 -0.009389 0.000000 0.000000 0.000000
# 3 0.008816 -0.009389 0.016734 0.000000 0.000000 0.000000
# 4 0.000000 0.000000 0.000000 0.045301 0.000000 0.000000
# 5 0.000000 0.000000 0.000000 0.000000 0.039840 0.000000
# 6 0.000000 0.000000 0.000000 0.000000 0.000000 0.056721
#
#
# Mechanical properties :
#
#
# Convention : Reuss Voigt Hill
#
# Bulk Modulus (GPa) = 8.56436 41.27239 24.91837
# Shear Modulus (GPa) = 14.17892 23.23733 18.70812
#
# Velocity S-wave (km/s) = 2.78153 3.56086 3.19505
# Velocity P-wave (km/s) = 3.87158 6.27911 5.21614
#
# Compressibility (1/GPa) = 0.11676293
#
# Stress axis : x y z
#
# Youngs Moduli (GPa) = 8.81496 70.76553 59.75950
#
# Poissons Ratio (x) = 0.93404 -0.52682
# Poissons Ratio (y) = 0.11635 0.56110
# Poissons Ratio (z) = -0.07771 0.66444
#
# Static dielectric constant tensor:
#      x y z
#    x 1.637830 0.000000 0.000000 
#    y 0.000000 1.651730 0.000000 
#    z 0.000000 0.000000 1.597620 
# 
# From -- ./inp_files/27567.got.cif
#   From: 2010.05.17/outbox.cif.g08.bks.cpg/sg51_14_cif.got.tgz:27567.got - 2010.06.03 11:52:47.
