data_PCOD9403710
_publ_section_title
;
Structure prediction by ZEFSAII (Michael W. Deem and Ramdas Pophale) SiO2 
 PCOD9403710
Probable space group: P M M A
;
_chemical_formula_sum "Si O2"
_cell_formula_units_Z 56
_cell_length_a 22.078619
_cell_length_b 8.829142
_cell_length_c 14.932109
_cell_angle_alpha 90.000000
_cell_angle_beta 90.000000
_cell_angle_gamma 90.000000
_cell_volume 2910.794585
_symmetry_space_group_name_H-M "P M M A"
_symmetry_group_IT_number 51
_symmetry_cell_setting 'orthorhombic'
loop_
_space_group_symop_operation_xyz
x,y,z
1/2-x,-y,z
1/2+x,-y,-z
-x,y,-z
-x,-y,-z
1/2+x,y,-z
1/2-x,y,z
x,-y,z
loop_
_atom_site_type_symbol
_atom_site_label
_atom_site_fract_x
_atom_site_fract_y
_atom_site_fract_z
Si Si1 0.820660 0.317935 0.960280
Si Si2 0.928136 0.318015 0.628354
Si Si3 0.250000 0.820900 0.754752
Si Si4 0.376929 0.179708 0.541988
Si Si5 0.250000 0.320842 0.559766
Si Si6 0.372685 0.179333 0.866713
Si Si7 0.058501 0.319754 0.710844
Si Si8 0.818411 0.315707 0.754576
O O1 0.750000 0.279771 0.978814
O O2 0.826186 0.500000 0.966444
O O3 0.832435 0.272856 0.857380
O O4 0.862791 0.241556 0.033797
O O5 0.924885 0.500000 0.614698
O O6 0.923388 0.238170 0.532810
O O7 0.870556 0.267256 0.687136
O O8 0.989987 0.286111 0.680845
O O9 0.250000 0.722634 0.665052
O O10 0.190411 0.791417 0.813554
O O11 0.250000 0.000000 0.729387
O O12 0.311328 0.250400 0.520880
O O13 0.398286 0.239773 0.638370
O O14 0.373268 0.000000 0.543452
O O15 0.250000 0.500000 0.546815
O O16 0.424187 0.260555 0.808727
O O17 0.382686 0.000000 0.867784
O O18 0.067843 0.500000 0.706011
O O19 0.750000 0.265192 0.732173
O O20 0.817667 0.500000 0.753014
#
# Coordination Sequence:
#
# PCOD9403710 Si02
#       8
#     8   8   4   8   4   8   8   8
#     4   9  17  31  55  85 115 145 184 232 286 349
#     4  10  22  40  62  86 112 149 199 245 287 341
#     4  10  20  34  52  79 116 151 184 233 288 340
#     4  12  25  40  59  85 120 154 191 236 290 348
#     4  12  24  38  60  87 116 151 190 237 288 336
#     4  11  21  34  55  82 116 152 188 231 289 348
#     4  11  23  39  58  83 115 153 199 242 281 340
#     4   8  16  34  60  88 113 142 186 241 293 338
#
# _framework density 19.238731999999999
#
# number of rings (size 3 to 8) (size 9 to 14) (size 15 to 20)
#    0.000    1.714    2.143    4.071    1.000    3.429 
#    0.000    1.429    0.000    5.143    0.000    0.000 
#    0.000    0.000    0.000    0.000    0.000    0.000 
#
# Total GULP energy -312948.160403 kJ/mol
# GULP energy per Si atom -5588.360007 kJ/mol
# Density = 1.919494 g / cm^3
# Si number density = 19.238732 Si / 1000 Ang^3
#
#
#
# Elastic Constant Matrix: (Units=GPa)
#
#
# Indices 1 2 3 4 5 6 
#
# 1 70.6204 28.4736 14.9166 0.0000 0.0000 0.0000
# 2 28.4736 44.2848 10.5565 0.0000 0.0000 0.0000
# 3 14.9166 10.5565 57.2379 0.0000 0.0000 0.0000
# 4 0.0000 0.0000 0.0000 93.5977 0.0000 0.0000
# 5 0.0000 0.0000 0.0000 0.0000 25.8517 0.0000
# 6 0.0000 0.0000 0.0000 0.0000 0.0000 14.3036
#
#
#
# Elastic Compliance Matrix: (Units=1/GPa)
#
#
# Indices 1 2 3 4 5 6 
#
# 1 0.019567 -0.011888 -0.002907 0.000000 0.000000 0.000000
# 2 -0.011888 0.030842 -0.002590 0.000000 0.000000 0.000000
# 3 -0.002907 -0.002590 0.018706 0.000000 0.000000 0.000000
# 4 0.000000 0.000000 0.000000 0.010684 0.000000 0.000000
# 5 0.000000 0.000000 0.000000 0.000000 0.038682 0.000000
# 6 0.000000 0.000000 0.000000 0.000000 0.000000 0.069913
#
#
# Mechanical properties :
#
#
# Convention : Reuss Voigt Hill
#
# Bulk Modulus (GPa) = 29.11594 31.11516 30.11555
# Shear Modulus (GPa) = 21.31161 34.63035 27.97098
#
# Velocity S-wave (km/s) = 3.33189 4.24728 3.81713
# Velocity P-wave (km/s) = 5.47438 6.34514 5.92578
#
# Compressibility (1/GPa) = 0.03434545
#
# Stress axis : x y z
#
# Youngs Moduli (GPa) = 51.10523 32.42300 53.45820
#
# Poissons Ratio (x) = 0.38545 0.15540
# Poissons Ratio (y) = 0.60755 0.13846
# Poissons Ratio (z) = 0.14856 0.08398
#
# Static dielectric constant tensor:
#      x y z
#    x 1.677660 0.000000 0.000000 
#    y 0.000000 1.637960 0.000000 
#    z 0.000000 0.000000 1.656640 
# 
# From -- ./inp_files/25891.got.cif
#   From: 2010.05.17/outbox.cif.g08.bks.cpg/sg51_13_cif.got.tgz:25891.got - 2010.06.03 11:52:47.
