data_PCOD9403589
_publ_section_title
;
Structure prediction by ZEFSAII (Michael W. Deem and Ramdas Pophale) SiO2 
 PCOD9403589
Probable space group: P M M A
;
_chemical_formula_sum "Si O2"
_cell_formula_units_Z 40
_cell_length_a 8.155850
_cell_length_b 7.444970
_cell_length_c 29.896525
_cell_angle_alpha 90.000000
_cell_angle_beta 90.000000
_cell_angle_gamma 90.000000
_cell_volume 1815.318749
_symmetry_space_group_name_H-M "P M M A"
_symmetry_group_IT_number 51
_symmetry_cell_setting 'orthorhombic'
loop_
_space_group_symop_operation_xyz
x,y,z
1/2-x,-y,z
1/2+x,-y,-z
-x,y,-z
-x,-y,-z
1/2+x,y,-z
1/2-x,y,z
x,-y,z
loop_
_atom_site_type_symbol
_atom_site_label
_atom_site_fract_x
_atom_site_fract_y
_atom_site_fract_z
Si Si1 0.750000 0.783595 0.803247
Si Si2 0.250000 0.286388 0.301660
Si Si3 0.561478 0.218833 0.951663
Si Si4 0.553730 0.205108 0.452996
Si Si5 0.569893 0.780640 0.143010
Si Si6 0.064161 0.291552 0.647123
O O1 0.750000 0.737680 0.751285
O O2 0.584598 0.719673 0.827767
O O3 0.750000 0.000000 0.807344
O O4 0.250000 0.500000 0.311669
O O5 0.417642 0.212085 0.323390
O O6 0.750000 0.270606 0.944871
O O7 0.458347 0.274274 0.908519
O O8 0.556057 0.000000 0.952540
O O9 0.500000 0.280663 0.000000
O O10 0.500000 0.288997 0.500000
O O11 0.750000 0.202588 0.454098
O O12 0.510857 0.285336 0.404985
O O13 0.490186 0.000000 0.452517
O O14 0.750000 0.723494 0.158707
O O15 0.567970 0.000000 0.143664
O O16 0.250000 0.214038 0.650801
O O17 0.079179 0.500000 0.659814
#
# Coordination Sequence:
#
# PCOD9403589 Si02
#       6
#     4   4   8   8   8   8
#     4  10  20  34  50  72  98 126 164 206 251 300
#     4  10  22  38  56  76  98 128 168 212 257 298
#     4   9  14  20  32  54  87 128 167 197 234 291
#     4   9  18  31  48  74 106 137 167 200 240 288
#     4   9  16  27  42  62  93 129 161 200 247 294
#     4   9  19  36  54  73  99 129 163 206 250 292
#
# _framework density 22.034697999999999
#
# number of rings (size 3 to 8) (size 9 to 14) (size 15 to 20)
#    0.000    2.800    1.000    0.600    1.400    4.400 
#    0.000    0.000    0.000    0.000    0.000    0.000 
#    0.000    0.800    0.000    0.000    0.000    0.000 
#
# Total GULP energy -223190.790361 kJ/mol
# GULP energy per Si atom -5579.769759 kJ/mol
# Density = 2.198455 g / cm^3
# Si number density = 22.034698 Si / 1000 Ang^3
#
#
#
# Elastic Constant Matrix: (Units=GPa)
#
#
# Indices 1 2 3 4 5 6 
#
# 1 176.3713 9.0820 104.4866 0.0000 0.0000 0.0000
# 2 9.0820 64.4317 -5.3639 0.0000 0.0000 0.0000
# 3 104.4866 -5.3639 159.3819 0.0000 0.0000 0.0000
# 4 0.0000 0.0000 0.0000 10.9142 0.0000 0.0000
# 5 0.0000 0.0000 0.0000 0.0000 37.1681 0.0000
# 6 0.0000 0.0000 0.0000 0.0000 0.0000 26.0027
#
#
#
# Elastic Compliance Matrix: (Units=1/GPa)
#
#
# Indices 1 2 3 4 5 6 
#
# 1 0.009487 -0.001860 -0.006282 0.000000 0.000000 0.000000
# 2 -0.001860 0.015929 0.001756 0.000000 0.000000 0.000000
# 3 -0.006282 0.001756 0.010452 0.000000 0.000000 0.000000
# 4 0.000000 0.000000 0.000000 0.091624 0.000000 0.000000
# 5 0.000000 0.000000 0.000000 0.000000 0.026905 0.000000
# 6 0.000000 0.000000 0.000000 0.000000 0.000000 0.038458
#
#
# Mechanical properties :
#
#
# Convention : Reuss Voigt Hill
#
# Bulk Modulus (GPa) = 43.30132 68.51049 55.90590
# Shear Modulus (GPa) = 23.43831 34.28235 28.86033
#
# Velocity S-wave (km/s) = 3.26498 3.94869 3.62300
# Velocity P-wave (km/s) = 5.82302 7.20757 6.55197
#
# Compressibility (1/GPa) = 0.02309398
#
# Stress axis : x y z
#
# Youngs Moduli (GPa) = 105.40234 62.77983 95.67676
#
# Poissons Ratio (x) = 0.11679 0.60107
# Poissons Ratio (y) = 0.19608 -0.16797
# Poissons Ratio (z) = 0.66217 -0.11022
#
# Static dielectric constant tensor:
#      x y z
#    x 1.811790 0.000000 0.000000 
#    y 0.000000 1.854390 0.000000 
#    z 0.000000 0.000000 1.763260 
# 
# From -- ./inp_files/36007.got.cif
#   From: 2010.05.17/outbox.cif.g08.bks.cpg/sg51_19_cif.got.tgz:36007.got - 2010.06.03 11:52:47.
