data_PCOD9403372
_publ_section_title
;
Structure prediction by ZEFSAII (Michael W. Deem and Ramdas Pophale) SiO2 
 PCOD9403372
Probable space group: P M M A
;
_chemical_formula_sum "Si O2"
_cell_formula_units_Z 48
_cell_length_a 14.037924
_cell_length_b 8.725505
_cell_length_c 21.246050
_cell_angle_alpha 90.000000
_cell_angle_beta 90.000000
_cell_angle_gamma 90.000000
_cell_volume 2602.385664
_symmetry_space_group_name_H-M "P M M A"
_symmetry_group_IT_number 51
_symmetry_cell_setting 'orthorhombic'
loop_
_space_group_symop_operation_xyz
x,y,z
1/2-x,-y,z
1/2+x,-y,-z
-x,y,-z
-x,-y,-z
1/2+x,y,-z
1/2-x,y,z
x,-y,z
loop_
_atom_site_type_symbol
_atom_site_label
_atom_site_fract_x
_atom_site_fract_y
_atom_site_fract_z
Si Si1 0.360037 0.184037 0.468615
Si Si2 0.957573 0.317425 0.407695
Si Si3 0.640428 0.683927 0.905588
Si Si4 0.861659 0.182441 0.284723
Si Si5 0.043960 0.681014 0.838023
Si Si6 0.135197 0.823814 0.959741
O O1 0.250000 0.224439 0.456572
O O2 0.392762 0.244857 0.536986
O O3 0.435902 0.255412 0.420347
O O4 0.368925 0.000000 0.467977
O O5 0.956696 0.500000 0.413929
O O6 0.916394 0.266025 0.341022
O O7 0.750000 0.725451 0.892102
O O8 0.636044 0.500000 0.915242
O O9 0.566468 0.722022 0.850644
O O10 0.610373 0.763602 0.970793
O O11 0.750000 0.225284 0.285024
O O12 0.907696 0.227946 0.218328
O O13 0.868078 0.000000 0.294032
O O14 0.051471 0.500000 0.825373
O O15 0.094500 0.721240 0.903918
O O16 0.250000 0.819043 0.956073
O O17 0.104482 0.000000 0.951516
#
# Coordination Sequence:
#
# PCOD9403372 Si02
#       6
#     8   8   8   8   8   8
#     4  10  20  36  60  88 119 154 190 229 272 319
#     4  11  22  36  58  87 118 151 187 230 277 324
#     4   9  19  36  55  75 102 136 174 218 269 323
#     4  11  24  41  59  79 108 146 184 223 271 329
#     4  11  22  35  54  79 105 137 178 223 272 324
#     4  10  20  33  51  77 107 138 173 216 268 323
#
# _framework density 18.444614000000001
#
# number of rings (size 3 to 8) (size 9 to 14) (size 15 to 20)
#    0.000    1.667    0.000    6.000    0.000   11.000 
#    0.000    0.833    0.000    3.000    0.000    0.000 
#    0.000    0.000    0.000    0.000    0.000    0.000 
#
# Total GULP energy -268235.547483 kJ/mol
# GULP energy per Si atom -5588.240573 kJ/mol
# Density = 1.840263 g / cm^3
# Si number density = 18.444614 Si / 1000 Ang^3
#
#
#
# Elastic Constant Matrix: (Units=GPa)
#
#
# Indices 1 2 3 4 5 6 
#
# 1 123.5229 43.1942 56.3502 0.0000 0.0000 0.0000
# 2 43.1942 60.6380 23.9505 0.0000 0.0000 0.0000
# 3 56.3502 23.9505 75.4856 0.0000 0.0000 0.0000
# 4 0.0000 0.0000 0.0000 34.0491 0.0000 0.0000
# 5 0.0000 0.0000 0.0000 0.0000 23.0162 0.0000
# 6 0.0000 0.0000 0.0000 0.0000 0.0000 18.7159
#
#
#
# Elastic Compliance Matrix: (Units=1/GPa)
#
#
# Indices 1 2 3 4 5 6 
#
# 1 0.014414 -0.006880 -0.008578 0.000000 0.000000 0.000000
# 2 -0.006880 0.022138 -0.001888 0.000000 0.000000 0.000000
# 3 -0.008578 -0.001888 0.020250 0.000000 0.000000 0.000000
# 4 0.000000 0.000000 0.000000 0.029369 0.000000 0.000000
# 5 0.000000 0.000000 0.000000 0.000000 0.043448 0.000000
# 6 0.000000 0.000000 0.000000 0.000000 0.000000 0.053430
#
#
# Mechanical properties :
#
#
# Convention : Reuss Voigt Hill
#
# Bulk Modulus (GPa) = 45.22658 56.29294 50.75976
# Shear Modulus (GPa) = 22.21125 24.23301 23.22213
#
# Velocity S-wave (km/s) = 3.47394 3.62861 3.55212
# Velocity P-wave (km/s) = 6.37687 6.93844 6.66357
#
# Compressibility (1/GPa) = 0.02211089
#
# Stress axis : x y z
#
# Youngs Moduli (GPa) = 69.37461 45.17151 49.38325
#
# Poissons Ratio (x) = 0.31078 0.42359
# Poissons Ratio (y) = 0.47729 0.09324
# Poissons Ratio (z) = 0.59506 0.08529
#
# Static dielectric constant tensor:
#      x y z
#    x 1.660210 0.000000 0.000000 
#    y 0.000000 1.622120 0.000000 
#    z 0.000000 0.000000 1.590900 
# 
# From -- ./inp_files/29481.got.cif
#   From: 2010.05.17/outbox.cif.g08.bks.cpg/sg51_15_cif.got.tgz:29481.got - 2010.06.03 11:52:47.
