data_PCOD9403543
_publ_section_title
;
Structure prediction by ZEFSAII (Michael W. Deem and Ramdas Pophale) SiO2 
 PCOD9403543
Probable space group: P M M A
;
_chemical_formula_sum "Si O2"
_cell_formula_units_Z 64
_cell_length_a 22.592055
_cell_length_b 9.732076
_cell_length_c 16.453808
_cell_angle_alpha 90.000000
_cell_angle_beta 90.000000
_cell_angle_gamma 90.000000
_cell_volume 3617.659214
_symmetry_space_group_name_H-M "P M M A"
_symmetry_group_IT_number 51
_symmetry_cell_setting 'orthorhombic'
loop_
_space_group_symop_operation_xyz
x,y,z
1/2-x,-y,z
1/2+x,-y,-z
-x,y,-z
-x,-y,-z
1/2+x,y,-z
1/2-x,y,z
x,-y,z
loop_
_atom_site_type_symbol
_atom_site_label
_atom_site_fract_x
_atom_site_fract_y
_atom_site_fract_z
Si Si1 0.818672 0.350199 0.722679
Si Si2 0.820576 0.334497 0.374031
Si Si3 0.918547 0.834589 0.280328
Si Si4 0.032148 0.338818 0.869221
Si Si5 0.867661 0.339620 0.552892
Si Si6 0.091560 0.340416 0.045276
Si Si7 0.821380 0.841801 0.864376
Si Si8 0.023450 0.847726 0.408223
O O1 0.750000 0.361104 0.744194
O O2 0.847266 0.500000 0.738470
O O3 0.822157 0.324537 0.626920
O O4 0.841630 0.230725 0.780325
O O5 0.750000 0.310778 0.366596
O O6 0.830307 0.500000 0.363228
O O7 0.860161 0.244591 0.312665
O O8 0.842200 0.296246 0.465635
O O9 0.942491 0.762429 0.198698
O O10 0.969826 0.813150 0.348204
O O11 0.909631 0.000000 0.272127
O O12 0.035986 0.500000 0.843704
O O13 0.964157 0.310832 0.895201
O O14 0.068459 0.324955 0.953346
O O15 0.882440 0.500000 0.544290
O O16 0.924151 0.259840 0.586365
O O17 0.107925 0.500000 0.056928
O O18 0.145807 0.243051 0.066140
O O19 0.750000 0.835808 0.871853
O O20 0.838927 0.000000 0.865382
O O21 0.000000 0.854039 0.500000
O O22 0.045705 0.000000 0.385437
#
# Coordination Sequence:
#
# PCOD9403543 Si02
#       8
#     8   8   8   8   8   8   8   8
#     4   9  18  33  51  74 107 144 182 223 266 317
#     4  10  21  38  59  81 108 144 188 239 286 324
#     4  11  23  38  57  83 114 149 186 224 272 329
#     4   9  20  39  62  86 112 140 177 229 280 330
#     4  10  20  33  54  81 105 138 186 233 274 318
#     4   9  19  38  62  86 110 140 179 223 276 334
#     4  10  21  35  52  79 115 150 183 222 268 324
#     4  10  21  37  52  73 111 149 178 217 266 320
#
# _framework density 17.690996999999999
#
# number of rings (size 3 to 8) (size 9 to 14) (size 15 to 20)
#    0.000    2.250    1.250    1.875    1.750    5.250 
#    0.000    1.875    0.000    3.000    0.000    0.000 
#    0.000    0.000    0.000    0.000    0.000    0.000 
#
# Total GULP energy -356658.142866 kJ/mol
# GULP energy per Si atom -5572.783482 kJ/mol
# Density = 1.765073 g / cm^3
# Si number density = 17.690997 Si / 1000 Ang^3
#
#
#
# Elastic Constant Matrix: (Units=GPa)
#
#
# Indices 1 2 3 4 5 6 
#
# 1 67.3742 64.4090 38.0273 0.0000 0.0000 0.0000
# 2 64.4090 98.8395 58.6983 0.0000 0.0000 0.0000
# 3 38.0273 58.6983 82.7979 0.0000 0.0000 0.0000
# 4 0.0000 0.0000 0.0000 486.1305 0.0000 0.0000
# 5 0.0000 0.0000 0.0000 0.0000 25.2852 0.0000
# 6 0.0000 0.0000 0.0000 0.0000 0.0000 19.6413
#
#
#
# Elastic Compliance Matrix: (Units=1/GPa)
#
#
# Indices 1 2 3 4 5 6 
#
# 1 0.039369 -0.025764 0.000184 0.000000 0.000000 0.000000
# 2 -0.025764 0.034335 -0.012509 0.000000 0.000000 0.000000
# 3 0.000184 -0.012509 0.020861 0.000000 0.000000 0.000000
# 4 0.000000 0.000000 0.000000 0.002057 0.000000 0.000000
# 5 0.000000 0.000000 0.000000 0.000000 0.039549 0.000000
# 6 0.000000 0.000000 0.000000 0.000000 0.000000 0.050913
#
#
# Mechanical properties :
#
#
# Convention : Reuss Voigt Hill
#
# Bulk Modulus (GPa) = 54.38515 63.47565 58.93040
# Shear Modulus (GPa) = 18.56040 112.06984 65.31512
#
# Velocity S-wave (km/s) = 3.24256 7.96781 6.08277
# Velocity P-wave (km/s) = 6.69533 10.98208 9.09488
#
# Compressibility (1/GPa) = 0.01838737
#
# Stress axis : x y z
#
# Youngs Moduli (GPa) = 25.40076 29.12474 47.93638
#
# Poissons Ratio (x) = 0.75037 -0.00880
# Poissons Ratio (y) = 0.65442 0.59961
# Poissons Ratio (z) = -0.00467 0.36431
#
# Static dielectric constant tensor:
#      x y z
#    x 1.532680 0.000000 0.000000 
#    y 0.000000 1.624180 0.000000 
#    z 0.000000 0.000000 1.605110 
# 
# From -- ./inp_files/26264.got.cif
#   From: 2010.05.17/outbox.cif.g08.bks.cpg/sg51_14_cif.got.tgz:26264.got - 2010.06.03 11:52:47.
