data_PCOD9403899
_publ_section_title
;
Structure prediction by ZEFSAII (Michael W. Deem and Ramdas Pophale) SiO2 
 PCOD9403899
Probable space group: P M M A
;
_chemical_formula_sum "Si O2"
_cell_formula_units_Z 64
_cell_length_a 15.666083
_cell_length_b 9.594900
_cell_length_c 20.956641
_cell_angle_alpha 90.000000
_cell_angle_beta 90.000000
_cell_angle_gamma 90.000000
_cell_volume 3150.087009
_symmetry_space_group_name_H-M "P M M A"
_symmetry_group_IT_number 51
_symmetry_cell_setting 'orthorhombic'
loop_
_space_group_symop_operation_xyz
x,y,z
1/2-x,-y,z
1/2+x,-y,-z
-x,y,-z
-x,-y,-z
1/2+x,y,-z
1/2-x,y,z
x,-y,z
loop_
_atom_site_type_symbol
_atom_site_label
_atom_site_fract_x
_atom_site_fract_y
_atom_site_fract_z
Si Si1 0.849590 0.656029 0.709282
Si Si2 0.408852 0.156634 0.791744
Si Si3 0.853500 0.338052 0.947283
Si Si4 0.893741 0.158017 0.826827
Si Si5 0.145145 0.839843 0.408120
Si Si6 0.854122 0.660098 0.471305
Si Si7 0.646765 0.662399 0.327140
Si Si8 0.147673 0.343603 0.908663
O O1 0.750000 0.639896 0.692945
O O2 0.886994 0.500000 0.714101
O O3 0.852034 0.739600 0.775253
O O4 0.886201 0.750215 0.652343
O O5 0.509293 0.149230 0.803843
O O6 0.390117 0.241234 0.727684
O O7 0.373581 0.238193 0.852929
O O8 0.373775 0.000000 0.787614
O O9 0.750000 0.330354 0.944569
O O10 0.876470 0.500000 0.933642
O O11 0.888434 0.231591 0.895367
O O12 0.881805 0.305974 0.019808
O O13 0.858449 0.000000 0.827744
O O14 0.250000 0.841385 0.407432
O O15 0.118049 0.763578 0.473130
O O16 0.117474 0.000000 0.404295
O O17 0.750000 0.660094 0.471478
O O18 0.880244 0.500000 0.484291
O O19 0.880285 0.698916 0.399409
O O20 0.750000 0.672177 0.324423
O O21 0.624906 0.500000 0.316092
O O22 0.250000 0.351730 0.912695
O O23 0.115519 0.500000 0.893590
#
# Coordination Sequence:
#
# PCOD9403899 Si02
#       8
#     8   8   8   8   8   8   8   8
#     4  10  20  34  54  78 102 132 173 218 260 305
#     4  11  24  37  50  74 108 142 175 213 256 304
#     4   9  19  37  60  84 106 130 167 213 257 304
#     4  11  24  38  51  73 107 142 174 211 257 307
#     4   9  16  26  44  73 106 136 166 204 254 309
#     4   8  14  26  45  71 102 132 165 209 257 303
#     4   9  18  33  54  78 103 135 176 219 261 306
#     4   9  19  37  60  83 106 133 168 211 256 304
#
# _framework density 20.316898999999999
#
# number of rings (size 3 to 8) (size 9 to 14) (size 15 to 20)
#    0.000    2.500    0.000    3.750    0.000    9.500 
#    0.000    5.000    0.000    0.750    0.000    5.250 
#    0.000    0.000    0.000    0.000    0.000    0.000 
#
# Total GULP energy -357250.908712 kJ/mol
# GULP energy per Si atom -5582.045449 kJ/mol
# Density = 2.027066 g / cm^3
# Si number density = 20.316899 Si / 1000 Ang^3
#
#
#
# Elastic Constant Matrix: (Units=GPa)
#
#
# Indices 1 2 3 4 5 6 
#
# 1 9.1915 0.5058 -2.7365 0.0000 0.0000 0.0000
# 2 0.5058 158.3395 108.1581 0.0000 0.0000 0.0000
# 3 -2.7365 108.1581 138.7792 0.0000 0.0000 0.0000
# 4 0.0000 0.0000 0.0000 11.5398 0.0000 0.0000
# 5 0.0000 0.0000 0.0000 0.0000 -43.0439 0.0000
# 6 0.0000 0.0000 0.0000 0.0000 0.0000 25.4832
#
#
#
# Elastic Compliance Matrix: (Units=1/GPa)
#
#
# Indices 1 2 3 4 5 6 
#
# 1 0.110577 -0.003940 0.005251 0.000000 0.000000 0.000000
# 2 -0.003940 0.013646 -0.010712 0.000000 0.000000 0.000000
# 3 0.005251 -0.010712 0.015658 0.000000 0.000000 0.000000
# 4 0.000000 0.000000 0.000000 0.086657 0.000000 0.000000
# 5 0.000000 0.000000 0.000000 0.000000 -0.023232 0.000000
# 6 0.000000 0.000000 0.000000 0.000000 0.000000 0.039242
#
#
# Mechanical properties :
#
#
# Convention : Reuss Voigt Hill
#
# Bulk Modulus (GPa) = 8.25918 57.57388 32.91653
# Shear Modulus (GPa) = 16.57230 12.15467 14.36349
#
# Velocity S-wave (km/s) = 2.85913 2.44858 2.66178
# Velocity P-wave (km/s) = 3.86956 6.03270 5.06789
#
# Compressibility (1/GPa) = 0.12107744
#
# Stress axis : x y z
#
# Youngs Moduli (GPa) = 9.04350 73.28418 63.86523
#
# Poissons Ratio (x) = 0.28875 -0.33537
# Poissons Ratio (y) = 0.03563 0.68415
# Poissons Ratio (z) = -0.04749 0.78505
#
# Static dielectric constant tensor:
#      x y z
#    x 1.710240 0.000000 0.000000 
#    y 0.000000 1.716870 0.000000 
#    z 0.000000 0.000000 1.699750 
# 
# From -- ./inp_files/33803.got.cif
#   From: 2010.05.17/outbox.cif.g08.bks.cpg/sg51_17_cif.got.tgz:33803.got - 2010.06.03 11:52:47.
