data_PCOD9403119
_publ_section_title
;
Structure prediction by ZEFSAII (Michael W. Deem and Ramdas Pophale) SiO2 
 PCOD9403119
Probable space group: P M M A
;
_chemical_formula_sum "Si O2"
_cell_formula_units_Z 44
_cell_length_a 9.324191
_cell_length_b 7.509823
_cell_length_c 31.379392
_cell_angle_alpha 90.000000
_cell_angle_beta 90.000000
_cell_angle_gamma 90.000000
_cell_volume 2197.279920
_symmetry_space_group_name_H-M "P M M A"
_symmetry_group_IT_number 51
_symmetry_cell_setting 'orthorhombic'
loop_
_space_group_symop_operation_xyz
x,y,z
1/2-x,-y,z
1/2+x,-y,-z
-x,y,-z
-x,-y,-z
1/2+x,y,-z
1/2-x,y,z
x,-y,z
loop_
_atom_site_type_symbol
_atom_site_label
_atom_site_fract_x
_atom_site_fract_y
_atom_site_fract_z
Si Si1 0.412112 0.786196 0.289245
Si Si2 0.424446 0.796682 0.887348
Si Si3 0.912596 0.713168 0.374735
Si Si4 0.076456 0.500000 0.954755
Si Si5 0.915210 0.717784 0.542331
Si Si6 0.584530 0.782422 0.206941
O O1 0.250000 0.718542 0.293994
O O2 0.506175 0.747737 0.330726
O O3 0.488616 0.720977 0.246215
O O4 0.404984 0.000000 0.285511
O O5 0.250000 0.798425 0.885721
O O6 0.465132 0.669884 0.925955
O O7 0.467866 0.730445 0.840242
O O8 0.472833 0.000000 0.893328
O O9 0.750000 0.782722 0.374041
O O10 0.903944 0.500000 0.379561
O O11 0.003214 0.778853 0.415171
O O12 0.250000 0.500000 0.959758
O O13 0.000000 0.500000 0.000000
O O14 0.750000 0.774960 0.541726
O O15 0.914542 0.500000 0.542603
O O16 0.000000 0.772701 0.500000
O O17 0.750000 0.726276 0.212786
O O18 0.585360 0.000000 0.206556
#
# Coordination Sequence:
#
# PCOD9403119 Si02
#       6
#     8   8   8   4   8   8
#     4  10  20  33  50  73 102 135 166 199 249 310
#     4   8  15  30  52  75 100 134 175 217 261 309
#     4  10  20  33  49  71  98 128 166 210 251 296
#     4  10  20  34  52  76 106 138 174 218 263 314
#     4   9  16  27  45  68  94 125 161 204 253 304
#     4   8  14  28  50  71  92 123 164 205 242 288
#
# _framework density 20.024757999999999
#
# number of rings (size 3 to 8) (size 9 to 14) (size 15 to 20)
#    0.000    2.909    0.000    2.727    0.000    4.727 
#    1.636    0.909    0.000    1.636    0.000    0.000 
#    0.000    0.000    0.000    0.000    0.000    0.000 
#
# Total GULP energy -245596.882983 kJ/mol
# GULP energy per Si atom -5581.747341 kJ/mol
# Density = 1.997918 g / cm^3
# Si number density = 20.024758 Si / 1000 Ang^3
#
#
#
# Elastic Constant Matrix: (Units=GPa)
#
#
# Indices 1 2 3 4 5 6 
#
# 1 145.3358 22.7247 111.5978 0.0000 0.0000 0.0000
# 2 22.7247 64.4728 39.0318 0.0000 0.0000 0.0000
# 3 111.5978 39.0318 235.5510 0.0000 0.0000 0.0000
# 4 0.0000 0.0000 0.0000 25.2872 0.0000 0.0000
# 5 0.0000 0.0000 0.0000 0.0000 40.3882 0.0000
# 6 0.0000 0.0000 0.0000 0.0000 0.0000 6.9628
#
#
#
# Elastic Compliance Matrix: (Units=1/GPa)
#
#
# Indices 1 2 3 4 5 6 
#
# 1 0.010851 -0.000792 -0.005010 0.000000 0.000000 0.000000
# 2 -0.000792 0.017298 -0.002491 0.000000 0.000000 0.000000
# 3 -0.005010 -0.002491 0.007032 0.000000 0.000000 0.000000
# 4 0.000000 0.000000 0.000000 0.039546 0.000000 0.000000
# 5 0.000000 0.000000 0.000000 0.000000 0.024760 0.000000
# 6 0.000000 0.000000 0.000000 0.000000 0.000000 0.143620
#
#
# Mechanical properties :
#
#
# Convention : Reuss Voigt Hill
#
# Bulk Modulus (GPa) = 53.77780 88.00758 70.89269
# Shear Modulus (GPa) = 18.80479 32.66135 25.73307
#
# Velocity S-wave (km/s) = 3.06776 4.04301 3.58867
# Velocity P-wave (km/s) = 6.28189 8.11414 7.25608
#
# Compressibility (1/GPa) = 0.01859503
#
# Stress axis : x y z
#
# Youngs Moduli (GPa) = 92.15495 57.81129 142.21325
#
# Poissons Ratio (x) = 0.04577 0.71247
# Poissons Ratio (y) = 0.07297 0.35428
# Poissons Ratio (z) = 0.46168 0.14402
#
# Static dielectric constant tensor:
#      x y z
#    x 1.687490 0.000000 0.000000 
#    y 0.000000 1.810610 0.000000 
#    z 0.000000 0.000000 1.670710 
# 
# From -- ./inp_files/36831.got.cif
#   From: 2010.05.17/outbox.cif.g08.bks.cpg/sg51_19_cif.got.tgz:36831.got - 2010.06.03 11:52:47.
