data_PCOD9403458
_publ_section_title
;
Structure prediction by ZEFSAII (Michael W. Deem and Ramdas Pophale) SiO2 
 PCOD9403458
Probable space group: P M M A
;
_chemical_formula_sum "Si O2"
_cell_formula_units_Z 64
_cell_length_a 29.154411
_cell_length_b 7.637838
_cell_length_c 13.330767
_cell_angle_alpha 90.000000
_cell_angle_beta 90.000000
_cell_angle_gamma 90.000000
_cell_volume 2968.450780
_symmetry_space_group_name_H-M "P M M A"
_symmetry_group_IT_number 51
_symmetry_cell_setting 'orthorhombic'
loop_
_space_group_symop_operation_xyz
x,y,z
1/2-x,-y,z
1/2+x,-y,-z
-x,y,-z
-x,-y,-z
1/2+x,y,-z
1/2-x,y,z
x,-y,z
loop_
_atom_site_type_symbol
_atom_site_label
_atom_site_fract_x
_atom_site_fract_y
_atom_site_fract_z
Si Si1 0.147525 0.208774 0.521038
Si Si2 0.638620 0.293343 0.876024
Si Si3 0.802759 0.784939 0.276933
Si Si4 0.865844 0.204911 0.096677
Si Si5 0.048659 0.710929 0.458553
Si Si6 0.197270 0.211607 0.319497
Si Si7 0.952011 0.711419 0.768553
Si Si8 0.031246 0.791915 0.909744
O O1 0.173298 0.273814 0.619895
O O2 0.093297 0.242237 0.522217
O O3 0.169077 0.276942 0.416598
O O4 0.154221 0.000000 0.519480
O O5 0.634241 0.500000 0.890956
O O6 0.672902 0.262565 0.784012
O O7 0.588798 0.223156 0.840560
O O8 0.652483 0.217991 0.983305
O O9 0.750000 0.729551 0.272307
O O10 0.832015 0.723514 0.181156
O O11 0.802552 0.000000 0.277034
O O12 0.917450 0.281340 0.096419
O O13 0.870874 0.000000 0.121466
O O14 0.046343 0.500000 0.455386
O O15 0.055763 0.773931 0.344554
O O16 0.000000 0.775227 0.500000
O O17 0.250000 0.270747 0.323646
O O18 0.197331 0.000000 0.322825
O O19 0.949690 0.500000 0.768098
O O20 0.001299 0.764203 0.810519
O O21 0.035584 0.000000 0.927893
O O22 0.000000 0.717677 0.000000
#
# Coordination Sequence:
#
# PCOD9403458 Si02
#       8
#     8   8   8   8   8   8   8   8
#     4  10  20  36  61  89 114 143 187 237 281 334
#     4  11  22  37  57  83 115 150 189 235 284 338
#     4   9  19  37  60  84 112 147 188 238 290 339
#     4  10  21  37  57  83 115 152 195 237 287 345
#     4  10  22  39  56  80 117 156 187 222 278 344
#     4  10  21  37  59  86 113 144 184 232 288 346
#     4  10  21  36  54  77 109 149 188 225 275 338
#     4  10  20  33  52  79 110 144 183 231 278 326
#
# _framework density 21.560065999999999
#
# number of rings (size 3 to 8) (size 9 to 14) (size 15 to 20)
#    0.000    2.000    2.500    0.750    1.750    4.250 
#    0.000    1.875    0.000    1.875    0.000    0.000 
#    0.000    0.000    0.000    0.000    0.000    0.000 
#
# Total GULP energy -357589.929278 kJ/mol
# GULP energy per Si atom -5587.342645 kJ/mol
# Density = 2.151099 g / cm^3
# Si number density = 21.560066 Si / 1000 Ang^3
#
#
#
# Elastic Constant Matrix: (Units=GPa)
#
#
# Indices 1 2 3 4 5 6 
#
# 1 178.8846 1.6034 100.1448 0.0000 0.0000 0.0000
# 2 1.6034 38.2685 -4.1958 0.0000 0.0000 0.0000
# 3 100.1448 -4.1958 150.8919 0.0000 0.0000 0.0000
# 4 0.0000 0.0000 0.0000 43.5444 0.0000 0.0000
# 5 0.0000 0.0000 0.0000 0.0000 32.8906 0.0000
# 6 0.0000 0.0000 0.0000 0.0000 0.0000 35.6217
#
#
#
# Elastic Compliance Matrix: (Units=1/GPa)
#
#
# Indices 1 2 3 4 5 6 
#
# 1 0.008935 -0.001028 -0.005959 0.000000 0.000000 0.000000
# 2 -0.001028 0.026329 0.001414 0.000000 0.000000 0.000000
# 3 -0.005959 0.001414 0.010621 0.000000 0.000000 0.000000
# 4 0.000000 0.000000 0.000000 0.022965 0.000000 0.000000
# 5 0.000000 0.000000 0.000000 0.000000 0.030404 0.000000
# 6 0.000000 0.000000 0.000000 0.000000 0.000000 0.028073
#
#
# Mechanical properties :
#
#
# Convention : Reuss Voigt Hill
#
# Bulk Modulus (GPa) = 28.78420 62.57222 45.67821
# Shear Modulus (GPa) = 33.32162 40.44418 36.88290
#
# Velocity S-wave (km/s) = 3.93558 4.33585 4.14055
# Velocity P-wave (km/s) = 5.83365 7.35876 6.64013
#
# Compressibility (1/GPa) = 0.03474128
#
# Stress axis : x y z
#
# Youngs Moduli (GPa) = 111.91520 37.98058 94.14974
#
# Poissons Ratio (x) = 0.03903 0.56102
# Poissons Ratio (y) = 0.11502 -0.13315
# Poissons Ratio (z) = 0.66688 -0.05371
#
# Static dielectric constant tensor:
#      x y z
#    x 1.764740 0.000000 0.000000 
#    y 0.000000 1.798440 0.000000 
#    z 0.000000 0.000000 1.770040 
# 
# From -- ./inp_files/19540.got.cif
#   From: 2010.05.17/outbox.cif.g08.bks.cpg/sg51_10_cif.got.tgz:19540.got - 2010.06.03 11:52:47.
