data_PCOD9403307
_publ_section_title
;
Structure prediction by ZEFSAII (Michael W. Deem and Ramdas Pophale) SiO2 
 PCOD9403307
Probable space group: P M M A
;
_chemical_formula_sum "Si O2"
_cell_formula_units_Z 64
_cell_length_a 8.966318
_cell_length_b 14.527699
_cell_length_c 32.074687
_cell_angle_alpha 90.000000
_cell_angle_beta 90.000000
_cell_angle_gamma 90.000000
_cell_volume 4178.047736
_symmetry_space_group_name_H-M "P M M A"
_symmetry_group_IT_number 51
_symmetry_cell_setting 'orthorhombic'
loop_
_space_group_symop_operation_xyz
x,y,z
1/2-x,-y,z
1/2+x,-y,-z
-x,y,-z
-x,-y,-z
1/2+x,y,-z
1/2-x,y,z
x,-y,z
loop_
_atom_site_type_symbol
_atom_site_label
_atom_site_fract_x
_atom_site_fract_y
_atom_site_fract_z
Si Si1 0.572699 0.103842 0.247659
Si Si2 0.930519 0.391404 0.634400
Si Si3 0.571587 0.704903 0.286405
Si Si4 0.572373 0.609725 0.794346
Si Si5 0.929177 0.607019 0.043594
Si Si6 0.922870 0.388158 0.542178
Si Si7 0.572500 0.105733 0.842826
Si Si8 0.929107 0.714318 0.127111
O O1 0.750000 0.109471 0.237894
O O2 0.538580 0.187068 0.278707
O O3 0.483173 0.117428 0.204799
O O4 0.542530 0.000000 0.263066
O O5 0.750000 0.384260 0.635751
O O6 0.966186 0.500000 0.639828
O O7 0.981444 0.361390 0.587946
O O8 0.002839 0.333738 0.671208
O O9 0.750000 0.692662 0.286311
O O10 0.501354 0.650612 0.247309
O O11 0.750000 0.627062 0.793650
O O12 0.548418 0.500000 0.796228
O O13 0.500055 0.658598 0.834353
O O14 0.750000 0.610188 0.040021
O O15 0.972602 0.500000 0.050316
O O16 0.972469 0.666590 0.083635
O O17 0.000000 0.637812 0.000000
O O18 0.750000 0.362488 0.540273
O O19 0.930146 0.500000 0.542028
O O20 0.000000 0.354950 0.500000
O O21 0.750000 0.119621 0.844697
O O22 0.488659 0.181962 0.869679
O O23 0.539312 0.000000 0.854714
O O24 0.750000 0.712247 0.130982
#
# Coordination Sequence:
#
# PCOD9403307 Si02
#       8
#     8   8   8   8   8   8   8   8
#     4   9  18  33  50  67  90 121 156 196 243 287
#     4   9  18  31  44  60  89 129 163 191 231 283
#     4  11  21  31  46  68  92 123 160 198 235 277
#     4  11  23  35  47  66  95 131 164 195 233 276
#     4   9  19  35  54  76 101 128 158 193 234 280
#     4   8  14  25  41  60  82 112 152 195 236 275
#     4  10  20  33  51  75  99 124 158 198 238 283
#     4  11  21  34  53  76 100 127 159 197 238 281
#
# _framework density 15.318159
#
# number of rings (size 3 to 8) (size 9 to 14) (size 15 to 20)
#    0.000    2.250    1.250    3.000    0.000    6.000 
#    0.000    2.500    0.000    0.375    0.000    0.000 
#    0.000    0.500    0.000    1.125    0.000    1.750 
#
# Total GULP energy -356893.611767 kJ/mol
# GULP energy per Si atom -5576.462684 kJ/mol
# Density = 1.528329 g / cm^3
# Si number density = 15.318159 Si / 1000 Ang^3
#
#
#
# Elastic Constant Matrix: (Units=GPa)
#
#
# Indices 1 2 3 4 5 6 
#
# 1 46.2068 45.8284 52.6495 0.0000 0.0000 0.0000
# 2 45.8284 92.7538 72.3850 0.0000 0.0000 0.0000
# 3 52.6495 72.3850 151.2483 0.0000 0.0000 0.0000
# 4 0.0000 0.0000 0.0000 7.5329 0.0000 0.0000
# 5 0.0000 0.0000 0.0000 0.0000 29.1979 0.0000
# 6 0.0000 0.0000 0.0000 0.0000 0.0000 21.7147
#
#
#
# Elastic Compliance Matrix: (Units=1/GPa)
#
#
# Indices 1 2 3 4 5 6 
#
# 1 0.048650 -0.017272 -0.008669 0.000000 0.000000 0.000000
# 2 -0.017272 0.023340 -0.005158 0.000000 0.000000 0.000000
# 3 -0.008669 -0.005158 0.012098 0.000000 0.000000 0.000000
# 4 0.000000 0.000000 0.000000 0.132751 0.000000 0.000000
# 5 0.000000 0.000000 0.000000 0.000000 0.034249 0.000000
# 6 0.000000 0.000000 0.000000 0.000000 0.000000 0.046052
#
#
# Mechanical properties :
#
#
# Convention : Reuss Voigt Hill
#
# Bulk Modulus (GPa) = 45.68223 70.21497 57.94860
# Shear Modulus (GPa) = 13.63755 19.64551 16.64153
#
# Velocity S-wave (km/s) = 2.98700 3.58508 3.29962
# Velocity P-wave (km/s) = 6.46400 7.94194 7.24077
#
# Compressibility (1/GPa) = 0.02189035
#
# Stress axis : x y z
#
# Youngs Moduli (GPa) = 20.55489 42.84410 82.65984
#
# Poissons Ratio (x) = 0.74001 0.71657
# Poissons Ratio (y) = 0.35503 0.42635
# Poissons Ratio (z) = 0.17819 0.22099
#
# Static dielectric constant tensor:
#      x y z
#    x 1.513750 0.000000 0.000000 
#    y 0.000000 1.510140 0.000000 
#    z 0.000000 0.000000 1.493030 
# 
# From -- ./inp_files/37668.got.cif
#   From: 2010.05.17/outbox.cif.g08.bks.cpg/sg51_19_cif.got.tgz:37668.got - 2010.06.03 11:52:47.
