data_PCOD9403041
_publ_section_title
;
Structure prediction by ZEFSAII (Michael W. Deem and Ramdas Pophale) SiO2 
 PCOD9403041
Probable space group: P M M A
;
_chemical_formula_sum "Si O2"
_cell_formula_units_Z 64
_cell_length_a 8.436159
_cell_length_b 19.732506
_cell_length_c 24.955588
_cell_angle_alpha 90.000000
_cell_angle_beta 90.000000
_cell_angle_gamma 90.000000
_cell_volume 4154.270839
_symmetry_space_group_name_H-M "P M M A"
_symmetry_group_IT_number 51
_symmetry_cell_setting 'orthorhombic'
loop_
_space_group_symop_operation_xyz
x,y,z
1/2-x,-y,z
1/2+x,-y,-z
-x,y,-z
-x,-y,-z
1/2+x,y,-z
1/2-x,y,z
x,-y,z
loop_
_atom_site_type_symbol
_atom_site_label
_atom_site_fract_x
_atom_site_fract_y
_atom_site_fract_z
Si Si1 0.558403 0.144421 0.279715
Si Si2 0.057209 0.924775 0.610317
Si Si3 0.560946 0.921116 0.944019
Si Si4 0.558711 0.921313 0.169163
Si Si5 0.940453 0.720033 0.667586
Si Si6 0.073183 0.419299 0.554193
Si Si7 0.563732 0.574632 0.669052
Si Si8 0.060065 0.215565 0.558902
O O1 0.750000 0.146486 0.279529
O O2 0.512877 0.094209 0.328495
O O3 0.504453 0.118315 0.221950
O O4 0.496180 0.218070 0.295750
O O5 0.250000 0.925738 0.608345
O O6 0.005389 0.861270 0.574156
O O7 0.000557 0.000000 0.595546
O O8 0.750000 0.920745 0.944448
O O9 0.500354 0.892563 0.887621
O O10 0.504271 0.000000 0.943647
O O11 0.500000 0.890803 0.000000
O O12 0.750000 0.921044 0.168609
O O13 0.506684 0.000000 0.173604
O O14 0.750000 0.718149 0.665781
O O15 0.999728 0.646905 0.689237
O O16 0.000937 0.737181 0.607522
O O17 0.250000 0.392061 0.565209
O O18 0.091195 0.500000 0.545419
O O19 0.000000 0.390227 0.500000
O O20 0.960259 0.415741 0.605255
O O21 0.750000 0.571476 0.681526
O O22 0.494129 0.500000 0.682737
O O23 0.250000 0.216455 0.559560
O O24 0.000000 0.233028 0.500000
#
# Coordination Sequence:
#
# PCOD9403041 Si02
#       8
#     8   8   8   8   8   8   8   8
#     4   9  17  29  45  63  84 109 135 165 202 244
#     4   8  14  26  44  63  80  99 125 159 198 237
#     4   9  16  25  37  55  82 115 149 185 221 251
#     4   9  16  26  42  63  85 112 147 182 213 244
#     4  10  20  33  48  63  80 102 127 159 198 241
#     4   9  16  25  38  56  76  95 113 137 172 214
#     4   9  18  32  47  61  76  95 121 152 187 229
#     4  10  20  33  48  63  80 102 127 156 193 242
#
# _framework density 15.405832
#
# number of rings (size 3 to 8) (size 9 to 14) (size 15 to 20)
#    0.000    2.875    0.000    2.625    0.000    6.750 
#    0.000    0.000    0.000   12.000    0.000    0.000 
#    0.000    0.000    0.000    0.000    0.000    0.625 
#
# Total GULP energy -356406.757923 kJ/mol
# GULP energy per Si atom -5568.855593 kJ/mol
# Density = 1.537077 g / cm^3
# Si number density = 15.405832 Si / 1000 Ang^3
#
#
#
# Elastic Constant Matrix: (Units=GPa)
#
#
# Indices 1 2 3 4 5 6 
#
# 1 15.2538 7.2507 11.7691 0.0000 0.0000 0.0000
# 2 7.2507 106.9451 27.8042 0.0000 0.0000 0.0000
# 3 11.7691 27.8042 87.5161 0.0000 0.0000 0.0000
# 4 0.0000 0.0000 0.0000 -4.5522 0.0000 0.0000
# 5 0.0000 0.0000 0.0000 0.0000 18.6930 0.0000
# 6 0.0000 0.0000 0.0000 0.0000 0.0000 12.4258
#
#
#
# Elastic Compliance Matrix: (Units=1/GPa)
#
#
# Indices 1 2 3 4 5 6 
#
# 1 0.073826 -0.002642 -0.009089 0.000000 0.000000 0.000000
# 2 -0.002642 0.010287 -0.002913 0.000000 0.000000 0.000000
# 3 -0.009089 -0.002913 0.013574 0.000000 0.000000 0.000000
# 4 0.000000 0.000000 0.000000 -0.219675 0.000000 0.000000
# 5 0.000000 0.000000 0.000000 0.000000 0.053496 0.000000
# 6 0.000000 0.000000 0.000000 0.000000 0.000000 0.080478
#
#
# Mechanical properties :
#
#
# Convention : Reuss Voigt Hill
#
# Bulk Modulus (GPa) = 14.61999 33.70698 24.16348
# Shear Modulus (GPa) = 78.03605 16.17272 47.10438
#
# Velocity S-wave (km/s) = 7.12485 3.24354 5.53553
# Velocity P-wave (km/s) = 8.78608 5.99619 7.52162
#
# Compressibility (1/GPa) = 0.06839950
#
# Stress axis : x y z
#
# Youngs Moduli (GPa) = 13.54538 97.20955 73.66956
#
# Poissons Ratio (x) = 0.25686 0.66955
# Poissons Ratio (y) = 0.03579 0.21459
# Poissons Ratio (z) = 0.12311 0.28316
#
# Static dielectric constant tensor:
#      x y z
#    x 1.539470 0.000000 0.000000 
#    y 0.000000 1.567380 0.000000 
#    z 0.000000 0.000000 1.502750 
# 
# From -- ./inp_files/35178.got.cif
#   From: 2010.05.17/outbox.cif.g08.bks.cpg/sg51_18_cif.got.tgz:35178.got - 2010.06.03 11:52:47.
