data_PCOD9403946
_publ_section_title
;
Structure prediction by ZEFSAII (Michael W. Deem and Ramdas Pophale) SiO2 
 PCOD9403946
Probable space group: P M M A
;
_chemical_formula_sum "Si O2"
_cell_formula_units_Z 36
_cell_length_a 8.626096
_cell_length_b 23.950226
_cell_length_c 9.395647
_cell_angle_alpha 90.000000
_cell_angle_beta 90.000000
_cell_angle_gamma 90.000000
_cell_volume 1941.112001
_symmetry_space_group_name_H-M "P M M A"
_symmetry_group_IT_number 51
_symmetry_cell_setting 'orthorhombic'
loop_
_space_group_symop_operation_xyz
x,y,z
1/2-x,-y,z
1/2+x,-y,-z
-x,y,-z
-x,-y,-z
1/2+x,y,-z
1/2-x,y,z
x,-y,z
loop_
_atom_site_type_symbol
_atom_site_label
_atom_site_fract_x
_atom_site_fract_y
_atom_site_fract_z
Si Si1 0.937073 0.438351 0.840574
Si Si2 0.563655 0.895975 0.160177
Si Si3 0.435394 0.000000 0.339517
Si Si4 0.935717 0.213411 0.340117
Si Si5 0.563674 0.332038 0.659279
O O1 0.750000 0.437139 0.844451
O O2 0.983804 0.500000 0.784975
O O3 0.989231 0.385543 0.749009
O O4 0.000000 0.433581 0.000000
O O5 0.750000 0.900888 0.157259
O O6 0.495085 0.946021 0.254122
O O7 0.522653 0.837727 0.237550
O O8 0.500000 0.898154 0.000000
O O9 0.500000 0.000000 0.500000
O O10 0.250000 0.000000 0.344105
O O11 0.750000 0.217176 0.349171
O O12 0.000000 0.204055 0.500000
O O13 0.001964 0.272475 0.286357
O O14 0.500000 0.337544 0.500000
O O15 0.750000 0.330522 0.656776
#
# Coordination Sequence:
#
# PCOD9403946 Si02
#       5
#     8   8   4   8   8
#     4   9  19  35  53  75 104 139 179 222 270 325
#     4  11  24  41  61  87 118 152 189 231 279 329
#     4  12  25  42  65  90 118 152 190 232 277 330
#     4  10  21  37  58  82 110 145 185 227 273 327
#     4  10  20  34  54  79 108 141 179 225 273 324
#
# _framework density 18.546068999999999
#
# number of rings (size 3 to 8) (size 9 to 14) (size 15 to 20)
#    0.000    1.778    0.000    5.333    0.000    8.444 
#    0.000    4.444    0.000    0.000    0.000    0.000 
#    0.000    0.000    0.000    0.000    0.000    0.000 
#
# Total GULP energy -201095.172853 kJ/mol
# GULP energy per Si atom -5585.977024 kJ/mol
# Density = 1.850386 g / cm^3
# Si number density = 18.546069 Si / 1000 Ang^3
#
#
#
# Elastic Constant Matrix: (Units=GPa)
#
#
# Indices 1 2 3 4 5 6 
#
# 1 62.2485 66.8957 42.9831 0.0000 0.0000 0.0000
# 2 66.8957 225.6163 115.3198 0.0000 0.0000 0.0000
# 3 42.9831 115.3198 117.2998 0.0000 0.0000 0.0000
# 4 0.0000 0.0000 0.0000 54.3515 0.0000 0.0000
# 5 0.0000 0.0000 0.0000 0.0000 32.1829 0.0000
# 6 0.0000 0.0000 0.0000 0.0000 0.0000 29.3939
#
#
#
# Elastic Compliance Matrix: (Units=1/GPa)
#
#
# Indices 1 2 3 4 5 6 
#
# 1 0.024337 -0.005342 -0.003666 0.000000 0.000000 0.000000
# 2 -0.005342 0.010082 -0.007954 0.000000 0.000000 0.000000
# 3 -0.003666 -0.007954 0.017688 0.000000 0.000000 0.000000
# 4 0.000000 0.000000 0.000000 0.018399 0.000000 0.000000
# 5 0.000000 0.000000 0.000000 0.000000 0.031072 0.000000
# 6 0.000000 0.000000 0.000000 0.000000 0.000000 0.034021
#
#
# Mechanical properties :
#
#
# Convention : Reuss Voigt Hill
#
# Bulk Modulus (GPa) = 54.99739 95.06243 75.02991
# Shear Modulus (GPa) = 28.47630 35.18340 31.82985
#
# Velocity S-wave (km/s) = 3.92271 4.36027 4.14727
# Velocity P-wave (km/s) = 7.08772 8.75888 7.96724
#
# Compressibility (1/GPa) = 0.01818268
#
# Stress axis : x y z
#
# Youngs Moduli (GPa) = 41.08967 99.18786 56.53421
#
# Poissons Ratio (x) = 0.52988 0.20726
# Poissons Ratio (y) = 0.21951 0.44968
# Poissons Ratio (z) = 0.15064 0.78895
#
# Static dielectric constant tensor:
#      x y z
#    x 1.627160 0.000000 0.000000 
#    y 0.000000 1.654500 0.000000 
#    z 0.000000 0.000000 1.596750 
# 
# From -- ./inp_files/5280.got.cif
#   From: 2010.05.17/outbox.cif.g08.bks.cpg/sg51_3_cif.got.tgz:5280.got - 2010.06.03 11:52:47.
