data_PCOD9403301
_publ_section_title
;
Structure prediction by ZEFSAII (Michael W. Deem and Ramdas Pophale) SiO2 
 PCOD9403301
Probable space group: P M M A
;
_chemical_formula_sum "Si O2"
_cell_formula_units_Z 52
_cell_length_a 10.010578
_cell_length_b 21.034486
_cell_length_c 14.678926
_cell_angle_alpha 90.000000
_cell_angle_beta 90.000000
_cell_angle_gamma 90.000000
_cell_volume 3090.902736
_symmetry_space_group_name_H-M "P M M A"
_symmetry_group_IT_number 51
_symmetry_cell_setting 'orthorhombic'
loop_
_space_group_symop_operation_xyz
x,y,z
1/2-x,-y,z
1/2+x,-y,-z
-x,y,-z
-x,-y,-z
1/2+x,y,-z
1/2-x,y,z
x,-y,z
loop_
_atom_site_type_symbol
_atom_site_label
_atom_site_fract_x
_atom_site_fract_y
_atom_site_fract_z
Si Si1 0.902623 0.611319 0.919024
Si Si2 0.592162 0.228741 0.716487
Si Si3 0.402756 0.000000 0.585530
Si Si4 0.100787 0.766127 0.075385
Si Si5 0.589400 0.140670 0.407473
Si Si6 0.028160 0.378743 0.287111
Si Si7 0.250000 0.425151 0.425600
Si Si8 0.750000 0.422804 0.365406
O O1 0.750000 0.591430 0.935861
O O2 0.906378 0.688790 0.921291
O O3 0.940985 0.595368 0.814690
O O4 0.000000 0.588834 0.000000
O O5 0.750000 0.219955 0.691134
O O6 0.577122 0.210564 0.822477
O O7 0.486512 0.190093 0.657027
O O8 0.558391 0.303556 0.711779
O O9 0.500000 0.000000 0.500000
O O10 0.421204 0.068469 0.632092
O O11 0.250000 0.000000 0.551441
O O12 0.250000 0.782854 0.047851
O O13 0.000000 0.789508 0.000000
O O14 0.500000 0.141653 0.500000
O O15 0.750000 0.153467 0.421115
O O16 0.123412 0.406527 0.365080
O O17 0.879300 0.396165 0.314895
O O18 0.250000 0.500000 0.436138
O O19 0.250000 0.399846 0.528924
O O20 0.750000 0.500000 0.362925
#
# Coordination Sequence:
#
# PCOD9403301 Si02
#       8
#     8   8   4   8   8   8   4   4
#     4   9  17  31  54  81 105 135 168 206 264 327
#     4  10  20  35  51  78 112 138 171 215 264 318
#     4   8  16  32  50  70  99 138 185 222 253 300
#     4   8  15  28  46  70 101 133 165 206 252 305
#     4  10  20  33  51  75 106 145 182 219 260 307
#     4  11  21  39  58  80 110 139 171 224 277 319
#     4  11  22  42  63  75  95 140 187 221 265 319
#     4  11  26  40  57  83 103 132 187 233 261 313
#
# _framework density 16.823563
#
# number of rings (size 3 to 8) (size 9 to 14) (size 15 to 20)
#    0.000    2.308    1.538    2.308    2.154    3.692 
#    2.769    0.000    0.000    2.769    0.000    0.538 
#    0.000    0.000    0.000    0.000    0.000    0.000 
#
# Total GULP energy -289619.867364 kJ/mol
# GULP energy per Si atom -5569.612834 kJ/mol
# Density = 1.678527 g / cm^3
# Si number density = 16.823563 Si / 1000 Ang^3
#
#
#
# Elastic Constant Matrix: (Units=GPa)
#
#
# Indices 1 2 3 4 5 6 
#
# 1 153.5560 26.3594 76.7986 0.0000 0.0000 0.0000
# 2 26.3594 34.6040 17.6881 0.0000 0.0000 0.0000
# 3 76.7986 17.6881 100.8519 0.0000 0.0000 0.0000
# 4 0.0000 0.0000 0.0000 -21.3914 0.0000 0.0000
# 5 0.0000 0.0000 0.0000 0.0000 33.1584 0.0000
# 6 0.0000 0.0000 0.0000 0.0000 0.0000 21.4420
#
#
#
# Elastic Compliance Matrix: (Units=1/GPa)
#
#
# Indices 1 2 3 4 5 6 
#
# 1 0.011136 -0.004557 -0.007681 0.000000 0.000000 0.000000
# 2 -0.004557 0.033609 -0.002425 0.000000 0.000000 0.000000
# 3 -0.007681 -0.002425 0.016190 0.000000 0.000000 0.000000
# 4 0.000000 0.000000 0.000000 -0.046748 0.000000 0.000000
# 5 0.000000 0.000000 0.000000 0.000000 0.030158 0.000000
# 6 0.000000 0.000000 0.000000 0.000000 0.000000 0.046638
#
#
# Mechanical properties :
#
#
# Convention : Reuss Voigt Hill
#
# Bulk Modulus (GPa) = 31.63539 58.96714 45.30126
# Shear Modulus (GPa) = 38.21366 17.85286 28.03326
#
# Velocity S-wave (km/s) = 4.77113 3.26111 4.08647
# Velocity P-wave (km/s) = 7.01403 7.02184 7.01794
#
# Compressibility (1/GPa) = 0.03161017
#
# Stress axis : x y z
#
# Youngs Moduli (GPa) = 89.79967 29.75413 61.76762
#
# Poissons Ratio (x) = 0.13558 0.47442
# Poissons Ratio (y) = 0.40918 0.14977
# Poissons Ratio (z) = 0.68973 0.07214
#
# Static dielectric constant tensor:
#      x y z
#    x 1.541950 0.000000 0.000000 
#    y 0.000000 1.576680 0.000000 
#    z 0.000000 0.000000 1.568530 
# 
# From -- ./inp_files/21677.got.cif
#   From: 2010.05.17/outbox.cif.g08.bks.cpg/sg51_11_cif.got.tgz:21677.got - 2010.06.03 11:52:47.
