data_PCOD9403347
_publ_section_title
;
Structure prediction by ZEFSAII (Michael W. Deem and Ramdas Pophale) SiO2 
 PCOD9403347
Probable space group: P M M A
;
_chemical_formula_sum "Si O2"
_cell_formula_units_Z 56
_cell_length_a 8.825707
_cell_length_b 14.603615
_cell_length_c 26.393406
_cell_angle_alpha 90.000000
_cell_angle_beta 90.000000
_cell_angle_gamma 90.000000
_cell_volume 3401.772914
_symmetry_space_group_name_H-M "P M M A"
_symmetry_group_IT_number 51
_symmetry_cell_setting 'orthorhombic'
loop_
_space_group_symop_operation_xyz
x,y,z
1/2-x,-y,z
1/2+x,-y,-z
-x,y,-z
-x,-y,-z
1/2+x,y,-z
1/2-x,y,z
x,-y,z
loop_
_atom_site_type_symbol
_atom_site_label
_atom_site_fract_x
_atom_site_fract_y
_atom_site_fract_z
Si Si1 0.568865 0.892621 0.945418
Si Si2 0.431507 0.792930 0.849224
Si Si3 0.068849 0.396853 0.802241
Si Si4 0.068864 0.108523 0.249137
Si Si5 0.932332 0.106277 0.446371
Si Si6 0.430718 0.604596 0.309201
Si Si7 0.068167 0.786410 0.654387
O O1 0.750000 0.884193 0.946896
O O2 0.501773 0.832674 0.900290
O O3 0.531730 0.000000 0.935967
O O4 0.500000 0.868075 0.000000
O O5 0.250000 0.802203 0.850621
O O6 0.469419 0.686136 0.839444
O O7 0.495623 0.848410 0.801104
O O8 0.250000 0.391792 0.792383
O O9 0.035060 0.500000 0.820604
O O10 0.984393 0.383251 0.748938
O O11 0.250000 0.121752 0.247402
O O12 0.002117 0.158688 0.298334
O O13 0.037767 0.000000 0.251469
O O14 0.750000 0.108809 0.449560
O O15 0.978748 0.166230 0.398216
O O16 0.000000 0.136821 0.500000
O O17 0.977919 0.000000 0.438389
O O18 0.250000 0.615638 0.311823
O O19 0.469244 0.500000 0.323684
O O20 0.511777 0.682426 0.341521
O O21 0.250000 0.789982 0.658401
#
# Coordination Sequence:
#
# PCOD9403347 Si02
#       7
#     8   8   8   8   8   8   8
#     4  10  21  37  56  77 103 137 177 220 262 309
#     4  11  21  33  53  79 106 139 174 214 262 312
#     4   9  18  33  52  75 104 138 175 213 257 311
#     4  11  23  35  48  72 107 143 175 211 258 311
#     4   9  19  35  54  76 102 134 174 216 258 308
#     4  10  20  33  51  76 105 137 174 216 260 310
#     4  11  21  34  53  77 105 138 173 214 262 314
#
# _framework density 16.462004
#
# number of rings (size 3 to 8) (size 9 to 14) (size 15 to 20)
#    0.000    1.857    1.429    3.000    0.000    6.857 
#    0.000    1.429    0.000    0.857    0.000    0.000 
#    0.000    0.000    0.000    0.000    0.000    0.000 
#
# Total GULP energy -312656.852515 kJ/mol
# GULP energy per Si atom -5583.158081 kJ/mol
# Density = 1.642454 g / cm^3
# Si number density = 16.462004 Si / 1000 Ang^3
#
#
#
# Elastic Constant Matrix: (Units=GPa)
#
#
# Indices 1 2 3 4 5 6 
#
# 1 46.0540 52.7424 47.3982 0.0000 0.0000 0.0000
# 2 52.7424 125.1391 90.2385 0.0000 0.0000 0.0000
# 3 47.3982 90.2385 143.3465 0.0000 0.0000 0.0000
# 4 0.0000 0.0000 0.0000 20.0502 0.0000 0.0000
# 5 0.0000 0.0000 0.0000 0.0000 31.0526 0.0000
# 6 0.0000 0.0000 0.0000 0.0000 0.0000 26.1449
#
#
#
# Elastic Compliance Matrix: (Units=1/GPa)
#
#
# Indices 1 2 3 4 5 6 
#
# 1 0.044045 -0.014763 -0.005270 0.000000 0.000000 0.000000
# 2 -0.014763 0.019583 -0.007446 0.000000 0.000000 0.000000
# 3 -0.005270 -0.007446 0.013406 0.000000 0.000000 0.000000
# 4 0.000000 0.000000 0.000000 0.049875 0.000000 0.000000
# 5 0.000000 0.000000 0.000000 0.000000 0.032203 0.000000
# 6 0.000000 0.000000 0.000000 0.000000 0.000000 0.038248
#
#
# Mechanical properties :
#
#
# Convention : Reuss Voigt Hill
#
# Bulk Modulus (GPa) = 45.30023 77.25530 61.27776
# Shear Modulus (GPa) = 19.25467 23.72691 21.49079
#
# Velocity S-wave (km/s) = 3.42372 3.80058 3.61706
# Velocity P-wave (km/s) = 6.57319 8.14190 7.39924
#
# Compressibility (1/GPa) = 0.02207495
#
# Stress axis : x y z
#
# Youngs Moduli (GPa) = 22.70418 51.06505 74.59350
#
# Poissons Ratio (x) = 0.75390 0.39309
# Poissons Ratio (y) = 0.33519 0.55543
# Poissons Ratio (z) = 0.11965 0.38023
#
# Static dielectric constant tensor:
#      x y z
#    x 1.550930 0.000000 0.000000 
#    y 0.000000 1.565020 0.000000 
#    z 0.000000 0.000000 1.512680 
# 
# From -- ./inp_files/31984.got.cif
#   From: 2010.05.17/outbox.cif.g08.bks.cpg/sg51_16_cif.got.tgz:31984.got - 2010.06.03 11:52:47.
