data_PCOD9403262
_publ_section_title
;
Structure prediction by ZEFSAII (Michael W. Deem and Ramdas Pophale) SiO2 
 PCOD9403262
Probable space group: P M M A
;
_chemical_formula_sum "Si O2"
_cell_formula_units_Z 64
_cell_length_a 8.983931
_cell_length_b 25.014294
_cell_length_c 15.697076
_cell_angle_alpha 90.000000
_cell_angle_beta 90.000000
_cell_angle_gamma 90.000000
_cell_volume 3527.551953
_symmetry_space_group_name_H-M "P M M A"
_symmetry_group_IT_number 51
_symmetry_cell_setting 'orthorhombic'
loop_
_space_group_symop_operation_xyz
x,y,z
1/2-x,-y,z
1/2+x,-y,-z
-x,y,-z
-x,-y,-z
1/2+x,y,-z
1/2-x,y,z
x,-y,z
loop_
_atom_site_type_symbol
_atom_site_label
_atom_site_fract_x
_atom_site_fract_y
_atom_site_fract_z
Si Si1 0.928522 0.561756 0.228304
Si Si2 0.428046 0.146984 0.767381
Si Si3 0.425968 0.399970 0.585616
Si Si4 0.929045 0.937933 0.089754
Si Si5 0.928553 0.361105 0.910483
Si Si6 0.072482 0.832297 0.412346
Si Si7 0.076522 0.744196 0.180981
Si Si8 0.078737 0.291354 0.374337
O O1 0.750000 0.571157 0.223386
O O2 0.956957 0.500000 0.207154
O O3 0.974839 0.573099 0.325868
O O4 0.010467 0.600860 0.163639
O O5 0.250000 0.146784 0.757062
O O6 0.472350 0.099442 0.831285
O O7 0.503393 0.144105 0.674322
O O8 0.479792 0.202742 0.809959
O O9 0.500000 0.421652 0.500000
O O10 0.250000 0.405539 0.578745
O O11 0.471369 0.337644 0.594345
O O12 0.750000 0.935328 0.082004
O O13 0.970993 0.000000 0.104050
O O14 0.000000 0.920625 0.000000
O O15 0.750000 0.363986 0.913337
O O16 0.969794 0.299705 0.887780
O O17 0.000000 0.376591 0.000000
O O18 0.250000 0.839856 0.412566
O O19 0.044495 0.768180 0.406902
O O20 0.000000 0.852318 0.500000
O O21 0.250000 0.759252 0.168129
O O22 0.069475 0.714151 0.272183
O O23 0.250000 0.304677 0.397223
#
# Coordination Sequence:
#
# PCOD9403262 Si02
#       8
#     8   8   8   8   8   8   8   8
#     4  10  23  43  62  81 107 139 179 228 276 325
#     4  10  20  33  54  83 114 150 189 229 277 330
#     4  11  22  34  54  81 108 140 176 218 267 322
#     4   9  19  36  57  82 112 147 189 236 282 329
#     4  11  23  40  62  86 111 142 180 222 274 331
#     4  10  20  33  50  76 112 151 189 230 274 324
#     4   9  19  35  54  78 112 147 179 221 269 323
#     4   9  17  32  52  75 105 140 178 218 263 315
#
# _framework density 18.142893999999998
#
# number of rings (size 3 to 8) (size 9 to 14) (size 15 to 20)
#    0.000    2.125    1.250    2.625    0.000    7.250 
#    0.000    2.500    0.000    0.375    0.000    0.000 
#    0.000    0.000    0.000    0.000    0.000    0.000 
#
# Total GULP energy -357246.108357 kJ/mol
# GULP energy per Si atom -5581.970443 kJ/mol
# Density = 1.810160 g / cm^3
# Si number density = 18.142894 Si / 1000 Ang^3
#
#
#
# Elastic Constant Matrix: (Units=GPa)
#
#
# Indices 1 2 3 4 5 6 
#
# 1 41.4230 36.9351 51.8762 0.0000 0.0000 0.0000
# 2 36.9351 66.8055 60.7950 0.0000 0.0000 0.0000
# 3 51.8762 60.7950 139.1059 0.0000 0.0000 0.0000
# 4 0.0000 0.0000 0.0000 -2.5210 0.0000 0.0000
# 5 0.0000 0.0000 0.0000 0.0000 30.3543 0.0000
# 6 0.0000 0.0000 0.0000 0.0000 0.0000 18.3394
#
#
#
# Elastic Compliance Matrix: (Units=1/GPa)
#
#
# Indices 1 2 3 4 5 6 
#
# 1 0.058751 -0.020827 -0.012808 0.000000 0.000000 0.000000
# 2 -0.020827 0.032236 -0.006322 0.000000 0.000000 0.000000
# 3 -0.012808 -0.006322 0.014728 0.000000 0.000000 0.000000
# 4 0.000000 0.000000 0.000000 -0.396675 0.000000 0.000000
# 5 0.000000 0.000000 0.000000 0.000000 0.032944 0.000000
# 6 0.000000 0.000000 0.000000 0.000000 0.000000 0.054528
#
#
# Mechanical properties :
#
#
# Convention : Reuss Voigt Hill
#
# Bulk Modulus (GPa) = 38.75489 60.72744 49.74117
# Shear Modulus (GPa) = -43.48827 15.74975 -13.86926
#
# Velocity S-wave (km/s) = -4.90121 2.94954 -2.76786
# Velocity P-wave (km/s) = 3.25913 6.71894 4.15465
#
# Compressibility (1/GPa) = 0.02580320
#
# Stress axis : x y z
#
# Youngs Moduli (GPa) = 17.02087 31.02076 67.89770
#
# Poissons Ratio (x) = 0.64606 0.86962
# Poissons Ratio (y) = 0.35449 0.42924
# Poissons Ratio (z) = 0.21800 0.19611
#
# Static dielectric constant tensor:
#      x y z
#    x 1.609320 0.000000 0.000000 
#    y 0.000000 1.603410 0.000000 
#    z 0.000000 0.000000 1.634710 
# 
# From -- ./inp_files/22302.got.cif
#   From: 2010.05.17/outbox.cif.g08.bks.cpg/sg51_12_cif.got.tgz:22302.got - 2010.06.03 11:52:47.
