data_PCOD9403564
_publ_section_title
;
Structure prediction by ZEFSAII (Michael W. Deem and Ramdas Pophale) SiO2 
 PCOD9403564
Probable space group: P M M A
;
_chemical_formula_sum "Si O2"
_cell_formula_units_Z 56
_cell_length_a 18.873562
_cell_length_b 7.562854
_cell_length_c 20.513915
_cell_angle_alpha 90.000000
_cell_angle_beta 90.000000
_cell_angle_gamma 90.000000
_cell_volume 2928.115073
_symmetry_space_group_name_H-M "P M M A"
_symmetry_group_IT_number 51
_symmetry_cell_setting 'orthorhombic'
loop_
_space_group_symop_operation_xyz
x,y,z
1/2-x,-y,z
1/2+x,-y,-z
-x,y,-z
-x,-y,-z
1/2+x,y,-z
1/2-x,y,z
x,-y,z
loop_
_atom_site_type_symbol
_atom_site_label
_atom_site_fract_x
_atom_site_fract_y
_atom_site_fract_z
Si Si1 0.527555 0.704715 0.068607
Si Si2 0.830670 0.213760 0.863523
Si Si3 0.168039 0.783131 0.430468
Si Si4 0.429565 0.797068 0.545341
Si Si5 0.330252 0.786317 0.987061
Si Si6 0.468555 0.207535 0.350575
Si Si7 0.468887 0.700603 0.202593
O O1 0.503127 0.500000 0.069086
O O2 0.611696 0.712775 0.061300
O O3 0.502708 0.784687 0.137118
O O4 0.500000 0.785313 0.000000
O O5 0.750000 0.263932 0.850417
O O6 0.885872 0.293835 0.814164
O O7 0.835181 0.000000 0.860304
O O8 0.847522 0.266039 0.938205
O O9 0.250000 0.726799 0.421062
O O10 0.133411 0.724667 0.499845
O O11 0.108276 0.726706 0.376984
O O12 0.169212 0.000000 0.430017
O O13 0.500000 0.799501 0.500000
O O14 0.463488 0.715173 0.610636
O O15 0.408039 0.000000 0.559328
O O16 0.250000 0.731039 0.973568
O O17 0.332480 0.000000 0.985173
O O18 0.478239 0.220608 0.273609
O O19 0.468067 0.000000 0.367831
O O20 0.495184 0.500000 0.206519
#
# Coordination Sequence:
#
# PCOD9403564 Si02
#       7
#     8   8   8   8   8   8   8
#     4  10  20  34  49  68  93 124 167 211 244 285
#     4   9  18  32  48  67  92 121 153 189 236 295
#     4   8  13  23  44  73  97 117 148 190 228 267
#     4   7  11  22  41  64  89 117 149 183 218 263
#     4   9  18  32  51  74  94 113 146 197 253 301
#     4   9  17  29  45  66  94 126 156 186 231 285
#     4  11  22  33  46  67  96 129 165 203 241 282
#
# _framework density 19.124931
#
# number of rings (size 3 to 8) (size 9 to 14) (size 15 to 20)
#    0.000    3.000    1.429    3.000    0.000    2.571 
#    0.000    2.857    0.000    4.714    0.000    2.000 
#    0.000    0.000    0.000    0.000    0.000    0.000 
#
# Total GULP energy -311777.592723 kJ/mol
# GULP energy per Si atom -5567.457013 kJ/mol
# Density = 1.908140 g / cm^3
# Si number density = 19.124931 Si / 1000 Ang^3
#
#
#
# Elastic Constant Matrix: (Units=GPa)
#
#
# Indices 1 2 3 4 5 6 
#
# 1 58.9104 2.8640 50.6314 0.0000 0.0000 0.0000
# 2 2.8640 41.8597 4.7008 0.0000 0.0000 0.0000
# 3 50.6314 4.7008 138.1991 0.0000 0.0000 0.0000
# 4 0.0000 0.0000 0.0000 7.0993 0.0000 0.0000
# 5 0.0000 0.0000 0.0000 0.0000 23.4928 0.0000
# 6 0.0000 0.0000 0.0000 0.0000 0.0000 7.8391
#
#
#
# Elastic Compliance Matrix: (Units=1/GPa)
#
#
# Indices 1 2 3 4 5 6 
#
# 1 0.024796 -0.000679 -0.009061 0.000000 0.000000 0.000000
# 2 -0.000679 0.023999 -0.000568 0.000000 0.000000 0.000000
# 3 -0.009061 -0.000568 0.010575 0.000000 0.000000 0.000000
# 4 0.000000 0.000000 0.000000 0.140858 0.000000 0.000000
# 5 0.000000 0.000000 0.000000 0.000000 0.042566 0.000000
# 6 0.000000 0.000000 0.000000 0.000000 0.000000 0.127566
#
#
# Mechanical properties :
#
#
# Convention : Reuss Voigt Hill
#
# Bulk Modulus (GPa) = 25.80330 39.48462 32.64396
# Shear Modulus (GPa) = 12.37947 19.73779 16.05863
#
# Velocity S-wave (km/s) = 2.54696 3.21603 2.90085
# Velocity P-wave (km/s) = 4.70857 5.87205 5.32219
#
# Compressibility (1/GPa) = 0.03875473
#
# Stress axis : x y z
#
# Youngs Moduli (GPa) = 40.32955 41.66755 94.56308
#
# Poissons Ratio (x) = 0.02829 0.85685
# Poissons Ratio (y) = 0.02738 0.05368
# Poissons Ratio (z) = 0.36543 0.02365
#
# Static dielectric constant tensor:
#      x y z
#    x 1.681470 0.000000 0.000000 
#    y 0.000000 1.755280 0.000000 
#    z 0.000000 0.000000 1.692080 
# 
# From -- ./inp_files/33711.got.cif
#   From: 2010.05.17/outbox.cif.g08.bks.cpg/sg51_17_cif.got.tgz:33711.got - 2010.06.03 11:52:47.
