data_PCOD9403956
_publ_section_title
;
Structure prediction by ZEFSAII (Michael W. Deem and Ramdas Pophale) SiO2 
 PCOD9403956
Probable space group: P M M A
;
_chemical_formula_sum "Si O2"
_cell_formula_units_Z 48
_cell_length_a 17.307054
_cell_length_b 14.829466
_cell_length_c 9.948182
_cell_angle_alpha 90.000000
_cell_angle_beta 90.000000
_cell_angle_gamma 90.000000
_cell_volume 2553.244372
_symmetry_space_group_name_H-M "P M M A"
_symmetry_group_IT_number 51
_symmetry_cell_setting 'orthorhombic'
loop_
_space_group_symop_operation_xyz
x,y,z
1/2-x,-y,z
1/2+x,-y,-z
-x,y,-z
-x,-y,-z
1/2+x,y,-z
1/2-x,y,z
x,-y,z
loop_
_atom_site_type_symbol
_atom_site_label
_atom_site_fract_x
_atom_site_fract_y
_atom_site_fract_z
Si Si1 0.343033 0.705708 0.924489
Si Si2 0.335101 0.392815 0.474193
Si Si3 0.159539 0.096970 0.898026
Si Si4 0.840160 0.899875 0.776075
Si Si5 0.442221 0.393894 0.720847
Si Si6 0.599667 0.710773 0.768981
O O1 0.250000 0.704667 0.924064
O O2 0.370426 0.803276 0.863695
O O3 0.379672 0.627399 0.835855
O O4 0.372063 0.699831 0.077728
O O5 0.250000 0.372726 0.531796
O O6 0.339592 0.500000 0.451175
O O7 0.401935 0.369847 0.579717
O O8 0.346293 0.341678 0.335308
O O9 0.250000 0.095729 0.858929
O O10 0.124973 0.000000 0.853481
O O11 0.157472 0.096674 0.060963
O O12 0.750000 0.881920 0.740957
O O13 0.893171 0.816747 0.734860
O O14 0.860911 0.000000 0.726788
O O15 0.462461 0.500000 0.718671
O O16 0.516237 0.333306 0.750859
#
# Coordination Sequence:
#
# PCOD9403956 Si02
#       6
#     8   8   8   8   8   8
#     4  10  20  34  54  80 107 140 183 223 261 313
#     4  10  21  38  59  79  99 133 183 227 263 314
#     4   7  11  23  45  72 100 129 164 209 257 302
#     4   8  14  27  50  80 110 137 168 211 263 314
#     4  11  24  39  52  72 110 151 176 212 280 336
#     4  11  20  34  57  84 108 134 176 225 267 310
#
# _framework density 18.799609
#
# number of rings (size 3 to 8) (size 9 to 14) (size 15 to 20)
#    0.000    2.500    0.000    5.500    0.000    4.333 
#    0.000    0.833    0.000    7.000    0.000    2.333 
#    0.000    0.000    0.000    0.000    0.000    0.000 
#
# Total GULP energy -267456.758828 kJ/mol
# GULP energy per Si atom -5572.015809 kJ/mol
# Density = 1.875682 g / cm^3
# Si number density = 18.799609 Si / 1000 Ang^3
#
#
#
# Elastic Constant Matrix: (Units=GPa)
#
#
# Indices 1 2 3 4 5 6 
#
# 1 46.3151 23.0298 2.0069 0.0000 0.0000 0.0000
# 2 23.0298 44.5464 7.6981 0.0000 0.0000 0.0000
# 3 2.0069 7.6981 33.7280 0.0000 0.0000 0.0000
# 4 0.0000 0.0000 0.0000 -18.7672 0.0000 0.0000
# 5 0.0000 0.0000 0.0000 0.0000 22.0545 0.0000
# 6 0.0000 0.0000 0.0000 0.0000 0.0000 11.6006
#
#
#
# Elastic Compliance Matrix: (Units=1/GPa)
#
#
# Indices 1 2 3 4 5 6 
#
# 1 0.029164 -0.015384 0.001776 0.000000 0.000000 0.000000
# 2 -0.015384 0.031486 -0.006271 0.000000 0.000000 0.000000
# 3 0.001776 -0.006271 0.030975 0.000000 0.000000 0.000000
# 4 0.000000 0.000000 0.000000 -0.053284 0.000000 0.000000
# 5 0.000000 0.000000 0.000000 0.000000 0.045342 0.000000
# 6 0.000000 0.000000 0.000000 0.000000 0.000000 0.086203
#
#
# Mechanical properties :
#
#
# Convention : Reuss Voigt Hill
#
# Bulk Modulus (GPa) = 19.28052 21.11768 20.19910
# Shear Modulus (GPa) = 22.03308 9.10122 15.56715
#
# Velocity S-wave (km/s) = 3.42716 2.20265 2.88072
# Velocity P-wave (km/s) = 5.09300 4.21027 4.67252
#
# Compressibility (1/GPa) = 0.05186582
#
# Stress axis : x y z
#
# Youngs Moduli (GPa) = 34.28886 31.76058 32.28455
#
# Poissons Ratio (x) = 0.48861 -0.05733
# Poissons Ratio (y) = 0.52751 0.20245
# Poissons Ratio (z) = -0.06089 0.19917
#
# Static dielectric constant tensor:
#      x y z
#    x 1.667870 0.000000 0.000000 
#    y 0.000000 1.702550 0.000000 
#    z 0.000000 0.000000 1.623250 
# 
# From -- ./inp_files/9588.got.cif
#   From: 2010.05.17/outbox.cif.g08.bks.cpg/sg51_5_cif.got.tgz:9588.got - 2010.06.03 11:52:47.
