data_PCOD9403959
_publ_section_title
;
Structure prediction by ZEFSAII (Michael W. Deem and Ramdas Pophale) SiO2 
 PCOD9403959
Probable space group: P M M A
;
_chemical_formula_sum "Si O2"
_cell_formula_units_Z 48
_cell_length_a 9.331948
_cell_length_b 8.733753
_cell_length_c 32.195184
_cell_angle_alpha 90.000000
_cell_angle_beta 90.000000
_cell_angle_gamma 90.000000
_cell_volume 2624.001791
_symmetry_space_group_name_H-M "P M M A"
_symmetry_group_IT_number 51
_symmetry_cell_setting 'orthorhombic'
loop_
_space_group_symop_operation_xyz
x,y,z
1/2-x,-y,z
1/2+x,-y,-z
-x,y,-z
-x,-y,-z
1/2+x,y,-z
1/2-x,y,z
x,-y,z
loop_
_atom_site_type_symbol
_atom_site_label
_atom_site_fract_x
_atom_site_fract_y
_atom_site_fract_z
Si Si1 0.417308 0.682857 0.880368
Si Si2 0.075967 0.822770 0.793080
Si Si3 0.582572 0.684553 0.294199
Si Si4 0.415789 0.815030 0.041370
Si Si5 0.584936 0.687017 0.623535
Si Si6 0.584691 0.312939 0.458766
O O1 0.250000 0.730668 0.885038
O O2 0.422430 0.500000 0.881577
O O3 0.469603 0.739302 0.835248
O O4 0.508482 0.751506 0.917705
O O5 0.250000 0.812444 0.792501
O O6 0.028566 0.749295 0.749680
O O7 0.035539 0.000000 0.794911
O O8 0.750000 0.728225 0.299758
O O9 0.577798 0.500000 0.292184
O O10 0.491422 0.735656 0.333873
O O11 0.250000 0.767838 0.039218
O O12 0.420789 0.000000 0.042807
O O13 0.500000 0.765181 0.000000
O O14 0.750000 0.735680 0.621454
O O15 0.583743 0.500000 0.623469
O O16 0.496436 0.736130 0.583023
O O17 0.500000 0.264387 0.500000
O O18 0.750000 0.263911 0.459332
O O19 0.584776 0.500000 0.458742
#
# Coordination Sequence:
#
# PCOD9403959 Si02
#       6
#     8   8   8   8   8   8
#     4  10  20  34  54  80 108 138 172 210 253 301
#     4   9  17  30  50  74  98 126 162 203 245 291
#     4   9  16  27  44  65  89 118 154 195 237 283
#     4  10  21  37  57  80 106 138 175 213 254 300
#     4   9  16  25  37  55  81 114 151 190 234 283
#     4   9  15  22  33  51  78 113 151 189 230 278
#
# _framework density 18.292670999999999
#
# number of rings (size 3 to 8) (size 9 to 14) (size 15 to 20)
#    0.000    2.667    0.000    2.500    0.000    8.333 
#    0.000    0.833    0.000    3.500    0.000    0.000 
#    0.000    0.667    0.000    1.833    0.000    3.333 
#
# Total GULP energy -267737.215874 kJ/mol
# GULP energy per Si atom -5577.858664 kJ/mol
# Density = 1.825104 g / cm^3
# Si number density = 18.292671 Si / 1000 Ang^3
#
#
#
# Elastic Constant Matrix: (Units=GPa)
#
#
# Indices 1 2 3 4 5 6 
#
# 1 129.2094 24.4722 112.0251 0.0000 0.0000 0.0000
# 2 24.4722 8.2391 32.8421 0.0000 0.0000 0.0000
# 3 112.0251 32.8421 222.5692 0.0000 0.0000 0.0000
# 4 0.0000 0.0000 0.0000 -179.0332 0.0000 0.0000
# 5 0.0000 0.0000 0.0000 0.0000 33.1379 0.0000
# 6 0.0000 0.0000 0.0000 0.0000 0.0000 11.8956
#
#
#
# Elastic Compliance Matrix: (Units=1/GPa)
#
#
# Indices 1 2 3 4 5 6 
#
# 1 0.018438 -0.043159 -0.002912 0.000000 0.000000 0.000000
# 2 -0.043159 0.395758 -0.036675 0.000000 0.000000 0.000000
# 3 -0.002912 -0.036675 0.011370 0.000000 0.000000 0.000000
# 4 0.000000 0.000000 0.000000 -0.005586 0.000000 0.000000
# 5 0.000000 0.000000 0.000000 0.000000 0.030177 0.000000
# 6 0.000000 0.000000 0.000000 0.000000 0.000000 0.084065
#
#
# Mechanical properties :
#
#
# Convention : Reuss Voigt Hill
#
# Bulk Modulus (GPa) = 3.84504 77.63294 40.73899
# Shear Modulus (GPa) = 6.35804 -14.08806 -3.86501
#
# Velocity S-wave (km/s) = 1.86635 -2.77816 -1.45515
# Velocity P-wave (km/s) = 2.59825 5.67808 4.41540
#
# Compressibility (1/GPa) = 0.26007508
#
# Stress axis : x y z
#
# Youngs Moduli (GPa) = 54.23457 2.52680 87.94814
#
# Poissons Ratio (x) = 0.10905 0.25611
# Poissons Ratio (y) = 2.34073 3.22545
# Poissons Ratio (z) = 0.15793 0.09267
#
# Static dielectric constant tensor:
#      x y z
#    x 1.619420 0.000000 0.000000 
#    y 0.000000 1.617880 0.000000 
#    z 0.000000 0.000000 1.608170 
# 
# From -- ./inp_files/37036.got.cif
#   From: 2010.05.17/outbox.cif.g08.bks.cpg/sg51_19_cif.got.tgz:37036.got - 2010.06.03 11:52:47.
