data_PCOD9403815
_publ_section_title
;
Structure prediction by ZEFSAII (Michael W. Deem and Ramdas Pophale) SiO2 
 PCOD9403815
Probable space group: P M M A
;
_chemical_formula_sum "Si O2"
_cell_formula_units_Z 64
_cell_length_a 9.459807
_cell_length_b 23.537540
_cell_length_c 15.516996
_cell_angle_alpha 90.000000
_cell_angle_beta 90.000000
_cell_angle_gamma 90.000000
_cell_volume 3455.023417
_symmetry_space_group_name_H-M "P M M A"
_symmetry_group_IT_number 51
_symmetry_cell_setting 'orthorhombic'
loop_
_space_group_symop_operation_xyz
x,y,z
1/2-x,-y,z
1/2+x,-y,-z
-x,y,-z
-x,-y,-z
1/2+x,y,-z
1/2-x,y,z
x,-y,z
loop_
_atom_site_type_symbol
_atom_site_label
_atom_site_fract_x
_atom_site_fract_y
_atom_site_fract_z
Si Si1 0.415880 0.860761 0.588117
Si Si2 0.582847 0.934234 0.725490
Si Si3 0.583698 0.563047 0.248366
Si Si4 0.582832 0.238027 0.912683
Si Si5 0.906718 0.432805 0.577245
Si Si6 0.918612 0.313024 0.223357
Si Si7 0.414145 0.725233 0.586819
Si Si8 0.584514 0.101836 0.914937
O O1 0.500000 0.873173 0.500000
O O2 0.250000 0.875084 0.579804
O O3 0.489676 0.894612 0.664986
O O4 0.425661 0.793025 0.603786
O O5 0.750000 0.918734 0.719103
O O6 0.541124 0.926897 0.825492
O O7 0.568227 0.000000 0.700293
O O8 0.750000 0.564597 0.272818
O O9 0.557150 0.500000 0.209913
O O10 0.489781 0.568392 0.333508
O O11 0.558307 0.621103 0.196626
O O12 0.750000 0.250572 0.918750
O O13 0.509836 0.271021 0.834439
O O14 0.567817 0.169912 0.902481
O O15 0.500000 0.253748 0.000000
O O16 0.750000 0.407650 0.582696
O O17 0.890171 0.500000 0.558104
O O18 0.000000 0.408593 0.500000
O O19 0.750000 0.300443 0.215971
O O20 0.957239 0.305422 0.324444
O O21 0.500000 0.714162 0.500000
O O22 0.250000 0.711354 0.571684
O O23 0.750000 0.089951 0.928696
O O24 0.500000 0.084709 0.000000
#
# Coordination Sequence:
#
# PCOD9403815 Si02
#       8
#     8   8   8   8   8   8   8   8
#     4  10  20  35  55  76 100 134 177 223 269 313
#     4  10  21  36  53  76 108 143 178 216 256 301
#     4   9  18  32  48  67  95 132 169 204 248 303
#     4  10  20  35  57  83 108 134 167 210 260 312
#     4   9  16  26  41  60  84 118 161 206 246 286
#     4  10  20  34  53  78 107 136 169 213 261 308
#     4   9  19  34  52  76 105 137 173 216 264 311
#     4   9  19  35  55  80 109 140 172 208 254 307
#
# _framework density 18.523752999999999
#
# number of rings (size 3 to 8) (size 9 to 14) (size 15 to 20)
#    0.000    2.500    0.000    1.875    0.000    5.250 
#    0.000    1.250    0.000    0.375    0.000    0.000 
#    0.000    0.000    0.000    0.000    0.000    0.000 
#
# Total GULP energy -357009.997318 kJ/mol
# GULP energy per Si atom -5578.281208 kJ/mol
# Density = 1.848159 g / cm^3
# Si number density = 18.523753 Si / 1000 Ang^3
#
#
#
# Elastic Constant Matrix: (Units=GPa)
#
#
# Indices 1 2 3 4 5 6 
#
# 1 58.9221 35.7008 32.9435 0.0000 0.0000 0.0000
# 2 35.7008 53.3038 35.1204 0.0000 0.0000 0.0000
# 3 32.9435 35.1204 70.0089 0.0000 0.0000 0.0000
# 4 0.0000 0.0000 0.0000 -10.5839 0.0000 0.0000
# 5 0.0000 0.0000 0.0000 0.0000 34.0222 0.0000
# 6 0.0000 0.0000 0.0000 0.0000 0.0000 1.8389
#
#
#
# Elastic Compliance Matrix: (Units=1/GPa)
#
#
# Indices 1 2 3 4 5 6 
#
# 1 0.030196 -0.016225 -0.006070 0.000000 0.000000 0.000000
# 2 -0.016225 0.036741 -0.010796 0.000000 0.000000 0.000000
# 3 -0.006070 -0.010796 0.022556 0.000000 0.000000 0.000000
# 4 0.000000 0.000000 0.000000 -0.094483 0.000000 0.000000
# 5 0.000000 0.000000 0.000000 0.000000 0.029393 0.000000
# 6 0.000000 0.000000 0.000000 0.000000 0.000000 0.543792
#
#
# Mechanical properties :
#
#
# Convention : Reuss Voigt Hill
#
# Bulk Modulus (GPa) = 42.89870 43.30714 43.10292
# Shear Modulus (GPa) = 7.78639 10.28678 9.03659
#
# Velocity S-wave (km/s) = 2.05246 2.35910 2.21110
# Velocity P-wave (km/s) = 5.36897 5.55432 5.46243
#
# Compressibility (1/GPa) = 0.02331073
#
# Stress axis : x y z
#
# Youngs Moduli (GPa) = 33.11734 27.21791 44.33384
#
# Poissons Ratio (x) = 0.44160 0.26909
# Poissons Ratio (y) = 0.53732 0.47864
# Poissons Ratio (z) = 0.20101 0.29385
#
# Static dielectric constant tensor:
#      x y z
#    x 1.630660 0.000000 0.000000 
#    y 0.000000 1.667010 0.000000 
#    z 0.000000 0.000000 1.607560 
# 
# From -- ./inp_files/22299.got.cif
#   From: 2010.05.17/outbox.cif.g08.bks.cpg/sg51_12_cif.got.tgz:22299.got - 2010.06.03 11:52:47.
