data_PCOD9403180
_publ_section_title
;
Structure prediction by ZEFSAII (Michael W. Deem and Ramdas Pophale) SiO2 
 PCOD9403180
Probable space group: P M M A
;
_chemical_formula_sum "Si O2"
_cell_formula_units_Z 48
_cell_length_a 9.283791
_cell_length_b 7.479108
_cell_length_c 31.833764
_cell_angle_alpha 90.000000
_cell_angle_beta 90.000000
_cell_angle_gamma 90.000000
_cell_volume 2210.360708
_symmetry_space_group_name_H-M "P M M A"
_symmetry_group_IT_number 51
_symmetry_cell_setting 'orthorhombic'
loop_
_space_group_symop_operation_xyz
x,y,z
1/2-x,-y,z
1/2+x,-y,-z
-x,y,-z
-x,-y,-z
1/2+x,y,-z
1/2-x,y,z
x,-y,z
loop_
_atom_site_type_symbol
_atom_site_label
_atom_site_fract_x
_atom_site_fract_y
_atom_site_fract_z
Si Si1 0.586375 0.214366 0.374319
Si Si2 0.086212 0.714346 0.791874
Si Si3 0.086452 0.214211 0.293254
Si Si4 0.416217 0.281326 0.125669
Si Si5 0.913633 0.714381 0.540562
Si Si6 0.916190 0.718394 0.041845
O O1 0.750000 0.283174 0.376280
O O2 0.499877 0.283244 0.333793
O O3 0.500047 0.249908 0.416890
O O4 0.595199 0.000000 0.369922
O O5 0.250000 0.782865 0.790150
O O6 0.094553 0.500000 0.796060
O O7 0.000393 0.751156 0.749278
O O8 0.999173 0.779404 0.832570
O O9 0.250000 0.283331 0.291120
O O10 0.095583 0.000000 0.297814
O O11 0.250000 0.224560 0.125459
O O12 0.415901 0.500000 0.125867
O O13 0.500245 0.225495 0.083780
O O14 0.750000 0.783139 0.542541
O O15 0.904882 0.500000 0.536201
O O16 0.000000 0.783079 0.500000
O O17 0.750000 0.775552 0.041853
O O18 0.915763 0.500000 0.041769
O O19 0.000000 0.775293 0.000000
#
# Coordination Sequence:
#
# PCOD9403180 Si02
#       6
#     8   8   8   8   8   8
#     4  10  21  37  57  80 105 135 171 210 253 300
#     4  10  20  33  50  73 100 131 167 206 250 301
#     4  10  21  37  56  77 102 133 169 210 255 301
#     4   9  16  26  40  59  86 120 157 199 246 294
#     4  10  21  37  57  81 109 141 175 211 252 297
#     4   9  15  22  33  51  78 114 155 196 240 293
#
# _framework density 21.715913
#
# number of rings (size 3 to 8) (size 9 to 14) (size 15 to 20)
#    0.000    2.333    0.000    3.000    0.000    9.000 
#    0.000    0.000    0.000    0.000    0.000    0.000 
#    0.000    0.667    0.000    2.500    0.000    5.500 
#
# Total GULP energy -268345.231947 kJ/mol
# GULP energy per Si atom -5590.525666 kJ/mol
# Density = 2.166649 g / cm^3
# Si number density = 21.715913 Si / 1000 Ang^3
#
#
#
# Elastic Constant Matrix: (Units=GPa)
#
#
# Indices 1 2 3 4 5 6 
#
# 1 287.6729 8.8371 173.2679 0.0000 0.0000 0.0000
# 2 8.8371 62.5314 -1.5543 0.0000 0.0000 0.0000
# 3 173.2679 -1.5543 264.3825 0.0000 0.0000 0.0000
# 4 0.0000 0.0000 0.0000 25.3498 0.0000 0.0000
# 5 0.0000 0.0000 0.0000 0.0000 48.4338 0.0000
# 6 0.0000 0.0000 0.0000 0.0000 0.0000 9.8115
#
#
#
# Elastic Compliance Matrix: (Units=1/GPa)
#
#
# Indices 1 2 3 4 5 6 
#
# 1 0.005795 -0.000913 -0.003803 0.000000 0.000000 0.000000
# 2 -0.000913 0.016138 0.000694 0.000000 0.000000 0.000000
# 3 -0.003803 0.000694 0.006279 0.000000 0.000000 0.000000
# 4 0.000000 0.000000 0.000000 0.039448 0.000000 0.000000
# 5 0.000000 0.000000 0.000000 0.000000 0.020647 0.000000
# 6 0.000000 0.000000 0.000000 0.000000 0.000000 0.101922
#
#
# Mechanical properties :
#
#
# Convention : Reuss Voigt Hill
#
# Bulk Modulus (GPa) = 49.58856 108.40980 78.99918
# Shear Modulus (GPa) = 24.39062 45.65474 35.02268
#
# Velocity S-wave (km/s) = 3.35501 4.59013 4.02028
# Velocity P-wave (km/s) = 6.15571 8.83870 7.61628
#
# Compressibility (1/GPa) = 0.02016594
#
# Stress axis : x y z
#
# Youngs Moduli (GPa) = 172.56493 61.96440 159.26211
#
# Poissons Ratio (x) = 0.05660 0.60570
# Poissons Ratio (y) = 0.15764 -0.11046
# Poissons Ratio (z) = 0.65630 -0.04298
#
# Static dielectric constant tensor:
#      x y z
#    x 1.756650 0.000000 0.000000 
#    y 0.000000 1.855120 0.000000 
#    z 0.000000 0.000000 1.721190 
# 
# From -- ./inp_files/34537.got.cif
#   From: 2010.05.17/outbox.cif.g08.bks.cpg/sg51_18_cif.got.tgz:34537.got - 2010.06.03 11:52:47.
