data_PCOD9403498
_publ_section_title
;
Structure prediction by ZEFSAII (Michael W. Deem and Ramdas Pophale) SiO2 
 PCOD9403498
Probable space group: P M M A
;
_chemical_formula_sum "Si O2"
_cell_formula_units_Z 56
_cell_length_a 20.539502
_cell_length_b 7.557356
_cell_length_c 14.699831
_cell_angle_alpha 90.000000
_cell_angle_beta 90.000000
_cell_angle_gamma 90.000000
_cell_volume 2281.771399
_symmetry_space_group_name_H-M "P M M A"
_symmetry_group_IT_number 51
_symmetry_cell_setting 'orthorhombic'
loop_
_space_group_symop_operation_xyz
x,y,z
1/2-x,-y,z
1/2+x,-y,-z
-x,y,-z
-x,-y,-z
1/2+x,y,-z
1/2-x,y,z
x,-y,z
loop_
_atom_site_type_symbol
_atom_site_label
_atom_site_fract_x
_atom_site_fract_y
_atom_site_fract_z
Si Si1 0.935999 0.794678 0.456659
Si Si2 0.750000 0.697538 0.660181
Si Si3 0.750000 0.191382 0.461594
Si Si4 0.545611 0.284421 0.824369
Si Si5 0.826239 0.284473 0.939091
Si Si6 0.099847 0.283229 0.876097
Si Si7 0.388292 0.715151 0.351480
Si Si8 0.149600 0.302893 0.687318
O O1 0.891025 0.784423 0.546037
O O2 0.917619 0.691872 0.366808
O O3 0.000000 0.715308 0.500000
O O4 0.945116 0.000000 0.432680
O O5 0.750000 0.500000 0.700152
O O6 0.750000 0.684352 0.549105
O O7 0.681464 0.777109 0.686773
O O8 0.808419 0.208686 0.389636
O O9 0.750000 0.000000 0.504638
O O10 0.544431 0.500000 0.827426
O O11 0.613124 0.230750 0.873856
O O12 0.476509 0.227351 0.868825
O O13 0.555884 0.230721 0.718963
O O14 0.750000 0.226847 0.925829
O O15 0.824013 0.500000 0.934993
O O16 0.856580 0.233923 0.037592
O O17 0.098305 0.500000 0.873658
O O18 0.137069 0.222797 0.784912
O O19 0.387133 0.500000 0.356327
O O20 0.176192 0.500000 0.698638
#
# Coordination Sequence:
#
# PCOD9403498 Si02
#       8
#     8   4   4   8   8   8   8   8
#     4  11  23  37  53  77 111 148 188 235 284 338
#     4  10  20  34  52  77 106 142 184 231 282 335
#     4  12  24  38  56  79 112 150 190 233 290 345
#     4   9  17  30  49  75 108 146 185 228 282 340
#     4   9  17  28  46  74 111 148 179 222 284 346
#     4   9  18  31  49  75 108 146 186 228 278 338
#     4  10  20  33  53  78 108 142 184 231 281 338
#     4  11  22  36  57  81 110 148 193 237 281 336
#
# _framework density 24.542335000000001
#
# number of rings (size 3 to 8) (size 9 to 14) (size 15 to 20)
#    0.000    2.000    1.429    2.786    2.000    4.000 
#    0.000    0.000    0.000    0.000    0.000    2.000 
#    0.000    8.000    0.000    0.000    0.000    0.000 
#
# Total GULP energy -312376.296249 kJ/mol
# GULP energy per Si atom -5578.148147 kJ/mol
# Density = 2.448648 g / cm^3
# Si number density = 24.542335 Si / 1000 Ang^3
#
#
#
# Elastic Constant Matrix: (Units=GPa)
#
#
# Indices 1 2 3 4 5 6 
#
# 1 119.9417 1.4360 16.6166 0.0000 0.0000 0.0000
# 2 1.4360 71.8552 0.5768 0.0000 0.0000 0.0000
# 3 16.6166 0.5768 107.3843 0.0000 0.0000 0.0000
# 4 0.0000 0.0000 0.0000 -3.9436 0.0000 0.0000
# 5 0.0000 0.0000 0.0000 0.0000 37.9900 0.0000
# 6 0.0000 0.0000 0.0000 0.0000 0.0000 7.2253
#
#
#
# Elastic Compliance Matrix: (Units=1/GPa)
#
#
# Indices 1 2 3 4 5 6 
#
# 1 0.008522 -0.000160 -0.001318 0.000000 0.000000 0.000000
# 2 -0.000160 0.013920 -0.000050 0.000000 0.000000 0.000000
# 3 -0.001318 -0.000050 0.009517 0.000000 0.000000 0.000000
# 4 0.000000 0.000000 0.000000 -0.253577 0.000000 0.000000
# 5 0.000000 0.000000 0.000000 0.000000 0.026323 0.000000
# 6 0.000000 0.000000 0.000000 0.000000 0.000000 0.138403
#
#
# Mechanical properties :
#
#
# Convention : Reuss Voigt Hill
#
# Bulk Modulus (GPa) = 34.59769 37.38224 35.98996
# Shear Modulus (GPa) = -113.11463 26.95780 -43.07842
#
# Velocity S-wave (km/s) = -6.79630 3.31784 -4.19414
# Velocity P-wave (km/s) = 6.88901 5.47195 2.95941
#
# Compressibility (1/GPa) = 0.02890367
#
# Stress axis : x y z
#
# Youngs Moduli (GPa) = 117.34519 71.83666 105.08023
#
# Poissons Ratio (x) = 0.01147 0.13848
# Poissons Ratio (y) = 0.01874 0.00526
# Poissons Ratio (z) = 0.15464 0.00360
#
# Static dielectric constant tensor:
#      x y z
#    x 2.569080 0.000000 0.000000 
#    y 0.000000 1.911100 0.000000 
#    z 0.000000 0.000000 1.945810 
# 
# From -- ./inp_files/25867.got.cif
#   From: 2010.05.17/outbox.cif.g08.bks.cpg/sg51_13_cif.got.tgz:25867.got - 2010.06.03 11:52:47.
