data_PCOD9403316
_publ_section_title
;
Structure prediction by ZEFSAII (Michael W. Deem and Ramdas Pophale) SiO2 
 PCOD9403316
Probable space group: P M M A
;
_chemical_formula_sum "Si O2"
_cell_formula_units_Z 48
_cell_length_a 7.481125
_cell_length_b 9.422004
_cell_length_c 31.885402
_cell_angle_alpha 90.000000
_cell_angle_beta 90.000000
_cell_angle_gamma 90.000000
_cell_volume 2247.512379
_symmetry_space_group_name_H-M "P M M A"
_symmetry_group_IT_number 51
_symmetry_cell_setting 'orthorhombic'
loop_
_space_group_symop_operation_xyz
x,y,z
1/2-x,-y,z
1/2+x,-y,-z
-x,y,-z
-x,-y,-z
1/2+x,y,-z
1/2-x,y,z
x,-y,z
loop_
_atom_site_type_symbol
_atom_site_label
_atom_site_fract_x
_atom_site_fract_y
_atom_site_fract_z
Si Si1 0.036132 0.161934 0.547186
Si Si2 0.536016 0.661279 0.209566
Si Si3 0.968634 0.663005 0.372744
Si Si4 0.964027 0.661929 0.952785
Si Si5 0.468571 0.163589 0.709564
Si Si6 0.035469 0.839490 0.126106
O O1 0.250000 0.154428 0.551731
O O2 0.970712 0.262172 0.584358
O O3 0.000000 0.213152 0.500000
O O4 0.966892 0.000000 0.550775
O O5 0.750000 0.652373 0.214264
O O6 0.466738 0.500000 0.208440
O O7 0.470344 0.751018 0.249396
O O8 0.501245 0.744447 0.166687
O O9 0.750000 0.662124 0.372897
O O10 0.026221 0.500000 0.369693
O O11 0.023470 0.754891 0.332542
O O12 0.750000 0.654646 0.948240
O O13 0.033121 0.500000 0.949119
O O14 0.032714 0.761987 0.915828
O O15 0.000000 0.712919 0.000000
O O16 0.250000 0.162542 0.709893
O O17 0.526169 0.000000 0.710073
O O18 0.250000 0.848338 0.122292
O O19 0.967048 0.000000 0.130889
#
# Coordination Sequence:
#
# PCOD9403316 Si02
#       6
#     8   8   8   8   8   8
#     4   9  17  29  45  65  89 118 152 189 231 279
#     4  10  20  33  51  76 103 130 163 204 248 292
#     4   9  16  26  42  65  92 121 154 192 234 281
#     4   9  18  33  52  73  98 129 165 204 245 289
#     4   9  16  27  45  69  97 126 156 195 242 287
#     4  10  21  36  53  74 102 136 171 204 242 292
#
# _framework density 21.356943999999999
#
# number of rings (size 3 to 8) (size 9 to 14) (size 15 to 20)
#    0.000    2.667    0.000    2.000    0.000    7.333 
#    0.000    1.667    0.000    1.000    0.000    2.333 
#    0.000    0.000    0.000    0.000    0.000    0.000 
#
# Total GULP energy -268123.005112 kJ/mol
# GULP energy per Si atom -5585.895940 kJ/mol
# Density = 2.130833 g / cm^3
# Si number density = 21.356944 Si / 1000 Ang^3
#
#
#
# Elastic Constant Matrix: (Units=GPa)
#
#
# Indices 1 2 3 4 5 6 
#
# 1 60.4697 6.7075 -1.2011 0.0000 0.0000 0.0000
# 2 6.7075 213.6381 159.7187 0.0000 0.0000 0.0000
# 3 -1.2011 159.7187 238.7420 0.0000 0.0000 0.0000
# 4 0.0000 0.0000 0.0000 42.3869 0.0000 0.0000
# 5 0.0000 0.0000 0.0000 0.0000 18.0035 0.0000
# 6 0.0000 0.0000 0.0000 0.0000 0.0000 9.1816
#
#
#
# Elastic Compliance Matrix: (Units=1/GPa)
#
#
# Indices 1 2 3 4 5 6 
#
# 1 0.016685 -0.001174 0.000869 0.000000 0.000000 0.000000
# 2 -0.001174 0.009447 -0.006326 0.000000 0.000000 0.000000
# 3 0.000869 -0.006326 0.008425 0.000000 0.000000 0.000000
# 4 0.000000 0.000000 0.000000 0.023592 0.000000 0.000000
# 5 0.000000 0.000000 0.000000 0.000000 0.055545 0.000000
# 6 0.000000 0.000000 0.000000 0.000000 0.000000 0.108913
#
#
# Mechanical properties :
#
#
# Convention : Reuss Voigt Hill
#
# Bulk Modulus (GPa) = 46.95766 93.70001 70.32883
# Shear Modulus (GPa) = 20.57898 37.08938 28.83418
#
# Velocity S-wave (km/s) = 3.10751 4.17183 3.67837
# Velocity P-wave (km/s) = 5.90850 8.19598 7.14438
#
# Compressibility (1/GPa) = 0.02129578
#
# Stress axis : x y z
#
# Youngs Moduli (GPa) = 59.93538 105.85307 118.69307
#
# Poissons Ratio (x) = 0.12422 -0.10315
# Poissons Ratio (y) = 0.07034 0.75085
# Poissons Ratio (z) = -0.05209 0.66963
#
# Static dielectric constant tensor:
#      x y z
#    x 1.841610 0.000000 0.000000 
#    y 0.000000 1.752240 0.000000 
#    z 0.000000 0.000000 1.723810 
# 
# From -- ./inp_files/35295.got.cif
#   From: 2010.05.17/outbox.cif.g08.bks.cpg/sg51_18_cif.got.tgz:35295.got - 2010.06.03 11:52:47.
