data_PCOD9403139
_publ_section_title
;
Structure prediction by ZEFSAII (Michael W. Deem and Ramdas Pophale) SiO2 
 PCOD9403139
Probable space group: P M M A
;
_chemical_formula_sum "Si O2"
_cell_formula_units_Z 64
_cell_length_a 20.806380
_cell_length_b 7.752761
_cell_length_c 20.578422
_cell_angle_alpha 90.000000
_cell_angle_beta 90.000000
_cell_angle_gamma 90.000000
_cell_volume 3319.441283
_symmetry_space_group_name_H-M "P M M A"
_symmetry_group_IT_number 51
_symmetry_cell_setting 'orthorhombic'
loop_
_space_group_symop_operation_xyz
x,y,z
1/2-x,-y,z
1/2+x,-y,-z
-x,y,-z
-x,-y,-z
1/2+x,y,-z
1/2-x,y,z
x,-y,z
loop_
_atom_site_type_symbol
_atom_site_label
_atom_site_fract_x
_atom_site_fract_y
_atom_site_fract_z
Si Si1 0.569052 0.295984 0.234465
Si Si2 0.427367 0.701684 0.266912
Si Si3 0.411610 0.210775 0.051581
Si Si4 0.946451 0.208578 0.589158
Si Si5 0.944085 0.791695 0.089814
Si Si6 0.677812 0.294774 0.331189
Si Si7 0.321496 0.795378 0.164063
Si Si8 0.909942 0.208228 0.447620
O O1 0.565345 0.500000 0.249101
O O2 0.497883 0.222341 0.249442
O O3 0.581816 0.273547 0.158167
O O4 0.625477 0.223229 0.279935
O O5 0.429371 0.500000 0.251481
O O6 0.418143 0.726504 0.343607
O O7 0.369988 0.774341 0.223940
O O8 0.481292 0.261251 0.080283
O O9 0.356527 0.274577 0.099542
O O10 0.411378 0.000000 0.051471
O O11 0.408702 0.264468 0.976335
O O12 0.911058 0.263772 0.522901
O O13 0.021210 0.263987 0.582455
O O14 0.946074 0.000000 0.590445
O O15 0.942856 0.000000 0.091843
O O16 0.750000 0.223667 0.325689
O O17 0.682041 0.500000 0.319708
O O18 0.647509 0.269090 0.402397
O O19 0.250000 0.724797 0.175012
O O20 0.315675 0.000000 0.153814
O O21 0.909860 0.000000 0.447265
#
# Coordination Sequence:
#
# PCOD9403139 Si02
#       8
#     8   8   8   8   8   8   8   8
#     4  10  20  33  49  76 107 136 174 216 259 304
#     4  11  21  33  52  79 108 138 175 221 260 302
#     4   8  15  29  49  75 101 127 166 210 256 309
#     4   9  18  33  54  80 107 134 167 211 264 312
#     4   9  16  29  52  76 100 130 166 212 259 302
#     4  10  21  37  54  73 105 146 180 211 256 316
#     4  10  20  35  55  76 102 139 177 214 264 322
#     4   9  18  33  54  80 106 131 167 217 262 306
#
# _framework density 19.280353000000002
#
# number of rings (size 3 to 8) (size 9 to 14) (size 15 to 20)
#    0.000    2.500    2.500    1.875    0.000    2.000 
#    0.000    4.375    0.000    1.500    0.000    0.000 
#    0.000    0.000    0.000    0.000    0.000    0.000 
#
# Total GULP energy -356969.264624 kJ/mol
# GULP energy per Si atom -5577.644760 kJ/mol
# Density = 1.923647 g / cm^3
# Si number density = 19.280353 Si / 1000 Ang^3
#
#
#
# Elastic Constant Matrix: (Units=GPa)
#
#
# Indices 1 2 3 4 5 6 
#
# 1 148.0974 9.1990 89.0129 0.0000 0.0000 0.0000
# 2 9.1990 24.5849 -9.0420 0.0000 0.0000 0.0000
# 3 89.0129 -9.0420 140.5468 0.0000 0.0000 0.0000
# 4 0.0000 0.0000 0.0000 26.3548 0.0000 0.0000
# 5 0.0000 0.0000 0.0000 0.0000 20.5599 0.0000
# 6 0.0000 0.0000 0.0000 0.0000 0.0000 16.9415
#
#
#
# Elastic Compliance Matrix: (Units=1/GPa)
#
#
# Indices 1 2 3 4 5 6 
#
# 1 0.012130 -0.007543 -0.008167 0.000000 0.000000 0.000000
# 2 -0.007543 0.046351 0.007759 0.000000 0.000000 0.000000
# 3 -0.008167 0.007759 0.012787 0.000000 0.000000 0.000000
# 4 0.000000 0.000000 0.000000 0.037944 0.000000 0.000000
# 5 0.000000 0.000000 0.000000 0.000000 0.048638 0.000000
# 6 0.000000 0.000000 0.000000 0.000000 0.000000 0.059027
#
#
# Mechanical properties :
#
#
# Convention : Reuss Voigt Hill
#
# Bulk Modulus (GPa) = 18.06169 54.61879 36.34024
# Shear Modulus (GPa) = 19.90175 27.70851 23.80513
#
# Velocity S-wave (km/s) = 3.21632 3.79507 3.51762
# Velocity P-wave (km/s) = 4.81469 6.89882 5.94873
#
# Compressibility (1/GPa) = 0.05536581
#
# Stress axis : x y z
#
# Youngs Moduli (GPa) = 82.44156 21.57441 78.20478
#
# Poissons Ratio (x) = 0.16273 0.63873
# Poissons Ratio (y) = 0.62182 -0.60678
# Poissons Ratio (z) = 0.67334 -0.16739
#
# Static dielectric constant tensor:
#      x y z
#    x 1.675710 0.000000 0.000000 
#    y 0.000000 1.713350 0.000000 
#    z 0.000000 0.000000 1.669390 
# 
# From -- ./inp_files/30642.got.cif
#   From: 2010.05.17/outbox.cif.g08.bks.cpg/sg51_16_cif.got.tgz:30642.got - 2010.06.03 11:52:47.
