data_PCOD9403756
_publ_section_title
;
Structure prediction by ZEFSAII (Michael W. Deem and Ramdas Pophale) SiO2 
 PCOD9403756
Probable space group: P M M A
;
_chemical_formula_sum "Si O2"
_cell_formula_units_Z 64
_cell_length_a 17.821344
_cell_length_b 9.247288
_cell_length_c 22.941806
_cell_angle_alpha 90.000000
_cell_angle_beta 90.000000
_cell_angle_gamma 90.000000
_cell_volume 3780.788993
_symmetry_space_group_name_H-M "P M M A"
_symmetry_group_IT_number 51
_symmetry_cell_setting 'orthorhombic'
loop_
_space_group_symop_operation_xyz
x,y,z
1/2-x,-y,z
1/2+x,-y,-z
-x,y,-z
-x,-y,-z
1/2+x,y,-z
1/2-x,y,z
x,-y,z
loop_
_atom_site_type_symbol
_atom_site_label
_atom_site_fract_x
_atom_site_fract_y
_atom_site_fract_z
Si Si1 0.121310 0.332132 0.427172
Si Si2 0.043610 0.670304 0.621985
Si Si3 0.072053 0.334520 0.043326
Si Si4 0.474310 0.172580 0.866517
Si Si5 0.834763 0.672078 0.705587
Si Si6 0.837616 0.168908 0.456941
Si Si7 0.015428 0.827305 0.264036
Si Si8 0.335980 0.826459 0.948831
O O1 0.136540 0.500000 0.442457
O O2 0.158023 0.303079 0.364165
O O3 0.149119 0.230254 0.478264
O O4 0.032295 0.315408 0.416475
O O5 0.055202 0.500000 0.631939
O O6 0.111301 0.741277 0.587179
O O7 0.026965 0.750547 0.682632
O O8 0.093128 0.500000 0.055339
O O9 0.041454 0.253596 0.100182
O O10 0.135832 0.250659 0.007649
O O11 0.000000 0.335033 0.000000
O O12 0.477316 0.203965 0.798075
O O13 0.395760 0.211841 0.898068
O O14 0.484280 0.000000 0.874199
O O15 0.750000 0.705630 0.724360
O O16 0.848552 0.500000 0.714133
O O17 0.900153 0.763742 0.735293
O O18 0.750000 0.183430 0.442567
O O19 0.858148 0.000000 0.454633
O O20 0.017096 0.000000 0.272808
O O21 0.250000 0.788263 0.935026
O O22 0.340092 0.000000 0.956596
#
# Coordination Sequence:
#
# PCOD9403756 Si02
#       8
#     8   8   8   8   8   8   8   8
#     4   9  18  33  53  75  97 125 162 202 249 310
#     4  10  21  37  55  73  97 133 173 209 250 305
#     4   9  17  29  48  74 101 128 158 196 242 287
#     4   9  18  33  52  74 101 135 173 207 245 298
#     4   9  18  33  52  74 101 132 166 206 253 306
#     4  11  23  35  49  74 104 130 161 207 260 308
#     4  10  20  34  53  76 102 133 171 214 254 293
#     4   9  17  31  52  76 102 133 168 206 249 297
#
# _framework density 16.927682999999998
#
# number of rings (size 3 to 8) (size 9 to 14) (size 15 to 20)
#    0.000    2.500    0.000    3.000    0.000    8.500 
#    0.000    1.250    0.000    3.000    0.000    0.000 
#    0.000    0.000    0.000    0.000    0.000    0.000 
#
# Total GULP energy -356974.307180 kJ/mol
# GULP energy per Si atom -5577.723550 kJ/mol
# Density = 1.688915 g / cm^3
# Si number density = 16.927683 Si / 1000 Ang^3
#
#
#
# Elastic Constant Matrix: (Units=GPa)
#
#
# Indices 1 2 3 4 5 6 
#
# 1 87.7314 48.1900 37.8669 0.0000 0.0000 0.0000
# 2 48.1900 58.5002 29.8939 0.0000 0.0000 0.0000
# 3 37.8669 29.8939 43.4240 0.0000 0.0000 0.0000
# 4 0.0000 0.0000 0.0000 12.7845 0.0000 0.0000
# 5 0.0000 0.0000 0.0000 0.0000 13.6828 0.0000
# 6 0.0000 0.0000 0.0000 0.0000 0.0000 20.4762
#
#
#
# Elastic Compliance Matrix: (Units=1/GPa)
#
#
# Indices 1 2 3 4 5 6 
#
# 1 0.023920 -0.013954 -0.011253 0.000000 0.000000 0.000000
# 2 -0.013954 0.034511 -0.011590 0.000000 0.000000 0.000000
# 3 -0.011253 -0.011590 0.040820 0.000000 0.000000 0.000000
# 4 0.000000 0.000000 0.000000 0.078220 0.000000 0.000000
# 5 0.000000 0.000000 0.000000 0.000000 0.073084 0.000000
# 6 0.000000 0.000000 0.000000 0.000000 0.000000 0.048837
#
#
# Mechanical properties :
#
#
# Convention : Reuss Voigt Hill
#
# Bulk Modulus (GPa) = 38.97402 46.83969 42.90686
# Shear Modulus (GPa) = 13.10481 14.30236 13.70358
#
# Velocity S-wave (km/s) = 2.78540 2.90989 2.84832
# Velocity P-wave (km/s) = 5.78087 6.24664 6.01826
#
# Compressibility (1/GPa) = 0.02565811
#
# Stress axis : x y z
#
# Youngs Moduli (GPa) = 41.80530 28.97595 24.49786
#
# Poissons Ratio (x) = 0.40434 0.27567
# Poissons Ratio (y) = 0.58337 0.28392
# Poissons Ratio (z) = 0.47042 0.33582
#
# Static dielectric constant tensor:
#      x y z
#    x 1.571040 0.000000 0.000000 
#    y 0.000000 1.565550 0.000000 
#    z 0.000000 0.000000 1.549750 
# 
# From -- ./inp_files/33943.got.cif
#   From: 2010.05.17/outbox.cif.g08.bks.cpg/sg51_17_cif.got.tgz:33943.got - 2010.06.03 11:52:47.
