data_PCOD9403151
_publ_section_title
;
Structure prediction by ZEFSAII (Michael W. Deem and Ramdas Pophale) SiO2 
 PCOD9403151
Probable space group: P M M A
;
_chemical_formula_sum "Si O2"
_cell_formula_units_Z 40
_cell_length_a 9.398311
_cell_length_b 7.697844
_cell_length_c 27.153901
_cell_angle_alpha 90.000000
_cell_angle_beta 90.000000
_cell_angle_gamma 90.000000
_cell_volume 1964.495997
_symmetry_space_group_name_H-M "P M M A"
_symmetry_group_IT_number 51
_symmetry_cell_setting 'orthorhombic'
loop_
_space_group_symop_operation_xyz
x,y,z
1/2-x,-y,z
1/2+x,-y,-z
-x,y,-z
-x,-y,-z
1/2+x,y,-z
1/2-x,y,z
x,-y,z
loop_
_atom_site_type_symbol
_atom_site_label
_atom_site_fract_x
_atom_site_fract_y
_atom_site_fract_z
Si Si1 0.416190 0.212156 0.047781
Si Si2 0.912608 0.704809 0.737729
Si Si3 0.084245 0.791056 0.154802
Si Si4 0.913670 0.787255 0.548574
Si Si5 0.589825 0.794288 0.357495
O O1 0.250000 0.259786 0.044568
O O2 0.473816 0.267516 0.101647
O O3 0.421332 0.000000 0.047308
O O4 0.500000 0.274518 0.000000
O O5 0.750000 0.777499 0.735722
O O6 0.902438 0.500000 0.730667
O O7 0.974598 0.735443 0.792484
O O8 0.009887 0.773906 0.694200
O O9 0.250000 0.734379 0.155279
O O10 0.082123 0.000000 0.154468
O O11 0.750000 0.730276 0.547381
O O12 0.000000 0.734901 0.500000
O O13 0.994287 0.725550 0.597648
O O14 0.911588 0.000000 0.549056
O O15 0.750000 0.721782 0.356470
O O16 0.602011 0.000000 0.366536
#
# Coordination Sequence:
#
# PCOD9403151 Si02
#       5
#     8   8   8   8   8
#     4   8  13  22  38  61  87 114 145 184 231 279
#     4  10  20  33  50  71  94 124 163 204 246 291
#     4   8  14  26  45  67  91 120 154 193 237 284
#     4   9  16  27  46  73 103 131 159 195 238 282
#     4  10  20  33  50  73 100 130 164 200 239 285
#
# _framework density 20.361454999999999
#
# number of rings (size 3 to 8) (size 9 to 14) (size 15 to 20)
#    0.000    3.000    0.000    3.000    0.000    4.800 
#    0.000    1.000    0.000    4.800    0.000    0.000 
#    0.000    0.000    0.000    0.000    0.000    0.000 
#
# Total GULP energy -222966.422267 kJ/mol
# GULP energy per Si atom -5574.160557 kJ/mol
# Density = 2.031511 g / cm^3
# Si number density = 20.361455 Si / 1000 Ang^3
#
#
#
# Elastic Constant Matrix: (Units=GPa)
#
#
# Indices 1 2 3 4 5 6 
#
# 1 121.9908 5.1473 105.7255 0.0000 0.0000 0.0000
# 2 5.1473 29.0538 0.5762 0.0000 0.0000 0.0000
# 3 105.7255 0.5762 214.7617 0.0000 0.0000 0.0000
# 4 0.0000 0.0000 0.0000 -45.1979 0.0000 0.0000
# 5 0.0000 0.0000 0.0000 0.0000 32.2100 0.0000
# 6 0.0000 0.0000 0.0000 0.0000 0.0000 1.4111
#
#
#
# Elastic Compliance Matrix: (Units=1/GPa)
#
#
# Indices 1 2 3 4 5 6 
#
# 1 0.014466 -0.002422 -0.007115 0.000000 0.000000 0.000000
# 2 -0.002422 0.034826 0.001099 0.000000 0.000000 0.000000
# 3 -0.007115 0.001099 0.008156 0.000000 0.000000 0.000000
# 4 0.000000 0.000000 0.000000 -0.022125 0.000000 0.000000
# 5 0.000000 0.000000 0.000000 0.000000 0.031046 0.000000
# 6 0.000000 0.000000 0.000000 0.000000 0.000000 0.708661
#
#
# Mechanical properties :
#
#
# Convention : Reuss Voigt Hill
#
# Bulk Modulus (GPa) = 24.64743 65.41159 45.02951
# Shear Modulus (GPa) = 6.20787 14.64181 10.42484
#
# Velocity S-wave (km/s) = 1.74799 2.68450 2.26517
# Velocity P-wave (km/s) = 4.02556 6.46558 5.38558
#
# Compressibility (1/GPa) = 0.04057218
#
# Stress axis : x y z
#
# Youngs Moduli (GPa) = 69.12881 28.71408 122.60953
#
# Poissons Ratio (x) = 0.06954 0.87235
# Poissons Ratio (y) = 0.16741 -0.13472
# Poissons Ratio (z) = 0.49184 -0.03155
#
# Static dielectric constant tensor:
#      x y z
#    x 1.713440 0.000000 0.000000 
#    y 0.000000 1.746360 0.000000 
#    z 0.000000 0.000000 1.734720 
# 
# From -- ./inp_files/34328.got.cif
#   From: 2010.05.17/outbox.cif.g08.bks.cpg/sg51_18_cif.got.tgz:34328.got - 2010.06.03 11:52:47.
