data_PCOD9403205
_publ_section_title
;
Structure prediction by ZEFSAII (Michael W. Deem and Ramdas Pophale) SiO2 
 PCOD9403205
Probable space group: P M M A
;
_chemical_formula_sum "Si O2"
_cell_formula_units_Z 64
_cell_length_a 14.424142
_cell_length_b 9.189044
_cell_length_c 26.409291
_cell_angle_alpha 90.000000
_cell_angle_beta 90.000000
_cell_angle_gamma 90.000000
_cell_volume 3500.395060
_symmetry_space_group_name_H-M "P M M A"
_symmetry_group_IT_number 51
_symmetry_cell_setting 'orthorhombic'
loop_
_space_group_symop_operation_xyz
x,y,z
1/2-x,-y,z
1/2+x,-y,-z
-x,y,-z
-x,-y,-z
1/2+x,y,-z
1/2-x,y,z
x,-y,z
loop_
_atom_site_type_symbol
_atom_site_label
_atom_site_fract_x
_atom_site_fract_y
_atom_site_fract_z
Si Si1 0.396351 0.336227 0.479204
Si Si2 0.144566 0.823501 0.972951
Si Si3 0.356958 0.326533 0.676259
Si Si4 0.045958 0.325388 0.279357
Si Si5 0.544117 0.824150 0.921816
Si Si6 0.143176 0.159765 0.577115
Si Si7 0.861398 0.829360 0.624864
Si Si8 0.358906 0.324758 0.173088
O O1 0.500000 0.348565 0.500000
O O2 0.358181 0.500000 0.475184
O O3 0.353892 0.239682 0.523660
O O4 0.391476 0.255022 0.425918
O O5 0.250000 0.771274 0.964191
O O6 0.062052 0.779090 0.934711
O O7 0.146990 0.000000 0.971018
O O8 0.106966 0.786252 0.029067
O O9 0.250000 0.284461 0.688376
O O10 0.355838 0.500000 0.668160
O O11 0.435620 0.293450 0.717635
O O12 0.392819 0.254502 0.623891
O O13 0.057158 0.500000 0.286286
O O14 0.094690 0.243567 0.325688
O O15 0.093421 0.285496 0.226459
O O16 0.587080 0.750640 0.872702
O O17 0.545744 0.000000 0.916989
O O18 0.250000 0.141853 0.591384
O O19 0.099139 0.000000 0.572953
O O20 0.750000 0.818278 0.627805
O O21 0.885661 0.000000 0.621701
O O22 0.250000 0.284518 0.173047
O O23 0.364441 0.500000 0.167832
#
# Coordination Sequence:
#
# PCOD9403205 Si02
#       8
#     8   8   8   8   8   8   8   8
#     4  11  23  36  51  73 100 131 167 204 246 304
#     4   8  14  27  49  78 112 146 179 218 264 310
#     4   9  18  34  56  79 101 128 166 210 254 305
#     4  10  21  38  58  77 100 135 176 213 255 311
#     4   9  17  30  52  80 106 139 184 225 259 304
#     4  10  20  33  50  73  99 125 155 195 245 300
#     4  11  24  39  55  78 106 134 168 214 265 310
#     4  10  21  36  53  75 106 141 175 217 268 313
#
# _framework density 18.283650999999999
#
# number of rings (size 3 to 8) (size 9 to 14) (size 15 to 20)
#    0.000    2.250    0.000    3.750    0.000    9.500 
#    0.000    1.875    0.000    1.875    0.000    0.000 
#    0.000    0.000    0.000    0.000    0.000    0.000 
#
# Total GULP energy -356804.020447 kJ/mol
# GULP energy per Si atom -5575.062819 kJ/mol
# Density = 1.824204 g / cm^3
# Si number density = 18.283651 Si / 1000 Ang^3
#
#
#
# Elastic Constant Matrix: (Units=GPa)
#
#
# Indices 1 2 3 4 5 6 
#
# 1 150.2378 50.1312 93.0914 0.0000 0.0000 0.0000
# 2 50.1312 49.7921 50.6087 0.0000 0.0000 0.0000
# 3 93.0914 50.6087 147.9310 0.0000 0.0000 0.0000
# 4 0.0000 0.0000 0.0000 74.1821 0.0000 0.0000
# 5 0.0000 0.0000 0.0000 0.0000 28.8912 0.0000
# 6 0.0000 0.0000 0.0000 0.0000 0.0000 26.1189
#
#
#
# Elastic Compliance Matrix: (Units=1/GPa)
#
#
# Indices 1 2 3 4 5 6 
#
# 1 0.012291 -0.006919 -0.005367 0.000000 0.000000 0.000000
# 2 -0.006919 0.034685 -0.007512 0.000000 0.000000 0.000000
# 3 -0.005367 -0.007512 0.012707 0.000000 0.000000 0.000000
# 4 0.000000 0.000000 0.000000 0.013480 0.000000 0.000000
# 5 0.000000 0.000000 0.000000 0.000000 0.034613 0.000000
# 6 0.000000 0.000000 0.000000 0.000000 0.000000 0.038287
#
#
# Mechanical properties :
#
#
# Convention : Reuss Voigt Hill
#
# Bulk Modulus (GPa) = 49.78521 81.73595 65.76058
# Shear Modulus (GPa) = 25.99375 36.11374 31.05375
#
# Velocity S-wave (km/s) = 3.77463 4.44914 4.12569
# Velocity P-wave (km/s) = 6.80335 8.43768 7.66420
#
# Compressibility (1/GPa) = 0.02008629
#
# Stress axis : x y z
#
# Youngs Moduli (GPa) = 81.36365 28.83111 78.69441
#
# Poissons Ratio (x) = 0.19948 0.42237
# Poissons Ratio (y) = 0.56295 0.59115
# Poissons Ratio (z) = 0.43670 0.21658
#
# Static dielectric constant tensor:
#      x y z
#    x 1.664060 0.000000 0.000000 
#    y 0.000000 1.652330 0.000000 
#    z 0.000000 0.000000 1.584040 
# 
# From -- ./inp_files/35612.got.cif
#   From: 2010.05.17/outbox.cif.g08.bks.cpg/sg51_18_cif.got.tgz:35612.got - 2010.06.03 11:52:47.
