data_PCOD9403882
_publ_section_title
;
Structure prediction by ZEFSAII (Michael W. Deem and Ramdas Pophale) SiO2 
 PCOD9403882
Probable space group: P M M A
;
_chemical_formula_sum "Si O2"
_cell_formula_units_Z 64
_cell_length_a 13.679696
_cell_length_b 18.108266
_cell_length_c 14.372418
_cell_angle_alpha 90.000000
_cell_angle_beta 90.000000
_cell_angle_gamma 90.000000
_cell_volume 3560.271774
_symmetry_space_group_name_H-M "P M M A"
_symmetry_group_IT_number 51
_symmetry_cell_setting 'orthorhombic'
loop_
_space_group_symop_operation_xyz
x,y,z
1/2-x,-y,z
1/2+x,-y,-z
-x,y,-z
-x,-y,-z
1/2+x,y,-z
1/2-x,y,z
x,-y,z
loop_
_atom_site_type_symbol
_atom_site_label
_atom_site_fract_x
_atom_site_fract_y
_atom_site_fract_z
Si Si1 0.631550 0.758721 0.537183
Si Si2 0.136102 0.675230 0.634272
Si Si3 0.132511 0.921270 0.480022
Si Si4 0.453177 0.082071 0.272559
Si Si5 0.635043 0.766970 0.754089
Si Si6 0.631529 0.414870 0.194735
Si Si7 0.862010 0.177816 0.238130
Si Si8 0.528867 0.279941 0.106266
O O1 0.750000 0.756833 0.539597
O O2 0.597791 0.695254 0.467317
O O3 0.606799 0.838244 0.489664
O O4 0.602628 0.754228 0.645727
O O5 0.250000 0.656316 0.621117
O O6 0.096381 0.612703 0.702902
O O7 0.132523 0.751729 0.692678
O O8 0.250000 0.921330 0.471951
O O9 0.085134 0.923337 0.378111
O O10 0.106971 0.000000 0.528128
O O11 0.385822 0.145998 0.228437
O O12 0.562570 0.114586 0.267821
O O13 0.446906 0.000000 0.231754
O O14 0.750000 0.750758 0.762421
O O15 0.565556 0.724400 0.825565
O O16 0.750000 0.406869 0.191452
O O17 0.607491 0.500000 0.178261
O O18 0.583714 0.357208 0.123975
O O19 0.750000 0.153064 0.235137
O O20 0.900385 0.214139 0.142250
O O21 0.500000 0.270817 0.000000
#
# Coordination Sequence:
#
# PCOD9403882 Si02
#       8
#     8   8   8   8   8   8   8   8
#     4   8  13  24  44  68  94 127 166 204 243 287
#     4   8  14  27  48  70  94 127 162 197 237 282
#     4   8  13  22  37  59  91 129 166 207 252 294
#     4   9  16  27  44  67  95 128 168 213 258 299
#     4   9  18  31  49  74 100 130 169 209 251 300
#     4   9  18  34  56  81 106 131 162 197 234 285
#     4   9  18  32  47  67  96 129 167 206 245 295
#     4  10  20  34  54  77 101 127 159 204 253 299
#
# _framework density 17.976156
#
# number of rings (size 3 to 8) (size 9 to 14) (size 15 to 20)
#    0.000    3.250    0.000    2.250    0.000    2.250 
#    0.000   10.625    0.000   13.875    0.000    8.750 
#    0.000    0.000    0.000    0.000    0.000    0.000 
#
# Total GULP energy -356319.407152 kJ/mol
# GULP energy per Si atom -5567.490737 kJ/mol
# Density = 1.793524 g / cm^3
# Si number density = 17.976156 Si / 1000 Ang^3
#
#
#
# Elastic Constant Matrix: (Units=GPa)
#
#
# Indices 1 2 3 4 5 6 
#
# 1 78.8866 -3.4383 10.7818 0.0000 0.0000 0.0000
# 2 -3.4383 39.8668 2.1707 0.0000 0.0000 0.0000
# 3 10.7818 2.1707 58.7691 0.0000 0.0000 0.0000
# 4 0.0000 0.0000 0.0000 26.1140 0.0000 0.0000
# 5 0.0000 0.0000 0.0000 0.0000 21.7662 0.0000
# 6 0.0000 0.0000 0.0000 0.0000 0.0000 17.1266
#
#
#
# Elastic Compliance Matrix: (Units=1/GPa)
#
#
# Indices 1 2 3 4 5 6 
#
# 1 0.013065 0.001260 -0.002444 0.000000 0.000000 0.000000
# 2 0.001260 0.025256 -0.001164 0.000000 0.000000 0.000000
# 3 -0.002444 -0.001164 0.017507 0.000000 0.000000 0.000000
# 4 0.000000 0.000000 0.000000 0.038294 0.000000 0.000000
# 5 0.000000 0.000000 0.000000 0.000000 0.045943 0.000000
# 6 0.000000 0.000000 0.000000 0.000000 0.000000 0.058389
#
#
# Mechanical properties :
#
#
# Convention : Reuss Voigt Hill
#
# Bulk Modulus (GPa) = 19.55697 21.83899 20.69798
# Shear Modulus (GPa) = 22.70741 24.20191 23.45466
#
# Velocity S-wave (km/s) = 3.55800 3.67322 3.61607
# Velocity P-wave (km/s) = 5.27088 5.49230 5.38273
#
# Compressibility (1/GPa) = 0.05113267
#
# Stress axis : x y z
#
# Youngs Moduli (GPa) = 76.53861 39.59519 57.11988
#
# Poissons Ratio (x) = -0.04988 0.13957
# Poissons Ratio (y) = -0.09643 0.06649
# Poissons Ratio (z) = 0.18702 0.04609
#
# Static dielectric constant tensor:
#      x y z
#    x 1.673580 0.000000 0.000000 
#    y 0.000000 1.630640 0.000000 
#    z 0.000000 0.000000 1.622470 
# 
# From -- ./inp_files/24426.got.cif
#   From: 2010.05.17/outbox.cif.g08.bks.cpg/sg51_13_cif.got.tgz:24426.got - 2010.06.03 11:52:47.
