data_PCOD9403645
_publ_section_title
;
Structure prediction by ZEFSAII (Michael W. Deem and Ramdas Pophale) SiO2 
 PCOD9403645
Probable space group: P M M A
;
_chemical_formula_sum "Si O2"
_cell_formula_units_Z 52
_cell_length_a 9.314147
_cell_length_b 10.692276
_cell_length_c 30.472853
_cell_angle_alpha 90.000000
_cell_angle_beta 90.000000
_cell_angle_gamma 90.000000
_cell_volume 3034.774074
_symmetry_space_group_name_H-M "P M M A"
_symmetry_group_IT_number 51
_symmetry_cell_setting 'orthorhombic'
loop_
_space_group_symop_operation_xyz
x,y,z
1/2-x,-y,z
1/2+x,-y,-z
-x,y,-z
-x,-y,-z
1/2+x,y,-z
1/2-x,y,z
x,-y,z
loop_
_atom_site_type_symbol
_atom_site_label
_atom_site_fract_x
_atom_site_fract_y
_atom_site_fract_z
Si Si1 0.420821 0.766222 0.389030
Si Si2 0.577404 0.145961 0.788566
Si Si3 0.924897 0.644335 0.859775
Si Si4 0.085895 0.348073 0.042464
Si Si5 0.090401 0.353794 0.540497
Si Si6 0.580868 0.000000 0.546212
Si Si7 0.916924 0.149856 0.302976
O O1 0.250000 0.749347 0.385085
O O2 0.501054 0.657649 0.415094
O O3 0.448896 0.882450 0.422006
O O4 0.493490 0.790027 0.342397
O O5 0.750000 0.155365 0.781507
O O6 0.535731 0.249542 0.824731
O O7 0.493338 0.172724 0.743581
O O8 0.548630 0.000000 0.801086
O O9 0.750000 0.641593 0.861458
O O10 0.969678 0.500000 0.849940
O O11 0.973636 0.680457 0.909039
O O12 0.250000 0.304135 0.039818
O O13 0.088582 0.500000 0.040951
O O14 0.000000 0.303764 0.000000
O O15 0.250000 0.297308 0.543859
O O16 0.107721 0.500000 0.530950
O O17 0.000000 0.298899 0.500000
O O18 0.500000 0.000000 0.500000
O O19 0.750000 0.000000 0.536456
O O20 0.750000 0.189209 0.302954
O O21 0.920287 0.000000 0.309852
#
# Coordination Sequence:
#
# PCOD9403645 Si02
#       7
#     8   8   8   8   8   4   8
#     4  11  21  35  54  76 101 128 161 200 241 286
#     4   9  17  30  50  72  92 120 162 208 247 291
#     4   8  14  26  45  69  96 125 158 199 247 294
#     4   8  13  22  38  61  89 121 157 195 235 284
#     4  10  21  37  55  75 100 131 167 202 237 283
#     4  10  22  34  48  74 104 128 150 186 233 282
#     4  10  20  34  52  73  97 128 161 196 242 294
#
# _framework density 17.134719
#
# number of rings (size 3 to 8) (size 9 to 14) (size 15 to 20)
#    0.000    2.615    0.769    2.769    0.000    4.000 
#    0.000    1.538    0.000    4.615    0.000    0.000 
#    0.000    0.000    0.000    0.000    0.000    0.000 
#
# Total GULP energy -289613.764442 kJ/mol
# GULP energy per Si atom -5569.495470 kJ/mol
# Density = 1.709572 g / cm^3
# Si number density = 17.134719 Si / 1000 Ang^3
#
#
#
# Elastic Constant Matrix: (Units=GPa)
#
#
# Indices 1 2 3 4 5 6 
#
# 1 85.9857 31.8558 72.0164 0.0000 0.0000 0.0000
# 2 31.8558 48.6374 53.0203 0.0000 0.0000 0.0000
# 3 72.0164 53.0203 161.9700 0.0000 0.0000 0.0000
# 4 0.0000 0.0000 0.0000 -6.3268 0.0000 0.0000
# 5 0.0000 0.0000 0.0000 0.0000 27.4797 0.0000
# 6 0.0000 0.0000 0.0000 0.0000 0.0000 12.7509
#
#
#
# Elastic Compliance Matrix: (Units=1/GPa)
#
#
# Indices 1 2 3 4 5 6 
#
# 1 0.019315 -0.005114 -0.006914 0.000000 0.000000 0.000000
# 2 -0.005114 0.033322 -0.008634 0.000000 0.000000 0.000000
# 3 -0.006914 -0.008634 0.012075 0.000000 0.000000 0.000000
# 4 0.000000 0.000000 0.000000 -0.158058 0.000000 0.000000
# 5 0.000000 0.000000 0.000000 0.000000 0.036391 0.000000
# 6 0.000000 0.000000 0.000000 0.000000 0.000000 0.078426
#
#
# Mechanical properties :
#
#
# Convention : Reuss Voigt Hill
#
# Bulk Modulus (GPa) = 42.75742 67.81980 55.28861
# Shear Modulus (GPa) = 70.83211 16.09412 43.46311
#
# Velocity S-wave (km/s) = 6.43647 3.06807 5.04188
# Velocity P-wave (km/s) = 8.95797 7.22614 8.13825
#
# Compressibility (1/GPa) = 0.02338775
#
# Stress axis : x y z
#
# Youngs Moduli (GPa) = 51.77270 30.01052 82.81875
#
# Poissons Ratio (x) = 0.15346 0.57262
# Poissons Ratio (y) = 0.26474 0.71506
# Poissons Ratio (z) = 0.35797 0.25911
#
# Static dielectric constant tensor:
#      x y z
#    x 1.595640 0.000000 0.000000 
#    y 0.000000 1.662430 0.000000 
#    z 0.000000 0.000000 1.570350 
# 
# From -- ./inp_files/37335.got.cif
#   From: 2010.05.17/outbox.cif.g08.bks.cpg/sg51_19_cif.got.tgz:37335.got - 2010.06.03 11:52:47.
