data_PCOD9403533
_publ_section_title
;
Structure prediction by ZEFSAII (Michael W. Deem and Ramdas Pophale) SiO2 
 PCOD9403533
Probable space group: P M M A
;
_chemical_formula_sum "Si O2"
_cell_formula_units_Z 56
_cell_length_a 15.764325
_cell_length_b 9.065951
_cell_length_c 21.492911
_cell_angle_alpha 90.000000
_cell_angle_beta 90.000000
_cell_angle_gamma 90.000000
_cell_volume 3071.736707
_symmetry_space_group_name_H-M "P M M A"
_symmetry_group_IT_number 51
_symmetry_cell_setting 'orthorhombic'
loop_
_space_group_symop_operation_xyz
x,y,z
1/2-x,-y,z
1/2+x,-y,-z
-x,y,-z
-x,-y,-z
1/2+x,y,-z
1/2-x,y,z
x,-y,z
loop_
_atom_site_type_symbol
_atom_site_label
_atom_site_fract_x
_atom_site_fract_y
_atom_site_fract_z
Si Si1 0.399092 0.174073 0.991579
Si Si2 0.404938 0.167990 0.470940
Si Si3 0.509956 0.322161 0.784033
Si Si4 0.153925 0.677393 0.862415
Si Si5 0.344817 0.324404 0.117575
Si Si6 0.007303 0.177233 0.348446
Si Si7 0.154589 0.674998 0.588764
O O1 0.356206 0.242612 0.052370
O O2 0.382539 0.000000 0.987952
O O3 0.500000 0.197116 0.000000
O O4 0.367748 0.250957 0.928709
O O5 0.500000 0.163013 0.500000
O O6 0.421510 0.216979 0.400245
O O7 0.353938 0.272112 0.517208
O O8 0.371609 0.000000 0.472403
O O9 0.511773 0.500000 0.775918
O O10 0.418525 0.280914 0.813033
O O11 0.582152 0.281356 0.834047
O O12 0.524878 0.243581 0.718781
O O13 0.250000 0.716608 0.843743
O O14 0.149693 0.500000 0.869358
O O15 0.250000 0.297310 0.142229
O O16 0.353747 0.500000 0.106430
O O17 0.917736 0.241500 0.372717
O O18 0.002797 0.000000 0.347415
O O19 0.250000 0.707123 0.610861
O O20 0.140078 0.500000 0.592776
#
# Coordination Sequence:
#
# PCOD9403533 Si02
#       7
#     8   8   8   8   8   8   8
#     4  11  22  35  55  83 112 141 177 226 281 332
#     4   8  16  32  52  75 103 136 172 212 257 309
#     4  10  21  37  56  79 110 146 184 230 275 319
#     4  10  21  37  57  80 107 143 184 224 274 334
#     4  10  21  38  60  82 105 140 185 228 276 333
#     4  10  21  36  55  78 107 144 183 219 265 324
#     4  10  20  33  53  83 113 140 176 222 268 316
#
# _framework density 18.230727999999999
#
# number of rings (size 3 to 8) (size 9 to 14) (size 15 to 20)
#    0.000    2.143    1.429    2.571    0.000    8.857 
#    0.000    2.143    0.000    2.571    0.000    0.000 
#    0.000    0.000    0.000    0.000    0.000    0.000 
#
# Total GULP energy -312527.298968 kJ/mol
# GULP energy per Si atom -5580.844624 kJ/mol
# Density = 1.818923 g / cm^3
# Si number density = 18.230728 Si / 1000 Ang^3
#
#
#
# Elastic Constant Matrix: (Units=GPa)
#
#
# Indices 1 2 3 4 5 6 
#
# 1 50.3816 10.8107 1.7996 0.0000 0.0000 0.0000
# 2 10.8107 14.8625 8.1869 0.0000 0.0000 0.0000
# 3 1.7996 8.1869 82.6400 0.0000 0.0000 0.0000
# 4 0.0000 0.0000 0.0000 13.2844 0.0000 0.0000
# 5 0.0000 0.0000 0.0000 0.0000 9.0519 0.0000
# 6 0.0000 0.0000 0.0000 0.0000 0.0000 -25.1789
#
#
#
# Elastic Compliance Matrix: (Units=1/GPa)
#
#
# Indices 1 2 3 4 5 6 
#
# 1 0.023642 -0.017890 0.001257 0.000000 0.000000 0.000000
# 2 -0.017890 0.084704 -0.008002 0.000000 0.000000 0.000000
# 3 0.001257 -0.008002 0.012866 0.000000 0.000000 0.000000
# 4 0.000000 0.000000 0.000000 0.075277 0.000000 0.000000
# 5 0.000000 0.000000 0.000000 0.000000 0.110474 0.000000
# 6 0.000000 0.000000 0.000000 0.000000 0.000000 -0.039716
#
#
# Mechanical properties :
#
#
# Convention : Reuss Voigt Hill
#
# Bulk Modulus (GPa) = 13.89967 21.05315 17.47641
# Shear Modulus (GPa) = 14.68447 7.90394 11.29420
#
# Velocity S-wave (km/s) = 2.84118 2.08445 2.49171
# Velocity P-wave (km/s) = 4.28998 4.16731 4.22909
#
# Compressibility (1/GPa) = 0.07194416
#
# Stress axis : x y z
#
# Youngs Moduli (GPa) = 42.29710 11.80585 77.72413
#
# Poissons Ratio (x) = 0.21120 -0.09773
# Poissons Ratio (y) = 0.75668 0.62193
# Poissons Ratio (z) = -0.05319 0.09447
#
# Static dielectric constant tensor:
#      x y z
#    x 1.642140 0.000000 0.000000 
#    y 0.000000 1.606870 0.000000 
#    z 0.000000 0.000000 1.606690 
# 
# From -- ./inp_files/33305.got.cif
#   From: 2010.05.17/outbox.cif.g08.bks.cpg/sg51_17_cif.got.tgz:33305.got - 2010.06.03 11:52:47.
