data_PCOD9403270
_publ_section_title
;
Structure prediction by ZEFSAII (Michael W. Deem and Ramdas Pophale) SiO2 
 PCOD9403270
Probable space group: P M M A
;
_chemical_formula_sum "Si O2"
_cell_formula_units_Z 64
_cell_length_a 8.586458
_cell_length_b 29.195364
_cell_length_c 14.479230
_cell_angle_alpha 90.000000
_cell_angle_beta 90.000000
_cell_angle_gamma 90.000000
_cell_volume 3629.722396
_symmetry_space_group_name_H-M "P M M A"
_symmetry_group_IT_number 51
_symmetry_cell_setting 'orthorhombic'
loop_
_space_group_symop_operation_xyz
x,y,z
1/2-x,-y,z
1/2+x,-y,-z
-x,y,-z
-x,-y,-z
1/2+x,y,-z
1/2-x,y,z
x,-y,z
loop_
_atom_site_type_symbol
_atom_site_label
_atom_site_fract_x
_atom_site_fract_y
_atom_site_fract_z
Si Si1 0.065244 0.551773 0.896914
Si Si2 0.436534 0.805357 0.103568
Si Si3 0.561674 0.052774 0.601025
Si Si4 0.562507 0.135810 0.722246
Si Si5 0.938311 0.448419 0.603300
Si Si6 0.434873 0.723065 0.777047
Si Si7 0.064278 0.217360 0.601090
Si Si8 0.565985 0.377566 0.755929
O O1 0.250000 0.561577 0.895286
O O2 0.042364 0.500000 0.861118
O O3 0.970366 0.588125 0.838827
O O4 0.000000 0.552623 0.000000
O O5 0.250000 0.807052 0.099961
O O6 0.491770 0.843796 0.178771
O O7 0.486681 0.756578 0.147834
O O8 0.500000 0.811246 0.000000
O O9 0.500000 0.067511 0.500000
O O10 0.750000 0.053897 0.597489
O O11 0.510303 0.086543 0.683373
O O12 0.512640 0.000000 0.615406
O O13 0.750000 0.135161 0.726520
O O14 0.510239 0.171859 0.644477
O O15 0.750000 0.447747 0.603589
O O16 0.986032 0.500000 0.634431
O O17 0.992613 0.406599 0.667351
O O18 0.000000 0.442757 0.500000
O O19 0.250000 0.726313 0.790803
O O20 0.472957 0.743546 0.675948
O O21 0.487157 0.670758 0.776543
O O22 0.250000 0.211910 0.596932
O O23 0.000000 0.227033 0.500000
O O24 0.750000 0.369911 0.745646
#
# Coordination Sequence:
#
# PCOD9403270 Si02
#       8
#     8   8   8   8   8   8   8   8
#     4  10  21  37  57  80 104 130 161 198 241 292
#     4  10  20  36  57  78 100 129 168 214 263 310
#     4   9  17  29  46  72 107 144 178 212 254 303
#     4   9  18  32  51  75 102 134 174 216 256 303
#     4   9  19  35  54  76 102 133 169 207 245 288
#     4  10  22  38  53  74 102 131 167 207 250 302
#     4  10  20  33  51  73 100 134 169 209 253 299
#     4  11  22  36  55  78 105 135 166 204 251 300
#
# _framework density 17.632203000000001
#
# number of rings (size 3 to 8) (size 9 to 14) (size 15 to 20)
#    0.000    2.250    0.000    2.625    0.000    6.750 
#    0.000    6.250    0.000    0.375    0.000    0.000 
#    0.000    0.000    0.000    0.000    0.000    0.375 
#
# Total GULP energy -356942.638820 kJ/mol
# GULP energy per Si atom -5577.228732 kJ/mol
# Density = 1.759207 g / cm^3
# Si number density = 17.632203 Si / 1000 Ang^3
#
#
#
# Elastic Constant Matrix: (Units=GPa)
#
#
# Indices 1 2 3 4 5 6 
#
# 1 14.4598 15.5013 18.6277 0.0000 0.0000 0.0000
# 2 15.5013 100.8643 56.5549 0.0000 0.0000 0.0000
# 3 18.6277 56.5549 121.1764 0.0000 0.0000 0.0000
# 4 0.0000 0.0000 0.0000 28.5400 0.0000 0.0000
# 5 0.0000 0.0000 0.0000 0.0000 29.2863 0.0000
# 6 0.0000 0.0000 0.0000 0.0000 0.0000 25.6241
#
#
#
# Elastic Compliance Matrix: (Units=1/GPa)
#
#
# Indices 1 2 3 4 5 6 
#
# 1 0.091125 -0.008330 -0.010120 0.000000 0.000000 0.000000
# 2 -0.008330 0.014190 -0.005342 0.000000 0.000000 0.000000
# 3 -0.010120 -0.005342 0.012301 0.000000 0.000000 0.000000
# 4 0.000000 0.000000 0.000000 0.035038 0.000000 0.000000
# 5 0.000000 0.000000 0.000000 0.000000 0.034146 0.000000
# 6 0.000000 0.000000 0.000000 0.000000 0.000000 0.039026
#
#
# Mechanical properties :
#
#
# Convention : Reuss Voigt Hill
#
# Bulk Modulus (GPa) = 14.27932 46.42982 30.35457
# Shear Modulus (GPa) = 16.84892 26.41118 21.63005
#
# Velocity S-wave (km/s) = 3.09459 3.87446 3.50628
# Velocity P-wave (km/s) = 4.56998 6.81211 5.80041
#
# Compressibility (1/GPa) = 0.07003135
#
# Stress axis : x y z
#
# Youngs Moduli (GPa) = 10.97394 70.47297 81.29149
#
# Poissons Ratio (x) = 0.58704 0.82270
# Poissons Ratio (y) = 0.09141 0.43427
# Poissons Ratio (z) = 0.11106 0.37647
#
# Static dielectric constant tensor:
#      x y z
#    x 1.599880 0.000000 0.000000 
#    y 0.000000 1.603580 0.000000 
#    z 0.000000 0.000000 1.584280 
# 
# From -- ./inp_files/14872.got.cif
#   From: 2010.05.17/outbox.cif.g08.bks.cpg/sg51_8_cif.got.tgz:14872.got - 2010.06.03 11:52:47.
