data_PCOD9403175
_publ_section_title
;
Structure prediction by ZEFSAII (Michael W. Deem and Ramdas Pophale) SiO2 
 PCOD9403175
Probable space group: P M M A
;
_chemical_formula_sum "Si O2"
_cell_formula_units_Z 48
_cell_length_a 8.737452
_cell_length_b 9.353088
_cell_length_c 32.137214
_cell_angle_alpha 90.000000
_cell_angle_beta 90.000000
_cell_angle_gamma 90.000000
_cell_volume 2626.322463
_symmetry_space_group_name_H-M "P M M A"
_symmetry_group_IT_number 51
_symmetry_cell_setting 'orthorhombic'
loop_
_space_group_symop_operation_xyz
x,y,z
1/2-x,-y,z
1/2+x,-y,-z
-x,y,-z
-x,-y,-z
1/2+x,y,-z
1/2-x,y,z
x,-y,z
loop_
_atom_site_type_symbol
_atom_site_label
_atom_site_fract_x
_atom_site_fract_y
_atom_site_fract_z
Si Si1 0.936867 0.664723 0.708518
Si Si2 0.432749 0.333177 0.869103
Si Si3 0.435009 0.165467 0.208975
Si Si4 0.936976 0.164608 0.626348
Si Si5 0.065511 0.666593 0.455649
Si Si6 0.073622 0.674042 0.043228
O O1 0.750000 0.664712 0.708309
O O2 0.986615 0.500000 0.708898
O O3 0.985285 0.748168 0.749983
O O4 0.986204 0.746455 0.666800
O O5 0.250000 0.327811 0.867458
O O6 0.480490 0.500000 0.864034
O O7 0.502788 0.240370 0.832277
O O8 0.487807 0.283419 0.914641
O O9 0.250000 0.169600 0.207921
O O10 0.482095 0.000000 0.211459
O O11 0.750000 0.165823 0.626431
O O12 0.985898 0.240067 0.583589
O O13 0.985612 0.000000 0.628620
O O14 0.250000 0.672345 0.457449
O O15 0.021753 0.500000 0.449531
O O16 0.000000 0.714579 0.500000
O O17 0.250000 0.717042 0.045451
O O18 0.067920 0.500000 0.042252
O O19 0.000000 0.724360 0.000000
#
# Coordination Sequence:
#
# PCOD9403175 Si02
#       6
#     8   8   8   8   8   8
#     4   9  16  27  46  71  97 124 156 197 244 292
#     4  10  20  33  50  73 101 134 172 210 248 294
#     4  10  20  33  50  73 100 129 162 202 249 299
#     4   9  16  26  42  66  95 124 155 194 240 289
#     4   9  17  29  45  65  90 121 157 196 238 284
#     4   9  16  27  46  73 104 135 168 209 254 297
#
# _framework density 18.276506000000001
#
# number of rings (size 3 to 8) (size 9 to 14) (size 15 to 20)
#    0.000    2.667    0.000    2.500    0.000    8.333 
#    0.000    0.000    0.000    1.500    0.000    2.333 
#    0.000    0.000    0.000    0.000    0.000    0.000 
#
# Total GULP energy -267740.678780 kJ/mol
# GULP energy per Si atom -5577.930808 kJ/mol
# Density = 1.823491 g / cm^3
# Si number density = 18.276506 Si / 1000 Ang^3
#
#
#
# Elastic Constant Matrix: (Units=GPa)
#
#
# Indices 1 2 3 4 5 6 
#
# 1 11.3916 24.3093 29.0978 0.0000 0.0000 0.0000
# 2 24.3093 128.1439 113.2939 0.0000 0.0000 0.0000
# 3 29.0978 113.2939 214.2056 0.0000 0.0000 0.0000
# 4 0.0000 0.0000 0.0000 -5.9652 0.0000 0.0000
# 5 0.0000 0.0000 0.0000 0.0000 26.2844 0.0000
# 6 0.0000 0.0000 0.0000 0.0000 0.0000 11.9871
#
#
#
# Elastic Compliance Matrix: (Units=1/GPa)
#
#
# Indices 1 2 3 4 5 6 
#
# 1 0.159418 -0.020842 -0.010632 0.000000 0.000000 0.000000
# 2 -0.020842 0.017383 -0.006363 0.000000 0.000000 0.000000
# 3 -0.010632 -0.006363 0.009478 0.000000 0.000000 0.000000
# 4 0.000000 0.000000 0.000000 -0.167639 0.000000 0.000000
# 5 0.000000 0.000000 0.000000 0.000000 0.038045 0.000000
# 6 0.000000 0.000000 0.000000 0.000000 0.000000 0.083423
#
#
# Mechanical properties :
#
#
# Convention : Reuss Voigt Hill
#
# Bulk Modulus (GPa) = 9.04117 76.34923 42.69520
# Shear Modulus (GPa) = 19.79021 18.93060 19.36041
#
# Velocity S-wave (km/s) = 3.29420 3.22186 3.25823
# Velocity P-wave (km/s) = 4.40756 7.46363 6.12912
#
# Compressibility (1/GPa) = 0.11060518
#
# Stress axis : x y z
#
# Youngs Moduli (GPa) = 6.27281 57.52779 105.50928
#
# Poissons Ratio (x) = 1.19902 1.12175
# Poissons Ratio (y) = 0.13074 0.67131
# Poissons Ratio (z) = 0.06669 0.36603
#
# Static dielectric constant tensor:
#      x y z
#    x 1.623020 0.000000 0.000000 
#    y 0.000000 1.616570 0.000000 
#    z 0.000000 0.000000 1.606130 
# 
# From -- ./inp_files/36994.got.cif
#   From: 2010.05.17/outbox.cif.g08.bks.cpg/sg51_19_cif.got.tgz:36994.got - 2010.06.03 11:52:47.
