data_PCOD9403143
_publ_section_title
;
Structure prediction by ZEFSAII (Michael W. Deem and Ramdas Pophale) SiO2 
 PCOD9403143
Probable space group: P M M A
;
_chemical_formula_sum "Si O2"
_cell_formula_units_Z 52
_cell_length_a 9.172026
_cell_length_b 15.493217
_cell_length_c 23.681634
_cell_angle_alpha 90.000000
_cell_angle_beta 90.000000
_cell_angle_gamma 90.000000
_cell_volume 3365.259397
_symmetry_space_group_name_H-M "P M M A"
_symmetry_group_IT_number 51
_symmetry_cell_setting 'orthorhombic'
loop_
_space_group_symop_operation_xyz
x,y,z
1/2-x,-y,z
1/2+x,-y,-z
-x,y,-z
-x,-y,-z
1/2+x,y,-z
1/2-x,y,z
x,-y,z
loop_
_atom_site_type_symbol
_atom_site_label
_atom_site_fract_x
_atom_site_fract_y
_atom_site_fract_z
Si Si1 0.424381 0.223609 0.777761
Si Si2 0.416647 0.895239 0.443991
Si Si3 0.577023 0.404073 0.173784
Si Si4 0.422223 0.000000 0.940316
Si Si5 0.075416 0.899507 0.672757
Si Si6 0.421186 0.651965 0.058599
Si Si7 0.919987 0.161607 0.889704
O O1 0.250000 0.210590 0.788653
O O2 0.451101 0.326809 0.781818
O O3 0.459356 0.169232 0.721745
O O4 0.522545 0.188316 0.828428
O O5 0.500000 0.864615 0.500000
O O6 0.250000 0.865251 0.443374
O O7 0.498119 0.875125 0.385732
O O8 0.414504 0.000000 0.446863
O O9 0.750000 0.400199 0.161036
O O10 0.542365 0.500000 0.195029
O O11 0.493118 0.388384 0.114792
O O12 0.478568 0.084586 0.909208
O O13 0.250000 0.000000 0.946112
O O14 0.500000 0.000000 0.000000
O O15 0.250000 0.898459 0.664596
O O16 0.036121 0.000000 0.687248
O O17 0.250000 0.630230 0.055779
O O18 0.434180 0.755100 0.069726
O O19 0.500000 0.628735 0.000000
O O20 0.750000 0.136515 0.888832
#
# Coordination Sequence:
#
# PCOD9403143 Si02
#       7
#     8   8   8   4   8   8   8
#     4   9  18  32  49  69  93 122 155 191 230 274
#     4   9  16  26  41  62  90 125 162 195 227 260
#     4   9  18  33  51  69  90 117 149 186 230 278
#     4  12  24  36  50  66  86 114 151 190 229 274
#     4   9  17  28  43  65  94 126 159 191 224 266
#     4  10  20  33  50  69  90 113 141 179 228 283
#     4  10  21  35  49  67  89 116 149 188 231 274
#
# _framework density 15.452002999999999
#
# number of rings (size 3 to 8) (size 9 to 14) (size 15 to 20)
#    0.000    2.462    0.000    2.538    1.077    6.154 
#    0.000    0.000    0.000    0.000    0.000    0.000 
#    0.000    0.615    0.000    1.077    0.000    1.538 
#
# Total GULP energy -289802.262123 kJ/mol
# GULP energy per Si atom -5573.120425 kJ/mol
# Density = 1.541683 g / cm^3
# Si number density = 15.452003 Si / 1000 Ang^3
#
#
#
# Elastic Constant Matrix: (Units=GPa)
#
#
# Indices 1 2 3 4 5 6 
#
# 1 70.7087 45.4407 46.6548 0.0000 0.0000 0.0000
# 2 45.4407 86.5995 48.2316 0.0000 0.0000 0.0000
# 3 46.6548 48.2316 101.5817 0.0000 0.0000 0.0000
# 4 0.0000 0.0000 0.0000 4.2290 0.0000 0.0000
# 5 0.0000 0.0000 0.0000 0.0000 25.6815 0.0000
# 6 0.0000 0.0000 0.0000 0.0000 0.0000 12.9217
#
#
#
# Elastic Compliance Matrix: (Units=1/GPa)
#
#
# Indices 1 2 3 4 5 6 
#
# 1 0.024530 -0.008968 -0.007008 0.000000 0.000000 0.000000
# 2 -0.008968 0.018978 -0.004892 0.000000 0.000000 0.000000
# 3 -0.007008 -0.004892 0.015386 0.000000 0.000000 0.000000
# 4 0.000000 0.000000 0.000000 0.236463 0.000000 0.000000
# 5 0.000000 0.000000 0.000000 0.000000 0.038938 0.000000
# 6 0.000000 0.000000 0.000000 0.000000 0.000000 0.077389
#
#
# Mechanical properties :
#
#
# Convention : Reuss Voigt Hill
#
# Bulk Modulus (GPa) = 58.28465 59.94934 59.11700
# Shear Modulus (GPa) = 10.88994 16.47063 13.68028
#
# Velocity S-wave (km/s) = 2.65761 3.26839 2.97869
# Velocity P-wave (km/s) = 6.87160 7.28866 7.08320
#
# Compressibility (1/GPa) = 0.01715718
#
# Stress axis : x y z
#
# Youngs Moduli (GPa) = 40.76637 52.69317 64.99588
#
# Poissons Ratio (x) = 0.47257 0.45549
# Poissons Ratio (y) = 0.36561 0.31794
# Poissons Ratio (z) = 0.28569 0.25776
#
# Static dielectric constant tensor:
#      x y z
#    x 1.516080 0.000000 0.000000 
#    y 0.000000 1.525180 0.000000 
#    z 0.000000 0.000000 1.554250 
# 
# From -- ./inp_files/31767.got.cif
#   From: 2010.05.17/outbox.cif.g08.bks.cpg/sg51_16_cif.got.tgz:31767.got - 2010.06.03 11:52:47.
