data_PCOD9403544
_publ_section_title
;
Structure prediction by ZEFSAII (Michael W. Deem and Ramdas Pophale) SiO2 
 PCOD9403544
Probable space group: P M M A
;
_chemical_formula_sum "Si O2"
_cell_formula_units_Z 48
_cell_length_a 25.454355
_cell_length_b 7.399268
_cell_length_c 10.436029
_cell_angle_alpha 90.000000
_cell_angle_beta 90.000000
_cell_angle_gamma 90.000000
_cell_volume 1965.559213
_symmetry_space_group_name_H-M "P M M A"
_symmetry_group_IT_number 51
_symmetry_cell_setting 'orthorhombic'
loop_
_space_group_symop_operation_xyz
x,y,z
1/2-x,-y,z
1/2+x,-y,-z
-x,y,-z
-x,-y,-z
1/2+x,y,-z
1/2-x,y,z
x,-y,z
loop_
_atom_site_type_symbol
_atom_site_label
_atom_site_fract_x
_atom_site_fract_y
_atom_site_fract_z
Si Si1 0.313079 0.797450 0.006120
Si Si2 0.496949 0.720445 0.852744
Si Si3 0.690170 0.218769 0.272656
Si Si4 0.420852 0.710874 0.635975
Si Si5 0.419515 0.277862 0.359865
Si Si6 0.691688 0.705263 0.709027
O O1 0.250000 0.812405 0.995317
O O2 0.326960 0.715169 0.869483
O O3 0.335169 0.000000 0.017313
O O4 0.321382 0.699380 0.139120
O O5 0.496009 0.500000 0.860092
O O6 0.447348 0.782763 0.765986
O O7 0.546222 0.772997 0.763090
O O8 0.500000 0.783636 0.000000
O O9 0.750000 0.277852 0.303659
O O10 0.642204 0.273203 0.361254
O O11 0.691683 0.000000 0.266581
O O12 0.434976 0.500000 0.635404
O O13 0.439857 0.781812 0.498801
O O14 0.418530 0.500000 0.359180
O O15 0.359818 0.209733 0.349722
O O16 0.750000 0.787483 0.693216
O O17 0.695217 0.500000 0.661788
#
# Coordination Sequence:
#
# PCOD9403544 Si02
#       6
#     8   8   8   8   8   8
#     4   8  15  29  47  67  96 134 170 205 249 302
#     4   9  18  32  52  78 106 138 178 221 266 317
#     4   9  19  35  53  75 108 146 175 208 264 323
#     4  10  20  33  54  81 106 137 179 223 262 307
#     4   9  18  32  49  73 110 145 170 209 266 318
#     4   9  17  28  46  73 103 134 168 210 259 306
#
# _framework density 24.420531
#
# number of rings (size 3 to 8) (size 9 to 14) (size 15 to 20)
#    0.000    3.000    0.000    1.500    2.333    3.667 
#    0.000    4.167    0.000    5.500    0.000    0.000 
#    0.000    0.000    0.000    0.000    0.000    0.000 
#
# Total GULP energy -267711.482723 kJ/mol
# GULP energy per Si atom -5577.322557 kJ/mol
# Density = 2.436495 g / cm^3
# Si number density = 24.420531 Si / 1000 Ang^3
#
#
#
# Elastic Constant Matrix: (Units=GPa)
#
#
# Indices 1 2 3 4 5 6 
#
# 1 154.4827 -2.3105 86.1442 0.0000 0.0000 0.0000
# 2 -2.3105 83.5802 4.2182 0.0000 0.0000 0.0000
# 3 86.1442 4.2182 200.6986 0.0000 0.0000 0.0000
# 4 0.0000 0.0000 0.0000 5.1942 0.0000 0.0000
# 5 0.0000 0.0000 0.0000 0.0000 60.3369 0.0000
# 6 0.0000 0.0000 0.0000 0.0000 0.0000 -109.2759
#
#
#
# Elastic Compliance Matrix: (Units=1/GPa)
#
#
# Indices 1 2 3 4 5 6 
#
# 1 0.008525 0.000421 -0.003668 0.000000 0.000000 0.000000
# 2 0.000421 0.011998 -0.000433 0.000000 0.000000 0.000000
# 3 -0.003668 -0.000433 0.006566 0.000000 0.000000 0.000000
# 4 0.000000 0.000000 0.000000 0.192522 0.000000 0.000000
# 5 0.000000 0.000000 0.000000 0.000000 0.016574 0.000000
# 6 0.000000 0.000000 0.000000 0.000000 0.000000 -0.009151
#
#
# Mechanical properties :
#
#
# Convention : Reuss Voigt Hill
#
# Bulk Modulus (GPa) = 50.68649 68.31836 59.50242
# Shear Modulus (GPa) = 20.74952 14.63168 17.69060
#
# Velocity S-wave (km/s) = 2.91808 2.45042 2.69442
# Velocity P-wave (km/s) = 5.67048 6.00355 5.83939
#
# Compressibility (1/GPa) = 0.01972912
#
# Stress axis : x y z
#
# Youngs Moduli (GPa) = 117.30429 83.34696 152.29902
#
# Poissons Ratio (x) = -0.03507 0.55862
# Poissons Ratio (y) = -0.04936 0.06591
# Poissons Ratio (z) = 0.43026 0.03607
#
# Static dielectric constant tensor:
#      x y z
#    x 1.943180 0.000000 0.000000 
#    y 0.000000 1.948940 0.000000 
#    z 0.000000 0.000000 1.962180 
# 
# From -- ./inp_files/11684.got.cif
#   From: 2010.05.17/outbox.cif.g08.bks.cpg/sg51_6_cif.got.tgz:11684.got - 2010.06.03 11:52:47.
