data_PCOD9403640
_publ_section_title
;
Structure prediction by ZEFSAII (Michael W. Deem and Ramdas Pophale) SiO2 
 PCOD9403640
Probable space group: P M M A
;
_chemical_formula_sum "Si O2"
_cell_formula_units_Z 64
_cell_length_a 20.778678
_cell_length_b 7.718421
_cell_length_c 17.990119
_cell_angle_alpha 90.000000
_cell_angle_beta 90.000000
_cell_angle_gamma 90.000000
_cell_volume 2885.229822
_symmetry_space_group_name_H-M "P M M A"
_symmetry_group_IT_number 51
_symmetry_cell_setting 'orthorhombic'
loop_
_space_group_symop_operation_xyz
x,y,z
1/2-x,-y,z
1/2+x,-y,-z
-x,y,-z
-x,-y,-z
1/2+x,y,-z
1/2-x,y,z
x,-y,z
loop_
_atom_site_type_symbol
_atom_site_label
_atom_site_fract_x
_atom_site_fract_y
_atom_site_fract_z
Si Si1 0.678247 0.299614 0.117505
Si Si2 0.073190 0.303484 0.192976
Si Si3 0.533485 0.710705 0.078715
Si Si4 0.817596 0.696421 0.430377
Si Si5 0.824515 0.711474 0.700493
Si Si6 0.590078 0.200802 0.556557
Si Si7 0.645579 0.803592 0.278105
Si Si8 0.007503 0.787399 0.667578
O O1 0.750000 0.225203 0.098178
O O2 0.679557 0.500000 0.093049
O O3 0.608035 0.228504 0.089388
O O4 0.673092 0.293939 0.207386
O O5 0.084964 0.500000 0.165851
O O6 0.141205 0.229312 0.222049
O O7 0.037128 0.299894 0.271504
O O8 0.019594 0.223435 0.138390
O O9 0.536982 0.500000 0.087815
O O10 0.500000 0.747581 0.000000
O O11 0.750000 0.729005 0.472003
O O12 0.817731 0.500000 0.403541
O O13 0.876141 0.717972 0.485967
O O14 0.817813 0.805894 0.355747
O O15 0.750000 0.760388 0.698102
O O16 0.828598 0.500000 0.698572
O O17 0.861890 0.779775 0.627569
O O18 0.521506 0.263271 0.588070
O O19 0.582995 0.000000 0.537549
O O20 0.577659 0.733520 0.307255
O O21 0.637343 0.000000 0.251072
O O22 0.003735 0.000000 0.671553
#
# Coordination Sequence:
#
# PCOD9403640 Si02
#       8
#     8   8   8   8   8   8   8   8
#     4  10  20  35  56  82 111 143 180 223 267 312
#     4   9  16  29  51  74  99 137 178 213 253 310
#     4   9  17  31  53  81 110 141 176 213 256 311
#     4  11  24  39  52  70 101 139 178 223 273 323
#     4   9  17  29  46  71 101 132 172 222 270 313
#     4  10  20  34  52  73 100 135 176 221 269 321
#     4  11  22  36  56  79 105 137 176 223 273 322
#     4   9  19  34  52  76 104 133 168 217 269 315
#
# _framework density 22.181940999999998
#
# number of rings (size 3 to 8) (size 9 to 14) (size 15 to 20)
#    0.000    2.250    1.250    1.875    0.000    6.000 
#    0.000    3.125    0.000    5.250    0.000    0.000 
#    0.000    2.000    0.000    0.000    0.000    0.000 
#
# Total GULP energy -356483.556017 kJ/mol
# GULP energy per Si atom -5570.055563 kJ/mol
# Density = 2.213145 g / cm^3
# Si number density = 22.181941 Si / 1000 Ang^3
#
#
#
# Elastic Constant Matrix: (Units=GPa)
#
#
# Indices 1 2 3 4 5 6 
#
# 1 131.9748 1.9740 25.7379 0.0000 0.0000 0.0000
# 2 1.9740 33.8302 1.9869 0.0000 0.0000 0.0000
# 3 25.7379 1.9869 72.0916 0.0000 0.0000 0.0000
# 4 0.0000 0.0000 0.0000 82.2410 0.0000 0.0000
# 5 0.0000 0.0000 0.0000 0.0000 -6.6179 0.0000
# 6 0.0000 0.0000 0.0000 0.0000 0.0000 9.6948
#
#
#
# Elastic Compliance Matrix: (Units=1/GPa)
#
#
# Indices 1 2 3 4 5 6 
#
# 1 0.008147 -0.000305 -0.002900 0.000000 0.000000 0.000000
# 2 -0.000305 0.029619 -0.000707 0.000000 0.000000 0.000000
# 3 -0.002900 -0.000707 0.014926 0.000000 0.000000 0.000000
# 4 0.000000 0.000000 0.000000 0.012159 0.000000 0.000000
# 5 0.000000 0.000000 0.000000 0.000000 -0.151106 0.000000
# 6 0.000000 0.000000 0.000000 0.000000 0.000000 0.103148
#
#
# Mechanical properties :
#
#
# Convention : Reuss Voigt Hill
#
# Bulk Modulus (GPa) = 22.28823 33.03270 27.66047
# Shear Modulus (GPa) = 126.02529 30.94344 78.48436
#
# Velocity S-wave (km/s) = 7.54571 3.73900 5.95474
# Velocity P-wave (km/s) = 9.27290 5.79346 7.73146
#
# Compressibility (1/GPa) = 0.04486672
#
# Stress axis : x y z
#
# Youngs Moduli (GPa) = 122.73858 33.76237 66.99626
#
# Poissons Ratio (x) = 0.01030 0.19431
# Poissons Ratio (y) = 0.03744 0.04739
# Poissons Ratio (z) = 0.35598 0.02388
#
# Static dielectric constant tensor:
#      x y z
#    x 1.995750 0.000000 0.000000 
#    y 0.000000 1.828550 0.000000 
#    z 0.000000 0.000000 1.796500 
# 
# From -- ./inp_files/30587.got.cif
#   From: 2010.05.17/outbox.cif.g08.bks.cpg/sg51_16_cif.got.tgz:30587.got - 2010.06.03 11:52:47.
