data_PCOD9403516
_publ_section_title
;
Structure prediction by ZEFSAII (Michael W. Deem and Ramdas Pophale) SiO2 
 PCOD9403516
Probable space group: P M M A
;
_chemical_formula_sum "Si O2"
_cell_formula_units_Z 64
_cell_length_a 9.276401
_cell_length_b 14.328326
_cell_length_c 26.712825
_cell_angle_alpha 90.000000
_cell_angle_beta 90.000000
_cell_angle_gamma 90.000000
_cell_volume 3550.543086
_symmetry_space_group_name_H-M "P M M A"
_symmetry_group_IT_number 51
_symmetry_cell_setting 'orthorhombic'
loop_
_space_group_symop_operation_xyz
x,y,z
1/2-x,-y,z
1/2+x,-y,-z
-x,y,-z
-x,-y,-z
1/2+x,y,-z
1/2-x,y,z
x,-y,z
loop_
_atom_site_type_symbol
_atom_site_label
_atom_site_fract_x
_atom_site_fract_y
_atom_site_fract_z
Si Si1 0.420472 0.610069 0.695008
Si Si2 0.577707 0.217836 0.049236
Si Si3 0.911942 0.386935 0.793998
Si Si4 0.420725 0.888868 0.848682
Si Si5 0.923452 0.225620 0.649323
Si Si6 0.421935 0.610051 0.090991
Si Si7 0.077369 0.109407 0.251833
Si Si8 0.577161 0.890911 0.551515
O O1 0.250000 0.623784 0.692771
O O2 0.451102 0.500000 0.688062
O O3 0.480203 0.638029 0.749910
O O4 0.501855 0.674842 0.655660
O O5 0.750000 0.217444 0.043294
O O6 0.539450 0.161018 0.099542
O O7 0.517047 0.322014 0.057806
O O8 0.500000 0.178812 0.000000
O O9 0.750000 0.351443 0.782903
O O10 0.904182 0.500000 0.794020
O O11 0.951705 0.363797 0.850841
O O12 0.250000 0.874360 0.840739
O O13 0.505481 0.855738 0.799475
O O14 0.446290 0.000000 0.853707
O O15 0.750000 0.235361 0.649676
O O16 0.964098 0.164970 0.698310
O O17 0.964927 0.171484 0.598922
O O18 0.250000 0.623723 0.082710
O O19 0.452158 0.500000 0.084033
O O20 0.250000 0.114683 0.246771
O O21 0.038537 0.000000 0.257863
O O22 0.500000 0.863811 0.500000
O O23 0.750000 0.884176 0.545507
O O24 0.543179 0.000000 0.561560
#
# Coordination Sequence:
#
# PCOD9403516 Si02
#       8
#     8   8   8   8   8   8   8   8
#     4  10  21  34  48  72 108 146 184 227 270 312
#     4  11  24  39  56  78 102 133 173 218 265 316
#     4   8  15  30  51  73  98 132 172 211 256 312
#     4   9  20  39  58  77 105 137 168 210 265 318
#     4  10  20  33  53  81 111 147 185 223 266 315
#     4   9  19  36  57  79 104 135 170 211 260 315
#     4   9  18  33  54  81 110 139 172 209 255 315
#     4   9  18  34  56  82 114 149 185 227 272 320
#
# _framework density 18.025410999999998
#
# number of rings (size 3 to 8) (size 9 to 14) (size 15 to 20)
#    0.000    2.625    0.000    1.875    1.750    5.500 
#    0.000    1.250    0.000    4.125    0.000    0.000 
#    0.000    0.000    0.000    0.000    0.000    0.000 
#
# Total GULP energy -357171.419619 kJ/mol
# GULP energy per Si atom -5580.803432 kJ/mol
# Density = 1.798438 g / cm^3
# Si number density = 18.025411 Si / 1000 Ang^3
#
#
#
# Elastic Constant Matrix: (Units=GPa)
#
#
# Indices 1 2 3 4 5 6 
#
# 1 37.0969 37.8168 61.5223 0.0000 0.0000 0.0000
# 2 37.8168 64.7251 59.5323 0.0000 0.0000 0.0000
# 3 61.5223 59.5323 143.6822 0.0000 0.0000 0.0000
# 4 0.0000 0.0000 0.0000 31.2702 0.0000 0.0000
# 5 0.0000 0.0000 0.0000 0.0000 30.3260 0.0000
# 6 0.0000 0.0000 0.0000 0.0000 0.0000 20.3191
#
#
#
# Elastic Compliance Matrix: (Units=1/GPa)
#
#
# Indices 1 2 3 4 5 6 
#
# 1 0.143651 -0.044201 -0.043195 0.000000 0.000000 0.000000
# 2 -0.044201 0.038564 0.002948 0.000000 0.000000 0.000000
# 3 -0.043195 0.002948 0.024234 0.000000 0.000000 0.000000
# 4 0.000000 0.000000 0.000000 0.031979 0.000000 0.000000
# 5 0.000000 0.000000 0.000000 0.000000 0.032975 0.000000
# 6 0.000000 0.000000 0.000000 0.000000 0.000000 0.049215
#
#
# Mechanical properties :
#
#
# Convention : Reuss Voigt Hill
#
# Bulk Modulus (GPa) = 26.62966 62.58301 44.60634
# Shear Modulus (GPa) = 9.95954 22.15856 16.05905
#
# Velocity S-wave (km/s) = 2.35314 3.50994 2.98805
# Velocity P-wave (km/s) = 4.71047 7.15688 6.05844
#
# Compressibility (1/GPa) = 0.03755211
#
# Stress axis : x y z
#
# Youngs Moduli (GPa) = 6.96133 25.93094 41.26483
#
# Poissons Ratio (x) = 1.14618 1.78243
# Poissons Ratio (y) = 0.30770 -0.12164
# Poissons Ratio (z) = 0.30069 -0.07644
#
# Static dielectric constant tensor:
#      x y z
#    x 1.598620 0.000000 0.000000 
#    y 0.000000 1.639660 0.000000 
#    z 0.000000 0.000000 1.606580 
# 
# From -- ./inp_files/34878.got.cif
#   From: 2010.05.17/outbox.cif.g08.bks.cpg/sg51_18_cif.got.tgz:34878.got - 2010.06.03 11:52:47.
