data_PCOD9403044
_publ_section_title
;
Structure prediction by ZEFSAII (Michael W. Deem and Ramdas Pophale) SiO2 
 PCOD9403044
Probable space group: P M M A
;
_chemical_formula_sum "Si O2"
_cell_formula_units_Z 48
_cell_length_a 9.275296
_cell_length_b 14.032520
_cell_length_c 24.754836
_cell_angle_alpha 90.000000
_cell_angle_beta 90.000000
_cell_angle_gamma 90.000000
_cell_volume 3221.984905
_symmetry_space_group_name_H-M "P M M A"
_symmetry_group_IT_number 51
_symmetry_cell_setting 'orthorhombic'
loop_
_space_group_symop_operation_xyz
x,y,z
1/2-x,-y,z
1/2+x,-y,-z
-x,y,-z
-x,-y,-z
1/2+x,y,-z
1/2-x,y,z
x,-y,z
loop_
_atom_site_type_symbol
_atom_site_label
_atom_site_fract_x
_atom_site_fract_y
_atom_site_fract_z
Si Si1 0.078503 0.888844 0.610144
Si Si2 0.926069 0.889760 0.172061
Si Si3 0.578310 0.717157 0.554492
Si Si4 0.922454 0.390649 0.665468
Si Si5 0.916369 0.116045 0.053081
Si Si6 0.922197 0.219677 0.278806
O O1 0.250000 0.876141 0.599549
O O2 0.052435 0.854029 0.671740
O O3 0.987104 0.819152 0.572287
O O4 0.043653 0.000000 0.603855
O O5 0.750000 0.890003 0.170963
O O6 0.973543 0.856216 0.112427
O O7 0.971469 0.825669 0.222353
O O8 0.969981 0.000000 0.180073
O O9 0.500000 0.685786 0.500000
O O10 0.750000 0.723428 0.546952
O O11 0.548331 0.646593 0.604631
O O12 0.750000 0.384845 0.673195
O O13 0.967684 0.500000 0.672053
O O14 0.000434 0.317270 0.705198
O O15 0.750000 0.145099 0.048850
O O16 0.919288 0.000000 0.053463
O O17 0.000000 0.148580 0.000000
O O18 0.750000 0.234643 0.276064
#
# Coordination Sequence:
#
# PCOD9403044 Si02
#       6
#     8   8   8   8   8   8
#     4   9  17  29  45  64  86 112 139 167 200 237
#     4   8  13  22  38  60  86 116 145 172 205 241
#     4  10  20  33  48  65  84 106 134 167 201 240
#     4   9  19  35  50  63  83 109 131 158 206 259
#     4   8  13  21  33  50  76 112 149 178 202 230
#     4   9  16  27  45  67  86 105 137 176 205 238
#
# _framework density 14.897648999999999
#
# number of rings (size 3 to 8) (size 9 to 14) (size 15 to 20)
#    0.000    3.167    0.000    2.000    0.000    4.000 
#    0.000    0.833    0.000    2.500    0.000    0.000 
#    0.000    0.667    0.000    1.500    0.000    2.667 
#
# Total GULP energy -267277.945978 kJ/mol
# GULP energy per Si atom -5568.290541 kJ/mol
# Density = 1.486374 g / cm^3
# Si number density = 14.897649 Si / 1000 Ang^3
#
#
#
# Elastic Constant Matrix: (Units=GPa)
#
#
# Indices 1 2 3 4 5 6 
#
# 1 23.5126 23.7155 38.0615 0.0000 0.0000 0.0000
# 2 23.7155 78.0385 39.5387 0.0000 0.0000 0.0000
# 3 38.0615 39.5387 121.4051 0.0000 0.0000 0.0000
# 4 0.0000 0.0000 0.0000 9.7910 0.0000 0.0000
# 5 0.0000 0.0000 0.0000 0.0000 21.4718 0.0000
# 6 0.0000 0.0000 0.0000 0.0000 0.0000 17.7171
#
#
#
# Elastic Compliance Matrix: (Units=1/GPa)
#
#
# Indices 1 2 3 4 5 6 
#
# 1 0.104020 -0.018070 -0.026726 0.000000 0.000000 0.000000
# 2 -0.018070 0.018486 -0.000355 0.000000 0.000000 0.000000
# 3 -0.026726 -0.000355 0.016731 0.000000 0.000000 0.000000
# 4 0.000000 0.000000 0.000000 0.102134 0.000000 0.000000
# 5 0.000000 0.000000 0.000000 0.000000 0.046573 0.000000
# 6 0.000000 0.000000 0.000000 0.000000 0.000000 0.056443
#
#
# Mechanical properties :
#
#
# Convention : Reuss Voigt Hill
#
# Bulk Modulus (GPa) = 20.43565 47.28750 33.86158
# Shear Modulus (GPa) = 11.08646 17.90536 14.49591
#
# Velocity S-wave (km/s) = 2.73092 3.47059 3.12273
# Velocity P-wave (km/s) = 4.86734 6.91885 5.98170
#
# Compressibility (1/GPa) = 0.04893409
#
# Stress axis : x y z
#
# Youngs Moduli (GPa) = 9.61354 54.09625 59.76789
#
# Poissons Ratio (x) = 0.97753 1.59736
# Poissons Ratio (y) = 0.17372 0.02123
# Poissons Ratio (z) = 0.25693 0.01921
#
# Static dielectric constant tensor:
#      x y z
#    x 1.497490 0.000000 0.000000 
#    y 0.000000 1.465770 0.000000 
#    z 0.000000 0.000000 1.508850 
# 
# From -- ./inp_files/34627.got.cif
#   From: 2010.05.17/outbox.cif.g08.bks.cpg/sg51_18_cif.got.tgz:34627.got - 2010.06.03 11:52:47.
