data_PCOD9403618
_publ_section_title
;
Structure prediction by ZEFSAII (Michael W. Deem and Ramdas Pophale) SiO2 
 PCOD9403618
Probable space group: P M M A
;
_chemical_formula_sum "Si O2"
_cell_formula_units_Z 48
_cell_length_a 31.698916
_cell_length_b 7.699937
_cell_length_c 9.663847
_cell_angle_alpha 90.000000
_cell_angle_beta 90.000000
_cell_angle_gamma 90.000000
_cell_volume 2358.748453
_symmetry_space_group_name_H-M "P M M A"
_symmetry_group_IT_number 51
_symmetry_cell_setting 'orthorhombic'
loop_
_space_group_symop_operation_xyz
x,y,z
1/2-x,-y,z
1/2+x,-y,-z
-x,y,-z
-x,-y,-z
1/2+x,y,-z
1/2-x,y,z
x,-y,z
loop_
_atom_site_type_symbol
_atom_site_label
_atom_site_fract_x
_atom_site_fract_y
_atom_site_fract_z
Si Si1 0.628563 0.796869 0.657128
Si Si2 0.297349 0.707377 0.826473
Si Si3 0.049894 0.710076 0.153679
Si Si4 0.454542 0.712039 0.835641
Si Si5 0.702020 0.210085 0.855991
Si Si6 0.623419 0.704414 0.340949
O O1 0.586339 0.775193 0.746756
O O2 0.667645 0.724778 0.746863
O O3 0.623780 0.719721 0.505247
O O4 0.636603 0.000000 0.636279
O O5 0.250000 0.778717 0.803628
O O6 0.294784 0.500000 0.804674
O O7 0.334085 0.778324 0.728316
O O8 0.308582 0.736657 0.987185
O O9 0.050877 0.500000 0.157995
O O10 0.002569 0.767473 0.194025
O O11 0.056555 0.761845 0.993451
O O12 0.455673 0.500000 0.833111
O O13 0.419063 0.775312 0.729928
O O14 0.750000 0.268196 0.826705
O O15 0.701675 0.000000 0.852948
O O16 0.623385 0.500000 0.306110
#
# Coordination Sequence:
#
# PCOD9403618 Si02
#       6
#     8   8   8   8   8   8
#     4  11  23  35  48  73 106 136 169 207 247 293
#     4   9  18  33  55  82 105 125 160 212 259 296
#     4   9  17  34  58  78  97 126 167 211 254 298
#     4   8  16  32  56  80  97 124 170 212 244 296
#     4   9  19  36  55  73  97 132 170 205 244 295
#     4  10  20  34  51  73 104 138 167 199 246 300
#
# _framework density 20.349775000000001
#
# number of rings (size 3 to 8) (size 9 to 14) (size 15 to 20)
#    0.000    2.667    0.000    2.500    0.000    4.667 
#    0.000    6.667    0.000    0.000    0.000    0.000 
#    0.000    0.000    0.000    0.000    0.000    0.000 
#
# Total GULP energy -267882.527579 kJ/mol
# GULP energy per Si atom -5580.885991 kJ/mol
# Density = 2.030346 g / cm^3
# Si number density = 20.349775 Si / 1000 Ang^3
#
#
#
# Elastic Constant Matrix: (Units=GPa)
#
#
# Indices 1 2 3 4 5 6 
#
# 1 148.0569 -5.6426 106.4140 0.0000 0.0000 0.0000
# 2 -5.6426 28.3059 -16.0202 0.0000 0.0000 0.0000
# 3 106.4140 -16.0202 110.8430 0.0000 0.0000 0.0000
# 4 0.0000 0.0000 0.0000 57.4888 0.0000 0.0000
# 5 0.0000 0.0000 0.0000 0.0000 -6.9698 0.0000
# 6 0.0000 0.0000 0.0000 0.0000 0.0000 14.4222
#
#
#
# Elastic Compliance Matrix: (Units=1/GPa)
#
#
# Indices 1 2 3 4 5 6 
#
# 1 0.023670 -0.008868 -0.024006 0.000000 0.000000 0.000000
# 2 -0.008868 0.041798 0.014555 0.000000 0.000000 0.000000
# 3 -0.024006 0.014555 0.034173 0.000000 0.000000 0.000000
# 4 0.000000 0.000000 0.000000 0.017395 0.000000 0.000000
# 5 0.000000 0.000000 0.000000 0.000000 -0.143476 0.000000
# 6 0.000000 0.000000 0.000000 0.000000 0.000000 0.069338
#
#
# Mechanical properties :
#
#
# Convention : Reuss Voigt Hill
#
# Bulk Modulus (GPa) = 15.87254 50.74535 33.30894
# Shear Modulus (GPa) = 49.73263 26.48522 38.10893
#
# Velocity S-wave (km/s) = 4.94894 3.61154 4.33216
# Velocity P-wave (km/s) = 6.36182 6.51012 6.43640
#
# Compressibility (1/GPa) = 0.06300188
#
# Stress axis : x y z
#
# Youngs Moduli (GPa) = 42.24679 23.92453 29.26326
#
# Poissons Ratio (x) = 0.21217 0.70250
# Poissons Ratio (y) = 0.37465 -0.42593
# Poissons Ratio (z) = 1.01419 -0.34822
#
# Static dielectric constant tensor:
#      x y z
#    x 1.742310 0.000000 0.000000 
#    y 0.000000 1.759590 0.000000 
#    z 0.000000 0.000000 1.665990 
# 
# From -- ./inp_files/12796.got.cif
#   From: 2010.05.17/outbox.cif.g08.bks.cpg/sg51_7_cif.got.tgz:12796.got - 2010.06.03 11:52:47.
