data_PCOD9403005
_publ_section_title
;
Structure prediction by ZEFSAII (Michael W. Deem and Ramdas Pophale) SiO2 
 PCOD9403005
Probable space group: P M M A
;
_chemical_formula_sum "Si O2"
_cell_formula_units_Z 48
_cell_length_a 7.658931
_cell_length_b 10.175001
_cell_length_c 33.506227
_cell_angle_alpha 90.000000
_cell_angle_beta 90.000000
_cell_angle_gamma 90.000000
_cell_volume 2611.127892
_symmetry_space_group_name_H-M "P M M A"
_symmetry_group_IT_number 51
_symmetry_cell_setting 'orthorhombic'
loop_
_space_group_symop_operation_xyz
x,y,z
1/2-x,-y,z
1/2+x,-y,-z
-x,y,-z
-x,-y,-z
1/2+x,y,-z
1/2-x,y,z
x,-y,z
loop_
_atom_site_type_symbol
_atom_site_label
_atom_site_fract_x
_atom_site_fract_y
_atom_site_fract_z
Si Si1 0.546462 0.246812 0.596102
Si Si2 0.750000 0.658956 0.105807
Si Si3 0.543229 0.847680 0.752292
Si Si4 0.463200 0.651709 0.319144
Si Si5 0.054232 0.659572 0.044414
Si Si6 0.542512 0.500000 0.453463
Si Si7 0.750000 0.847200 0.181430
Si Si8 0.460985 0.000000 0.453068
O O1 0.750000 0.214951 0.603330
O O2 0.472531 0.285370 0.639296
O O3 0.533971 0.373385 0.568203
O O4 0.471195 0.126584 0.570866
O O5 0.750000 0.500000 0.112811
O O6 0.583330 0.693602 0.078406
O O7 0.750000 0.743231 0.145837
O O8 0.750000 0.829834 0.761148
O O9 0.491866 0.745134 0.717845
O O10 0.419727 0.829077 0.790418
O O11 0.520757 0.000000 0.738873
O O12 0.250000 0.648205 0.320794
O O13 0.520881 0.500000 0.315274
O O14 0.250000 0.703975 0.053388
O O15 0.054689 0.500000 0.042808
O O16 0.000000 0.704008 0.000000
O O17 0.750000 0.500000 0.448107
O O18 0.500000 0.500000 0.500000
O O19 0.750000 0.000000 0.167617
O O20 0.500000 0.000000 0.500000
O O21 0.250000 0.000000 0.451291
#
# Coordination Sequence:
#
# PCOD9403005 Si02
#       8
#     8   4   8   8   8   4   4   4
#     4  10  20  37  57  81 108 139 176 219 264 321
#     4  10  20  32  52  82 112 148 194 240 286 336
#     4   9  19  36  59  81 104 142 185 227 274 337
#     4   9  17  32  56  84 111 135 167 213 273 325
#     4   9  15  26  47  78 114 149 189 240 291 335
#     4  12  24  38  56  78 106 144 182 214 262 324
#     4  10  22  40  56  78 114 150 192 232 286 342
#     4  10  22  36  56  78 104 140 180 218 262 310
#
# _framework density 18.382859
#
# number of rings (size 3 to 8) (size 9 to 14) (size 15 to 20)
#    0.000    2.333    1.667    1.250    1.167    3.333 
#    1.500    0.000    0.000    0.500    0.000    0.000 
#    0.000    0.000    0.000    0.000    0.000    0.000 
#
# Total GULP energy -267748.282997 kJ/mol
# GULP energy per Si atom -5578.089229 kJ/mol
# Density = 1.834102 g / cm^3
# Si number density = 18.382859 Si / 1000 Ang^3
#
#
#
# Elastic Constant Matrix: (Units=GPa)
#
#
# Indices 1 2 3 4 5 6 
#
# 1 84.5130 30.8128 51.1265 0.0000 0.0000 0.0000
# 2 30.8128 130.7558 95.1237 0.0000 0.0000 0.0000
# 3 51.1265 95.1237 159.1604 0.0000 0.0000 0.0000
# 4 0.0000 0.0000 0.0000 10.0374 0.0000 0.0000
# 5 0.0000 0.0000 0.0000 0.0000 22.4029 0.0000
# 6 0.0000 0.0000 0.0000 0.0000 0.0000 15.2430
#
#
#
# Elastic Compliance Matrix: (Units=1/GPa)
#
#
# Indices 1 2 3 4 5 6 
#
# 1 0.014687 -0.000051 -0.004687 0.000000 0.000000 0.000000
# 2 -0.000051 0.013531 -0.008071 0.000000 0.000000 0.000000
# 3 -0.004687 -0.008071 0.012612 0.000000 0.000000 0.000000
# 4 0.000000 0.000000 0.000000 0.099627 0.000000 0.000000
# 5 0.000000 0.000000 0.000000 0.000000 0.044637 0.000000
# 6 0.000000 0.000000 0.000000 0.000000 0.000000 0.065604
#
#
# Mechanical properties :
#
#
# Convention : Reuss Voigt Hill
#
# Bulk Modulus (GPa) = 65.73683 80.95058 73.34370
# Shear Modulus (GPa) = 17.76916 22.69442 20.23179
#
# Velocity S-wave (km/s) = 3.11242 3.51742 3.32110
# Velocity P-wave (km/s) = 6.98238 7.78639 7.39532
#
# Compressibility (1/GPa) = 0.01521217
#
# Stress axis : x y z
#
# Youngs Moduli (GPa) = 68.08892 73.90325 79.28854
#
# Poissons Ratio (x) = 0.00377 0.37165
# Poissons Ratio (y) = 0.00347 0.63991
# Poissons Ratio (z) = 0.31915 0.59645
#
# Static dielectric constant tensor:
#      x y z
#    x 1.675680 0.000000 0.000000 
#    y 0.000000 1.616740 0.000000 
#    z 0.000000 0.000000 1.594800 
# 
# From -- ./inp_files/37297.got.cif
#   From: 2010.05.17/outbox.cif.g08.bks.cpg/sg51_19_cif.got.tgz:37297.got - 2010.06.03 11:52:47.
