data_PCOD9403973
_publ_section_title
;
Structure prediction by ZEFSAII (Michael W. Deem and Ramdas Pophale) SiO2 
 PCOD9403973
Probable space group: P M M A
;
_chemical_formula_sum "Si O2"
_cell_formula_units_Z 64
_cell_length_a 25.477834
_cell_length_b 8.154108
_cell_length_c 13.438522
_cell_angle_alpha 90.000000
_cell_angle_beta 90.000000
_cell_angle_gamma 90.000000
_cell_volume 2791.839642
_symmetry_space_group_name_H-M "P M M A"
_symmetry_group_IT_number 51
_symmetry_cell_setting 'orthorhombic'
loop_
_space_group_symop_operation_xyz
x,y,z
1/2-x,-y,z
1/2+x,-y,-z
-x,y,-z
-x,-y,-z
1/2+x,y,-z
1/2-x,y,z
x,-y,z
loop_
_atom_site_type_symbol
_atom_site_label
_atom_site_fract_x
_atom_site_fract_y
_atom_site_fract_z
Si Si1 0.838194 0.811480 0.027640
Si Si2 0.918146 0.690918 0.544935
Si Si3 0.970499 0.700493 0.748030
Si Si4 0.189590 0.811608 0.396251
Si Si5 0.187475 0.321229 0.188050
Si Si6 0.307559 0.801706 0.756441
Si Si7 0.080260 0.698323 0.673557
Si Si8 0.559052 0.305692 0.963690
O O1 0.812990 0.745083 0.128405
O O2 0.822106 0.000000 0.017733
O O3 0.825921 0.724700 0.923880
O O4 0.900801 0.792118 0.032084
O O5 0.933147 0.500000 0.544329
O O6 0.943229 0.759004 0.646173
O O7 0.855235 0.708684 0.550770
O O8 0.933788 0.759565 0.437699
O O9 0.969380 0.500000 0.750580
O O10 0.940840 0.751382 0.848542
O O11 0.031902 0.748616 0.744236
O O12 0.250000 0.755809 0.409927
O O13 0.176002 0.799508 0.278660
O O14 0.186393 0.000000 0.429054
O O15 0.250000 0.332965 0.189147
O O16 0.164363 0.500000 0.213800
O O17 0.250000 0.748989 0.717033
O O18 0.361094 0.749767 0.702877
O O19 0.307710 0.000000 0.757100
O O20 0.080288 0.500000 0.671890
O O21 0.572386 0.500000 0.969365
O O22 0.500000 0.288707 0.000000
#
# Coordination Sequence:
#
# PCOD9403973 Si02
#       8
#     8   8   8   8   8   8   8   8
#     4  11  22  36  56  81 111 147 186 227 274 337
#     4  10  20  35  58  85 112 147 192 241 293 349
#     4   9  18  35  58  84 117 153 187 231 290 348
#     4  10  21  36  54  79 114 154 192 232 283 345
#     4  10  20  34  54  80 109 141 178 223 274 327
#     4  10  23  42  60  80 112 154 194 234 288 351
#     4  10  21  38  61  86 110 142 192 248 294 341
#     4  10  20  34  55  83 115 151 189 229 276 335
#
# _framework density 22.923953000000001
#
# number of rings (size 3 to 8) (size 9 to 14) (size 15 to 20)
#    0.000    2.000    0.000    3.375    0.000    8.000 
#    0.000    3.750    0.000    1.500    0.000    0.000 
#    0.000    0.000    0.000    0.000    0.000    0.000 
#
# Total GULP energy -357427.416919 kJ/mol
# GULP energy per Si atom -5584.803389 kJ/mol
# Density = 2.287178 g / cm^3
# Si number density = 22.923953 Si / 1000 Ang^3
#
#
#
# Elastic Constant Matrix: (Units=GPa)
#
#
# Indices 1 2 3 4 5 6 
#
# 1 109.8877 2.2462 14.8406 0.0000 0.0000 0.0000
# 2 2.2462 16.2297 -0.6702 0.0000 0.0000 0.0000
# 3 14.8406 -0.6702 62.1672 0.0000 0.0000 0.0000
# 4 0.0000 0.0000 0.0000 13.7124 0.0000 0.0000
# 5 0.0000 0.0000 0.0000 0.0000 32.2941 0.0000
# 6 0.0000 0.0000 0.0000 0.0000 0.0000 8.7103
#
#
#
# Elastic Compliance Matrix: (Units=1/GPa)
#
#
# Indices 1 2 3 4 5 6 
#
# 1 0.009435 -0.001399 -0.002267 0.000000 0.000000 0.000000
# 2 -0.001399 0.061850 0.001001 0.000000 0.000000 0.000000
# 3 -0.002267 0.001001 0.016638 0.000000 0.000000 0.000000
# 4 0.000000 0.000000 0.000000 0.072926 0.000000 0.000000
# 5 0.000000 0.000000 0.000000 0.000000 0.030965 0.000000
# 6 0.000000 0.000000 0.000000 0.000000 0.000000 0.114807
#
#
# Mechanical properties :
#
#
# Convention : Reuss Voigt Hill
#
# Bulk Modulus (GPa) = 12.10781 24.56862 18.33822
# Shear Modulus (GPa) = 14.72823 22.40123 18.56473
#
# Velocity S-wave (km/s) = 2.53747 3.12941 2.84886
# Velocity P-wave (km/s) = 3.72535 4.87835 4.34031
#
# Compressibility (1/GPa) = 0.08259131
#
# Stress axis : x y z
#
# Youngs Moduli (GPa) = 105.98810 16.16803 60.10436
#
# Poissons Ratio (x) = 0.02263 0.13628
# Poissons Ratio (y) = 0.14832 -0.06016
# Poissons Ratio (z) = 0.24032 -0.01618
#
# Static dielectric constant tensor:
#      x y z
#    x 1.893990 0.000000 0.000000 
#    y 0.000000 1.835640 0.000000 
#    z 0.000000 0.000000 1.874830 
# 
# From -- ./inp_files/26343.got.cif
#   From: 2010.05.17/outbox.cif.g08.bks.cpg/sg51_14_cif.got.tgz:26343.got - 2010.06.03 11:52:47.
