data_PCOD9403210
_publ_section_title
;
Structure prediction by ZEFSAII (Michael W. Deem and Ramdas Pophale) SiO2 
 PCOD9403210
Probable space group: P M M A
;
_chemical_formula_sum "Si O2"
_cell_formula_units_Z 64
_cell_length_a 7.580269
_cell_length_b 9.541043
_cell_length_c 43.066229
_cell_angle_alpha 90.000000
_cell_angle_beta 90.000000
_cell_angle_gamma 90.000000
_cell_volume 3114.707841
_symmetry_space_group_name_H-M "P M M A"
_symmetry_group_IT_number 51
_symmetry_cell_setting 'orthorhombic'
loop_
_space_group_symop_operation_xyz
x,y,z
1/2-x,-y,z
1/2+x,-y,-z
-x,y,-z
-x,-y,-z
1/2+x,y,-z
1/2-x,y,z
x,-y,z
loop_
_atom_site_type_symbol
_atom_site_label
_atom_site_fract_x
_atom_site_fract_y
_atom_site_fract_z
Si Si1 0.533484 0.160869 0.593462
Si Si2 0.461383 0.340191 0.465161
Si Si3 0.966393 0.338918 0.906428
Si Si4 0.540668 0.659786 0.651863
Si Si5 0.538625 0.840206 0.964991
Si Si6 0.459859 0.158359 0.152142
Si Si7 0.538132 0.662952 0.280423
Si Si8 0.537224 0.338000 0.212601
O O1 0.750000 0.160812 0.593552
O O2 0.474824 0.241484 0.562442
O O3 0.473047 0.245065 0.623941
O O4 0.477095 0.000000 0.593852
O O5 0.500000 0.289677 0.500000
O O6 0.250000 0.347191 0.462161
O O7 0.529689 0.500000 0.462320
O O8 0.750000 0.339837 0.906285
O O9 0.023141 0.500000 0.904951
O O10 0.024822 0.261414 0.937861
O O11 0.027321 0.250753 0.876583
O O12 0.750000 0.648133 0.647198
O O13 0.468026 0.500000 0.651107
O O14 0.515591 0.722860 0.686329
O O15 0.750000 0.847100 0.961937
O O16 0.470552 0.000000 0.961611
O O17 0.500000 0.792252 0.000000
O O18 0.250000 0.147532 0.147351
O O19 0.486208 0.239903 0.184280
O O20 0.531385 0.000000 0.152842
O O21 0.750000 0.665162 0.280105
O O22 0.480093 0.500000 0.281126
O O23 0.477656 0.715964 0.246687
O O24 0.750000 0.342746 0.213285
O O25 0.476972 0.500000 0.208342
#
# Coordination Sequence:
#
# PCOD9403210 Si02
#       8
#     8   8   8   8   8   8   8   8
#     4   9  17  29  45  65  90 120 150 181 222 268
#     4   9  17  30  48  68  89 114 146 183 221 263
#     4   9  17  30  49  71  94 123 159 198 240 283
#     4   9  16  27  46  70  91 114 150 191 225 262
#     4   9  17  30  48  69  94 124 156 190 231 281
#     4  10  20  33  50  73  99 127 162 202 242 287
#     4   8  15  29  48  69  93 121 152 187 229 276
#     4   9  18  33  52  73  98 128 161 197 240 290
#
# _framework density 20.547673
#
# number of rings (size 3 to 8) (size 9 to 14) (size 15 to 20)
#    0.000    3.000    0.000    1.875    0.000    5.000 
#    0.000    3.125    0.000    8.625    0.000    0.000 
#    0.000    0.000    0.000    0.000    0.000    0.000 
#
# Total GULP energy -356928.401161 kJ/mol
# GULP energy per Si atom -5577.006268 kJ/mol
# Density = 2.050091 g / cm^3
# Si number density = 20.547673 Si / 1000 Ang^3
#
#
#
# Elastic Constant Matrix: (Units=GPa)
#
#
# Indices 1 2 3 4 5 6 
#
# 1 42.5773 6.5715 0.5599 0.0000 0.0000 0.0000
# 2 6.5715 133.8427 131.3848 0.0000 0.0000 0.0000
# 3 0.5599 131.3848 243.4695 0.0000 0.0000 0.0000
# 4 0.0000 0.0000 0.0000 -49.2753 0.0000 0.0000
# 5 0.0000 0.0000 0.0000 0.0000 21.2807 0.0000
# 6 0.0000 0.0000 0.0000 0.0000 0.0000 5.2604
#
#
#
# Elastic Compliance Matrix: (Units=1/GPa)
#
#
# Indices 1 2 3 4 5 6 
#
# 1 0.023837 -0.002374 0.001226 0.000000 0.000000 0.000000
# 2 -0.002374 0.016124 -0.008696 0.000000 0.000000 0.000000
# 3 0.001226 -0.008696 0.008797 0.000000 0.000000 0.000000
# 4 0.000000 0.000000 0.000000 -0.020294 0.000000 0.000000
# 5 0.000000 0.000000 0.000000 0.000000 0.046991 0.000000
# 6 0.000000 0.000000 0.000000 0.000000 0.000000 0.190100
#
#
# Mechanical properties :
#
#
# Convention : Reuss Voigt Hill
#
# Bulk Modulus (GPa) = 34.39856 77.43578 55.91717
# Shear Modulus (GPa) = 16.95306 14.21138 15.58222
#
# Velocity S-wave (km/s) = 2.87550 2.63274 2.75679
# Velocity P-wave (km/s) = 5.27275 6.85635 6.11602
#
# Compressibility (1/GPa) = 0.02907099
#
# Stress axis : x y z
#
# Youngs Moduli (GPa) = 41.95160 62.01962 113.67613
#
# Poissons Ratio (x) = 0.14725 -0.13941
# Poissons Ratio (y) = 0.09960 0.98848
# Poissons Ratio (z) = -0.05145 0.53930
#
# Static dielectric constant tensor:
#      x y z
#    x 1.778790 0.000000 0.000000 
#    y 0.000000 1.704210 0.000000 
#    z 0.000000 0.000000 1.730500 
# 
# From -- ./inp_files/37774.got.cif
#   From: 2010.05.17/outbox.cif.g08.bks.cpg/sg51_19_cif.got.tgz:37774.got - 2010.06.03 11:52:47.
