data_PCOD9403478
_publ_section_title
;
Structure prediction by ZEFSAII (Michael W. Deem and Ramdas Pophale) SiO2 
 PCOD9403478
Probable space group: P M M A
;
_chemical_formula_sum "Si O2"
_cell_formula_units_Z 56
_cell_length_a 14.471082
_cell_length_b 8.872260
_cell_length_c 23.361443
_cell_angle_alpha 90.000000
_cell_angle_beta 90.000000
_cell_angle_gamma 90.000000
_cell_volume 2999.403747
_symmetry_space_group_name_H-M "P M M A"
_symmetry_group_IT_number 51
_symmetry_cell_setting 'orthorhombic'
loop_
_space_group_symop_operation_xyz
x,y,z
1/2-x,-y,z
1/2+x,-y,-z
-x,y,-z
-x,-y,-z
1/2+x,y,-z
1/2-x,y,z
x,-y,z
loop_
_atom_site_type_symbol
_atom_site_label
_atom_site_fract_x
_atom_site_fract_y
_atom_site_fract_z
Si Si1 0.650893 0.318796 0.099527
Si Si2 0.141903 0.819674 0.248094
Si Si3 0.107165 0.170955 0.018487
Si Si4 0.960590 0.679129 0.644114
Si Si5 0.639076 0.824754 0.537042
Si Si6 0.945850 0.681148 0.865509
Si Si7 0.643863 0.319450 0.414461
O O1 0.750000 0.272601 0.126068
O O2 0.648094 0.500000 0.098329
O O3 0.554244 0.270451 0.128486
O O4 0.650534 0.258748 0.034593
O O5 0.250000 0.778099 0.253923
O O6 0.085920 0.763767 0.303246
O O7 0.098982 0.745594 0.191601
O O8 0.136252 0.000000 0.243695
O O9 0.107798 0.255892 0.078873
O O10 0.141700 0.000000 0.023858
O O11 0.000000 0.163129 0.000000
O O12 0.952159 0.500000 0.652672
O O13 0.909509 0.727830 0.585825
O O14 0.068369 0.716901 0.633527
O O15 0.750000 0.814790 0.544563
O O16 0.618900 0.763176 0.473645
O O17 0.612165 0.000000 0.542096
O O18 0.942583 0.500000 0.865748
O O19 0.750000 0.281461 0.399792
O O20 0.639296 0.500000 0.424492
#
# Coordination Sequence:
#
# PCOD9403478 Si02
#       7
#     8   8   8   8   8   8   8
#     4   9  18  33  54  82 114 145 178 217 262 315
#     4  11  25  43  60  78 103 137 177 222 271 321
#     4   9  17  30  50  77 109 143 178 218 263 309
#     4  11  22  36  57  82 107 140 181 223 267 314
#     4  10  20  33  52  81 115 148 180 217 265 317
#     4  10  20  36  58  81 107 142 182 223 267 315
#     4   9  19  36  56  80 111 144 178 217 262 315
#
# _framework density 18.670376999999998
#
# number of rings (size 3 to 8) (size 9 to 14) (size 15 to 20)
#    0.000    2.143    0.000    3.000    0.000    9.714 
#    0.000    0.714    0.000    4.286    0.000    0.000 
#    0.000    0.000    0.000    0.000    0.000    0.000 
#
# Total GULP energy -312568.194666 kJ/mol
# GULP energy per Si atom -5581.574905 kJ/mol
# Density = 1.862788 g / cm^3
# Si number density = 18.670377 Si / 1000 Ang^3
#
#
#
# Elastic Constant Matrix: (Units=GPa)
#
#
# Indices 1 2 3 4 5 6 
#
# 1 89.2797 28.9938 62.0182 0.0000 0.0000 0.0000
# 2 28.9938 35.2256 30.5374 0.0000 0.0000 0.0000
# 3 62.0182 30.5374 99.4123 0.0000 0.0000 0.0000
# 4 0.0000 0.0000 0.0000 51.7278 0.0000 0.0000
# 5 0.0000 0.0000 0.0000 0.0000 18.2976 0.0000
# 6 0.0000 0.0000 0.0000 0.0000 0.0000 15.5550
#
#
#
# Elastic Compliance Matrix: (Units=1/GPa)
#
#
# Indices 1 2 3 4 5 6 
#
# 1 0.021384 -0.008227 -0.010813 0.000000 0.000000 0.000000
# 2 -0.008227 0.041857 -0.007725 0.000000 0.000000 0.000000
# 3 -0.010813 -0.007725 0.019178 0.000000 0.000000 0.000000
# 4 0.000000 0.000000 0.000000 0.019332 0.000000 0.000000
# 5 0.000000 0.000000 0.000000 0.000000 0.054652 0.000000
# 6 0.000000 0.000000 0.000000 0.000000 0.000000 0.064288
#
#
# Mechanical properties :
#
#
# Convention : Reuss Voigt Hill
#
# Bulk Modulus (GPa) = 34.61622 51.89072 43.25347
# Shear Modulus (GPa) = 17.61490 23.94061 20.77776
#
# Velocity S-wave (km/s) = 3.07492 3.58478 3.33959
# Velocity P-wave (km/s) = 5.58461 6.70728 6.17152
#
# Compressibility (1/GPa) = 0.02888819
#
# Stress axis : x y z
#
# Youngs Moduli (GPa) = 46.76441 23.89092 52.14321
#
# Poissons Ratio (x) = 0.19654 0.56383
# Poissons Ratio (y) = 0.38472 0.40282
# Poissons Ratio (z) = 0.50567 0.18457
#
# Static dielectric constant tensor:
#      x y z
#    x 1.702680 0.000000 0.000000 
#    y 0.000000 1.629620 0.000000 
#    z 0.000000 0.000000 1.593080 
# 
# From -- ./inp_files/33481.got.cif
#   From: 2010.05.17/outbox.cif.g08.bks.cpg/sg51_17_cif.got.tgz:33481.got - 2010.06.03 11:52:47.
