data_PCOD9403263
_publ_section_title
;
Structure prediction by ZEFSAII (Michael W. Deem and Ramdas Pophale) SiO2 
 PCOD9403263
Probable space group: P M M A
;
_chemical_formula_sum "Si O2"
_cell_formula_units_Z 48
_cell_length_a 15.146315
_cell_length_b 7.792511
_cell_length_c 20.248598
_cell_angle_alpha 90.000000
_cell_angle_beta 90.000000
_cell_angle_gamma 90.000000
_cell_volume 2389.898006
_symmetry_space_group_name_H-M "P M M A"
_symmetry_group_IT_number 51
_symmetry_cell_setting 'orthorhombic'
loop_
_space_group_symop_operation_xyz
x,y,z
1/2-x,-y,z
1/2+x,-y,-z
-x,y,-z
-x,-y,-z
1/2+x,y,-z
1/2-x,y,z
x,-y,z
loop_
_atom_site_type_symbol
_atom_site_label
_atom_site_fract_x
_atom_site_fract_y
_atom_site_fract_z
Si Si1 0.058791 0.709803 0.063498
Si Si2 0.018708 0.199786 0.670773
Si Si3 0.148384 0.792386 0.557061
Si Si4 0.750000 0.290032 0.134904
Si Si5 0.149409 0.703334 0.407829
Si Si6 0.750000 0.290536 0.980378
Si Si7 0.438831 0.297463 0.817732
O O1 0.061543 0.500000 0.064456
O O2 0.159343 0.767910 0.053479
O O3 0.009667 0.771348 0.129505
O O4 0.000000 0.757565 0.000000
O O5 0.920639 0.218442 0.642064
O O6 0.084745 0.272280 0.614803
O O7 0.031756 0.277501 0.742611
O O8 0.040059 0.000000 0.677850
O O9 0.250000 0.737879 0.567526
O O10 0.121478 0.736550 0.483594
O O11 0.145926 0.000000 0.557171
O O12 0.750000 0.500000 0.137836
O O13 0.659686 0.228348 0.168819
O O14 0.750000 0.242805 0.057675
O O15 0.250000 0.769173 0.400963
O O16 0.150557 0.500000 0.396976
O O17 0.750000 0.500000 0.979028
O O18 0.433284 0.500000 0.831983
#
# Coordination Sequence:
#
# PCOD9403263 Si02
#       7
#     8   8   8   4   8   4   8
#     4   9  15  26  46  73 104 134 171 220 271 323
#     4  11  23  37  55  78 109 151 186 216 263 322
#     4   9  19  36  57  81 109 142 181 221 263 319
#     4   9  16  28  49  77 107 136 169 218 279 327
#     4  10  21  38  60  84 108 136 176 227 276 319
#     4   9  14  24  46  75 101 130 171 220 275 327
#     4  10  20  33  50  77 109 139 175 223 273 321
#
# _framework density 20.084540000000001
#
# number of rings (size 3 to 8) (size 9 to 14) (size 15 to 20)
#    0.000    2.333    1.667    1.500    1.167    4.333 
#    1.500    0.000    0.000    0.500    0.000    0.000 
#    0.000    0.000    0.000    0.000    0.000    0.000 
#
# Total GULP energy -267971.503932 kJ/mol
# GULP energy per Si atom -5582.739665 kJ/mol
# Density = 2.003883 g / cm^3
# Si number density = 20.084540 Si / 1000 Ang^3
#
#
#
# Elastic Constant Matrix: (Units=GPa)
#
#
# Indices 1 2 3 4 5 6 
#
# 1 161.4720 -3.3463 97.6502 0.0000 0.0000 0.0000
# 2 -3.3463 21.0107 -10.2415 0.0000 0.0000 0.0000
# 3 97.6502 -10.2415 136.3982 0.0000 0.0000 0.0000
# 4 0.0000 0.0000 0.0000 61.0060 0.0000 0.0000
# 5 0.0000 0.0000 0.0000 0.0000 13.0316 0.0000
# 6 0.0000 0.0000 0.0000 0.0000 0.0000 5.2759
#
#
#
# Elastic Compliance Matrix: (Units=1/GPa)
#
#
# Indices 1 2 3 4 5 6 
#
# 1 0.011016 -0.002169 -0.008049 0.000000 0.000000 0.000000
# 2 -0.002169 0.049830 0.005294 0.000000 0.000000 0.000000
# 3 -0.008049 0.005294 0.013492 0.000000 0.000000 0.000000
# 4 0.000000 0.000000 0.000000 0.016392 0.000000 0.000000
# 5 0.000000 0.000000 0.000000 0.000000 0.076737 0.000000
# 6 0.000000 0.000000 0.000000 0.000000 0.000000 0.189543
#
#
# Mechanical properties :
#
#
# Convention : Reuss Voigt Hill
#
# Bulk Modulus (GPa) = 15.50637 54.11174 34.80906
# Shear Modulus (GPa) = 12.87486 31.51726 22.19606
#
# Velocity S-wave (km/s) = 2.53461 3.96565 3.32796
# Velocity P-wave (km/s) = 4.03769 6.92596 5.66886
#
# Compressibility (1/GPa) = 0.06448964
#
# Stress axis : x y z
#
# Youngs Moduli (GPa) = 90.77739 20.06816 74.11933
#
# Poissons Ratio (x) = 0.04353 0.59662
# Poissons Ratio (y) = 0.19691 -0.39242
# Poissons Ratio (z) = 0.73071 -0.10625
#
# Static dielectric constant tensor:
#      x y z
#    x 1.718830 0.000000 0.000000 
#    y 0.000000 1.743840 0.000000 
#    z 0.000000 0.000000 1.662460 
# 
# From -- ./inp_files/29548.got.cif
#   From: 2010.05.17/outbox.cif.g08.bks.cpg/sg51_15_cif.got.tgz:29548.got - 2010.06.03 11:52:47.
