data_PCOD9403581
_publ_section_title
;
Structure prediction by ZEFSAII (Michael W. Deem and Ramdas Pophale) SiO2 
 PCOD9403581
Probable space group: P M M A
;
_chemical_formula_sum "Si O2"
_cell_formula_units_Z 48
_cell_length_a 18.627929
_cell_length_b 7.586825
_cell_length_c 18.314766
_cell_angle_alpha 90.000000
_cell_angle_beta 90.000000
_cell_angle_gamma 90.000000
_cell_volume 2588.367957
_symmetry_space_group_name_H-M "P M M A"
_symmetry_group_IT_number 51
_symmetry_cell_setting 'orthorhombic'
loop_
_space_group_symop_operation_xyz
x,y,z
1/2-x,-y,z
1/2+x,-y,-z
-x,y,-z
-x,-y,-z
1/2+x,y,-z
1/2-x,y,z
x,-y,z
loop_
_atom_site_type_symbol
_atom_site_label
_atom_site_fract_x
_atom_site_fract_y
_atom_site_fract_z
Si Si1 0.668024 0.287489 0.780281
Si Si2 0.832010 0.207325 0.940654
Si Si3 0.093975 0.294850 0.784202
Si Si4 0.025222 0.000000 0.583646
Si Si5 0.164679 0.000000 0.684355
Si Si6 0.557825 0.699465 0.055096
Si Si7 0.542285 0.702553 0.680268
O O1 0.750000 0.222783 0.773874
O O2 0.669113 0.500000 0.778957
O O3 0.637550 0.234603 0.859405
O O4 0.616165 0.230503 0.715538
O O5 0.750000 0.267892 0.936238
O O6 0.833635 0.000000 0.957036
O O7 0.872842 0.304681 0.004184
O O8 0.119417 0.500000 0.787463
O O9 0.079681 0.226309 0.866396
O O10 0.017027 0.295885 0.744297
O O11 0.144132 0.169040 0.735175
O O12 0.988743 0.171542 0.619176
O O13 0.000000 0.000000 0.500000
O O14 0.108399 0.000000 0.614908
O O15 0.250000 0.000000 0.666433
O O16 0.531000 0.500000 0.070994
O O17 0.500000 0.785911 0.000000
O O18 0.550962 0.500000 0.655883
#
# Coordination Sequence:
#
# PCOD9403581 Si02
#       7
#     8   8   8   4   4   8   8
#     4   9  17  31  51  74 103 141 181 220 265 314
#     4  10  21  32  43  66 101 138 176 218 268 320
#     4   9  19  35  55  79 106 143 190 235 277 320
#     4  10  22  40  62  89 114 141 174 205 259 335
#     4  10  22  40  61  83 112 143 180 227 274 329
#     4  10  20  34  50  70  99 137 185 237 282 322
#     4   9  18  35  58  82 110 141 176 218 260 314
#
# _framework density 18.544504
#
# number of rings (size 3 to 8) (size 9 to 14) (size 15 to 20)
#    0.000    2.500    0.000    1.500    2.333    5.333 
#    3.000    2.500    0.000    0.000    0.000    0.000 
#    0.000    0.000    0.000    0.000    0.000    0.000 
#
# Total GULP energy -267500.954792 kJ/mol
# GULP energy per Si atom -5572.936558 kJ/mol
# Density = 1.850230 g / cm^3
# Si number density = 18.544504 Si / 1000 Ang^3
#
#
#
# Elastic Constant Matrix: (Units=GPa)
#
#
# Indices 1 2 3 4 5 6 
#
# 1 73.9034 26.2955 63.5114 0.0000 0.0000 0.0000
# 2 26.2955 72.7686 38.0217 0.0000 0.0000 0.0000
# 3 63.5114 38.0217 135.6713 0.0000 0.0000 0.0000
# 4 0.0000 0.0000 0.0000 17.9085 0.0000 0.0000
# 5 0.0000 0.0000 0.0000 0.0000 15.4269 0.0000
# 6 0.0000 0.0000 0.0000 0.0000 0.0000 15.9511
#
#
#
# Elastic Compliance Matrix: (Units=1/GPa)
#
#
# Indices 1 2 3 4 5 6 
#
# 1 0.023251 -0.003180 -0.009993 0.000000 0.000000 0.000000
# 2 -0.003180 0.016535 -0.003145 0.000000 0.000000 0.000000
# 3 -0.009993 -0.003145 0.012930 0.000000 0.000000 0.000000
# 4 0.000000 0.000000 0.000000 0.055840 0.000000 0.000000
# 5 0.000000 0.000000 0.000000 0.000000 0.064822 0.000000
# 6 0.000000 0.000000 0.000000 0.000000 0.000000 0.062692
#
#
# Mechanical properties :
#
#
# Convention : Reuss Voigt Hill
#
# Bulk Modulus (GPa) = 49.80407 59.77784 54.79095
# Shear Modulus (GPa) = 18.15556 20.15828 19.15692
#
# Velocity S-wave (km/s) = 3.13233 3.30058 3.21756
# Velocity P-wave (km/s) = 6.32431 6.84324 6.58888
#
# Compressibility (1/GPa) = 0.02007868
#
# Stress axis : x y z
#
# Youngs Moduli (GPa) = 43.00968 60.47880 77.33903
#
# Poissons Ratio (x) = 0.19235 0.77284
# Poissons Ratio (y) = 0.13679 0.24323
# Poissons Ratio (z) = 0.42979 0.19020
#
# Static dielectric constant tensor:
#      x y z
#    x 1.678620 0.000000 0.000000 
#    y 0.000000 1.688640 0.000000 
#    z 0.000000 0.000000 1.629030 
# 
# From -- ./inp_files/24855.got.cif
#   From: 2010.05.17/outbox.cif.g08.bks.cpg/sg51_13_cif.got.tgz:24855.got - 2010.06.03 11:52:47.
