data_PCOD9403003
_publ_section_title
;
Structure prediction by ZEFSAII (Michael W. Deem and Ramdas Pophale) SiO2 
 PCOD9403003
Probable space group: P M M A
;
_chemical_formula_sum "Si O2"
_cell_formula_units_Z 48
_cell_length_a 29.855912
_cell_length_b 7.579091
_cell_length_c 10.326371
_cell_angle_alpha 90.000000
_cell_angle_beta 90.000000
_cell_angle_gamma 90.000000
_cell_volume 2336.658189
_symmetry_space_group_name_H-M "P M M A"
_symmetry_group_IT_number 51
_symmetry_cell_setting 'orthorhombic'
loop_
_space_group_symop_operation_xyz
x,y,z
1/2-x,-y,z
1/2+x,-y,-z
-x,y,-z
-x,-y,-z
1/2+x,y,-z
1/2-x,y,z
x,-y,z
loop_
_atom_site_type_symbol
_atom_site_label
_atom_site_fract_x
_atom_site_fract_y
_atom_site_fract_z
Si Si1 0.032401 0.714941 0.617545
Si Si2 0.522408 0.283870 0.866434
Si Si3 0.198792 0.788013 0.009401
Si Si4 0.374379 0.709746 0.508538
Si Si5 0.378657 0.711206 0.214509
Si Si6 0.801015 0.212476 0.280373
O O1 0.033769 0.500000 0.623854
O O2 0.081788 0.779773 0.582704
O O3 0.000000 0.762309 0.500000
O O4 0.009616 0.774044 0.749606
O O5 0.523269 0.500000 0.866852
O O6 0.573480 0.224689 0.840925
O O7 0.500000 0.227050 0.000000
O O8 0.250000 0.725612 0.035203
O O9 0.185043 0.726636 0.864379
O O10 0.201016 0.000000 0.004254
O O11 0.162570 0.744710 0.118277
O O12 0.381098 0.500000 0.495538
O O13 0.370758 0.778655 0.361341
O O14 0.332360 0.735503 0.601638
O O15 0.382777 0.500000 0.222943
O O16 0.750000 0.272345 0.300281
O O17 0.800846 0.000000 0.277111
#
# Coordination Sequence:
#
# PCOD9403003 Si02
#       6
#     8   8   8   8   8   8
#     4   9  15  28  47  69 104 142 169 200 247 301
#     4   9  17  28  45  73 106 138 172 208 247 300
#     4   9  20  39  58  74  98 136 177 215 260 314
#     4  10  20  32  52  82 110 137 170 212 259 305
#     4  10  20  33  51  81 113 136 168 215 260 302
#     4   9  20  39  58  75  99 134 176 218 260 311
#
# _framework density 20.542155999999999
#
# number of rings (size 3 to 8) (size 9 to 14) (size 15 to 20)
#    0.000    2.667    1.667    1.000    2.333    2.667 
#    0.000    5.000    0.000    2.000    0.000    0.000 
#    0.000    0.000    0.000    0.000    0.000    0.000 
#
# Total GULP energy -267813.323848 kJ/mol
# GULP energy per Si atom -5579.444247 kJ/mol
# Density = 2.049540 g / cm^3
# Si number density = 20.542156 Si / 1000 Ang^3
#
#
#
# Elastic Constant Matrix: (Units=GPa)
#
#
# Indices 1 2 3 4 5 6 
#
# 1 159.8582 2.7803 138.9847 0.0000 0.0000 0.0000
# 2 2.7803 43.3958 5.4618 0.0000 0.0000 0.0000
# 3 138.9847 5.4618 234.5808 0.0000 0.0000 0.0000
# 4 0.0000 0.0000 0.0000 12.9893 0.0000 0.0000
# 5 0.0000 0.0000 0.0000 0.0000 37.4352 0.0000
# 6 0.0000 0.0000 0.0000 0.0000 0.0000 41.1890
#
#
#
# Elastic Compliance Matrix: (Units=1/GPa)
#
#
# Indices 1 2 3 4 5 6 
#
# 1 0.012902 0.000136 -0.007647 0.000000 0.000000 0.000000
# 2 0.000136 0.023113 -0.000619 0.000000 0.000000 0.000000
# 3 -0.007647 -0.000619 0.008808 0.000000 0.000000 0.000000
# 4 0.000000 0.000000 0.000000 0.076986 0.000000 0.000000
# 5 0.000000 0.000000 0.000000 0.000000 0.026713 0.000000
# 6 0.000000 0.000000 0.000000 0.000000 0.000000 0.024278
#
#
# Mechanical properties :
#
#
# Convention : Reuss Voigt Hill
#
# Bulk Modulus (GPa) = 35.01049 81.36539 58.18794
# Shear Modulus (GPa) = 25.17853 37.69655 31.43754
#
# Velocity S-wave (km/s) = 3.50480 4.28843 3.91627
# Velocity P-wave (km/s) = 5.78432 8.01348 6.98836
#
# Compressibility (1/GPa) = 0.02856287
#
# Stress axis : x y z
#
# Youngs Moduli (GPa) = 77.50753 43.26591 113.53015
#
# Poissons Ratio (x) = -0.00588 0.86820
# Poissons Ratio (y) = -0.01053 0.07024
# Poissons Ratio (z) = 0.59273 0.02677
#
# Static dielectric constant tensor:
#      x y z
#    x 1.697260 0.000000 0.000000 
#    y 0.000000 1.785940 0.000000 
#    z 0.000000 0.000000 1.726580 
# 
# From -- ./inp_files/12290.got.cif
#   From: 2010.05.17/outbox.cif.g08.bks.cpg/sg51_7_cif.got.tgz:12290.got - 2010.06.03 11:52:47.
