data_PCOD9403726
_publ_section_title
;
Structure prediction by ZEFSAII (Michael W. Deem and Ramdas Pophale) SiO2 
 PCOD9403726
Probable space group: P M M A
;
_chemical_formula_sum "Si O2"
_cell_formula_units_Z 56
_cell_length_a 15.573786
_cell_length_b 9.304073
_cell_length_c 19.111443
_cell_angle_alpha 90.000000
_cell_angle_beta 90.000000
_cell_angle_gamma 90.000000
_cell_volume 2769.241246
_symmetry_space_group_name_H-M "P M M A"
_symmetry_group_IT_number 51
_symmetry_cell_setting 'orthorhombic'
loop_
_space_group_symop_operation_xyz
x,y,z
1/2-x,-y,z
1/2+x,-y,-z
-x,y,-z
-x,-y,-z
1/2+x,y,-z
1/2-x,y,z
x,-y,z
loop_
_atom_site_type_symbol
_atom_site_label
_atom_site_fract_x
_atom_site_fract_y
_atom_site_fract_z
Si Si1 0.912980 0.171465 0.353558
Si Si2 0.646343 0.829679 0.929231
Si Si3 0.853919 0.330392 0.065771
Si Si4 0.905507 0.670585 0.640076
Si Si5 0.894800 0.164298 0.505722
Si Si6 0.147345 0.335921 0.780051
Si Si7 0.852233 0.837239 0.776204
O O1 0.863733 0.197151 0.427050
O O2 0.871165 0.227809 0.282671
O O3 0.998912 0.264832 0.359101
O O4 0.930095 0.000000 0.351200
O O5 0.750000 0.807083 0.929700
O O6 0.614587 0.784243 0.851966
O O7 0.631879 0.000000 0.934506
O O8 0.611618 0.751135 0.997854
O O9 0.750000 0.310380 0.065964
O O10 0.869749 0.500000 0.058892
O O11 0.884988 0.286656 0.143330
O O12 0.903774 0.500000 0.639508
O O13 0.865971 0.733440 0.568278
O O14 0.867227 0.734611 0.711097
O O15 0.000000 0.169517 0.500000
O O16 0.872472 0.000000 0.523585
O O17 0.250000 0.346647 0.785788
O O18 0.115412 0.500000 0.766059
O O19 0.750000 0.850038 0.784077
O O20 0.885792 0.000000 0.762583
#
# Coordination Sequence:
#
# PCOD9403726 Si02
#       7
#     8   8   8   8   8   8   8
#     4  10  20  34  53  74  96 126 164 201 238 285
#     4   8  14  25  43  67  92 121 159 198 233 273
#     4   8  14  25  42  65  94 127 158 190 233 282
#     4  11  21  32  51  76  99 125 159 199 242 288
#     4   8  16  32  51  70  93 123 160 199 237 282
#     4   9  18  32  49  72 103 133 160 196 243 288
#     4   9  18  33  51  71  99 132 162 197 242 286
#
# _framework density 20.222145000000001
#
# number of rings (size 3 to 8) (size 9 to 14) (size 15 to 20)
#    0.000    3.000    0.000    4.286    0.000    4.857 
#    0.000    3.571    0.000    1.714    0.000    6.000 
#    0.000    0.000    0.000    0.000    0.000    0.000 
#
# Total GULP energy -311967.713603 kJ/mol
# GULP energy per Si atom -5570.852029 kJ/mol
# Density = 2.017612 g / cm^3
# Si number density = 20.222145 Si / 1000 Ang^3
#
#
#
# Elastic Constant Matrix: (Units=GPa)
#
#
# Indices 1 2 3 4 5 6 
#
# 1 13.3226 8.4054 15.2936 0.0000 0.0000 0.0000
# 2 8.4054 96.8568 112.1362 0.0000 0.0000 0.0000
# 3 15.2936 112.1362 236.9010 0.0000 0.0000 0.0000
# 4 0.0000 0.0000 0.0000 42.9780 0.0000 0.0000
# 5 0.0000 0.0000 0.0000 0.0000 18.4780 0.0000
# 6 0.0000 0.0000 0.0000 0.0000 0.0000 13.8283
#
#
#
# Elastic Compliance Matrix: (Units=1/GPa)
#
#
# Indices 1 2 3 4 5 6 
#
# 1 0.081273 -0.002165 -0.004222 0.000000 0.000000 0.000000
# 2 -0.002165 0.022900 -0.010700 0.000000 0.000000 0.000000
# 3 -0.004222 -0.010700 0.009559 0.000000 0.000000 0.000000
# 4 0.000000 0.000000 0.000000 0.023268 0.000000 0.000000
# 5 0.000000 0.000000 0.000000 0.000000 0.054118 0.000000
# 6 0.000000 0.000000 0.000000 0.000000 0.000000 0.072315
#
#
# Mechanical properties :
#
#
# Convention : Reuss Voigt Hill
#
# Bulk Modulus (GPa) = 12.56952 68.75012 40.65982
# Shear Modulus (GPa) = 15.42608 29.13989 22.28298
#
# Velocity S-wave (km/s) = 2.76494 3.80015 3.32310
# Velocity P-wave (km/s) = 4.05245 7.30248 5.90544
#
# Compressibility (1/GPa) = 0.07955756
#
# Stress axis : x y z
#
# Youngs Moduli (GPa) = 12.30425 43.66733 104.61838
#
# Poissons Ratio (x) = 0.09455 0.44168
# Poissons Ratio (y) = 0.02664 1.11942
# Poissons Ratio (z) = 0.05195 0.46724
#
# Static dielectric constant tensor:
#      x y z
#    x 1.790190 0.000000 0.000000 
#    y 0.000000 1.701680 0.000000 
#    z 0.000000 0.000000 1.791840 
# 
# From -- ./inp_files/25661.got.cif
#   From: 2010.05.17/outbox.cif.g08.bks.cpg/sg51_13_cif.got.tgz:25661.got - 2010.06.03 11:52:47.
