data_PCOD9403639
_publ_section_title
;
Structure prediction by ZEFSAII (Michael W. Deem and Ramdas Pophale) SiO2 
 PCOD9403639
Probable space group: P M M A
;
_chemical_formula_sum "Si O2"
_cell_formula_units_Z 64
_cell_length_a 19.748916
_cell_length_b 7.711429
_cell_length_c 21.267201
_cell_angle_alpha 90.000000
_cell_angle_beta 90.000000
_cell_angle_gamma 90.000000
_cell_volume 3238.832307
_symmetry_space_group_name_H-M "P M M A"
_symmetry_group_IT_number 51
_symmetry_cell_setting 'orthorhombic'
loop_
_space_group_symop_operation_xyz
x,y,z
1/2-x,-y,z
1/2+x,-y,-z
-x,y,-z
-x,-y,-z
1/2+x,y,-z
1/2-x,y,z
x,-y,z
loop_
_atom_site_type_symbol
_atom_site_label
_atom_site_fract_x
_atom_site_fract_y
_atom_site_fract_z
Si Si1 0.332481 0.296242 0.046725
Si Si2 0.827194 0.792898 0.225459
Si Si3 0.087542 0.792467 0.306676
Si Si4 0.563554 0.204464 0.322777
Si Si5 0.671452 0.709551 0.088145
Si Si6 0.827183 0.790349 0.573689
Si Si7 0.931672 0.705519 0.466278
Si Si8 0.827825 0.290227 0.816183
O O1 0.250000 0.288486 0.045485
O O2 0.350902 0.500000 0.047289
O O3 0.351617 0.224117 0.115043
O O4 0.356616 0.225843 0.979106
O O5 0.750000 0.722206 0.228624
O O6 0.877054 0.722337 0.278910
O O7 0.857077 0.761810 0.155608
O O8 0.821708 0.000000 0.233426
O O9 0.132271 0.725676 0.364996
O O10 0.124748 0.759299 0.241205
O O11 0.011229 0.721864 0.309365
O O12 0.083297 0.000000 0.315294
O O13 0.577478 0.221223 0.396714
O O14 0.560281 0.000000 0.307710
O O15 0.750000 0.767959 0.090374
O O16 0.671257 0.500000 0.085611
O O17 0.750000 0.727527 0.572970
O O18 0.869127 0.741420 0.512019
O O19 0.825206 0.000000 0.576663
O O20 0.940007 0.500000 0.458990
O O21 0.000000 0.774643 0.500000
O O22 0.750000 0.231989 0.805372
O O23 0.825978 0.500000 0.819671
#
# Coordination Sequence:
#
# PCOD9403639 Si02
#       8
#     8   8   8   8   8   8   8   8
#     4   7  11  22  41  66  95 128 166 203 245 301
#     4   9  18  32  50  75 103 127 160 209 258 301
#     4  10  20  34  52  73 100 135 175 212 245 295
#     4  10  21  37  57  75  99 139 175 204 248 308
#     4   8  13  24  45  70  96 128 164 203 249 301
#     4  10  21  37  58  81 104 136 176 212 250 302
#     4  11  23  38  57  81 107 133 166 212 261 306
#     4   9  17  29  47  72 102 134 167 209 259 303
#
# _framework density 19.760209
#
# number of rings (size 3 to 8) (size 9 to 14) (size 15 to 20)
#    0.000    2.750    1.250    2.250    0.000    3.500 
#    0.000    1.875    0.000    3.000    0.000    5.250 
#    0.000    0.000    0.000    0.000    0.000    0.000 
#
# Total GULP energy -356697.213411 kJ/mol
# GULP energy per Si atom -5573.393960 kJ/mol
# Density = 1.971523 g / cm^3
# Si number density = 19.760209 Si / 1000 Ang^3
#
#
#
# Elastic Constant Matrix: (Units=GPa)
#
#
# Indices 1 2 3 4 5 6 
#
# 1 109.4829 4.2019 89.4995 0.0000 0.0000 0.0000
# 2 4.2019 25.4828 -14.2806 0.0000 0.0000 0.0000
# 3 89.4995 -14.2806 191.5652 0.0000 0.0000 0.0000
# 4 0.0000 0.0000 0.0000 19.8275 0.0000 0.0000
# 5 0.0000 0.0000 0.0000 0.0000 1.9948 0.0000
# 6 0.0000 0.0000 0.0000 0.0000 0.0000 8.4457
#
#
#
# Elastic Compliance Matrix: (Units=1/GPa)
#
#
# Indices 1 2 3 4 5 6 
#
# 1 0.015917 -0.007088 -0.007965 0.000000 0.000000 0.000000
# 2 -0.007088 0.044109 0.006600 0.000000 0.000000 0.000000
# 3 -0.007965 0.006600 0.009433 0.000000 0.000000 0.000000
# 4 0.000000 0.000000 0.000000 0.050435 0.000000 0.000000
# 5 0.000000 0.000000 0.000000 0.000000 0.501297 0.000000
# 6 0.000000 0.000000 0.000000 0.000000 0.000000 0.118403
#
#
# Mechanical properties :
#
#
# Convention : Reuss Voigt Hill
#
# Bulk Modulus (GPa) = 19.02822 53.93028 36.47925
# Shear Modulus (GPa) = 6.45979 22.52761 14.49370
#
# Velocity S-wave (km/s) = 1.81002 3.38012 2.71122
# Velocity P-wave (km/s) = 3.74416 6.52574 5.31996
#
# Compressibility (1/GPa) = 0.05255351
#
# Stress axis : x y z
#
# Youngs Moduli (GPa) = 62.82637 22.67088 106.00744
#
# Poissons Ratio (x) = 0.16069 0.84433
# Poissons Ratio (y) = 0.44532 -0.69962
# Poissons Ratio (z) = 0.50040 -0.14962
#
# Static dielectric constant tensor:
#      x y z
#    x 1.687270 0.000000 0.000000 
#    y 0.000000 1.733380 0.000000 
#    z 0.000000 0.000000 1.711670 
# 
# From -- ./inp_files/33955.got.cif
#   From: 2010.05.17/outbox.cif.g08.bks.cpg/sg51_17_cif.got.tgz:33955.got - 2010.06.03 11:52:47.
