data_PCOD9403141
_publ_section_title
;
Structure prediction by ZEFSAII (Michael W. Deem and Ramdas Pophale) SiO2 
 PCOD9403141
Probable space group: P M M A
;
_chemical_formula_sum "Si O2"
_cell_formula_units_Z 56
_cell_length_a 9.888289
_cell_length_b 14.565825
_cell_length_c 20.586229
_cell_angle_alpha 90.000000
_cell_angle_beta 90.000000
_cell_angle_gamma 90.000000
_cell_volume 2965.056943
_symmetry_space_group_name_H-M "P M M A"
_symmetry_group_IT_number 51
_symmetry_cell_setting 'orthorhombic'
loop_
_space_group_symop_operation_xyz
x,y,z
1/2-x,-y,z
1/2+x,-y,-z
-x,y,-z
-x,-y,-z
1/2+x,y,-z
1/2-x,y,z
x,-y,z
loop_
_atom_site_type_symbol
_atom_site_label
_atom_site_fract_x
_atom_site_fract_y
_atom_site_fract_z
Si Si1 0.588181 0.774850 0.559433
Si Si2 0.502318 0.267570 0.077132
Si Si3 0.413718 0.801252 0.798131
Si Si4 0.406992 0.395114 0.596340
Si Si5 0.750000 0.395239 0.913728
Si Si6 0.250000 0.399045 0.930934
Si Si7 0.090392 0.400711 0.752777
Si Si8 0.093808 0.107829 0.309724
O O1 0.500000 0.815477 0.500000
O O2 0.750000 0.769738 0.546640
O O3 0.518221 0.675697 0.571130
O O4 0.569106 0.833264 0.625216
O O5 0.533939 0.187033 0.127947
O O6 0.375420 0.328677 0.097866
O O7 0.622760 0.339531 0.086282
O O8 0.500000 0.242993 0.000000
O O9 0.250000 0.809021 0.794606
O O10 0.457560 0.696839 0.779030
O O11 0.489206 0.864734 0.746457
O O12 0.250000 0.368259 0.581490
O O13 0.426289 0.500000 0.573780
O O14 0.419306 0.396602 0.674647
O O15 0.750000 0.500000 0.886641
O O16 0.750000 0.407844 0.991557
O O17 0.250000 0.500000 0.902768
O O18 0.250000 0.402847 0.768136
O O19 0.031391 0.500000 0.774115
O O20 0.250000 0.126093 0.289149
O O21 0.082549 0.000000 0.324394
#
# Coordination Sequence:
#
# PCOD9403141 Si02
#       8
#     8   8   8   8   4   4   8   8
#     4  11  23  39  63  92 124 158 195 237 283 341
#     4  10  20  33  49  77 116 158 203 250 297 347
#     4  11  21  36  61  90 116 151 201 249 294 353
#     4   9  17  33  56  83 121 166 206 241 280 330
#     4   9  18  30  46  70 109 161 210 249 289 343
#     4   9  16  30  48  70 109 159 206 251 293 337
#     4   8  15  28  49  79 114 152 192 237 285 333
#     4  10  24  46  68  90 119 151 184 234 306 372
#
# _framework density 18.886652000000002
#
# number of rings (size 3 to 8) (size 9 to 14) (size 15 to 20)
#    0.000    2.286    2.143    1.714    1.000    4.571 
#    0.000    0.000    0.000    0.429    0.000    0.000 
#    0.000    0.000    0.000    0.000    0.000    0.000 
#
# Total GULP energy -312047.872345 kJ/mol
# GULP energy per Si atom -5572.283435 kJ/mol
# Density = 1.884366 g / cm^3
# Si number density = 18.886652 Si / 1000 Ang^3
#
#
#
# Elastic Constant Matrix: (Units=GPa)
#
#
# Indices 1 2 3 4 5 6 
#
# 1 138.8288 37.7944 57.5613 0.0000 0.0000 0.0000
# 2 37.7944 65.3624 35.0803 0.0000 0.0000 0.0000
# 3 57.5613 35.0803 109.3129 0.0000 0.0000 0.0000
# 4 0.0000 0.0000 0.0000 4.5613 0.0000 0.0000
# 5 0.0000 0.0000 0.0000 0.0000 32.5145 0.0000
# 6 0.0000 0.0000 0.0000 0.0000 0.0000 29.2599
#
#
#
# Elastic Compliance Matrix: (Units=1/GPa)
#
#
# Indices 1 2 3 4 5 6 
#
# 1 0.009841 -0.003514 -0.004054 0.000000 0.000000 0.000000
# 2 -0.003514 0.019738 -0.004484 0.000000 0.000000 0.000000
# 3 -0.004054 -0.004484 0.012722 0.000000 0.000000 0.000000
# 4 0.000000 0.000000 0.000000 0.219234 0.000000 0.000000
# 5 0.000000 0.000000 0.000000 0.000000 0.030756 0.000000
# 6 0.000000 0.000000 0.000000 0.000000 0.000000 0.034176
#
#
# Mechanical properties :
#
#
# Convention : Reuss Voigt Hill
#
# Bulk Modulus (GPa) = 54.95667 63.81956 59.38812
# Shear Modulus (GPa) = 14.01991 25.47170 19.74581
#
# Velocity S-wave (km/s) = 2.72751 3.67640 3.23691
# Velocity P-wave (km/s) = 6.25143 7.20315 6.74410
#
# Compressibility (1/GPa) = 0.01819615
#
# Stress axis : x y z
#
# Youngs Moduli (GPa) = 101.61816 50.66421 78.60602
#
# Poissons Ratio (x) = 0.17805 0.31867
# Poissons Ratio (y) = 0.35712 0.35244
# Poissons Ratio (z) = 0.41197 0.22716
#
# Static dielectric constant tensor:
#      x y z
#    x 1.260000 0.000000 0.000000 
#    y 0.000000 1.647390 0.000000 
#    z 0.000000 0.000000 1.718820 
# 
# From -- ./inp_files/32091.got.cif
#   From: 2010.05.17/outbox.cif.g08.bks.cpg/sg51_17_cif.got.tgz:32091.got - 2010.06.03 11:52:47.
