data_PCOD9403630
_publ_section_title
;
Structure prediction by ZEFSAII (Michael W. Deem and Ramdas Pophale) SiO2 
 PCOD9403630
Probable space group: P M M A
;
_chemical_formula_sum "Si O2"
_cell_formula_units_Z 48
_cell_length_a 7.507869
_cell_length_b 10.029140
_cell_length_c 32.798094
_cell_angle_alpha 90.000000
_cell_angle_beta 90.000000
_cell_angle_gamma 90.000000
_cell_volume 2469.613476
_symmetry_space_group_name_H-M "P M M A"
_symmetry_group_IT_number 51
_symmetry_cell_setting 'orthorhombic'
loop_
_space_group_symop_operation_xyz
x,y,z
1/2-x,-y,z
1/2+x,-y,-z
-x,y,-z
-x,-y,-z
1/2+x,y,-z
1/2-x,y,z
x,-y,z
loop_
_atom_site_type_symbol
_atom_site_label
_atom_site_fract_x
_atom_site_fract_y
_atom_site_fract_z
Si Si1 0.464826 0.251619 0.598151
Si Si2 0.750000 0.663582 0.091879
Si Si3 0.537832 0.846728 0.759742
Si Si4 0.461841 0.651955 0.312079
Si Si5 0.038622 0.846400 0.048373
Si Si6 0.536788 0.500000 0.452481
Si Si7 0.750000 0.845501 0.170412
Si Si8 0.536081 0.000000 0.451808
O O1 0.250000 0.249368 0.596383
O O2 0.508793 0.273475 0.645206
O O3 0.532895 0.374108 0.571647
O O4 0.531700 0.124784 0.573751
O O5 0.750000 0.500000 0.091106
O O6 0.579364 0.732840 0.069796
O O7 0.750000 0.730827 0.136622
O O8 0.750000 0.829552 0.767119
O O9 0.475287 0.742030 0.725576
O O10 0.422242 0.831437 0.800442
O O11 0.511807 0.000000 0.745330
O O12 0.250000 0.641592 0.306828
O O13 0.533535 0.500000 0.313665
O O14 0.250000 0.828304 0.055257
O O15 0.992547 0.000000 0.061244
O O16 0.000000 0.840109 0.000000
O O17 0.750000 0.500000 0.448303
O O18 0.500000 0.500000 0.500000
O O19 0.750000 0.000000 0.154609
O O20 0.500000 0.000000 0.500000
O O21 0.750000 0.000000 0.449039
#
# Coordination Sequence:
#
# PCOD9403630 Si02
#       8
#     8   4   8   8   8   4   4   4
#     4  10  21  36  52  77 106 136 175 220 267 327
#     4  12  26  40  60  96 142 180 222 280 338 412
#     4   9  20  39  62  89 118 149 195 256 307 364
#     4  10  21  36  55  82 112 141 178 223 285 350
#     4  10  20  39  67  95 128 177 236 290 338 390
#     4  10  20  34  52  72 100 136 176 214 260 320
#     4  10  22  42  64  90 120 166 222 258 318 382
#     4  10  22  38  54  76 104 138 176 220 268 322
#
# _framework density 19.436240000000002
#
# number of rings (size 3 to 8) (size 9 to 14) (size 15 to 20)
#    0.000    2.000    1.667    1.250    2.333    3.333 
#    0.000    1.667    0.000    0.000    0.000    0.000 
#    0.000    0.000    0.000    0.000    0.000    0.000 
#
# Total GULP energy -267775.936967 kJ/mol
# GULP energy per Si atom -5578.665353 kJ/mol
# Density = 1.939200 g / cm^3
# Si number density = 19.436240 Si / 1000 Ang^3
#
#
#
# Elastic Constant Matrix: (Units=GPa)
#
#
# Indices 1 2 3 4 5 6 
#
# 1 86.4911 50.2583 32.1786 0.0000 0.0000 0.0000
# 2 50.2583 193.6874 90.1440 0.0000 0.0000 0.0000
# 3 32.1786 90.1440 118.7506 0.0000 0.0000 0.0000
# 4 0.0000 0.0000 0.0000 35.5089 0.0000 0.0000
# 5 0.0000 0.0000 0.0000 0.0000 28.6409 0.0000
# 6 0.0000 0.0000 0.0000 0.0000 0.0000 39.4076
#
#
#
# Elastic Compliance Matrix: (Units=1/GPa)
#
#
# Indices 1 2 3 4 5 6 
#
# 1 0.013804 -0.002847 -0.001580 0.000000 0.000000 0.000000
# 2 -0.002847 0.008571 -0.005735 0.000000 0.000000 0.000000
# 3 -0.001580 -0.005735 0.013202 0.000000 0.000000 0.000000
# 4 0.000000 0.000000 0.000000 0.028162 0.000000 0.000000
# 5 0.000000 0.000000 0.000000 0.000000 0.034915 0.000000
# 6 0.000000 0.000000 0.000000 0.000000 0.000000 0.025376
#
#
# Mechanical properties :
#
#
# Convention : Reuss Voigt Hill
#
# Bulk Modulus (GPa) = 65.55297 82.67676 74.11487
# Shear Modulus (GPa) = 33.45920 35.80135 34.63027
#
# Velocity S-wave (km/s) = 4.15358 4.29650 4.22564
# Velocity P-wave (km/s) = 7.53680 8.20018 7.87548
#
# Compressibility (1/GPa) = 0.01525484
#
# Stress axis : x y z
#
# Youngs Moduli (GPa) = 72.44440 116.67892 75.74526
#
# Poissons Ratio (x) = 0.33215 0.11964
# Poissons Ratio (y) = 0.20622 0.43436
# Poissons Ratio (z) = 0.11443 0.66910
#
# Static dielectric constant tensor:
#      x y z
#    x 1.686380 0.000000 0.000000 
#    y 0.000000 1.669230 0.000000 
#    z 0.000000 0.000000 1.650060 
# 
# From -- ./inp_files/37295.got.cif
#   From: 2010.05.17/outbox.cif.g08.bks.cpg/sg51_19_cif.got.tgz:37295.got - 2010.06.03 11:52:47.
