data_PCOD9403293
_publ_section_title
;
Structure prediction by ZEFSAII (Michael W. Deem and Ramdas Pophale) SiO2 
 PCOD9403293
Probable space group: P M M A
;
_chemical_formula_sum "Si O2"
_cell_formula_units_Z 64
_cell_length_a 19.031775
_cell_length_b 7.574465
_cell_length_c 21.260324
_cell_angle_alpha 90.000000
_cell_angle_beta 90.000000
_cell_angle_gamma 90.000000
_cell_volume 3064.792926
_symmetry_space_group_name_H-M "P M M A"
_symmetry_group_IT_number 51
_symmetry_cell_setting 'orthorhombic'
loop_
_space_group_symop_operation_xyz
x,y,z
1/2-x,-y,z
1/2+x,-y,-z
-x,y,-z
-x,-y,-z
1/2+x,y,-z
1/2-x,y,z
x,-y,z
loop_
_atom_site_type_symbol
_atom_site_label
_atom_site_fract_x
_atom_site_fract_y
_atom_site_fract_z
Si Si1 0.077614 0.784448 0.926908
Si Si2 0.077814 0.286869 0.306610
Si Si3 0.413531 0.789289 0.685625
Si Si4 0.169065 0.783682 0.808792
Si Si5 0.669446 0.212340 0.435265
Si Si6 0.170827 0.709710 0.190613
Si Si7 0.083133 0.212604 0.068513
Si Si8 0.830024 0.711045 0.576982
O O1 0.128187 0.725579 0.871307
O O2 0.996691 0.729389 0.916214
O O3 0.077925 0.000000 0.926683
O O4 0.099239 0.728303 0.997264
O O5 0.081100 0.500000 0.306367
O O6 0.118522 0.220885 0.244536
O O7 0.118712 0.222102 0.368713
O O8 0.996134 0.241258 0.308076
O O9 0.371739 0.722730 0.746584
O O10 0.380108 0.720890 0.620584
O O11 0.403018 0.000000 0.685046
O O12 0.250000 0.729073 0.808244
O O13 0.168209 0.000000 0.808890
O O14 0.750000 0.277000 0.428072
O O15 0.645412 0.255089 0.505876
O O16 0.671852 0.000000 0.431242
O O17 0.250000 0.782060 0.194690
O O18 0.175842 0.500000 0.201301
O O19 0.137011 0.734311 0.122211
O O20 0.082071 0.000000 0.067371
O O21 0.750000 0.780333 0.583111
O O22 0.826067 0.500000 0.584570
#
# Coordination Sequence:
#
# PCOD9403293 Si02
#       8
#     8   8   8   8   8   8   8   8
#     4   8  15  28  47  73 104 132 159 199 246 286
#     4  10  21  36  53  72  96 128 165 204 246 293
#     4  10  20  33  51  75 101 128 161 203 245 286
#     4   9  16  27  46  71  97 128 166 202 237 283
#     4   9  18  33  52  75 104 134 161 194 241 292
#     4  10  21  36  52  71  98 131 165 204 251 298
#     4   9  17  31  51  75 102 130 162 201 244 290
#     4   9  18  34  55  75  95 125 166 205 238 280
#
# _framework density 20.882324000000001
#
# number of rings (size 3 to 8) (size 9 to 14) (size 15 to 20)
#    0.000    2.750    0.000    2.250    0.000    6.750 
#    0.000    5.000    0.000    4.125    0.000    0.000 
#    0.000    0.000    0.000    0.000    0.000    0.000 
#
# Total GULP energy -357295.738752 kJ/mol
# GULP energy per Si atom -5582.745918 kJ/mol
# Density = 2.083479 g / cm^3
# Si number density = 20.882324 Si / 1000 Ang^3
#
#
#
# Elastic Constant Matrix: (Units=GPa)
#
#
# Indices 1 2 3 4 5 6 
#
# 1 120.4706 -4.5326 90.5515 0.0000 0.0000 0.0000
# 2 -4.5326 44.3152 -3.3106 0.0000 0.0000 0.0000
# 3 90.5515 -3.3106 147.0095 0.0000 0.0000 0.0000
# 4 0.0000 0.0000 0.0000 17.0666 0.0000 0.0000
# 5 0.0000 0.0000 0.0000 0.0000 49.4715 0.0000
# 6 0.0000 0.0000 0.0000 0.0000 0.0000 19.8735
#
#
#
# Elastic Compliance Matrix: (Units=1/GPa)
#
#
# Indices 1 2 3 4 5 6 
#
# 1 0.015491 0.000873 -0.009522 0.000000 0.000000 0.000000
# 2 0.000873 0.022653 -0.000028 0.000000 0.000000 0.000000
# 3 -0.009522 -0.000028 0.012667 0.000000 0.000000 0.000000
# 4 0.000000 0.000000 0.000000 0.058594 0.000000 0.000000
# 5 0.000000 0.000000 0.000000 0.000000 0.020214 0.000000
# 6 0.000000 0.000000 0.000000 0.000000 0.000000 0.050318
#
#
# Mechanical properties :
#
#
# Convention : Reuss Voigt Hill
#
# Bulk Modulus (GPa) = 29.88881 53.02353 41.45617
# Shear Modulus (GPa) = 23.98746 32.55477 28.27111
#
# Velocity S-wave (km/s) = 3.39292 3.95265 3.68343
# Velocity P-wave (km/s) = 5.44915 6.80279 6.16325
#
# Compressibility (1/GPa) = 0.03345733
#
# Stress axis : x y z
#
# Youngs Moduli (GPa) = 64.55432 44.14451 78.94646
#
# Poissons Ratio (x) = -0.03854 0.75173
# Poissons Ratio (y) = -0.05636 0.00218
# Poissons Ratio (z) = 0.61469 0.00122
#
# Static dielectric constant tensor:
#      x y z
#    x 1.709880 0.000000 0.000000 
#    y 0.000000 1.797850 0.000000 
#    z 0.000000 0.000000 1.731650 
# 
# From -- ./inp_files/33765.got.cif
#   From: 2010.05.17/outbox.cif.g08.bks.cpg/sg51_17_cif.got.tgz:33765.got - 2010.06.03 11:52:47.
