data_PCOD9403754
_publ_section_title
;
Structure prediction by ZEFSAII (Michael W. Deem and Ramdas Pophale) SiO2 
 PCOD9403754
Probable space group: P M M A
;
_chemical_formula_sum "Si O2"
_cell_formula_units_Z 48
_cell_length_a 15.625896
_cell_length_b 9.273476
_cell_length_c 16.153282
_cell_angle_alpha 90.000000
_cell_angle_beta 90.000000
_cell_angle_gamma 90.000000
_cell_volume 2340.713483
_symmetry_space_group_name_H-M "P M M A"
_symmetry_group_IT_number 51
_symmetry_cell_setting 'orthorhombic'
loop_
_space_group_symop_operation_xyz
x,y,z
1/2-x,-y,z
1/2+x,-y,-z
-x,y,-z
-x,-y,-z
1/2+x,y,-z
1/2-x,y,z
x,-y,z
loop_
_atom_site_type_symbol
_atom_site_label
_atom_site_fract_x
_atom_site_fract_y
_atom_site_fract_z
Si Si1 0.149145 0.339796 0.825092
Si Si2 0.604946 0.664663 0.496618
Si Si3 0.352724 0.164863 0.167376
Si Si4 0.100045 0.171229 0.663488
Si Si5 0.354679 0.833544 0.981856
Si Si6 0.081059 0.671847 0.323797
O O1 0.250000 0.354578 0.840445
O O2 0.112868 0.500000 0.810471
O O3 0.141155 0.241105 0.744551
O O4 0.112503 0.264436 0.907130
O O5 0.500000 0.669422 0.500000
O O6 0.628281 0.500000 0.475915
O O7 0.635186 0.768202 0.423659
O O8 0.632735 0.697656 0.590567
O O9 0.250000 0.158277 0.164358
O O10 0.377073 0.274179 0.239469
O O11 0.383379 0.000000 0.184283
O O12 0.381984 0.207461 0.074849
O O13 0.003890 0.232703 0.668084
O O14 0.103785 0.000000 0.665682
O O15 0.250000 0.829903 0.980952
O O16 0.379132 0.000000 0.967760
O O17 0.062808 0.500000 0.322425
#
# Coordination Sequence:
#
# PCOD9403754 Si02
#       6
#     8   8   8   8   8   8
#     4  10  20  34  53  76 102 132 166 206 250 297
#     4   8  16  32  51  71  98 132 167 203 246 297
#     4   9  18  33  53  77 105 135 167 206 250 295
#     4  11  21  33  53  77 101 131 167 208 251 298
#     4   8  15  30  51  73  99 132 167 202 244 296
#     4  10  20  34  53  76 103 134 168 207 249 296
#
# _framework density 20.506568000000001
#
# number of rings (size 3 to 8) (size 9 to 14) (size 15 to 20)
#    0.000    2.667    0.000    4.500    0.000    5.667 
#    0.000    3.333    0.000    6.000    0.000    0.000 
#    0.000    0.000    0.000    0.000    0.000    0.000 
#
# Total GULP energy -267664.880202 kJ/mol
# GULP energy per Si atom -5576.351671 kJ/mol
# Density = 2.045989 g / cm^3
# Si number density = 20.506568 Si / 1000 Ang^3
#
#
#
# Elastic Constant Matrix: (Units=GPa)
#
#
# Indices 1 2 3 4 5 6 
#
# 1 11.1098 11.0345 11.4096 0.0000 0.0000 0.0000
# 2 11.0345 157.8320 121.6021 0.0000 0.0000 0.0000
# 3 11.4096 121.6021 194.8448 0.0000 0.0000 0.0000
# 4 0.0000 0.0000 0.0000 44.6861 0.0000 0.0000
# 5 0.0000 0.0000 0.0000 0.0000 21.3782 0.0000
# 6 0.0000 0.0000 0.0000 0.0000 0.0000 16.0399
#
#
#
# Elastic Compliance Matrix: (Units=1/GPa)
#
#
# Indices 1 2 3 4 5 6 
#
# 1 0.097516 -0.004658 -0.002803 0.000000 0.000000 0.000000
# 2 -0.004658 0.012426 -0.007483 0.000000 0.000000 0.000000
# 3 -0.002803 -0.007483 0.009966 0.000000 0.000000 0.000000
# 4 0.000000 0.000000 0.000000 0.022378 0.000000 0.000000
# 5 0.000000 0.000000 0.000000 0.000000 0.046777 0.000000
# 6 0.000000 0.000000 0.000000 0.000000 0.000000 0.062344
#
#
# Mechanical properties :
#
#
# Convention : Reuss Voigt Hill
#
# Bulk Modulus (GPa) = 11.10848 72.43098 41.76973
# Shear Modulus (GPa) = 16.06154 31.07020 23.56587
#
# Velocity S-wave (km/s) = 2.80168 3.89670 3.39364
# Velocity P-wave (km/s) = 3.98681 7.45944 5.98071
#
# Compressibility (1/GPa) = 0.09002135
#
# Stress axis : x y z
#
# Youngs Moduli (GPa) = 10.25473 80.47347 100.33807
#
# Poissons Ratio (x) = 0.37482 0.28129
# Poissons Ratio (y) = 0.04776 0.75079
# Poissons Ratio (z) = 0.02875 0.60215
#
# Static dielectric constant tensor:
#      x y z
#    x 1.792920 0.000000 0.000000 
#    y 0.000000 1.707990 0.000000 
#    z 0.000000 0.000000 1.764540 
# 
# From -- ./inp_files/24807.got.cif
#   From: 2010.05.17/outbox.cif.g08.bks.cpg/sg51_13_cif.got.tgz:24807.got - 2010.06.03 11:52:47.
