data_PCOD9403063
_publ_section_title
;
Structure prediction by ZEFSAII (Michael W. Deem and Ramdas Pophale) SiO2 
 PCOD9403063
Probable space group: P M M A
;
_chemical_formula_sum "Si O2"
_cell_formula_units_Z 48
_cell_length_a 31.774154
_cell_length_b 8.369782
_cell_length_c 9.981623
_cell_angle_alpha 90.000000
_cell_angle_beta 90.000000
_cell_angle_gamma 90.000000
_cell_volume 2654.540192
_symmetry_space_group_name_H-M "P M M A"
_symmetry_group_IT_number 51
_symmetry_cell_setting 'orthorhombic'
loop_
_space_group_symop_operation_xyz
x,y,z
1/2-x,-y,z
1/2+x,-y,-z
-x,y,-z
-x,-y,-z
1/2+x,y,-z
1/2-x,y,z
x,-y,z
loop_
_atom_site_type_symbol
_atom_site_label
_atom_site_fract_x
_atom_site_fract_y
_atom_site_fract_z
Si Si1 0.065954 0.807292 0.782632
Si Si2 0.361374 0.807514 0.576940
Si Si3 0.297894 0.804872 0.803668
Si Si4 0.015134 0.307587 0.353346
Si Si5 0.630067 0.807345 0.993122
Si Si6 0.109795 0.309503 0.298505
O O1 0.097012 0.757411 0.660760
O O2 0.019851 0.742240 0.754075
O O3 0.064338 0.000000 0.782744
O O4 0.089538 0.755655 0.918523
O O5 0.321503 0.757234 0.666557
O O6 0.363828 0.743734 0.427543
O O7 0.361577 0.000000 0.573077
O O8 0.250000 0.749084 0.813380
O O9 0.297354 0.000000 0.804820
O O10 0.328401 0.754880 0.925285
O O11 0.016496 0.500000 0.358658
O O12 0.061845 0.248295 0.319359
O O13 0.000000 0.249350 0.500000
O O14 0.627488 0.749744 0.842205
O O15 0.630086 0.000000 0.994095
O O16 0.108282 0.500000 0.296071
#
# Coordination Sequence:
#
# PCOD9403063 Si02
#       6
#     8   8   8   8   8   8
#     4   9  18  32  51  74  98 130 170 211 253 294
#     4   9  17  31  53  78 101 126 162 207 251 295
#     4   8  15  32  59  84 101 123 162 208 251 301
#     4  10  20  33  48  69  99 136 178 216 246 287
#     4   9  19  35  53  76 105 133 165 208 256 303
#     4  11  22  34  49  72 103 139 173 206 249 297
#
# _framework density 18.082227
#
# number of rings (size 3 to 8) (size 9 to 14) (size 15 to 20)
#    0.000    2.667    1.667    2.500    0.000    3.000 
#    0.000    6.667    0.000    7.000    0.000    0.000 
#    0.000    0.000    0.000    0.000    0.000    0.000 
#
# Total GULP energy -267686.307850 kJ/mol
# GULP energy per Si atom -5576.798080 kJ/mol
# Density = 1.804107 g / cm^3
# Si number density = 18.082227 Si / 1000 Ang^3
#
#
#
# Elastic Constant Matrix: (Units=GPa)
#
#
# Indices 1 2 3 4 5 6 
#
# 1 133.7564 16.0384 77.9937 0.0000 0.0000 0.0000
# 2 16.0384 6.0528 19.9127 0.0000 0.0000 0.0000
# 3 77.9937 19.9127 171.4232 0.0000 0.0000 0.0000
# 4 0.0000 0.0000 0.0000 -8.7185 0.0000 0.0000
# 5 0.0000 0.0000 0.0000 0.0000 15.4211 0.0000
# 6 0.0000 0.0000 0.0000 0.0000 0.0000 -23.7191
#
#
#
# Elastic Compliance Matrix: (Units=1/GPa)
#
#
# Indices 1 2 3 4 5 6 
#
# 1 0.011730 -0.021890 -0.002794 0.000000 0.000000 0.000000
# 2 -0.021890 0.308245 -0.025847 0.000000 0.000000 0.000000
# 3 -0.002794 -0.025847 0.010107 0.000000 0.000000 0.000000
# 4 0.000000 0.000000 0.000000 -0.114699 0.000000 0.000000
# 5 0.000000 0.000000 0.000000 0.000000 0.064846 0.000000
# 6 0.000000 0.000000 0.000000 0.000000 0.000000 -0.042160
#
#
# Mechanical properties :
#
#
# Convention : Reuss Voigt Hill
#
# Bulk Modulus (GPa) = 4.36641 59.90245 32.13443
# Shear Modulus (GPa) = 12.03451 9.74919 10.89185
#
# Velocity S-wave (km/s) = 2.58261 2.32450 2.45695
# Velocity P-wave (km/s) = 3.36351 6.35642 5.08514
#
# Compressibility (1/GPa) = 0.22902099
#
# Stress axis : x y z
#
# Youngs Moduli (GPa) = 85.24867 3.24418 98.93865
#
# Poissons Ratio (x) = 0.07101 0.27647
# Poissons Ratio (y) = 1.86605 2.55725
# Poissons Ratio (z) = 0.23821 0.08385
#
# Static dielectric constant tensor:
#      x y z
#    x 1.617020 0.000000 0.000000 
#    y 0.000000 1.625070 0.000000 
#    z 0.000000 0.000000 1.609850 
# 
# From -- ./inp_files/12819.got.cif
#   From: 2010.05.17/outbox.cif.g08.bks.cpg/sg51_7_cif.got.tgz:12819.got - 2010.06.03 11:52:47.
