data_PCOD9403925
_publ_section_title
;
Structure prediction by ZEFSAII (Michael W. Deem and Ramdas Pophale) SiO2 
 PCOD9403925
Probable space group: P M M A
;
_chemical_formula_sum "Si O2"
_cell_formula_units_Z 48
_cell_length_a 8.872109
_cell_length_b 9.432830
_cell_length_c 31.792963
_cell_angle_alpha 90.000000
_cell_angle_beta 90.000000
_cell_angle_gamma 90.000000
_cell_volume 2660.724331
_symmetry_space_group_name_H-M "P M M A"
_symmetry_group_IT_number 51
_symmetry_cell_setting 'orthorhombic'
loop_
_space_group_symop_operation_xyz
x,y,z
1/2-x,-y,z
1/2+x,-y,-z
-x,y,-z
-x,-y,-z
1/2+x,y,-z
1/2-x,y,z
x,-y,z
loop_
_atom_site_type_symbol
_atom_site_label
_atom_site_fract_x
_atom_site_fract_y
_atom_site_fract_z
Si Si1 0.933812 0.163066 0.873145
Si Si2 0.569729 0.833620 0.287770
Si Si3 0.931582 0.334536 0.955322
Si Si4 0.571078 0.331357 0.455522
Si Si5 0.432168 0.334539 0.209973
Si Si6 0.928647 0.831532 0.622660
O O1 0.750000 0.163459 0.873414
O O2 0.982189 0.239669 0.916105
O O3 0.980246 0.251687 0.832179
O O4 0.983291 0.000000 0.870921
O O5 0.750000 0.822204 0.288453
O O6 0.501851 0.740494 0.250528
O O7 0.503878 0.790265 0.333054
O O8 0.529815 0.000000 0.281142
O O9 0.750000 0.326816 0.957852
O O10 0.971705 0.500000 0.948127
O O11 0.000000 0.290371 0.000000
O O12 0.500000 0.285744 0.500000
O O13 0.750000 0.308108 0.456404
O O14 0.543276 0.500000 0.451120
O O15 0.498688 0.250882 0.416418
O O16 0.250000 0.325934 0.212568
O O17 0.473232 0.500000 0.207629
O O18 0.750000 0.806832 0.624815
O O19 0.954418 0.000000 0.617180
#
# Coordination Sequence:
#
# PCOD9403925 Si02
#       6
#     8   8   8   8   8   8
#     4   9  17  30  50  74  99 130 169 212 256 303
#     4  10  21  37  56  78 106 139 173 212 261 314
#     4   9  17  30  48  70  97 129 165 206 253 305
#     4  10  21  37  57  81 110 145 183 223 268 316
#     4  10  20  34  54  79 104 133 172 215 258 308
#     4  10  21  37  58  83 109 140 179 221 265 314
#
# _framework density 18.040201
#
# number of rings (size 3 to 8) (size 9 to 14) (size 15 to 20)
#    0.000    2.333    0.000    2.500    0.000    7.333 
#    0.000    0.833    0.000    3.000    0.000    0.000 
#    0.000    0.000    0.000    0.000    0.000    0.000 
#
# Total GULP energy -267975.761500 kJ/mol
# GULP energy per Si atom -5582.828365 kJ/mol
# Density = 1.799914 g / cm^3
# Si number density = 18.040201 Si / 1000 Ang^3
#
#
#
# Elastic Constant Matrix: (Units=GPa)
#
#
# Indices 1 2 3 4 5 6 
#
# 1 29.9169 48.0830 60.0714 0.0000 0.0000 0.0000
# 2 48.0830 111.2643 121.2215 0.0000 0.0000 0.0000
# 3 60.0714 121.2215 223.9638 0.0000 0.0000 0.0000
# 4 0.0000 0.0000 0.0000 42.5986 0.0000 0.0000
# 5 0.0000 0.0000 0.0000 0.0000 34.7613 0.0000
# 6 0.0000 0.0000 0.0000 0.0000 0.0000 23.2896
#
#
#
# Elastic Compliance Matrix: (Units=1/GPa)
#
#
# Indices 1 2 3 4 5 6 
#
# 1 0.117716 -0.040145 -0.009845 0.000000 0.000000 0.000000
# 2 -0.040145 0.035595 -0.008498 0.000000 0.000000 0.000000
# 3 -0.009845 -0.008498 0.011705 0.000000 0.000000 0.000000
# 4 0.000000 0.000000 0.000000 0.023475 0.000000 0.000000
# 5 0.000000 0.000000 0.000000 0.000000 0.028768 0.000000
# 6 0.000000 0.000000 0.000000 0.000000 0.000000 0.042938
#
#
# Mechanical properties :
#
#
# Convention : Reuss Voigt Hill
#
# Bulk Modulus (GPa) = 20.81605 91.54409 56.18007
# Shear Modulus (GPa) = 12.71658 29.18119 20.94888
#
# Velocity S-wave (km/s) = 2.65788 4.02626 3.41138
# Velocity P-wave (km/s) = 4.58070 8.51287 6.83564
#
# Compressibility (1/GPa) = 0.04803986
#
# Stress axis : x y z
#
# Youngs Moduli (GPa) = 8.49501 28.09359 85.43003
#
# Poissons Ratio (x) = 1.12782 0.84107
# Poissons Ratio (y) = 0.34103 0.72602
# Poissons Ratio (z) = 0.08363 0.23875
#
# Static dielectric constant tensor:
#      x y z
#    x 1.605990 0.000000 0.000000 
#    y 0.000000 1.607790 0.000000 
#    z 0.000000 0.000000 1.582150 
# 
# From -- ./inp_files/36875.got.cif
#   From: 2010.05.17/outbox.cif.g08.bks.cpg/sg51_19_cif.got.tgz:36875.got - 2010.06.03 11:52:47.
