data_PCOD9403779
_publ_section_title
;
Structure prediction by ZEFSAII (Michael W. Deem and Ramdas Pophale) SiO2 
 PCOD9403779
Probable space group: P M M A
;
_chemical_formula_sum "Si O2"
_cell_formula_units_Z 40
_cell_length_a 8.465476
_cell_length_b 26.223090
_cell_length_c 9.856555
_cell_angle_alpha 90.000000
_cell_angle_beta 90.000000
_cell_angle_gamma 90.000000
_cell_volume 2188.065900
_symmetry_space_group_name_H-M "P M M A"
_symmetry_group_IT_number 51
_symmetry_cell_setting 'orthorhombic'
loop_
_space_group_symop_operation_xyz
x,y,z
1/2-x,-y,z
1/2+x,-y,-z
-x,y,-z
-x,-y,-z
1/2+x,y,-z
1/2-x,y,z
x,-y,z
loop_
_atom_site_type_symbol
_atom_site_label
_atom_site_fract_x
_atom_site_fract_y
_atom_site_fract_z
Si Si1 0.060222 0.147773 0.847874
Si Si2 0.440775 0.558447 0.149266
Si Si3 0.059068 0.648107 0.346566
Si Si4 0.560461 0.740366 0.847286
Si Si5 0.059234 0.057160 0.652614
O O1 0.250000 0.148882 0.848700
O O2 0.004822 0.102382 0.750297
O O3 0.999225 0.203592 0.806232
O O4 0.000000 0.138741 0.000000
O O5 0.250000 0.558940 0.146671
O O6 0.492827 0.500000 0.173512
O O7 0.493748 0.597719 0.264492
O O8 0.500000 0.573986 0.000000
O O9 0.250000 0.647981 0.348741
O O10 0.008212 0.697091 0.258148
O O11 0.000000 0.649427 0.500000
O O12 0.750000 0.740888 0.851845
O O13 0.500000 0.729953 0.000000
O O14 0.250000 0.057845 0.651836
O O15 0.000000 0.065131 0.500000
O O16 0.008898 0.000000 0.695823
#
# Coordination Sequence:
#
# PCOD9403779 Si02
#       5
#     8   8   8   8   8
#     4  10  20  34  53  77 103 131 166 207 251 298
#     4   9  18  34  55  78 103 132 169 210 251 298
#     4  10  22  36  51  75 105 136 169 207 251 299
#     4  10  20  35  54  75 100 131 169 209 250 298
#     4   9  19  35  53  74 101 133 168 205 247 297
#
# _framework density 18.280985000000001
#
# number of rings (size 3 to 8) (size 9 to 14) (size 15 to 20)
#    0.000    2.400    0.000    3.000    0.000    5.600 
#    0.000    4.000    0.000    0.000    0.000    0.000 
#    0.000    0.000    0.000    0.000    0.000    0.000 
#
# Total GULP energy -223219.668378 kJ/mol
# GULP energy per Si atom -5580.491709 kJ/mol
# Density = 1.823938 g / cm^3
# Si number density = 18.280985 Si / 1000 Ang^3
#
#
#
# Elastic Constant Matrix: (Units=GPa)
#
#
# Indices 1 2 3 4 5 6 
#
# 1 21.6858 27.0229 20.3974 0.0000 0.0000 0.0000
# 2 27.0229 169.0465 129.3658 0.0000 0.0000 0.0000
# 3 20.3974 129.3658 136.8059 0.0000 0.0000 0.0000
# 4 0.0000 0.0000 0.0000 36.2824 0.0000 0.0000
# 5 0.0000 0.0000 0.0000 0.0000 33.2070 0.0000
# 6 0.0000 0.0000 0.0000 0.0000 0.0000 -20.9828
#
#
#
# Elastic Compliance Matrix: (Units=1/GPa)
#
#
# Indices 1 2 3 4 5 6 
#
# 1 0.057590 -0.009535 0.000430 0.000000 0.000000 0.000000
# 2 -0.009535 0.022985 -0.020313 0.000000 0.000000 0.000000
# 3 0.000430 -0.020313 0.026454 0.000000 0.000000 0.000000
# 4 0.000000 0.000000 0.000000 0.027562 0.000000 0.000000
# 5 0.000000 0.000000 0.000000 0.000000 0.030114 0.000000
# 6 0.000000 0.000000 0.000000 0.000000 0.000000 -0.047658
#
#
# Mechanical properties :
#
#
# Convention : Reuss Voigt Hill
#
# Bulk Modulus (GPa) = 20.75006 75.67892 48.21449
# Shear Modulus (GPa) = 26.04889 19.75145 22.90017
#
# Velocity S-wave (km/s) = 3.77890 3.29057 3.54316
# Velocity P-wave (km/s) = 5.51502 7.47827 6.57039
#
# Compressibility (1/GPa) = 0.04819264
#
# Stress axis : x y z
#
# Youngs Moduli (GPa) = 17.36399 43.50741 37.80191
#
# Poissons Ratio (x) = 0.41485 -0.01626
# Poissons Ratio (y) = 0.16557 0.76787
# Poissons Ratio (z) = -0.00747 0.88376
#
# Static dielectric constant tensor:
#      x y z
#    x 1.631880 0.000000 0.000000 
#    y 0.000000 1.645170 0.000000 
#    z 0.000000 0.000000 1.585150 
# 
# From -- ./inp_files/5469.got.cif
#   From: 2010.05.17/outbox.cif.g08.bks.cpg/sg51_3_cif.got.tgz:5469.got - 2010.06.03 11:52:47.
