data_PCOD9403600
_publ_section_title
;
Structure prediction by ZEFSAII (Michael W. Deem and Ramdas Pophale) SiO2 
 PCOD9403600
Probable space group: P M M A
;
_chemical_formula_sum "Si O2"
_cell_formula_units_Z 44
_cell_length_a 9.061608
_cell_length_b 13.117133
_cell_length_c 22.226984
_cell_angle_alpha 90.000000
_cell_angle_beta 90.000000
_cell_angle_gamma 90.000000
_cell_volume 2641.950825
_symmetry_space_group_name_H-M "P M M A"
_symmetry_group_IT_number 51
_symmetry_cell_setting 'orthorhombic'
loop_
_space_group_symop_operation_xyz
x,y,z
1/2-x,-y,z
1/2+x,-y,-z
-x,y,-z
-x,-y,-z
1/2+x,y,-z
1/2-x,y,z
x,-y,z
loop_
_atom_site_type_symbol
_atom_site_label
_atom_site_fract_x
_atom_site_fract_y
_atom_site_fract_z
Si Si1 0.577533 0.172176 0.143589
Si Si2 0.419973 0.116817 0.716129
Si Si3 0.075761 0.314870 0.318072
Si Si4 0.072513 0.614676 0.805345
Si Si5 0.573955 0.000000 0.934702
Si Si6 0.417609 0.622382 0.559776
O O1 0.750000 0.167655 0.124990
O O2 0.569326 0.128704 0.211608
O O3 0.531489 0.290896 0.151165
O O4 0.482202 0.100062 0.101199
O O5 0.250000 0.144201 0.700476
O O6 0.532079 0.196255 0.687806
O O7 0.446226 0.000000 0.699697
O O8 0.250000 0.330941 0.317145
O O9 0.002464 0.366980 0.259381
O O10 0.005590 0.354137 0.379633
O O11 0.250000 0.622546 0.797059
O O12 0.038595 0.500000 0.826666
O O13 0.750000 0.000000 0.938847
O O14 0.500000 0.000000 0.000000
O O15 0.500000 0.660998 0.500000
O O16 0.250000 0.661491 0.563378
O O17 0.409986 0.500000 0.554656
#
# Coordination Sequence:
#
# PCOD9403600 Si02
#       6
#     8   8   8   8   4   8
#     4   9  17  33  54  77 105 134 168 211 256 301
#     4   9  17  32  53  73  98 133 167 203 250 302
#     4  11  21  30  45  73 105 134 166 207 252 300
#     4   9  18  33  53  76 104 140 175 207 251 307
#     4  12  24  36  54  78 106 138 173 212 253 298
#     4  10  20  34  51  69  92 125 165 208 253 302
#
# _framework density 16.65436
#
# number of rings (size 3 to 8) (size 9 to 14) (size 15 to 20)
#    0.000    2.182    0.909    4.636    0.000    6.909 
#    0.000    0.000    0.000    1.091    0.000    0.000 
#    0.000    0.000    0.000    0.000    0.000    0.000 
#
# Total GULP energy -245383.449663 kJ/mol
# GULP energy per Si atom -5576.896583 kJ/mol
# Density = 1.661645 g / cm^3
# Si number density = 16.654360 Si / 1000 Ang^3
#
#
#
# Elastic Constant Matrix: (Units=GPa)
#
#
# Indices 1 2 3 4 5 6 
#
# 1 96.8810 44.0148 52.0234 0.0000 0.0000 0.0000
# 2 44.0148 104.3148 36.4792 0.0000 0.0000 0.0000
# 3 52.0234 36.4792 75.7855 0.0000 0.0000 0.0000
# 4 0.0000 0.0000 0.0000 18.2894 0.0000 0.0000
# 5 0.0000 0.0000 0.0000 0.0000 26.1122 0.0000
# 6 0.0000 0.0000 0.0000 0.0000 0.0000 21.0246
#
#
#
# Elastic Compliance Matrix: (Units=1/GPa)
#
#
# Indices 1 2 3 4 5 6 
#
# 1 0.017538 -0.003836 -0.010193 0.000000 0.000000 0.000000
# 2 -0.003836 0.012365 -0.003319 0.000000 0.000000 0.000000
# 3 -0.010193 -0.003319 0.021790 0.000000 0.000000 0.000000
# 4 0.000000 0.000000 0.000000 0.054677 0.000000 0.000000
# 5 0.000000 0.000000 0.000000 0.000000 0.038296 0.000000
# 6 0.000000 0.000000 0.000000 0.000000 0.000000 0.047563
#
#
# Mechanical properties :
#
#
# Convention : Reuss Voigt Hill
#
# Bulk Modulus (GPa) = 58.83003 60.22401 59.52702
# Shear Modulus (GPa) = 21.49708 22.71618 22.10663
#
# Velocity S-wave (km/s) = 3.59664 3.69721 3.64727
# Velocity P-wave (km/s) = 7.25593 7.38007 7.31826
#
# Compressibility (1/GPa) = 0.01699812
#
# Stress axis : x y z
#
# Youngs Moduli (GPa) = 57.01980 80.87047 45.89338
#
# Poissons Ratio (x) = 0.31018 0.46778
# Poissons Ratio (y) = 0.21870 0.15233
# Poissons Ratio (z) = 0.58118 0.26842
#
# Static dielectric constant tensor:
#      x y z
#    x 1.558420 0.000000 0.000000 
#    y 0.000000 1.591960 0.000000 
#    z 0.000000 0.000000 1.526800 
# 
# From -- ./inp_files/27331.got.cif
#   From: 2010.05.17/outbox.cif.g08.bks.cpg/sg51_14_cif.got.tgz:27331.got - 2010.06.03 11:52:47.
