data_PCOD9403511
_publ_section_title
;
Structure prediction by ZEFSAII (Michael W. Deem and Ramdas Pophale) SiO2 
 PCOD9403511
Probable space group: P M M A
;
_chemical_formula_sum "Si O2"
_cell_formula_units_Z 48
_cell_length_a 30.804435
_cell_length_b 8.584012
_cell_length_c 9.868779
_cell_angle_alpha 90.000000
_cell_angle_beta 90.000000
_cell_angle_gamma 90.000000
_cell_volume 2609.558200
_symmetry_space_group_name_H-M "P M M A"
_symmetry_group_IT_number 51
_symmetry_cell_setting 'orthorhombic'
loop_
_space_group_symop_operation_xyz
x,y,z
1/2-x,-y,z
1/2+x,-y,-z
-x,y,-z
-x,-y,-z
1/2+x,y,-z
1/2-x,y,z
x,-y,z
loop_
_atom_site_type_symbol
_atom_site_label
_atom_site_fract_x
_atom_site_fract_y
_atom_site_fract_z
Si Si1 0.999393 0.311753 0.344768
Si Si2 0.824590 0.313524 0.850354
Si Si3 0.325268 0.188160 0.853037
Si Si4 0.250000 0.189916 0.650795
Si Si5 0.750000 0.186709 0.659592
Si Si6 0.075249 0.688069 0.144352
Si Si7 0.425436 0.813660 0.847823
O O1 0.999154 0.500000 0.345729
O O2 0.041847 0.261394 0.260115
O O3 0.000000 0.257338 0.500000
O O4 0.957426 0.254804 0.263610
O O5 0.822270 0.500000 0.846690
O O6 0.812438 0.255680 0.000866
O O7 0.792121 0.244890 0.740340
O O8 0.874855 0.265532 0.827792
O O9 0.292321 0.238338 0.735953
O O10 0.375167 0.233762 0.825384
O O11 0.323700 0.000000 0.862486
O O12 0.250000 0.243036 0.495842
O O13 0.250000 0.000000 0.648432
O O14 0.750000 0.000000 0.659440
O O15 0.074123 0.500000 0.135806
O O16 0.062338 0.754475 0.997872
O O17 0.427702 0.000000 0.845364
#
# Coordination Sequence:
#
# PCOD9403511 Si02
#       7
#     8   8   8   4   4   8   8
#     4  10  21  36  53  74 103 141 179 212 255 313
#     4  10  20  35  55  79 104 132 171 216 258 301
#     4   9  18  35  57  79 103 134 174 217 260 307
#     4   9  19  35  54  74 100 137 174 205 246 306
#     4  11  22  35  52  76 106 139 170 203 252 310
#     4   9  19  36  56  76 101 135 174 215 256 302
#     4  10  20  33  53  81 107 132 169 218 265 308
#
# _framework density 18.393917999999999
#
# number of rings (size 3 to 8) (size 9 to 14) (size 15 to 20)
#    0.000    2.333    0.000    2.250    0.000    6.333 
#    0.000    1.667    0.000    0.000    0.000    0.000 
#    0.000    0.000    0.000    0.000    0.000    0.000 
#
# Total GULP energy -267985.422570 kJ/mol
# GULP energy per Si atom -5583.029637 kJ/mol
# Density = 1.835205 g / cm^3
# Si number density = 18.393918 Si / 1000 Ang^3
#
#
#
# Elastic Constant Matrix: (Units=GPa)
#
#
# Indices 1 2 3 4 5 6 
#
# 1 120.2012 25.3029 124.7338 0.0000 0.0000 0.0000
# 2 25.3029 13.9390 31.7226 0.0000 0.0000 0.0000
# 3 124.7338 31.7226 207.0079 0.0000 0.0000 0.0000
# 4 0.0000 0.0000 0.0000 21.5340 0.0000 0.0000
# 5 0.0000 0.0000 0.0000 0.0000 -7.8797 0.0000
# 6 0.0000 0.0000 0.0000 0.0000 0.0000 27.3663
#
#
#
# Elastic Compliance Matrix: (Units=1/GPa)
#
#
# Indices 1 2 3 4 5 6 
#
# 1 0.024496 -0.016699 -0.012201 0.000000 0.000000 0.000000
# 2 -0.016699 0.121543 -0.008564 0.000000 0.000000 0.000000
# 3 -0.012201 -0.008564 0.013495 0.000000 0.000000 0.000000
# 4 0.000000 0.000000 0.000000 0.046438 0.000000 0.000000
# 5 0.000000 0.000000 0.000000 0.000000 -0.126908 0.000000
# 6 0.000000 0.000000 0.000000 0.000000 0.000000 0.036541
#
#
# Mechanical properties :
#
#
# Convention : Reuss Voigt Hill
#
# Bulk Modulus (GPa) = 11.81939 78.29629 45.05784
# Shear Modulus (GPa) = 22.85870 18.83002 20.84436
#
# Velocity S-wave (km/s) = 3.52906 3.20302 3.36999
# Velocity P-wave (km/s) = 4.80056 7.50586 6.30013
#
# Compressibility (1/GPa) = 0.08460675
#
# Stress axis : x y z
#
# Youngs Moduli (GPa) = 40.82357 8.22752 74.10215
#
# Poissons Ratio (x) = 0.13739 0.90412
# Poissons Ratio (y) = 0.68170 0.63460
# Poissons Ratio (z) = 0.49809 0.07046
#
# Static dielectric constant tensor:
#      x y z
#    x 1.637700 0.000000 0.000000 
#    y 0.000000 1.624800 0.000000 
#    z 0.000000 0.000000 1.598900 
# 
# From -- ./inp_files/12947.got.cif
#   From: 2010.05.17/outbox.cif.g08.bks.cpg/sg51_7_cif.got.tgz:12947.got - 2010.06.03 11:52:47.
