data_PCOD9403739
_publ_section_title
;
Structure prediction by ZEFSAII (Michael W. Deem and Ramdas Pophale) SiO2 
 PCOD9403739
Probable space group: P M M A
;
_chemical_formula_sum "Si O2"
_cell_formula_units_Z 40
_cell_length_a 18.522927
_cell_length_b 7.360058
_cell_length_c 16.329202
_cell_angle_alpha 90.000000
_cell_angle_beta 90.000000
_cell_angle_gamma 90.000000
_cell_volume 2226.157121
_symmetry_space_group_name_H-M "P M M A"
_symmetry_group_IT_number 51
_symmetry_cell_setting 'orthorhombic'
loop_
_space_group_symop_operation_xyz
x,y,z
1/2-x,-y,z
1/2+x,-y,-z
-x,y,-z
-x,-y,-z
1/2+x,y,-z
1/2-x,y,z
x,-y,z
loop_
_atom_site_type_symbol
_atom_site_label
_atom_site_fract_x
_atom_site_fract_y
_atom_site_fract_z
Si Si1 0.666003 0.720306 0.016629
Si Si2 0.960083 0.714151 0.719356
Si Si3 0.481577 0.000000 0.595005
Si Si4 0.891594 0.714536 0.189578
Si Si5 0.831855 0.000000 0.314622
Si Si6 0.833172 0.278529 0.834559
O O1 0.750000 0.771083 0.026985
O O2 0.663069 0.500000 0.015254
O O3 0.623034 0.777578 0.096992
O O4 0.643009 0.780137 0.925894
O O5 0.954423 0.500000 0.700841
O O6 0.887334 0.778466 0.763629
O O7 0.025467 0.737833 0.784028
O O8 0.982882 0.827543 0.640513
O O9 0.500000 0.000000 0.500000
O O10 0.396172 0.000000 0.618343
O O11 0.874108 0.500000 0.194828
O O12 0.845535 0.828224 0.254785
O O13 0.750000 0.000000 0.346078
O O14 0.750000 0.223881 0.822727
O O15 0.834424 0.500000 0.834740
#
# Coordination Sequence:
#
# PCOD9403739 Si02
#       6
#     8   8   4   8   4   8
#     4   8  13  22  39  65  98 135 169 200 234 268
#     4   9  18  33  53  74  96 128 164 197 244 295
#     4  10  22  40  57  75  99 121 151 200 250 302
#     4   9  17  29  47  72 101 133 168 201 233 278
#     4  10  20  34  53  75  99 127 157 195 245 292
#     4   8  14  26  45  70 101 135 170 205 236 272
#
# _framework density 17.968184000000001
#
# number of rings (size 3 to 8) (size 9 to 14) (size 15 to 20)
#    0.000    3.200    0.000    1.800    0.000    2.400 
#    0.000    6.500    0.000    6.000    0.000    0.000 
#    0.000    0.000    0.000    0.000    0.000    0.000 
#
# Total GULP energy -222988.856635 kJ/mol
# GULP energy per Si atom -5574.721416 kJ/mol
# Density = 1.792729 g / cm^3
# Si number density = 17.968184 Si / 1000 Ang^3
#
#
#
# Elastic Constant Matrix: (Units=GPa)
#
#
# Indices 1 2 3 4 5 6 
#
# 1 94.5728 35.9308 88.7756 0.0000 0.0000 0.0000
# 2 35.9308 72.2795 39.6441 0.0000 0.0000 0.0000
# 3 88.7756 39.6441 151.4470 0.0000 0.0000 0.0000
# 4 0.0000 0.0000 0.0000 22.1381 0.0000 0.0000
# 5 0.0000 0.0000 0.0000 0.0000 16.2330 0.0000
# 6 0.0000 0.0000 0.0000 0.0000 0.0000 5.1295
#
#
#
# Elastic Compliance Matrix: (Units=1/GPa)
#
#
# Indices 1 2 3 4 5 6 
#
# 1 0.025043 -0.005135 -0.013335 0.000000 0.000000 0.000000
# 2 -0.005135 0.017207 -0.001495 0.000000 0.000000 0.000000
# 3 -0.013335 -0.001495 0.014811 0.000000 0.000000 0.000000
# 4 0.000000 0.000000 0.000000 0.045171 0.000000 0.000000
# 5 0.000000 0.000000 0.000000 0.000000 0.061603 0.000000
# 6 0.000000 0.000000 0.000000 0.000000 0.000000 0.194952
#
#
# Mechanical properties :
#
#
# Convention : Reuss Voigt Hill
#
# Bulk Modulus (GPa) = 58.37042 71.88894 65.12968
# Shear Modulus (GPa) = 12.36318 18.96338 15.66328
#
# Velocity S-wave (km/s) = 2.62593 3.25220 2.95570
# Velocity P-wave (km/s) = 6.46142 7.36195 6.92634
#
# Compressibility (1/GPa) = 0.01713197
#
# Stress axis : x y z
#
# Youngs Moduli (GPa) = 39.93181 58.11461 67.51642
#
# Poissons Ratio (x) = 0.29840 0.90036
# Poissons Ratio (y) = 0.20504 0.10090
# Poissons Ratio (z) = 0.53251 0.08685
#
# Static dielectric constant tensor:
#      x y z
#    x 1.612230 0.000000 0.000000 
#    y 0.000000 1.684420 0.000000 
#    z 0.000000 0.000000 1.573190 
# 
# From -- ./inp_files/23736.got.cif
#   From: 2010.05.17/outbox.cif.g08.bks.cpg/sg51_12_cif.got.tgz:23736.got - 2010.06.03 11:52:47.
