data_PCOD9403966
_publ_section_title
;
Structure prediction by ZEFSAII (Michael W. Deem and Ramdas Pophale) SiO2 
 PCOD9403966
Probable space group: P M M A
;
_chemical_formula_sum "Si O2"
_cell_formula_units_Z 48
_cell_length_a 9.420971
_cell_length_b 7.839073
_cell_length_c 31.725289
_cell_angle_alpha 90.000000
_cell_angle_beta 90.000000
_cell_angle_gamma 90.000000
_cell_volume 2342.965872
_symmetry_space_group_name_H-M "P M M A"
_symmetry_group_IT_number 51
_symmetry_cell_setting 'orthorhombic'
loop_
_space_group_symop_operation_xyz
x,y,z
1/2-x,-y,z
1/2+x,-y,-z
-x,y,-z
-x,-y,-z
1/2+x,y,-z
1/2-x,y,z
x,-y,z
loop_
_atom_site_type_symbol
_atom_site_label
_atom_site_fract_x
_atom_site_fract_y
_atom_site_fract_z
Si Si1 0.912895 0.291109 0.041194
Si Si2 0.587312 0.705885 0.877686
Si Si3 0.589513 0.700787 0.297358
Si Si4 0.912577 0.202789 0.783252
Si Si5 0.413560 0.208919 0.541568
Si Si6 0.910258 0.202589 0.622064
O O1 0.750000 0.236268 0.039168
O O2 0.913556 0.500000 0.041314
O O3 0.989276 0.234422 0.084114
O O4 0.000000 0.237207 0.000000
O O5 0.750000 0.765788 0.883330
O O6 0.589176 0.500000 0.879044
O O7 0.540508 0.757606 0.830910
O O8 0.750000 0.771602 0.298331
O O9 0.597744 0.500000 0.305272
O O10 0.516075 0.727158 0.252253
O O11 0.490640 0.774307 0.333949
O O12 0.750000 0.268972 0.778490
O O13 0.907774 0.000000 0.777991
O O14 0.500000 0.260186 0.500000
O O15 0.250000 0.264779 0.540658
O O16 0.495176 0.269305 0.583403
O O17 0.411492 0.000000 0.542036
O O18 0.750000 0.273099 0.623121
O O19 0.898260 0.000000 0.614965
#
# Coordination Sequence:
#
# PCOD9403966 Si02
#       6
#     8   8   8   8   8   8
#     4   9  16  26  43  69 100 132 167 208 252 298
#     4   9  17  30  49  73 102 135 169 207 253 303
#     4  11  24  39  55  77 105 137 174 216 262 313
#     4  10  21  37  57  80 105 135 172 213 259 313
#     4   9  16  27  46  74 108 143 178 217 259 303
#     4  10  20  34  54  80 108 139 177 219 263 312
#
# _framework density 20.486854999999998
#
# number of rings (size 3 to 8) (size 9 to 14) (size 15 to 20)
#    0.000    2.333    0.000    3.000    0.000   10.000 
#    0.000    1.667    0.000    1.000    0.000    0.000 
#    0.000    0.000    0.000    0.000    0.000    0.000 
#
# Total GULP energy -268084.207879 kJ/mol
# GULP energy per Si atom -5585.087664 kJ/mol
# Density = 2.044023 g / cm^3
# Si number density = 20.486855 Si / 1000 Ang^3
#
#
#
# Elastic Constant Matrix: (Units=GPa)
#
#
# Indices 1 2 3 4 5 6 
#
# 1 189.2614 3.9941 119.9519 0.0000 0.0000 0.0000
# 2 3.9941 22.3360 -7.7797 0.0000 0.0000 0.0000
# 3 119.9519 -7.7797 159.7297 0.0000 0.0000 0.0000
# 4 0.0000 0.0000 0.0000 20.1205 0.0000 0.0000
# 5 0.0000 0.0000 0.0000 0.0000 42.1378 0.0000
# 6 0.0000 0.0000 0.0000 0.0000 0.0000 -42.9629
#
#
#
# Elastic Compliance Matrix: (Units=1/GPa)
#
#
# Indices 1 2 3 4 5 6 
#
# 1 0.010551 -0.004727 -0.008154 0.000000 0.000000 0.000000
# 2 -0.004727 0.047661 0.005871 0.000000 0.000000 0.000000
# 3 -0.008154 0.005871 0.012670 0.000000 0.000000 0.000000
# 4 0.000000 0.000000 0.000000 0.049701 0.000000 0.000000
# 5 0.000000 0.000000 0.000000 0.000000 0.023732 0.000000
# 6 0.000000 0.000000 0.000000 0.000000 0.000000 -0.023276
#
#
# Mechanical properties :
#
#
# Convention : Reuss Voigt Hill
#
# Bulk Modulus (GPa) = 17.58623 67.07331 42.32977
# Shear Modulus (GPa) = 32.46496 20.86978 26.66737
#
# Velocity S-wave (km/s) = 3.98511 3.19516 3.61180
# Velocity P-wave (km/s) = 5.45689 6.81343 6.17254
#
# Compressibility (1/GPa) = 0.05686266
#
# Stress axis : x y z
#
# Youngs Moduli (GPa) = 94.77476 20.98156 78.92736
#
# Poissons Ratio (x) = 0.09918 0.64357
# Poissons Ratio (y) = 0.44798 -0.46339
# Poissons Ratio (z) = 0.77279 -0.12318
#
# Static dielectric constant tensor:
#      x y z
#    x 1.721650 0.000000 0.000000 
#    y 0.000000 1.761700 0.000000 
#    z 0.000000 0.000000 1.684210 
# 
# From -- ./inp_files/36873.got.cif
#   From: 2010.05.17/outbox.cif.g08.bks.cpg/sg51_19_cif.got.tgz:36873.got - 2010.06.03 11:52:47.
