data_PCOD9403465
_publ_section_title
;
Structure prediction by ZEFSAII (Michael W. Deem and Ramdas Pophale) SiO2 
 PCOD9403465
Probable space group: P M M A
;
_chemical_formula_sum "Si O2"
_cell_formula_units_Z 64
_cell_length_a 9.330894
_cell_length_b 22.446092
_cell_length_c 16.361693
_cell_angle_alpha 90.000000
_cell_angle_beta 90.000000
_cell_angle_gamma 90.000000
_cell_volume 3426.827426
_symmetry_space_group_name_H-M "P M M A"
_symmetry_group_IT_number 51
_symmetry_cell_setting 'orthorhombic'
loop_
_space_group_symop_operation_xyz
x,y,z
1/2-x,-y,z
1/2+x,-y,-z
-x,y,-z
-x,-y,-z
1/2+x,y,-z
1/2-x,y,z
x,-y,z
loop_
_atom_site_type_symbol
_atom_site_label
_atom_site_fract_x
_atom_site_fract_y
_atom_site_fract_z
Si Si1 0.917499 0.069286 0.753227
Si Si2 0.909841 0.691783 0.700266
Si Si3 0.582562 0.907651 0.416572
Si Si4 0.080029 0.397241 0.920848
Si Si5 0.088018 0.280072 0.108491
Si Si6 0.587433 0.764287 0.421796
Si Si7 0.921341 0.140229 0.917045
Si Si8 0.080516 0.433879 0.241600
O O1 0.750000 0.085023 0.736247
O O2 0.965918 0.108839 0.831308
O O3 0.005699 0.075001 0.668590
O O4 0.922802 0.000000 0.778071
O O5 0.750000 0.699007 0.665232
O O6 0.904129 0.711255 0.794316
O O7 0.950483 0.622071 0.700208
O O8 0.019292 0.734007 0.656050
O O9 0.500000 0.927052 0.500000
O O10 0.750000 0.926218 0.418495
O O11 0.579285 0.835694 0.416778
O O12 0.250000 0.403809 0.924910
O O13 0.030987 0.327731 0.917464
O O14 0.014122 0.425811 0.839259
O O15 0.000000 0.422829 0.000000
O O16 0.250000 0.294455 0.076883
O O17 0.055032 0.211516 0.089876
O O18 0.500000 0.744173 0.500000
O O19 0.750000 0.746617 0.430885
O O20 0.750000 0.130449 0.924835
O O21 0.000000 0.119275 0.000000
O O22 0.250000 0.427567 0.219281
O O23 0.059747 0.500000 0.275835
#
# Coordination Sequence:
#
# PCOD9403465 Si02
#       8
#     8   8   8   8   8   8   8   8
#     4  10  22  40  59  79 107 145 187 228 270 319
#     4   9  17  31  53  78 104 135 169 209 258 309
#     4  10  21  37  59  87 116 145 177 215 265 324
#     4  11  21  32  48  71 100 131 165 208 257 308
#     4   9  18  33  52  75 103 134 169 211 263 319
#     4  10  20  33  52  80 111 139 167 203 250 306
#     4  10  21  36  55  79 107 142 184 230 278 325
#     4   9  19  36  54  71  95 131 173 211 250 300
#
# _framework density 18.676167
#
# number of rings (size 3 to 8) (size 9 to 14) (size 15 to 20)
#    0.000    2.250    0.000    3.750    0.000    7.750 
#    0.000    0.000    0.000    0.375    0.000    0.000 
#    0.000    0.000    0.000    0.000    0.000    0.000 
#
# Total GULP energy -356965.728716 kJ/mol
# GULP energy per Si atom -5577.589511 kJ/mol
# Density = 1.863366 g / cm^3
# Si number density = 18.676167 Si / 1000 Ang^3
#
#
#
# Elastic Constant Matrix: (Units=GPa)
#
#
# Indices 1 2 3 4 5 6 
#
# 1 77.9671 32.3309 32.4288 0.0000 0.0000 0.0000
# 2 32.3309 52.6839 27.3111 0.0000 0.0000 0.0000
# 3 32.4288 27.3111 76.8928 0.0000 0.0000 0.0000
# 4 0.0000 0.0000 0.0000 23.5896 0.0000 0.0000
# 5 0.0000 0.0000 0.0000 0.0000 34.2165 0.0000
# 6 0.0000 0.0000 0.0000 0.0000 0.0000 9.8517
#
#
#
# Elastic Compliance Matrix: (Units=1/GPa)
#
#
# Indices 1 2 3 4 5 6 
#
# 1 0.018446 -0.008931 -0.004607 0.000000 0.000000 0.000000
# 2 -0.008931 0.027589 -0.006033 0.000000 0.000000 0.000000
# 3 -0.004607 -0.006033 0.017091 0.000000 0.000000 0.000000
# 4 0.000000 0.000000 0.000000 0.042392 0.000000 0.000000
# 5 0.000000 0.000000 0.000000 0.000000 0.029226 0.000000
# 6 0.000000 0.000000 0.000000 0.000000 0.000000 0.101505
#
#
# Mechanical properties :
#
#
# Convention : Reuss Voigt Hill
#
# Bulk Modulus (GPa) = 41.69474 43.52061 42.60767
# Shear Modulus (GPa) = 17.64383 21.22976 19.43679
#
# Velocity S-wave (km/s) = 3.07697 3.37520 3.22953
# Velocity P-wave (km/s) = 5.91585 6.20827 6.06382
#
# Compressibility (1/GPa) = 0.02398384
#
# Stress axis : x y z
#
# Youngs Moduli (GPa) = 54.21303 36.24579 58.51118
#
# Poissons Ratio (x) = 0.32373 0.26956
# Poissons Ratio (y) = 0.48420 0.35297
# Poissons Ratio (z) = 0.24976 0.21865
#
# Static dielectric constant tensor:
#      x y z
#    x 1.651830 0.000000 0.000000 
#    y 0.000000 1.664540 0.000000 
#    z 0.000000 0.000000 1.649500 
# 
# From -- ./inp_files/22261.got.cif
#   From: 2010.05.17/outbox.cif.g08.bks.cpg/sg51_12_cif.got.tgz:22261.got - 2010.06.03 11:52:47.
