data_PCOD9403313
_publ_section_title
;
Structure prediction by ZEFSAII (Michael W. Deem and Ramdas Pophale) SiO2 
 PCOD9403313
Probable space group: P M M A
;
_chemical_formula_sum "Si O2"
_cell_formula_units_Z 48
_cell_length_a 9.383915
_cell_length_b 7.515504
_cell_length_c 32.479631
_cell_angle_alpha 90.000000
_cell_angle_beta 90.000000
_cell_angle_gamma 90.000000
_cell_volume 2290.621128
_symmetry_space_group_name_H-M "P M M A"
_symmetry_group_IT_number 51
_symmetry_cell_setting 'orthorhombic'
loop_
_space_group_symop_operation_xyz
x,y,z
1/2-x,-y,z
1/2+x,-y,-z
-x,y,-z
-x,-y,-z
1/2+x,y,-z
1/2-x,y,z
x,-y,z
loop_
_atom_site_type_symbol
_atom_site_label
_atom_site_fract_x
_atom_site_fract_y
_atom_site_fract_z
Si Si1 0.913635 0.282196 0.540527
Si Si2 0.912575 0.288717 0.380582
Si Si3 0.416467 0.782740 0.799177
Si Si4 0.588319 0.213839 0.878578
Si Si5 0.588313 0.713129 0.039157
Si Si6 0.914776 0.213575 0.290741
O O1 0.750000 0.224885 0.538962
O O2 0.913072 0.500000 0.540834
O O3 0.000000 0.227602 0.500000
O O4 0.992647 0.220563 0.581956
O O5 0.750000 0.216090 0.381351
O O6 0.901151 0.500000 0.386556
O O7 0.977213 0.262910 0.334967
O O8 0.250000 0.731105 0.803457
O O9 0.509665 0.719865 0.837438
O O10 0.471107 0.726753 0.753801
O O11 0.417823 0.000000 0.799790
O O12 0.750000 0.280791 0.882539
O O13 0.495787 0.252888 0.918827
O O14 0.595442 0.000000 0.875077
O O15 0.750000 0.782477 0.040608
O O16 0.597503 0.500000 0.034471
O O17 0.500000 0.782459 0.000000
O O18 0.750000 0.276279 0.291970
O O19 0.913208 0.000000 0.289604
#
# Coordination Sequence:
#
# PCOD9403313 Si02
#       6
#     8   8   8   8   8   8
#     4   9  16  26  41  61  85 113 144 178 218 265
#     4   9  16  26  42  65  90 113 141 182 227 266
#     4   8  14  27  47  68  91 122 159 196 232 272
#     4  10  20  33  51  76 103 130 162 201 243 284
#     4  10  21  37  56  76  99 130 165 199 239 288
#     4   8  14  26  45  66  88 119 156 187 220 268
#
# _framework density 20.955015
#
# number of rings (size 3 to 8) (size 9 to 14) (size 15 to 20)
#    0.000    3.000    0.000    2.500    0.000    4.333 
#    0.000    1.667    0.000    5.000    0.000    0.000 
#    0.000    0.000    0.000    0.000    0.000    0.000 
#
# Total GULP energy -267730.929356 kJ/mol
# GULP energy per Si atom -5577.727695 kJ/mol
# Density = 2.090732 g / cm^3
# Si number density = 20.955015 Si / 1000 Ang^3
#
#
#
# Elastic Constant Matrix: (Units=GPa)
#
#
# Indices 1 2 3 4 5 6 
#
# 1 152.3251 6.5994 126.5141 0.0000 0.0000 0.0000
# 2 6.5994 52.8240 1.5255 0.0000 0.0000 0.0000
# 3 126.5141 1.5255 256.8899 0.0000 0.0000 0.0000
# 4 0.0000 0.0000 0.0000 19.7837 0.0000 0.0000
# 5 0.0000 0.0000 0.0000 0.0000 36.0404 0.0000
# 6 0.0000 0.0000 0.0000 0.0000 0.0000 -0.2738
#
#
#
# Elastic Compliance Matrix: (Units=1/GPa)
#
#
# Indices 1 2 3 4 5 6 
#
# 1 0.011189 -0.001239 -0.005503 0.000000 0.000000 0.000000
# 2 -0.001239 0.019071 0.000497 0.000000 0.000000 0.000000
# 3 -0.005503 0.000497 0.006600 0.000000 0.000000 0.000000
# 4 0.000000 0.000000 0.000000 0.050547 0.000000 0.000000
# 5 0.000000 0.000000 0.000000 0.000000 0.027747 0.000000
# 6 0.000000 0.000000 0.000000 0.000000 0.000000 -3.652292
#
#
# Mechanical properties :
#
#
# Convention : Reuss Voigt Hill
#
# Bulk Modulus (GPa) = 41.03399 81.25744 61.14571
# Shear Modulus (GPa) = -1.42186 32.93674 15.75744
#
# Velocity S-wave (km/s) = -0.82462 3.96887 2.74517
# Velocity P-wave (km/s) = 4.32641 7.73717 6.26824
#
# Compressibility (1/GPa) = 0.02437004
#
# Stress axis : x y z
#
# Youngs Moduli (GPa) = 89.37133 52.43500 151.51524
#
# Poissons Ratio (x) = 0.06497 0.83382
# Poissons Ratio (y) = 0.11073 -0.07529
# Poissons Ratio (z) = 0.49183 -0.02606
#
# Static dielectric constant tensor:
#      x y z
#    x 1.726310 0.000000 0.000000 
#    y 0.000000 1.809230 0.000000 
#    z 0.000000 0.000000 1.751150 
# 
# From -- ./inp_files/34541.got.cif
#   From: 2010.05.17/outbox.cif.g08.bks.cpg/sg51_18_cif.got.tgz:34541.got - 2010.06.03 11:52:47.
