data_PCOD9403469
_publ_section_title
;
Structure prediction by ZEFSAII (Michael W. Deem and Ramdas Pophale) SiO2 
 PCOD9403469
Probable space group: P M M A
;
_chemical_formula_sum "Si O2"
_cell_formula_units_Z 52
_cell_length_a 8.666029
_cell_length_b 10.640361
_cell_length_c 30.718290
_cell_angle_alpha 90.000000
_cell_angle_beta 90.000000
_cell_angle_gamma 90.000000
_cell_volume 2832.523599
_symmetry_space_group_name_H-M "P M M A"
_symmetry_group_IT_number 51
_symmetry_cell_setting 'orthorhombic'
loop_
_space_group_symop_operation_xyz
x,y,z
1/2-x,-y,z
1/2+x,-y,-z
-x,y,-z
-x,-y,-z
1/2+x,y,-z
1/2-x,y,z
x,-y,z
loop_
_atom_site_type_symbol
_atom_site_label
_atom_site_fract_x
_atom_site_fract_y
_atom_site_fract_z
Si Si1 0.064976 0.275317 0.548722
Si Si2 0.065115 0.642802 0.048592
Si Si3 0.566462 0.854116 0.112344
Si Si4 0.574022 0.151896 0.795569
Si Si5 0.564600 0.635884 0.635256
Si Si6 0.064929 0.000000 0.548551
Si Si7 0.561199 0.855457 0.698778
O O1 0.250000 0.281611 0.546114
O O2 0.015476 0.135204 0.565453
O O3 0.000000 0.295879 0.500000
O O4 0.001454 0.361417 0.586602
O O5 0.250000 0.647381 0.047180
O O6 0.019751 0.500000 0.062564
O O7 0.005624 0.753022 0.079755
O O8 0.000000 0.660957 0.000000
O O9 0.750000 0.853454 0.107250
O O10 0.522601 0.816859 0.161790
O O11 0.513020 0.000000 0.105388
O O12 0.750000 0.198322 0.800866
O O13 0.514367 0.186087 0.747584
O O14 0.580763 0.000000 0.793924
O O15 0.750000 0.645669 0.632466
O O16 0.526944 0.500000 0.655406
O O17 0.508275 0.753492 0.663750
O O18 0.000000 0.000000 0.500000
O O19 0.250000 0.000000 0.547993
O O20 0.750000 0.856941 0.699069
O O21 0.511880 0.000000 0.690179
#
# Coordination Sequence:
#
# PCOD9403469 Si02
#       7
#     8   8   8   8   8   4   8
#     4  10  20  35  54  75 100 130 164 202 247 297
#     4  10  21  37  56  77 104 142 186 229 274 323
#     4  10  20  33  52  80 112 144 179 220 268 320
#     4   8  14  28  51  76 102 133 172 217 262 307
#     4  10  21  35  51  75 105 134 166 206 250 297
#     4   8  16  30  48  72  98 120 150 194 238 280
#     4   8  15  30  53  77  99 131 173 211 251 302
#
# _framework density 18.358187999999998
#
# number of rings (size 3 to 8) (size 9 to 14) (size 15 to 20)
#    0.000    2.769    0.000    2.308    1.077    3.385 
#    0.000    1.538    0.000    3.692    0.000    0.000 
#    0.000    0.000    0.000    0.000    0.000    0.000 
#
# Total GULP energy -289606.350824 kJ/mol
# GULP energy per Si atom -5569.352900 kJ/mol
# Density = 1.831640 g / cm^3
# Si number density = 18.358188 Si / 1000 Ang^3
#
#
#
# Elastic Constant Matrix: (Units=GPa)
#
#
# Indices 1 2 3 4 5 6 
#
# 1 24.3606 32.4088 28.1624 0.0000 0.0000 0.0000
# 2 32.4088 123.8428 83.3958 0.0000 0.0000 0.0000
# 3 28.1624 83.3958 126.2491 0.0000 0.0000 0.0000
# 4 0.0000 0.0000 0.0000 7.2669 0.0000 0.0000
# 5 0.0000 0.0000 0.0000 0.0000 22.9565 0.0000
# 6 0.0000 0.0000 0.0000 0.0000 0.0000 15.3920
#
#
#
# Elastic Compliance Matrix: (Units=1/GPa)
#
#
# Indices 1 2 3 4 5 6 
#
# 1 0.065333 -0.013119 -0.005908 0.000000 0.000000 0.000000
# 2 -0.013119 0.017179 -0.008421 0.000000 0.000000 0.000000
# 3 -0.005908 -0.008421 0.014802 0.000000 0.000000 0.000000
# 4 0.000000 0.000000 0.000000 0.137610 0.000000 0.000000
# 5 0.000000 0.000000 0.000000 0.000000 0.043561 0.000000
# 6 0.000000 0.000000 0.000000 0.000000 0.000000 0.064969
#
#
# Mechanical properties :
#
#
# Convention : Reuss Voigt Hill
#
# Bulk Modulus (GPa) = 23.57538 62.48737 43.03138
# Shear Modulus (GPa) = 12.12157 17.82213 14.97185
#
# Velocity S-wave (km/s) = 2.57238 3.11915 2.85887
# Velocity P-wave (km/s) = 4.65753 6.86177 5.86415
#
# Compressibility (1/GPa) = 0.04241713
#
# Stress axis : x y z
#
# Youngs Moduli (GPa) = 15.30623 58.21165 67.56043
#
# Poissons Ratio (x) = 0.76366 0.39915
# Poissons Ratio (y) = 0.20080 0.56894
# Poissons Ratio (z) = 0.09043 0.49022
#
# Static dielectric constant tensor:
#      x y z
#    x 1.625270 0.000000 0.000000 
#    y 0.000000 1.676750 0.000000 
#    z 0.000000 0.000000 1.615370 
# 
# From -- ./inp_files/37350.got.cif
#   From: 2010.05.17/outbox.cif.g08.bks.cpg/sg51_19_cif.got.tgz:37350.got - 2010.06.03 11:52:47.
