data_PCOD9403963
_publ_section_title
;
Structure prediction by ZEFSAII (Michael W. Deem and Ramdas Pophale) SiO2 
 PCOD9403963
Probable space group: P M M A
;
_chemical_formula_sum "Si O2"
_cell_formula_units_Z 48
_cell_length_a 7.769407
_cell_length_b 9.426579
_cell_length_c 31.778997
_cell_angle_alpha 90.000000
_cell_angle_beta 90.000000
_cell_angle_gamma 90.000000
_cell_volume 2327.459701
_symmetry_space_group_name_H-M "P M M A"
_symmetry_group_IT_number 51
_symmetry_cell_setting 'orthorhombic'
loop_
_space_group_symop_operation_xyz
x,y,z
1/2-x,-y,z
1/2+x,-y,-z
-x,y,-z
-x,-y,-z
1/2+x,y,-z
1/2-x,y,z
x,-y,z
loop_
_atom_site_type_symbol
_atom_site_label
_atom_site_fract_x
_atom_site_fract_y
_atom_site_fract_z
Si Si1 0.957005 0.837710 0.452940
Si Si2 0.542548 0.338938 0.373206
Si Si3 0.454956 0.840024 0.128213
Si Si4 0.038959 0.663395 0.208590
Si Si5 0.457109 0.161733 0.290241
Si Si6 0.045112 0.661287 0.952700
O O1 0.750000 0.842878 0.449745
O O2 0.021535 0.738004 0.415560
O O3 0.000000 0.788118 0.500000
O O4 0.021619 0.000000 0.448372
O O5 0.750000 0.345541 0.376030
O O6 0.477811 0.500000 0.369052
O O7 0.499900 0.245119 0.332694
O O8 0.250000 0.850257 0.134655
O O9 0.520632 0.742617 0.166340
O O10 0.482271 0.764248 0.083713
O O11 0.525534 0.000000 0.128985
O O12 0.250000 0.662210 0.208547
O O13 0.983254 0.500000 0.209871
O O14 0.982204 0.750626 0.249592
O O15 0.250000 0.154926 0.287143
O O16 0.522419 0.000000 0.290911
O O17 0.250000 0.655105 0.949600
O O18 0.976231 0.500000 0.947127
O O19 0.000000 0.707745 0.000000
#
# Coordination Sequence:
#
# PCOD9403963 Si02
#       6
#     8   8   8   8   8   8
#     4   9  18  33  52  73  99 132 170 212 258 309
#     4  10  21  36  53  75 105 140 176 214 259 311
#     4  10  20  34  54  80 109 141 176 214 259 311
#     4   9  17  31  53  79 107 139 174 214 260 308
#     4  10  20  34  54  80 108 138 175 218 261 308
#     4  10  21  37  57  80 106 138 177 220 265 313
#
# _framework density 20.623342000000001
#
# number of rings (size 3 to 8) (size 9 to 14) (size 15 to 20)
#    0.000    2.333    0.000    2.500    0.000    7.333 
#    0.000    2.500    0.000    5.000    0.000    0.000 
#    0.000    0.000    0.000    0.000    0.000    0.000 
#
# Total GULP energy -268109.232125 kJ/mol
# GULP energy per Si atom -5585.609003 kJ/mol
# Density = 2.057640 g / cm^3
# Si number density = 20.623342 Si / 1000 Ang^3
#
#
#
# Elastic Constant Matrix: (Units=GPa)
#
#
# Indices 1 2 3 4 5 6 
#
# 1 27.1888 7.5799 -3.3923 0.0000 0.0000 0.0000
# 2 7.5799 206.7534 148.0248 0.0000 0.0000 0.0000
# 3 -3.3923 148.0248 206.9821 0.0000 0.0000 0.0000
# 4 0.0000 0.0000 0.0000 42.2793 0.0000 0.0000
# 5 0.0000 0.0000 0.0000 0.0000 23.4451 0.0000
# 6 0.0000 0.0000 0.0000 0.0000 0.0000 13.4705
#
#
#
# Elastic Compliance Matrix: (Units=1/GPa)
#
#
# Indices 1 2 3 4 5 6 
#
# 1 0.038254 -0.003794 0.003340 0.000000 0.000000 0.000000
# 2 -0.003794 0.010288 -0.007420 0.000000 0.000000 0.000000
# 3 0.003340 -0.007420 0.010192 0.000000 0.000000 0.000000
# 4 0.000000 0.000000 0.000000 0.023652 0.000000 0.000000
# 5 0.000000 0.000000 0.000000 0.000000 0.042653 0.000000
# 6 0.000000 0.000000 0.000000 0.000000 0.000000 0.074236
#
#
# Mechanical properties :
#
#
# Convention : Reuss Voigt Hill
#
# Bulk Modulus (GPa) = 23.26244 82.81657 53.03951
# Shear Modulus (GPa) = 21.80064 35.08646 28.44355
#
# Velocity S-wave (km/s) = 3.25481 4.12915 3.71778
# Velocity P-wave (km/s) = 5.04274 7.93581 6.64855
#
# Compressibility (1/GPa) = 0.04298774
#
# Stress axis : x y z
#
# Youngs Moduli (GPa) = 26.14090 97.20256 98.11388
#
# Poissons Ratio (x) = 0.36877 -0.32771
# Poissons Ratio (y) = 0.09917 0.72796
# Poissons Ratio (z) = -0.08731 0.72120
#
# Static dielectric constant tensor:
#      x y z
#    x 1.772030 0.000000 0.000000 
#    y 0.000000 1.730470 0.000000 
#    z 0.000000 0.000000 1.696450 
# 
# From -- ./inp_files/36899.got.cif
#   From: 2010.05.17/outbox.cif.g08.bks.cpg/sg51_19_cif.got.tgz:36899.got - 2010.06.03 11:52:47.
