data_PCOD9403825
_publ_section_title
;
Structure prediction by ZEFSAII (Michael W. Deem and Ramdas Pophale) SiO2 
 PCOD9403825
Probable space group: P M M A
;
_chemical_formula_sum "Si O2"
_cell_formula_units_Z 64
_cell_length_a 19.137935
_cell_length_b 8.912923
_cell_length_c 20.921636
_cell_angle_alpha 90.000000
_cell_angle_beta 90.000000
_cell_angle_gamma 90.000000
_cell_volume 3568.706827
_symmetry_space_group_name_H-M "P M M A"
_symmetry_group_IT_number 51
_symmetry_cell_setting 'orthorhombic'
loop_
_space_group_symop_operation_xyz
x,y,z
1/2-x,-y,z
1/2+x,-y,-z
-x,y,-z
-x,-y,-z
1/2+x,y,-z
1/2-x,y,z
x,-y,z
loop_
_atom_site_type_symbol
_atom_site_label
_atom_site_fract_x
_atom_site_fract_y
_atom_site_fract_z
Si Si1 0.666631 0.678219 0.320494
Si Si2 0.333349 0.177665 0.281011
Si Si3 0.566366 0.319341 0.822380
Si Si4 0.584110 0.179017 0.203284
Si Si5 0.335102 0.327004 0.414582
Si Si6 0.667834 0.680279 0.085702
Si Si7 0.335028 0.827409 0.545779
Si Si8 0.926784 0.682007 0.968973
O O1 0.750000 0.706330 0.312595
O O2 0.655669 0.500000 0.315334
O O3 0.624279 0.763161 0.265946
O O4 0.645705 0.736357 0.390741
O O5 0.250000 0.202680 0.274927
O O6 0.374496 0.260795 0.225186
O O7 0.355750 0.240982 0.350223
O O8 0.346214 0.000000 0.278225
O O9 0.563114 0.500000 0.820826
O O10 0.492299 0.252044 0.801118
O O11 0.580128 0.269882 0.895724
O O12 0.627265 0.236304 0.141882
O O13 0.579214 0.000000 0.203452
O O14 0.250000 0.325260 0.415943
O O15 0.357269 0.500000 0.412331
O O16 0.359042 0.248122 0.479833
O O17 0.750000 0.710496 0.088359
O O18 0.657494 0.500000 0.093873
O O19 0.634792 0.723749 0.017460
O O20 0.250000 0.827128 0.543890
O O21 0.357701 0.000000 0.550050
O O22 0.928914 0.500000 0.967616
O O23 0.000000 0.733023 0.000000
#
# Coordination Sequence:
#
# PCOD9403825 Si02
#       8
#     8   8   8   8   8   8   8   8
#     4  10  20  34  53  78 109 146 190 238 282 327
#     4  10  21  37  56  82 117 150 182 228 285 337
#     4  11  22  38  62  85 109 144 189 233 275 331
#     4  12  24  37  54  78 112 150 187 227 280 340
#     4   9  16  28  49  77 108 144 188 233 275 325
#     4  10  20  36  59  85 111 143 186 234 282 332
#     4   9  16  27  46  75 110 146 183 227 283 337
#     4   9  17  34  59  83 107 138 181 231 280 330
#
# _framework density 17.933665999999999
#
# number of rings (size 3 to 8) (size 9 to 14) (size 15 to 20)
#    0.000    2.000    1.250    3.375    0.000    6.750 
#    0.000    3.125    0.000    0.750    0.000    5.250 
#    0.000    0.000    0.000    0.000    0.000    0.000 
#
# Total GULP energy -357278.375546 kJ/mol
# GULP energy per Si atom -5582.474618 kJ/mol
# Density = 1.789285 g / cm^3
# Si number density = 17.933666 Si / 1000 Ang^3
#
#
#
# Elastic Constant Matrix: (Units=GPa)
#
#
# Indices 1 2 3 4 5 6 
#
# 1 49.7094 50.5771 52.4976 0.0000 0.0000 0.0000
# 2 50.5771 102.1866 70.6707 0.0000 0.0000 0.0000
# 3 52.4976 70.6707 172.8155 0.0000 0.0000 0.0000
# 4 0.0000 0.0000 0.0000 -39.4455 0.0000 0.0000
# 5 0.0000 0.0000 0.0000 0.0000 -76.3643 0.0000
# 6 0.0000 0.0000 0.0000 0.0000 0.0000 21.2100
#
#
#
# Elastic Compliance Matrix: (Units=1/GPa)
#
#
# Indices 1 2 3 4 5 6 
#
# 1 0.045045 -0.017892 -0.006367 0.000000 0.000000 0.000000
# 2 -0.017892 0.020751 -0.003051 0.000000 0.000000 0.000000
# 3 -0.006367 -0.003051 0.008968 0.000000 0.000000 0.000000
# 4 0.000000 0.000000 0.000000 -0.025351 0.000000 0.000000
# 5 0.000000 0.000000 0.000000 0.000000 -0.013095 0.000000
# 6 0.000000 0.000000 0.000000 0.000000 0.000000 0.047148
#
#
# Mechanical properties :
#
#
# Convention : Reuss Voigt Hill
#
# Bulk Modulus (GPa) = 49.63893 74.68914 62.16403
# Shear Modulus (GPa) = 34.53033 -8.85554 12.83739
#
# Velocity S-wave (km/s) = 4.39275 -2.22456 2.67840
# Velocity P-wave (km/s) = 7.31216 5.92787 6.65610
#
# Compressibility (1/GPa) = 0.02014548
#
# Stress axis : x y z
#
# Youngs Moduli (GPa) = 22.20001 48.18952 111.50279
#
# Poissons Ratio (x) = 0.86218 0.70996
# Poissons Ratio (y) = 0.39719 0.34019
# Poissons Ratio (z) = 0.14135 0.14703
#
# Static dielectric constant tensor:
#      x y z
#    x 1.597120 0.000000 0.000000 
#    y 0.000000 1.601650 0.000000 
#    z 0.000000 0.000000 1.599660 
# 
# From -- ./inp_files/33971.got.cif
#   From: 2010.05.17/outbox.cif.g08.bks.cpg/sg51_17_cif.got.tgz:33971.got - 2010.06.03 11:52:47.
