data_PCOD9403729
_publ_section_title
;
Structure prediction by ZEFSAII (Michael W. Deem and Ramdas Pophale) SiO2 
 PCOD9403729
Probable space group: P M M A
;
_chemical_formula_sum "Si O2"
_cell_formula_units_Z 64
_cell_length_a 8.354707
_cell_length_b 20.620506
_cell_length_c 20.574899
_cell_angle_alpha 90.000000
_cell_angle_beta 90.000000
_cell_angle_gamma 90.000000
_cell_volume 3544.608331
_symmetry_space_group_name_H-M "P M M A"
_symmetry_group_IT_number 51
_symmetry_cell_setting 'orthorhombic'
loop_
_space_group_symop_operation_xyz
x,y,z
1/2-x,-y,z
1/2+x,-y,-z
-x,y,-z
-x,-y,-z
1/2+x,y,-z
1/2-x,y,z
x,-y,z
loop_
_atom_site_type_symbol
_atom_site_label
_atom_site_fract_x
_atom_site_fract_y
_atom_site_fract_z
Si Si1 0.056884 0.074495 0.428632
Si Si2 0.060066 0.291994 0.430553
Si Si3 0.443999 0.184585 0.329183
Si Si4 0.558761 0.745121 0.211307
Si Si5 0.942051 0.430405 0.103949
Si Si6 0.560699 0.395823 0.755211
Si Si7 0.440574 0.570567 0.613513
Si Si8 0.057764 0.711783 0.931817
O O1 0.250000 0.075085 0.429457
O O2 0.005902 0.121522 0.370237
O O3 0.000000 0.096605 0.500000
O O4 0.002640 0.000000 0.419892
O O5 0.250000 0.288134 0.429536
O O6 0.000380 0.246016 0.372708
O O7 0.000000 0.268378 0.500000
O O8 0.011280 0.366362 0.420566
O O9 0.250000 0.185098 0.325429
O O10 0.511889 0.195386 0.257295
O O11 0.750000 0.734300 0.214241
O O12 0.472516 0.681138 0.239606
O O13 0.512287 0.747762 0.135127
O O14 0.750000 0.430151 0.096373
O O15 0.004609 0.500000 0.079399
O O16 0.004391 0.362903 0.074324
O O17 0.982625 0.425382 0.180274
O O18 0.750000 0.408011 0.754735
O O19 0.484566 0.422374 0.689447
O O20 0.250000 0.572633 0.606130
O O21 0.499596 0.500000 0.590350
O O22 0.250000 0.709361 0.932980
O O23 0.000000 0.739699 0.000000
#
# Coordination Sequence:
#
# PCOD9403729 Si02
#       8
#     8   8   8   8   8   8   8   8
#     4   9  18  33  53  80 117 155 186 214 247 293
#     4  11  23  37  53  73  97 126 165 212 257 306
#     4  10  20  34  54  81 107 136 176 216 252 291
#     4  10  20  34  53  74  99 131 168 208 254 304
#     4   9  18  32  47  64  90 123 159 199 247 309
#     4  11  20  31  48  71  95 119 155 205 258 311
#     4  11  23  37  52  68  89 121 161 208 264 319
#     4   9  19  33  48  69  95 127 163 203 255 312
#
# _framework density 18.055592000000001
#
# number of rings (size 3 to 8) (size 9 to 14) (size 15 to 20)
#    0.000    2.000    1.250    3.750    0.000    6.750 
#    0.000    0.000    0.000    0.000    0.000    0.000 
#    0.000    0.500    0.000    1.125    0.000    1.750 
#
# Total GULP energy -357233.166363 kJ/mol
# GULP energy per Si atom -5581.768224 kJ/mol
# Density = 1.801450 g / cm^3
# Si number density = 18.055592 Si / 1000 Ang^3
#
#
#
# Elastic Constant Matrix: (Units=GPa)
#
#
# Indices 1 2 3 4 5 6 
#
# 1 15.8405 9.5593 7.7126 0.0000 0.0000 0.0000
# 2 9.5593 72.8991 47.1984 0.0000 0.0000 0.0000
# 3 7.7126 47.1984 125.2377 0.0000 0.0000 0.0000
# 4 0.0000 0.0000 0.0000 45.7902 0.0000 0.0000
# 5 0.0000 0.0000 0.0000 0.0000 23.9000 0.0000
# 6 0.0000 0.0000 0.0000 0.0000 0.0000 9.2357
#
#
#
# Elastic Compliance Matrix: (Units=1/GPa)
#
#
# Indices 1 2 3 4 5 6 
#
# 1 0.068670 -0.008289 -0.001105 0.000000 0.000000 0.000000
# 2 -0.008289 0.019146 -0.006705 0.000000 0.000000 0.000000
# 3 -0.001105 -0.006705 0.010580 0.000000 0.000000 0.000000
# 4 0.000000 0.000000 0.000000 0.021839 0.000000 0.000000
# 5 0.000000 0.000000 0.000000 0.000000 0.041841 0.000000
# 6 0.000000 0.000000 0.000000 0.000000 0.000000 0.108276
#
#
# Mechanical properties :
#
#
# Convention : Reuss Voigt Hill
#
# Bulk Modulus (GPa) = 15.10647 38.10198 26.60422
# Shear Modulus (GPa) = 15.40286 25.75231 20.57758
#
# Velocity S-wave (km/s) = 2.92392 3.78071 3.37958
# Velocity P-wave (km/s) = 4.44791 6.34088 5.47680
#
# Compressibility (1/GPa) = 0.06619682
#
# Stress axis : x y z
#
# Youngs Moduli (GPa) = 14.56244 52.23111 94.52010
#
# Poissons Ratio (x) = 0.43296 0.10444
# Poissons Ratio (y) = 0.12071 0.63375
# Poissons Ratio (z) = 0.01609 0.35021
#
# Static dielectric constant tensor:
#      x y z
#    x 1.614190 0.000000 0.000000 
#    y 0.000000 1.641620 0.000000 
#    z 0.000000 0.000000 1.614970 
# 
# From -- ./inp_files/32646.got.cif
#   From: 2010.05.17/outbox.cif.g08.bks.cpg/sg51_17_cif.got.tgz:32646.got - 2010.06.03 11:52:47.
