data_PCOD9403009
_publ_section_title
;
Structure prediction by ZEFSAII (Michael W. Deem and Ramdas Pophale) SiO2 
 PCOD9403009
Probable space group: P M M A
;
_chemical_formula_sum "Si O2"
_cell_formula_units_Z 64
_cell_length_a 8.306795
_cell_length_b 15.842683
_cell_length_c 25.739597
_cell_angle_alpha 90.000000
_cell_angle_beta 90.000000
_cell_angle_gamma 90.000000
_cell_volume 3387.380383
_symmetry_space_group_name_H-M "P M M A"
_symmetry_group_IT_number 51
_symmetry_cell_setting 'orthorhombic'
loop_
_space_group_symop_operation_xyz
x,y,z
1/2-x,-y,z
1/2+x,-y,-z
-x,y,-z
-x,-y,-z
1/2+x,y,-z
1/2-x,y,z
x,-y,z
loop_
_atom_site_type_symbol
_atom_site_label
_atom_site_fract_x
_atom_site_fract_y
_atom_site_fract_z
Si Si1 0.941605 0.731031 0.557045
Si Si2 0.442655 0.404467 0.941239
Si Si3 0.560730 0.326884 0.742089
Si Si4 0.443509 0.146808 0.713349
Si Si5 0.056577 0.092117 0.828758
Si Si6 0.447223 0.406578 0.360361
Si Si7 0.557483 0.276178 0.854219
Si Si8 0.943738 0.908554 0.401505
O O1 0.750000 0.726833 0.558094
O O2 0.004430 0.666753 0.601072
O O3 0.000000 0.706863 0.500000
O O4 0.991814 0.826563 0.569764
O O5 0.250000 0.404237 0.940543
O O6 0.498236 0.500000 0.926824
O O7 0.503173 0.333349 0.901976
O O8 0.500000 0.388602 0.000000
O O9 0.750000 0.345229 0.748105
O O10 0.536036 0.235097 0.716420
O O11 0.495692 0.390292 0.698714
O O12 0.491881 0.317036 0.800116
O O13 0.250000 0.162191 0.713421
O O14 0.481628 0.099764 0.767162
O O15 0.483053 0.100726 0.659836
O O16 0.250000 0.093162 0.833307
O O17 0.994332 0.177963 0.855019
O O18 0.998496 0.000000 0.847642
O O19 0.250000 0.402829 0.359277
O O20 0.492974 0.500000 0.378014
O O21 0.750000 0.276842 0.851763
O O22 0.750000 0.907181 0.405633
O O23 0.002158 0.000000 0.420450
#
# Coordination Sequence:
#
# PCOD9403009 Si02
#       8
#     8   8   8   8   8   8   8   8
#     4  11  23  39  58  76  99 131 170 218 268 319
#     4  10  21  38  60  84 112 147 189 236 281 327
#     4   9  17  31  51  77 109 143 178 212 257 314
#     4   9  16  28  49  75 105 138 174 215 261 311
#     4   9  17  30  49  75 110 152 192 227 268 318
#     4   9  18  34  56  79 103 134 171 212 262 319
#     4  10  20  32  52  83 117 151 187 227 272 324
#     4  10  20  34  54  79 105 134 169 210 261 319
#
# _framework density 18.893654999999999
#
# number of rings (size 3 to 8) (size 9 to 14) (size 15 to 20)
#    0.000    2.375    1.250    1.500    0.000    4.250 
#    0.000    1.250    0.000    5.625    0.000    0.000 
#    0.000    0.000    0.000    0.000    0.000    0.000 
#
# Total GULP energy -356864.551940 kJ/mol
# GULP energy per Si atom -5576.008624 kJ/mol
# Density = 1.885065 g / cm^3
# Si number density = 18.893655 Si / 1000 Ang^3
#
#
#
# Elastic Constant Matrix: (Units=GPa)
#
#
# Indices 1 2 3 4 5 6 
#
# 1 16.0922 17.2989 16.1605 0.0000 0.0000 0.0000
# 2 17.2989 127.1606 72.2474 0.0000 0.0000 0.0000
# 3 16.1605 72.2474 93.2168 0.0000 0.0000 0.0000
# 4 0.0000 0.0000 0.0000 10.4637 0.0000 0.0000
# 5 0.0000 0.0000 0.0000 0.0000 17.6779 0.0000
# 6 0.0000 0.0000 0.0000 0.0000 0.0000 18.4712
#
#
#
# Elastic Compliance Matrix: (Units=1/GPa)
#
#
# Indices 1 2 3 4 5 6 
#
# 1 0.077099 -0.005172 -0.009358 0.000000 0.000000 0.000000
# 2 -0.005172 0.014399 -0.010263 0.000000 0.000000 0.000000
# 3 -0.009358 -0.010263 0.020304 0.000000 0.000000 0.000000
# 4 0.000000 0.000000 0.000000 0.095569 0.000000 0.000000
# 5 0.000000 0.000000 0.000000 0.000000 0.056568 0.000000
# 6 0.000000 0.000000 0.000000 0.000000 0.000000 0.054138
#
#
# Mechanical properties :
#
#
# Convention : Reuss Voigt Hill
#
# Bulk Modulus (GPa) = 16.07286 49.76481 32.91883
# Shear Modulus (GPa) = 12.87328 18.04007 15.45668
#
# Velocity S-wave (km/s) = 2.61311 3.09337 2.86333
# Velocity P-wave (km/s) = 4.19880 6.25741 5.32847
#
# Compressibility (1/GPa) = 0.06221670
#
# Stress axis : x y z
#
# Youngs Moduli (GPa) = 12.97031 69.45087 49.25053
#
# Poissons Ratio (x) = 0.35919 0.46088
# Poissons Ratio (y) = 0.06708 0.50546
# Poissons Ratio (z) = 0.12138 0.71278
#
# Static dielectric constant tensor:
#      x y z
#    x 1.659560 0.000000 0.000000 
#    y 0.000000 1.668920 0.000000 
#    z 0.000000 0.000000 1.651830 
# 
# From -- ./inp_files/34983.got.cif
#   From: 2010.05.17/outbox.cif.g08.bks.cpg/sg51_18_cif.got.tgz:34983.got - 2010.06.03 11:52:47.
