data_PCOD9403632
_publ_section_title
;
Structure prediction by ZEFSAII (Michael W. Deem and Ramdas Pophale) SiO2 
 PCOD9403632
Probable space group: P M M A
;
_chemical_formula_sum "Si O2"
_cell_formula_units_Z 48
_cell_length_a 14.342163
_cell_length_b 7.882388
_cell_length_c 21.461444
_cell_angle_alpha 90.000000
_cell_angle_beta 90.000000
_cell_angle_gamma 90.000000
_cell_volume 2426.226836
_symmetry_space_group_name_H-M "P M M A"
_symmetry_group_IT_number 51
_symmetry_cell_setting 'orthorhombic'
loop_
_space_group_symop_operation_xyz
x,y,z
1/2-x,-y,z
1/2+x,-y,-z
-x,y,-z
-x,-y,-z
1/2+x,y,-z
1/2-x,y,z
x,-y,z
loop_
_atom_site_type_symbol
_atom_site_label
_atom_site_fract_x
_atom_site_fract_y
_atom_site_fract_z
Si Si1 0.860335 0.199856 0.028485
Si Si2 0.047515 0.199698 0.846594
Si Si3 0.542034 0.295811 0.405283
Si Si4 0.354912 0.698411 0.111879
Si Si5 0.356202 0.204183 0.721262
Si Si6 0.355303 0.707368 0.468760
O O1 0.750000 0.213192 0.040871
O O2 0.913230 0.272090 0.088365
O O3 0.883669 0.000000 0.021134
O O4 0.878327 0.281028 0.961460
O O5 0.095533 0.269628 0.784580
O O6 0.936512 0.218741 0.848333
O O7 0.070987 0.000000 0.848859
O O8 0.540616 0.500000 0.407335
O O9 0.583387 0.244151 0.339434
O O10 0.608590 0.240755 0.462536
O O11 0.436756 0.237973 0.421229
O O12 0.250000 0.768304 0.120436
O O13 0.353395 0.500000 0.126602
O O14 0.250000 0.267632 0.715125
O O15 0.351962 0.000000 0.725798
O O16 0.250000 0.765651 0.456573
O O17 0.353812 0.500000 0.468026
#
# Coordination Sequence:
#
# PCOD9403632 Si02
#       6
#     8   8   8   8   8   8
#     4   9  17  31  52  75  97 124 161 202 243 291
#     4  10  20  34  52  72  95 128 168 202 235 286
#     4   9  17  30  51  77 101 130 169 205 238 284
#     4  10  21  35  50  71  99 127 157 200 253 298
#     4  10  21  36  52  72 101 132 159 195 246 295
#     4   8  14  27  49  76 104 132 164 204 245 283
#
# _framework density 19.783805000000001
#
# number of rings (size 3 to 8) (size 9 to 14) (size 15 to 20)
#    0.000    2.667    0.000    3.000    0.000    7.333 
#    0.000    2.500    0.000    7.500    0.000    0.000 
#    0.000    0.000    0.000    0.000    0.000    0.000 
#
# Total GULP energy -267776.138527 kJ/mol
# GULP energy per Si atom -5578.669553 kJ/mol
# Density = 1.973878 g / cm^3
# Si number density = 19.783805 Si / 1000 Ang^3
#
#
#
# Elastic Constant Matrix: (Units=GPa)
#
#
# Indices 1 2 3 4 5 6 
#
# 1 163.3801 0.1383 75.5475 0.0000 0.0000 0.0000
# 2 0.1383 16.1496 -3.8132 0.0000 0.0000 0.0000
# 3 75.5475 -3.8132 61.1916 0.0000 0.0000 0.0000
# 4 0.0000 0.0000 0.0000 26.0451 0.0000 0.0000
# 5 0.0000 0.0000 0.0000 0.0000 26.1038 0.0000
# 6 0.0000 0.0000 0.0000 0.0000 0.0000 14.3227
#
#
#
# Elastic Compliance Matrix: (Units=1/GPa)
#
#
# Indices 1 2 3 4 5 6 
#
# 1 0.014570 -0.004437 -0.018265 0.000000 0.000000 0.000000
# 2 -0.004437 0.064197 0.009479 0.000000 0.000000 0.000000
# 3 -0.018265 0.009479 0.039483 0.000000 0.000000 0.000000
# 4 0.000000 0.000000 0.000000 0.038395 0.000000 0.000000
# 5 0.000000 0.000000 0.000000 0.000000 0.038309 0.000000
# 6 0.000000 0.000000 0.000000 0.000000 0.000000 0.069819
#
#
# Mechanical properties :
#
#
# Convention : Reuss Voigt Hill
#
# Bulk Modulus (GPa) = 10.89285 42.71854 26.80569
# Shear Modulus (GPa) = 15.53655 24.55089 20.04372
#
# Velocity S-wave (km/s) = 2.80539 3.52655 3.18644
# Velocity P-wave (km/s) = 4.00144 6.18236 5.20736
#
# Compressibility (1/GPa) = 0.09180333
#
# Stress axis : x y z
#
# Youngs Moduli (GPa) = 68.63279 15.57700 25.32737
#
# Poissons Ratio (x) = 0.06912 0.46261
# Poissons Ratio (y) = 0.30456 -0.24008
# Poissons Ratio (z) = 1.25358 -0.14765
#
# Static dielectric constant tensor:
#      x y z
#    x 1.718240 0.000000 0.000000 
#    y 0.000000 1.723270 0.000000 
#    z 0.000000 0.000000 1.672870 
# 
# From -- ./inp_files/29460.got.cif
#   From: 2010.05.17/outbox.cif.g08.bks.cpg/sg51_15_cif.got.tgz:29460.got - 2010.06.03 11:52:47.
