data_PCOD9403668
_publ_section_title
;
Structure prediction by ZEFSAII (Michael W. Deem and Ramdas Pophale) SiO2 
 PCOD9403668
Probable space group: P M M A
;
_chemical_formula_sum "Si O2"
_cell_formula_units_Z 48
_cell_length_a 18.930285
_cell_length_b 8.704734
_cell_length_c 16.772101
_cell_angle_alpha 90.000000
_cell_angle_beta 90.000000
_cell_angle_gamma 90.000000
_cell_volume 2763.758720
_symmetry_space_group_name_H-M "P M M A"
_symmetry_group_IT_number 51
_symmetry_cell_setting 'orthorhombic'
loop_
_space_group_symop_operation_xyz
x,y,z
1/2-x,-y,z
1/2+x,-y,-z
-x,y,-z
-x,-y,-z
1/2+x,y,-z
1/2-x,y,z
x,-y,z
loop_
_atom_site_type_symbol
_atom_site_label
_atom_site_fract_x
_atom_site_fract_y
_atom_site_fract_z
Si Si1 0.958039 0.315740 0.251233
Si Si2 0.832054 0.816226 0.156324
Si Si3 0.096292 0.816779 0.173076
Si Si4 0.529526 0.686706 0.584247
Si Si5 0.166395 0.316913 0.016603
Si Si6 0.830143 0.685901 0.671625
O O1 0.959319 0.500000 0.246599
O O2 0.883536 0.252626 0.222279
O O3 0.019332 0.248932 0.194672
O O4 0.979949 0.270354 0.341130
O O5 0.750000 0.774224 0.169753
O O6 0.837567 0.000000 0.155085
O O7 0.852821 0.750782 0.069603
O O8 0.123205 0.757243 0.088315
O O9 0.147515 0.754433 0.243101
O O10 0.095123 0.000000 0.174660
O O11 0.500000 0.743585 0.500000
O O12 0.530047 0.500000 0.580858
O O13 0.609169 0.733429 0.608781
O O14 0.250000 0.285249 0.028998
O O15 0.156481 0.500000 0.016344
O O16 0.750000 0.728994 0.650675
O O17 0.833209 0.500000 0.678330
#
# Coordination Sequence:
#
# PCOD9403668 Si02
#       6
#     8   8   8   8   8   8
#     4  10  20  35  55  77 101 131 169 210 254 304
#     4  10  21  37  55  75 102 135 171 211 253 297
#     4  11  21  32  49  74 104 136 170 208 254 306
#     4   8  15  30  52  77 103 130 164 211 261 304
#     4  10  20  34  52  74 102 136 174 214 254 296
#     4   9  17  30  49  73 102 136 172 210 255 306
#
# _framework density 17.367652
#
# number of rings (size 3 to 8) (size 9 to 14) (size 15 to 20)
#    0.000    2.333    0.000    4.500    0.000    5.000 
#    0.000    4.167    0.000   15.500    0.000    0.000 
#    0.000    0.000    0.000    0.000    0.000    0.000 
#
# Total GULP energy -267851.712085 kJ/mol
# GULP energy per Si atom -5580.244002 kJ/mol
# Density = 1.732812 g / cm^3
# Si number density = 17.367652 Si / 1000 Ang^3
#
#
#
# Elastic Constant Matrix: (Units=GPa)
#
#
# Indices 1 2 3 4 5 6 
#
# 1 121.6223 37.8838 95.7379 0.0000 0.0000 0.0000
# 2 37.8838 45.3204 35.7193 0.0000 0.0000 0.0000
# 3 95.7379 35.7193 121.0935 0.0000 0.0000 0.0000
# 4 0.0000 0.0000 0.0000 -16.9964 0.0000 0.0000
# 5 0.0000 0.0000 0.0000 0.0000 18.6706 0.0000
# 6 0.0000 0.0000 0.0000 0.0000 0.0000 23.3468
#
#
#
# Elastic Compliance Matrix: (Units=1/GPa)
#
#
# Indices 1 2 3 4 5 6 
#
# 1 0.023118 -0.006409 -0.016386 0.000000 0.000000 0.000000
# 2 -0.006409 0.030526 -0.003937 0.000000 0.000000 0.000000
# 3 -0.016386 -0.003937 0.022375 0.000000 0.000000 0.000000
# 4 0.000000 0.000000 0.000000 -0.058836 0.000000 0.000000
# 5 0.000000 0.000000 0.000000 0.000000 0.053560 0.000000
# 6 0.000000 0.000000 0.000000 0.000000 0.000000 0.042832
#
#
# Mechanical properties :
#
#
# Convention : Reuss Voigt Hill
#
# Bulk Modulus (GPa) = 44.34102 69.63535 56.98818
# Shear Modulus (GPa) = 28.64387 12.91721 20.78054
#
# Velocity S-wave (km/s) = 4.06552 2.73014 3.46281
# Velocity P-wave (km/s) = 6.90103 7.07956 6.99086
#
# Compressibility (1/GPa) = 0.02255248
#
# Stress axis : x y z
#
# Youngs Moduli (GPa) = 43.25717 32.75937 44.69323
#
# Poissons Ratio (x) = 0.20996 0.73236
# Poissons Ratio (y) = 0.27724 0.17596
# Poissons Ratio (z) = 0.70883 0.12898
#
# Static dielectric constant tensor:
#      x y z
#    x 1.594690 0.000000 0.000000 
#    y 0.000000 1.577370 0.000000 
#    z 0.000000 0.000000 1.564190 
# 
# From -- ./inp_files/24729.got.cif
#   From: 2010.05.17/outbox.cif.g08.bks.cpg/sg51_13_cif.got.tgz:24729.got - 2010.06.03 11:52:47.
