data_PCOD9403189
_publ_section_title
;
Structure prediction by ZEFSAII (Michael W. Deem and Ramdas Pophale) SiO2 
 PCOD9403189
Probable space group: P M M A
;
_chemical_formula_sum "Si O2"
_cell_formula_units_Z 48
_cell_length_a 8.940542
_cell_length_b 14.097597
_cell_length_c 20.206409
_cell_angle_alpha 90.000000
_cell_angle_beta 90.000000
_cell_angle_gamma 90.000000
_cell_volume 2546.818985
_symmetry_space_group_name_H-M "P M M A"
_symmetry_group_IT_number 51
_symmetry_cell_setting 'orthorhombic'
loop_
_space_group_symop_operation_xyz
x,y,z
1/2-x,-y,z
1/2+x,-y,-z
-x,y,-z
-x,-y,-z
1/2+x,y,-z
1/2-x,y,z
x,-y,z
loop_
_atom_site_type_symbol
_atom_site_label
_atom_site_fract_x
_atom_site_fract_y
_atom_site_fract_z
Si Si1 0.079866 0.615439 0.567289
Si Si2 0.581367 0.613444 0.700441
Si Si3 0.426722 0.733609 0.805961
Si Si4 0.078994 0.115668 0.431626
Si Si5 0.930854 0.109815 0.715741
Si Si6 0.569373 0.391772 0.072276
O O1 0.250000 0.650260 0.572847
O O2 0.086866 0.500000 0.567276
O O3 0.000000 0.643752 0.500000
O O4 0.976696 0.642430 0.628571
O O5 0.750000 0.649224 0.712910
O O6 0.585429 0.500000 0.702499
O O7 0.465874 0.651539 0.753649
O O8 0.250000 0.750800 0.809460
O O9 0.506986 0.824442 0.773975
O O10 0.478276 0.689223 0.875887
O O11 0.250000 0.148905 0.434554
O O12 0.016495 0.140431 0.358457
O O13 0.000000 0.143644 0.500000
O O14 0.080520 0.000000 0.431081
O O15 0.750000 0.113693 0.714544
O O16 0.974026 0.000000 0.725460
O O17 0.750000 0.389122 0.068285
O O18 0.528277 0.500000 0.093932
O O19 0.500000 0.377293 0.000000
#
# Coordination Sequence:
#
# PCOD9403189 Si02
#       6
#     8   8   8   8   8   8
#     4   9  16  27  44  65  92 129 172 217 264 313
#     4  10  20  33  50  73 101 135 175 216 260 314
#     4  11  22  35  54  81 111 140 173 217 267 319
#     4   8  14  26  46  71  98 130 170 219 274 325
#     4   9  19  36  55  76 106 144 185 229 276 326
#     4   9  19  36  58  85 116 146 174 208 255 313
#
# _framework density 18.847038999999999
#
# number of rings (size 3 to 8) (size 9 to 14) (size 15 to 20)
#    0.000    2.667    0.000    3.000    0.000    6.000 
#    0.000    4.167    0.000    2.500    0.000    0.000 
#    0.000    0.000    0.000    0.000    0.000    0.000 
#
# Total GULP energy -267782.634735 kJ/mol
# GULP energy per Si atom -5578.804890 kJ/mol
# Density = 1.880414 g / cm^3
# Si number density = 18.847039 Si / 1000 Ang^3
#
#
#
# Elastic Constant Matrix: (Units=GPa)
#
#
# Indices 1 2 3 4 5 6 
#
# 1 25.4728 20.9284 16.4318 0.0000 0.0000 0.0000
# 2 20.9284 103.3975 56.1066 0.0000 0.0000 0.0000
# 3 16.4318 56.1066 125.1616 0.0000 0.0000 0.0000
# 4 0.0000 0.0000 0.0000 55.5344 0.0000 0.0000
# 5 0.0000 0.0000 0.0000 0.0000 29.1139 0.0000
# 6 0.0000 0.0000 0.0000 0.0000 0.0000 20.9410
#
#
#
# Elastic Compliance Matrix: (Units=1/GPa)
#
#
# Indices 1 2 3 4 5 6 
#
# 1 0.047699 -0.008268 -0.002556 0.000000 0.000000 0.000000
# 2 -0.008268 0.014213 -0.005286 0.000000 0.000000 0.000000
# 3 -0.002556 -0.005286 0.010695 0.000000 0.000000 0.000000
# 4 0.000000 0.000000 0.000000 0.018007 0.000000 0.000000
# 5 0.000000 0.000000 0.000000 0.000000 0.034348 0.000000
# 6 0.000000 0.000000 0.000000 0.000000 0.000000 0.047753
#
#
# Mechanical properties :
#
#
# Convention : Reuss Voigt Hill
#
# Bulk Modulus (GPa) = 24.75999 48.99618 36.87808
# Shear Modulus (GPa) = 22.89411 31.82219 27.35815
#
# Velocity S-wave (km/s) = 3.48908 4.11353 3.81411
# Velocity P-wave (km/s) = 5.42194 6.97242 6.24548
#
# Compressibility (1/GPa) = 0.04038774
#
# Stress axis : x y z
#
# Youngs Moduli (GPa) = 20.96479 70.35715 93.50348
#
# Poissons Ratio (x) = 0.58169 0.23899
# Poissons Ratio (y) = 0.17333 0.49426
# Poissons Ratio (z) = 0.05358 0.37191
#
# Static dielectric constant tensor:
#      x y z
#    x 1.645450 0.000000 0.000000 
#    y 0.000000 1.716380 0.000000 
#    z 0.000000 0.000000 1.676000 
# 
# From -- ./inp_files/27511.got.cif
#   From: 2010.05.17/outbox.cif.g08.bks.cpg/sg51_14_cif.got.tgz:27511.got - 2010.06.03 11:52:47.
