data_PCOD9403001
_publ_section_title
;
Structure prediction by ZEFSAII (Michael W. Deem and Ramdas Pophale) SiO2 
 PCOD9403001
Probable space group: P M M A
;
_chemical_formula_sum "Si O2"
_cell_formula_units_Z 52
_cell_length_a 14.672195
_cell_length_b 11.786491
_cell_length_c 14.210568
_cell_angle_alpha 90.000000
_cell_angle_beta 90.000000
_cell_angle_gamma 90.000000
_cell_volume 2457.486023
_symmetry_space_group_name_H-M "P M M A"
_symmetry_group_IT_number 51
_symmetry_cell_setting 'orthorhombic'
loop_
_space_group_symop_operation_xyz
x,y,z
1/2-x,-y,z
1/2+x,-y,-z
-x,y,-z
-x,-y,-z
1/2+x,y,-z
1/2-x,y,z
x,-y,z
loop_
_atom_site_type_symbol
_atom_site_label
_atom_site_fract_x
_atom_site_fract_y
_atom_site_fract_z
Si Si1 0.594758 0.624323 0.942411
Si Si2 0.643990 0.332628 0.741647
Si Si3 0.151761 0.867644 0.777907
Si Si4 0.536914 0.873986 0.704289
Si Si5 0.610643 0.126696 0.001879
Si Si6 0.000000 0.193138 0.500000
Si Si7 0.857965 0.624825 0.523638
O O1 0.637324 0.500000 0.967607
O O2 0.586606 0.622530 0.829226
O O3 0.638582 0.749728 0.960233
O O4 0.500000 0.627147 0.000000
O O5 0.750000 0.357858 0.759133
O O6 0.622164 0.199458 0.735358
O O7 0.621288 0.373594 0.636152
O O8 0.250000 0.817439 0.750495
O O9 0.057415 0.818229 0.739966
O O10 0.152163 0.000000 0.745890
O O11 0.143208 0.869171 0.890293
O O12 0.528727 0.874792 0.591776
O O13 0.542835 0.000000 0.743462
O O14 0.638478 0.000000 0.964875
O O15 0.500000 0.125755 0.000000
O O16 0.916229 0.276860 0.477164
O O17 0.750000 0.643839 0.515008
O O18 0.880412 0.500000 0.486521
#
# Coordination Sequence:
#
# PCOD9403001 Si02
#       7
#     8   8   8   8   8   4   8
#     4  10  20  33  51  78 111 145 181 226 281 334
#     4  10  21  36  54  76 104 144 190 230 274 329
#     4   9  18  33  53  75 100 136 179 217 260 321
#     4  10  20  35  54  78 110 142 176 222 273 327
#     4   9  17  31  51  74 102 138 179 222 265 313
#     4  10  20  32  52  82 108 136 172 216 278 340
#     4   9  18  34  55  77 103 137 180 228 272 323
#
# _framework density 21.159835000000001
#
# number of rings (size 3 to 8) (size 9 to 14) (size 15 to 20)
#    0.000    2.462    0.000    2.769    0.000    4.308 
#    0.000    0.000    0.000    3.692    0.000    0.000 
#    0.000    0.000    0.000    0.000    0.000    0.000 
#
# Total GULP energy -289538.927365 kJ/mol
# GULP energy per Si atom -5568.056295 kJ/mol
# Density = 2.111167 g / cm^3
# Si number density = 21.159835 Si / 1000 Ang^3
#
#
#
# Elastic Constant Matrix: (Units=GPa)
#
#
# Indices 1 2 3 4 5 6 
#
# 1 52.8004 11.0197 -0.1857 0.0000 0.0000 0.0000
# 2 11.0197 150.3328 7.0546 0.0000 0.0000 0.0000
# 3 -0.1857 7.0546 49.7822 0.0000 0.0000 0.0000
# 4 0.0000 0.0000 0.0000 -5.7392 0.0000 0.0000
# 5 0.0000 0.0000 0.0000 0.0000 21.1597 0.0000
# 6 0.0000 0.0000 0.0000 0.0000 0.0000 -9.6528
#
#
#
# Elastic Compliance Matrix: (Units=1/GPa)
#
#
# Indices 1 2 3 4 5 6 
#
# 1 0.019237 -0.001423 0.000273 0.000000 0.000000 0.000000
# 2 -0.001423 0.006802 -0.000969 0.000000 0.000000 0.000000
# 3 0.000273 -0.000969 0.020226 0.000000 0.000000 0.000000
# 4 0.000000 0.000000 0.000000 -0.174241 0.000000 0.000000
# 5 0.000000 0.000000 0.000000 0.000000 0.047260 0.000000
# 6 0.000000 0.000000 0.000000 0.000000 0.000000 -0.103597
#
#
# Mechanical properties :
#
#
# Convention : Reuss Voigt Hill
#
# Bulk Modulus (GPa) = 23.79405 32.07695 27.93550
# Shear Modulus (GPa) = -30.10833 16.82200 -6.64316
#
# Velocity S-wave (km/s) = -3.77623 2.82263 -1.77379
# Velocity P-wave (km/s) = 2.78278 5.08087 3.00594
#
# Compressibility (1/GPa) = 0.04202731
#
# Stress axis : x y z
#
# Youngs Moduli (GPa) = 51.98264 147.02221 49.44167
#
# Poissons Ratio (x) = 0.20921 -0.01352
# Poissons Ratio (y) = 0.07397 0.04792
# Poissons Ratio (z) = -0.01421 0.14249
#
# Static dielectric constant tensor:
#      x y z
#    x 1.759470 0.000000 0.000000 
#    y 0.000000 1.824790 0.000000 
#    z 0.000000 0.000000 1.745670 
# 
# From -- ./inp_files/24155.got.cif
#   From: 2010.05.17/outbox.cif.g08.bks.cpg/sg51_13_cif.got.tgz:24155.got - 2010.06.03 11:52:47.
