data_PCOD9403856
_publ_section_title
;
Structure prediction by ZEFSAII (Michael W. Deem and Ramdas Pophale) SiO2 
 PCOD9403856
Probable space group: P M M A
;
_chemical_formula_sum "Si O2"
_cell_formula_units_Z 48
_cell_length_a 9.703380
_cell_length_b 9.061213
_cell_length_c 29.784033
_cell_angle_alpha 90.000000
_cell_angle_beta 90.000000
_cell_angle_gamma 90.000000
_cell_volume 2618.743023
_symmetry_space_group_name_H-M "P M M A"
_symmetry_group_IT_number 51
_symmetry_cell_setting 'orthorhombic'
loop_
_space_group_symop_operation_xyz
x,y,z
1/2-x,-y,z
1/2+x,-y,-z
-x,y,-z
-x,-y,-z
1/2+x,y,-z
1/2-x,y,z
x,-y,z
loop_
_atom_site_type_symbol
_atom_site_label
_atom_site_fract_x
_atom_site_fract_y
_atom_site_fract_z
Si Si1 0.017775 0.329804 0.394974
Si Si2 0.910607 0.820412 0.956883
Si Si3 0.750000 0.337001 0.455807
Si Si4 0.411329 0.323160 0.209722
Si Si5 0.750000 0.173980 0.547512
Si Si6 0.912594 0.821713 0.131186
Si Si7 0.585323 0.826792 0.694388
O O1 0.061211 0.500000 0.388501
O O2 0.878586 0.327285 0.423036
O O3 0.122208 0.243020 0.426497
O O4 0.010263 0.251247 0.346934
O O5 0.750000 0.770902 0.956848
O O6 0.996934 0.779916 0.912509
O O7 0.906241 0.000000 0.958194
O O8 0.000000 0.772099 0.000000
O O9 0.750000 0.500000 0.477994
O O10 0.750000 0.220693 0.495665
O O11 0.250000 0.288195 0.198711
O O12 0.424431 0.500000 0.211251
O O13 0.514228 0.254144 0.173466
O O14 0.440520 0.253546 0.258471
O O15 0.750000 0.000000 0.552018
O O16 0.750000 0.783795 0.126689
O O17 0.920203 0.000000 0.135796
O O18 0.750000 0.814610 0.685323
O O19 0.551575 0.000000 0.697363
#
# Coordination Sequence:
#
# PCOD9403856 Si02
#       7
#     8   8   4   8   4   8   8
#     4  11  22  39  62  85 115 152 190 234 284 342
#     4   9  16  27  47  77 113 152 193 239 291 344
#     4  10  24  42  58  84 116 152 192 232 283 342
#     4  10  21  37  58  82 108 143 187 232 282 341
#     4  12  24  38  60  88 116 150 194 238 283 336
#     4  10  20  34  53  80 114 150 191 238 288 340
#     4  10  20  36  60  88 115 143 183 232 282 341
#
# _framework density 18.329404
#
# number of rings (size 3 to 8) (size 9 to 14) (size 15 to 20)
#    0.000    1.833    0.833    3.750    0.000    8.000 
#    1.500    0.000    0.000    0.500    0.000    0.000 
#    0.000    0.000    0.000    0.000    0.000    0.000 
#
# Total GULP energy -267980.148519 kJ/mol
# GULP energy per Si atom -5582.919761 kJ/mol
# Density = 1.828769 g / cm^3
# Si number density = 18.329404 Si / 1000 Ang^3
#
#
#
# Elastic Constant Matrix: (Units=GPa)
#
#
# Indices 1 2 3 4 5 6 
#
# 1 128.1010 55.2553 69.5957 0.0000 0.0000 0.0000
# 2 55.2553 86.7842 54.8220 0.0000 0.0000 0.0000
# 3 69.5957 54.8220 137.8377 0.0000 0.0000 0.0000
# 4 0.0000 0.0000 0.0000 125.7075 0.0000 0.0000
# 5 0.0000 0.0000 0.0000 0.0000 -15.8600 0.0000
# 6 0.0000 0.0000 0.0000 0.0000 0.0000 15.2542
#
#
#
# Elastic Compliance Matrix: (Units=1/GPa)
#
#
# Indices 1 2 3 4 5 6 
#
# 1 0.012306 -0.005222 -0.004136 0.000000 0.000000 0.000000
# 2 -0.005222 0.017606 -0.004365 0.000000 0.000000 0.000000
# 3 -0.004136 -0.004365 0.011080 0.000000 0.000000 0.000000
# 4 0.000000 0.000000 0.000000 0.007955 0.000000 0.000000
# 5 0.000000 0.000000 0.000000 0.000000 -0.063052 0.000000
# 6 0.000000 0.000000 0.000000 0.000000 0.000000 0.065556
#
#
# Mechanical properties :
#
#
# Convention : Reuss Voigt Hill
#
# Bulk Modulus (GPa) = 73.83866 79.11877 76.47871
# Shear Modulus (GPa) = 59.94232 36.55698 48.24965
#
# Velocity S-wave (km/s) = 5.72484 4.47077 5.13622
# Velocity P-wave (km/s) = 9.16898 8.36116 8.77437
#
# Compressibility (1/GPa) = 0.01354304
#
# Stress axis : x y z
#
# Youngs Moduli (GPa) = 81.25956 56.80030 90.25500
#
# Poissons Ratio (x) = 0.29663 0.37334
# Poissons Ratio (y) = 0.42436 0.39400
# Poissons Ratio (z) = 0.33613 0.24796
#
# Static dielectric constant tensor:
#      x y z
#    x 1.602980 0.000000 0.000000 
#    y 0.000000 1.613600 0.000000 
#    z 0.000000 0.000000 1.603250 
# 
# From -- ./inp_files/37120.got.cif
#   From: 2010.05.17/outbox.cif.g08.bks.cpg/sg51_19_cif.got.tgz:37120.got - 2010.06.03 11:52:47.
