data_PCOD9403716
_publ_section_title
;
Structure prediction by ZEFSAII (Michael W. Deem and Ramdas Pophale) SiO2 
 PCOD9403716
Probable space group: P M M A
;
_chemical_formula_sum "Si O2"
_cell_formula_units_Z 64
_cell_length_a 29.256813
_cell_length_b 8.682819
_cell_length_c 16.116394
_cell_angle_alpha 90.000000
_cell_angle_beta 90.000000
_cell_angle_gamma 90.000000
_cell_volume 4094.073544
_symmetry_space_group_name_H-M "P M M A"
_symmetry_group_IT_number 51
_symmetry_cell_setting 'orthorhombic'
loop_
_space_group_symop_operation_xyz
x,y,z
1/2-x,-y,z
1/2+x,-y,-z
-x,y,-z
-x,-y,-z
1/2+x,y,-z
1/2-x,y,z
x,-y,z
loop_
_atom_site_type_symbol
_atom_site_label
_atom_site_fract_x
_atom_site_fract_y
_atom_site_fract_z
Si Si1 0.604999 0.683284 0.841991
Si Si2 0.444531 0.821331 0.496374
Si Si3 0.801402 0.315321 0.081176
Si Si4 0.556084 0.186544 0.322427
Si Si5 0.949220 0.812832 0.685600
Si Si6 0.446193 0.184640 0.996306
Si Si7 0.394392 0.315620 0.836511
Si Si8 0.197980 0.183943 0.103211
O O1 0.695776 0.500000 0.066939
O O2 0.579713 0.746084 0.760631
O O3 0.579719 0.750481 0.923318
O O4 0.657528 0.737723 0.845906
O O5 0.500000 0.822279 0.500000
O O6 0.430111 0.755196 0.585402
O O7 0.432839 0.756938 0.405720
O O8 0.429755 0.000000 0.495419
O O9 0.750000 0.280046 0.110554
O O10 0.897323 0.500000 0.844918
O O11 0.841982 0.272639 0.143005
O O12 0.808222 0.233671 0.992754
O O13 0.502932 0.228380 0.306091
O O14 0.587095 0.248142 0.248983
O O15 0.557585 0.000000 0.324021
O O16 0.946869 0.000000 0.686817
O O17 0.441447 0.000000 0.995341
O O18 0.500000 0.222194 0.000000
O O19 0.424241 0.252887 0.913138
O O20 0.397814 0.500000 0.834625
O O21 0.250000 0.228390 0.126665
O O22 0.193957 0.000000 0.109437
#
# Coordination Sequence:
#
# PCOD9403716 Si02
#       8
#     8   8   8   8   8   8   8   8
#     4  12  23  33  47  70  99 130 159 193 240 291
#     4   7  12  26  48  70  90 118 159 201 239 277
#     4   9  18  33  50  67  90 121 156 195 241 285
#     4   9  17  30  49  71  96 127 160 197 239 283
#     4   9  17  31  50  70  94 126 164 201 235 279
#     4  11  23  36  48  63  90 130 169 200 230 271
#     4  11  21  31  46  70  96 125 156 193 239 285
#     4  10  20  34  53  73  91 117 158 204 243 281
#
# _framework density 15.632353
#
# number of rings (size 3 to 8) (size 9 to 14) (size 15 to 20)
#    0.000    2.250    1.250    4.500    0.000    5.750 
#    0.000    0.625    0.000    2.250    0.000    0.875 
#    0.000    5.000    0.000    0.000    0.000    0.000 
#
# Total GULP energy -356832.165596 kJ/mol
# GULP energy per Si atom -5575.502587 kJ/mol
# Density = 1.559677 g / cm^3
# Si number density = 15.632353 Si / 1000 Ang^3
#
#
#
# Elastic Constant Matrix: (Units=GPa)
#
#
# Indices 1 2 3 4 5 6 
#
# 1 81.8117 28.5315 38.7414 0.0000 0.0000 0.0000
# 2 28.5315 27.1011 19.0247 0.0000 0.0000 0.0000
# 3 38.7414 19.0247 99.0323 0.0000 0.0000 0.0000
# 4 0.0000 0.0000 0.0000 -69.6834 0.0000 0.0000
# 5 0.0000 0.0000 0.0000 0.0000 7.0802 0.0000
# 6 0.0000 0.0000 0.0000 0.0000 0.0000 16.6927
#
#
#
# Elastic Compliance Matrix: (Units=1/GPa)
#
#
# Indices 1 2 3 4 5 6 
#
# 1 0.020970 -0.018862 -0.004580 0.000000 0.000000 0.000000
# 2 -0.018862 0.059616 -0.004074 0.000000 0.000000 0.000000
# 3 -0.004580 -0.004074 0.012672 0.000000 0.000000 0.000000
# 4 0.000000 0.000000 0.000000 -0.014351 0.000000 0.000000
# 5 0.000000 0.000000 0.000000 0.000000 0.141240 0.000000
# 6 0.000000 0.000000 0.000000 0.000000 0.000000 0.059906
#
#
# Mechanical properties :
#
#
# Convention : Reuss Voigt Hill
#
# Bulk Modulus (GPa) = 26.15969 42.28225 34.22097
# Shear Modulus (GPa) = 14.37498 -1.07228 6.65135
#
# Velocity S-wave (km/s) = 3.03572 -0.82911 2.06497
# Velocity P-wave (km/s) = 5.39056 5.11762 5.25586
#
# Compressibility (1/GPa) = 0.03822675
#
# Stress axis : x y z
#
# Youngs Moduli (GPa) = 47.68732 16.77408 78.91396
#
# Poissons Ratio (x) = 0.31639 0.36143
# Poissons Ratio (y) = 0.89946 0.32149
# Poissons Ratio (z) = 0.21841 0.06834
#
# Static dielectric constant tensor:
#      x y z
#    x 1.519100 0.000000 0.000000 
#    y 0.000000 1.525710 0.000000 
#    z 0.000000 0.000000 1.519570 
# 
# From -- ./inp_files/26626.got.cif
#   From: 2010.05.17/outbox.cif.g08.bks.cpg/sg51_14_cif.got.tgz:26626.got - 2010.06.03 11:52:47.
