data_PCOD9403456
_publ_section_title
;
Structure prediction by ZEFSAII (Michael W. Deem and Ramdas Pophale) SiO2 
 PCOD9403456
Probable space group: P M M A
;
_chemical_formula_sum "Si O2"
_cell_formula_units_Z 56
_cell_length_a 15.914250
_cell_length_b 16.280485
_cell_length_c 9.612626
_cell_angle_alpha 90.000000
_cell_angle_beta 90.000000
_cell_angle_gamma 90.000000
_cell_volume 2490.551693
_symmetry_space_group_name_H-M "P M M A"
_symmetry_group_IT_number 51
_symmetry_cell_setting 'orthorhombic'
loop_
_space_group_symop_operation_xyz
x,y,z
1/2-x,-y,z
1/2+x,-y,-z
-x,y,-z
-x,-y,-z
1/2+x,y,-z
1/2-x,y,z
x,-y,z
loop_
_atom_site_type_symbol
_atom_site_label
_atom_site_fract_x
_atom_site_fract_y
_atom_site_fract_z
Si Si1 0.345015 0.860848 0.653898
Si Si2 0.653109 0.096635 0.665923
Si Si3 0.977476 0.632962 0.261872
Si Si4 0.843118 0.632615 0.746614
Si Si5 0.499239 0.177154 0.167984
Si Si6 0.660251 0.322160 0.452586
Si Si7 0.158172 0.593128 0.962680
O O1 0.250000 0.889633 0.691483
O O2 0.366683 0.894031 0.499604
O O3 0.419613 0.870156 0.765204
O O4 0.339056 0.762829 0.629029
O O5 0.750000 0.125906 0.684525
O O6 0.584731 0.140380 0.762601
O O7 0.651349 0.000000 0.697823
O O8 0.919889 0.629710 0.398185
O O9 0.918225 0.600566 0.140197
O O10 0.067115 0.590246 0.273262
O O11 0.994756 0.728161 0.220200
O O12 0.750000 0.593533 0.734737
O O13 0.844631 0.694837 0.617044
O O14 0.847226 0.655875 0.908909
O O15 0.500000 0.173706 0.000000
O O16 0.750000 0.364852 0.428981
O O17 0.250000 0.605009 0.895507
O O18 0.157213 0.500000 0.020412
#
# Coordination Sequence:
#
# PCOD9403456 Si02
#       7
#     8   8   8   8   8   8   8
#     4   9  19  36  58  84 115 154 202 254 304 356
#     4  10  22  41  63  86 117 162 211 253 297 356
#     4  11  21  36  57  85 118 155 198 242 292 354
#     4  10  20  33  52  79 109 144 187 237 292 343
#     4  11  23  36  56  90 126 160 200 249 307 364
#     4   9  18  34  56  82 113 147 189 246 301 348
#     4  10  22  40  60  82 112 152 196 242 295 359
#
# _framework density 22.484976
#
# number of rings (size 3 to 8) (size 9 to 14) (size 15 to 20)
#    0.000    2.000    0.000    3.429    0.000    7.714 
#    0.000    0.714    0.000    6.000    0.000    0.000 
#    0.000    0.000    0.000    0.000    0.000    0.000 
#
# Total GULP energy -312129.705198 kJ/mol
# GULP energy per Si atom -5573.744736 kJ/mol
# Density = 2.243380 g / cm^3
# Si number density = 22.484976 Si / 1000 Ang^3
#
#
#
# Elastic Constant Matrix: (Units=GPa)
#
#
# Indices 1 2 3 4 5 6 
#
# 1 230.3158 42.4092 90.6858 0.0000 0.0000 0.0000
# 2 42.4092 41.9959 21.3798 0.0000 0.0000 0.0000
# 3 90.6858 21.3798 140.7804 0.0000 0.0000 0.0000
# 4 0.0000 0.0000 0.0000 21.6820 0.0000 0.0000
# 5 0.0000 0.0000 0.0000 0.0000 37.8942 0.0000
# 6 0.0000 0.0000 0.0000 0.0000 0.0000 -10.3761
#
#
#
# Elastic Compliance Matrix: (Units=1/GPa)
#
#
# Indices 1 2 3 4 5 6 
#
# 1 0.006634 -0.004903 -0.003529 0.000000 0.000000 0.000000
# 2 -0.004903 0.029431 -0.001311 0.000000 0.000000 0.000000
# 3 -0.003529 -0.001311 0.009576 0.000000 0.000000 0.000000
# 4 0.000000 0.000000 0.000000 0.046121 0.000000 0.000000
# 5 0.000000 0.000000 0.000000 0.000000 0.026389 0.000000
# 6 0.000000 0.000000 0.000000 0.000000 0.000000 -0.096376
#
#
# Mechanical properties :
#
#
# Convention : Reuss Voigt Hill
#
# Bulk Modulus (GPa) = 38.23473 80.22687 59.23080
# Shear Modulus (GPa) = 100.04157 27.08117 63.56137
#
# Velocity S-wave (km/s) = 6.67752 3.47423 5.32257
# Velocity P-wave (km/s) = 8.74607 7.20079 8.01078
#
# Compressibility (1/GPa) = 0.02615423
#
# Stress axis : x y z
#
# Youngs Moduli (GPa) = 150.73512 33.97827 104.43225
#
# Poissons Ratio (x) = 0.16659 0.36853
# Poissons Ratio (y) = 0.73904 0.13693
# Poissons Ratio (z) = 0.53193 0.04455
#
# Static dielectric constant tensor:
#      x y z
#    x 1.885580 0.000000 0.000000 
#    y 0.000000 1.846190 0.000000 
#    z 0.000000 0.000000 1.833610 
# 
# From -- ./inp_files/8524.got.cif
#   From: 2010.05.17/outbox.cif.g08.bks.cpg/sg51_5_cif.got.tgz:8524.got - 2010.06.03 11:52:47.
