data_PCOD9403460
_publ_section_title
;
Structure prediction by ZEFSAII (Michael W. Deem and Ramdas Pophale) SiO2 
 PCOD9403460
Probable space group: P M M A
;
_chemical_formula_sum "Si O2"
_cell_formula_units_Z 64
_cell_length_a 8.581234
_cell_length_b 25.554887
_cell_length_c 15.838518
_cell_angle_alpha 90.000000
_cell_angle_beta 90.000000
_cell_angle_gamma 90.000000
_cell_volume 3473.267657
_symmetry_space_group_name_H-M "P M M A"
_symmetry_group_IT_number 51
_symmetry_cell_setting 'orthorhombic'
loop_
_space_group_symop_operation_xyz
x,y,z
1/2-x,-y,z
1/2+x,-y,-z
-x,y,-z
-x,-y,-z
1/2+x,y,-z
1/2-x,y,z
x,-y,z
loop_
_atom_site_type_symbol
_atom_site_label
_atom_site_fract_x
_atom_site_fract_y
_atom_site_fract_z
Si Si1 0.061674 0.559035 0.228432
Si Si2 0.563114 0.172697 0.588514
Si Si3 0.936413 0.639194 0.090266
Si Si4 0.435357 0.741145 0.820921
Si Si5 0.937900 0.147218 0.775982
Si Si6 0.438393 0.060327 0.092244
Si Si7 0.063120 0.596463 0.412284
Si Si8 0.561979 0.288614 0.641391
O O1 0.250000 0.563211 0.227024
O O2 0.018154 0.500000 0.204060
O O3 0.011462 0.569806 0.325055
O O4 0.995015 0.601381 0.164270
O O5 0.500000 0.151410 0.500000
O O6 0.750000 0.169055 0.586705
O O7 0.508279 0.147962 0.677805
O O8 0.521164 0.234395 0.595511
O O9 0.750000 0.638645 0.089883
O O10 0.988227 0.698936 0.109962
O O11 0.000000 0.622062 0.000000
O O12 0.250000 0.747818 0.826508
O O13 0.512753 0.798062 0.818564
O O14 0.480438 0.714749 0.731835
O O15 0.750000 0.146081 0.773172
O O16 0.991813 0.099084 0.833622
O O17 0.250000 0.061648 0.090144
O O18 0.486644 0.000000 0.106741
O O19 0.500000 0.076344 0.000000
O O20 0.250000 0.593595 0.414878
O O21 0.017688 0.657769 0.403873
O O22 0.000000 0.574656 0.500000
O O23 0.750000 0.288930 0.653712
#
# Coordination Sequence:
#
# PCOD9403460 Si02
#       8
#     8   8   8   8   8   8   8   8
#     4  10  22  41  62  81 105 139 178 222 270 320
#     4   9  17  28  44  69 101 138 178 213 254 303
#     4  11  24  40  60  84 108 138 175 218 269 326
#     4  10  20  33  52  80 109 137 174 216 260 312
#     4   9  19  34  52  76 109 147 180 214 263 321
#     4   9  18  34  56  80 106 139 180 225 269 315
#     4  10  20  33  53  80 109 141 176 215 263 318
#     4   9  17  31  50  72 102 141 175 210 260 313
#
# _framework density 18.426452000000001
#
# number of rings (size 3 to 8) (size 9 to 14) (size 15 to 20)
#    0.000    2.375    1.250    1.875    0.000    6.250 
#    0.000    2.500    0.000    0.375    0.000    0.000 
#    0.000    0.000    0.000    0.000    0.000    0.250 
#
# Total GULP energy -356934.194375 kJ/mol
# GULP energy per Si atom -5577.096787 kJ/mol
# Density = 1.838451 g / cm^3
# Si number density = 18.426452 Si / 1000 Ang^3
#
#
#
# Elastic Constant Matrix: (Units=GPa)
#
#
# Indices 1 2 3 4 5 6 
#
# 1 -0.1740 17.2693 21.2741 0.0000 0.0000 0.0000
# 2 17.2693 85.7764 65.9085 0.0000 0.0000 0.0000
# 3 21.2741 65.9085 133.2868 0.0000 0.0000 0.0000
# 4 0.0000 0.0000 0.0000 8.3180 0.0000 0.0000
# 5 0.0000 0.0000 0.0000 0.0000 28.1318 0.0000
# 6 0.0000 0.0000 0.0000 0.0000 0.0000 15.4587
#
#
#
# Elastic Compliance Matrix: (Units=1/GPa)
#
#
# Indices 1 2 3 4 5 6 
#
# 1 -0.225928 0.028672 0.021883 0.000000 0.000000 0.000000
# 2 0.028672 0.015163 -0.012074 0.000000 0.000000 0.000000
# 3 0.021883 -0.012074 0.009981 0.000000 0.000000 0.000000
# 4 0.000000 0.000000 0.000000 0.120221 0.000000 0.000000
# 5 0.000000 0.000000 0.000000 0.000000 0.035547 0.000000
# 6 0.000000 0.000000 0.000000 0.000000 0.000000 0.064689
#
#
# Mechanical properties :
#
#
# Convention : Reuss Voigt Hill
#
# Bulk Modulus (GPa) = -8.07598 47.53256 19.72829
# Shear Modulus (GPa) = -50.72892 18.01085 -16.35903
#
# Velocity S-wave (km/s) = -5.25264 3.12980 -2.98283
# Velocity P-wave (km/s) = 6.41711 6.23801 1.06457
#
# Compressibility (1/GPa) = -0.12382393
#
# Stress axis : x y z
#
# Youngs Moduli (GPa) = -4.42618 65.94787 100.19510
#
# Poissons Ratio (x) = -1.89084 -2.19256
# Poissons Ratio (y) = 0.12691 1.20980
# Poissons Ratio (z) = 0.09686 0.79629
#
# Static dielectric constant tensor:
#      x y z
#    x 1.626170 0.000000 0.000000 
#    y 0.000000 1.635090 0.000000 
#    z 0.000000 0.000000 1.640010 
# 
# From -- ./inp_files/22279.got.cif
#   From: 2010.05.17/outbox.cif.g08.bks.cpg/sg51_12_cif.got.tgz:22279.got - 2010.06.03 11:52:47.
