data_PCOD9403148
_publ_section_title
;
Structure prediction by ZEFSAII (Michael W. Deem and Ramdas Pophale) SiO2 
 PCOD9403148
Probable space group: P M M A
;
_chemical_formula_sum "Si O2"
_cell_formula_units_Z 48
_cell_length_a 9.411718
_cell_length_b 14.394051
_cell_length_c 21.390215
_cell_angle_alpha 90.000000
_cell_angle_beta 90.000000
_cell_angle_gamma 90.000000
_cell_volume 2897.791225
_symmetry_space_group_name_H-M "P M M A"
_symmetry_group_IT_number 51
_symmetry_cell_setting 'orthorhombic'
loop_
_space_group_symop_operation_xyz
x,y,z
1/2-x,-y,z
1/2+x,-y,-z
-x,y,-z
-x,-y,-z
1/2+x,y,-z
1/2-x,y,z
x,-y,z
loop_
_atom_site_type_symbol
_atom_site_label
_atom_site_fract_x
_atom_site_fract_y
_atom_site_fract_z
Si Si1 0.590787 0.609008 0.055039
Si Si2 0.920103 0.109490 0.065332
Si Si3 0.587300 0.886642 0.561129
Si Si4 0.419898 0.785180 0.806061
Si Si5 0.411633 0.111262 0.680485
Si Si6 0.919703 0.395418 0.816237
O O1 0.750000 0.647611 0.063374
O O2 0.609827 0.500000 0.039321
O O3 0.494893 0.609048 0.116161
O O4 0.500000 0.653915 0.000000
O O5 0.750000 0.118978 0.056377
O O6 0.960165 0.172805 0.125624
O O7 0.947478 0.000000 0.080239
O O8 0.000000 0.129698 0.000000
O O9 0.500000 0.857402 0.500000
O O10 0.750000 0.856878 0.557188
O O11 0.514520 0.855295 0.625538
O O12 0.585876 0.000000 0.561388
O O13 0.250000 0.767000 0.808126
O O14 0.447051 0.857691 0.750526
O O15 0.505029 0.692958 0.785880
O O16 0.250000 0.142126 0.667026
O O17 0.413078 0.000000 0.678721
O O18 0.750000 0.384368 0.820723
O O19 0.947550 0.500000 0.791119
#
# Coordination Sequence:
#
# PCOD9403148 Si02
#       6
#     8   8   8   8   8   8
#     4   9  16  27  44  63  81 102 131 170 219 276
#     4   9  18  33  51  70  92 119 153 193 237 284
#     4   9  16  26  42  66  97 132 165 193 223 264
#     4  10  20  33  50  70  92 121 157 197 241 288
#     4   9  17  30  48  70  97 128 160 194 233 277
#     4  10  21  35  48  63  86 116 150 191 238 285
#
# _framework density 16.564340999999999
#
# number of rings (size 3 to 8) (size 9 to 14) (size 15 to 20)
#    0.000    2.667    0.000    2.000    0.000    9.000 
#    0.000    1.667    0.000    5.000    0.000    0.000 
#    0.000    0.667    0.000    2.167    0.000    3.167 
#
# Total GULP energy -267290.644621 kJ/mol
# GULP energy per Si atom -5568.555096 kJ/mol
# Density = 1.652664 g / cm^3
# Si number density = 16.564341 Si / 1000 Ang^3
#
#
#
# Elastic Constant Matrix: (Units=GPa)
#
#
# Indices 1 2 3 4 5 6 
#
# 1 75.8767 26.4167 52.2611 0.0000 0.0000 0.0000
# 2 26.4167 59.1645 14.5110 0.0000 0.0000 0.0000
# 3 52.2611 14.5110 89.6442 0.0000 0.0000 0.0000
# 4 0.0000 0.0000 0.0000 0.0615 0.0000 0.0000
# 5 0.0000 0.0000 0.0000 0.0000 24.8047 0.0000
# 6 0.0000 0.0000 0.0000 0.0000 0.0000 14.9928
#
#
#
# Elastic Compliance Matrix: (Units=1/GPa)
#
#
# Indices 1 2 3 4 5 6 
#
# 1 0.025167 -0.007954 -0.013385 0.000000 0.000000 0.000000
# 2 -0.007954 0.020115 0.001381 0.000000 0.000000 0.000000
# 3 -0.013385 0.001381 0.018735 0.000000 0.000000 0.000000
# 4 0.000000 0.000000 0.000000 16.273250 0.000000 0.000000
# 5 0.000000 0.000000 0.000000 0.000000 0.040315 0.000000
# 6 0.000000 0.000000 0.000000 0.000000 0.000000 0.066699
#
#
# Mechanical properties :
#
#
# Convention : Reuss Voigt Hill
#
# Bulk Modulus (GPa) = 41.49136 45.67366 43.58251
# Shear Modulus (GPa) = 0.30317 16.73823 8.52070
#
# Velocity S-wave (km/s) = 0.42828 3.18228 2.27050
# Velocity P-wave (km/s) = 5.03463 6.41373 5.76556
#
# Compressibility (1/GPa) = 0.02410140
#
# Stress axis : x y z
#
# Youngs Moduli (GPa) = 39.73389 49.71451 53.37709
#
# Poissons Ratio (x) = 0.39545 0.71443
# Poissons Ratio (y) = 0.31606 -0.07373
# Poissons Ratio (z) = 0.53182 -0.06867
#
# Static dielectric constant tensor:
#      x y z
#    x 1.578000 0.000000 0.000000 
#    y 0.000000 1.614860 0.000000 
#    z 0.000000 0.000000 1.559820 
# 
# From -- ./inp_files/31577.got.cif
#   From: 2010.05.17/outbox.cif.g08.bks.cpg/sg51_16_cif.got.tgz:31577.got - 2010.06.03 11:52:47.
