data_PCOD9403327
_publ_section_title
;
Structure prediction by ZEFSAII (Michael W. Deem and Ramdas Pophale) SiO2 
 PCOD9403327
Probable space group: P M M A
;
_chemical_formula_sum "Si O2"
_cell_formula_units_Z 40
_cell_length_a 7.684473
_cell_length_b 9.497129
_cell_length_c 27.038095
_cell_angle_alpha 90.000000
_cell_angle_beta 90.000000
_cell_angle_gamma 90.000000
_cell_volume 1973.251837
_symmetry_space_group_name_H-M "P M M A"
_symmetry_group_IT_number 51
_symmetry_cell_setting 'orthorhombic'
loop_
_space_group_symop_operation_xyz
x,y,z
1/2-x,-y,z
1/2+x,-y,-z
-x,y,-z
-x,-y,-z
1/2+x,y,-z
1/2-x,y,z
x,-y,z
loop_
_atom_site_type_symbol
_atom_site_label
_atom_site_fract_x
_atom_site_fract_y
_atom_site_fract_z
Si Si1 0.543104 0.340236 0.555825
Si Si2 0.036503 0.661962 0.743554
Si Si3 0.043403 0.158401 0.650178
Si Si4 0.458400 0.162044 0.947096
Si Si5 0.962305 0.835552 0.160934
O O1 0.500000 0.294755 0.500000
O O2 0.750000 0.347045 0.559954
O O3 0.472641 0.500000 0.562447
O O4 0.480132 0.236604 0.598234
O O5 0.250000 0.661842 0.743450
O O6 0.981037 0.500000 0.742281
O O7 0.975605 0.746702 0.695237
O O8 0.979444 0.741819 0.793248
O O9 0.250000 0.147168 0.658553
O O10 0.971168 0.000000 0.649790
O O11 0.250000 0.156225 0.944763
O O12 0.517806 0.217672 0.893656
O O13 0.524673 0.000000 0.949046
O O14 0.500000 0.230454 0.000000
O O15 0.750000 0.834165 0.161772
O O16 0.013016 0.000000 0.166303
#
# Coordination Sequence:
#
# PCOD9403327 Si02
#       5
#     8   8   8   8   8
#     4  10  21  37  57  79 103 133 167 201 238 282
#     4   9  16  26  43  67  93 121 155 195 236 280
#     4  10  20  33  51  76 104 132 162 199 243 288
#     4   8  13  21  35  56  81 109 142 181 224 270
#     4   8  13  22  37  58  84 113 147 188 231 274
#
# _framework density 20.271107000000001
#
# number of rings (size 3 to 8) (size 9 to 14) (size 15 to 20)
#    0.000    3.000    0.000    3.000    0.000    5.200 
#    0.000    0.000    0.000    1.800    0.000    2.800 
#    0.000    0.000    0.000    0.000    0.000    0.000 
#
# Total GULP energy -222985.847653 kJ/mol
# GULP energy per Si atom -5574.646191 kJ/mol
# Density = 2.022497 g / cm^3
# Si number density = 20.271107 Si / 1000 Ang^3
#
#
#
# Elastic Constant Matrix: (Units=GPa)
#
#
# Indices 1 2 3 4 5 6 
#
# 1 31.9822 6.1576 -1.2709 0.0000 0.0000 0.0000
# 2 6.1576 127.7572 125.8471 0.0000 0.0000 0.0000
# 3 -1.2709 125.8471 227.7214 0.0000 0.0000 0.0000
# 4 0.0000 0.0000 0.0000 -14.4224 0.0000 0.0000
# 5 0.0000 0.0000 0.0000 0.0000 17.3101 0.0000
# 6 0.0000 0.0000 0.0000 0.0000 0.0000 5.2748
#
#
#
# Elastic Compliance Matrix: (Units=1/GPa)
#
#
# Indices 1 2 3 4 5 6 
#
# 1 0.032086 -0.003781 0.002269 0.000000 0.000000 0.000000
# 2 -0.003781 0.017625 -0.009761 0.000000 0.000000 0.000000
# 3 0.002269 -0.009761 0.009798 0.000000 0.000000 0.000000
# 4 0.000000 0.000000 0.000000 -0.069337 0.000000 0.000000
# 5 0.000000 0.000000 0.000000 0.000000 0.057770 0.000000
# 6 0.000000 0.000000 0.000000 0.000000 0.000000 0.189582
#
#
# Mechanical properties :
#
#
# Convention : Reuss Voigt Hill
#
# Bulk Modulus (GPa) = 27.05534 72.10316 49.57925
# Shear Modulus (GPa) = 18.35591 18.74763 18.55177
#
# Velocity S-wave (km/s) = 3.01245 3.04443 3.02848
# Velocity P-wave (km/s) = 5.04733 6.92854 6.06136
#
# Compressibility (1/GPa) = 0.03696128
#
# Stress axis : x y z
#
# Youngs Moduli (GPa) = 31.16670 56.73782 102.05720
#
# Poissons Ratio (x) = 0.21454 -0.23154
# Poissons Ratio (y) = 0.11785 0.99621
# Poissons Ratio (z) = -0.07071 0.55383
#
# Static dielectric constant tensor:
#      x y z
#    x 1.769250 0.000000 0.000000 
#    y 0.000000 1.700530 0.000000 
#    z 0.000000 0.000000 1.740960 
# 
# From -- ./inp_files/35979.got.cif
#   From: 2010.05.17/outbox.cif.g08.bks.cpg/sg51_18_cif.got.tgz:35979.got - 2010.06.03 11:52:47.
