data_PCOD9403718
_publ_section_title
;
Structure prediction by ZEFSAII (Michael W. Deem and Ramdas Pophale) SiO2 
 PCOD9403718
Probable space group: P M M A
;
_chemical_formula_sum "Si O2"
_cell_formula_units_Z 56
_cell_length_a 20.219266
_cell_length_b 9.445623
_cell_length_c 18.311241
_cell_angle_alpha 90.000000
_cell_angle_beta 90.000000
_cell_angle_gamma 90.000000
_cell_volume 3497.146067
_symmetry_space_group_name_H-M "P M M A"
_symmetry_group_IT_number 51
_symmetry_cell_setting 'orthorhombic'
loop_
_space_group_symop_operation_xyz
x,y,z
1/2-x,-y,z
1/2+x,-y,-z
-x,y,-z
-x,-y,-z
1/2+x,y,-z
1/2-x,y,z
x,-y,z
loop_
_atom_site_type_symbol
_atom_site_label
_atom_site_fract_x
_atom_site_fract_y
_atom_site_fract_z
Si Si1 0.960678 0.329449 0.184393
Si Si2 0.326691 0.668284 0.063033
Si Si3 0.113398 0.328922 0.214286
Si Si4 0.420134 0.162545 0.513046
Si Si5 0.060431 0.337444 0.652151
Si Si6 0.900818 0.663996 0.627137
Si Si7 0.428749 0.831954 0.961220
O O1 0.956993 0.500000 0.173112
O O2 0.928682 0.297793 0.263408
O O3 0.930918 0.244941 0.117019
O O4 0.038448 0.290638 0.191691
O O5 0.250000 0.686677 0.044780
O O6 0.342935 0.500000 0.056799
O O7 0.339703 0.710000 0.147491
O O8 0.373881 0.758470 0.011494
O O9 0.113907 0.500000 0.220493
O O10 0.128555 0.278751 0.296440
O O11 0.500000 0.166103 0.500000
O O12 0.409082 0.238807 0.590301
O O13 0.388767 0.245502 0.444973
O O14 0.399579 0.000000 0.514544
O O15 0.081273 0.500000 0.641088
O O16 0.980477 0.335568 0.641035
O O17 0.881616 0.500000 0.615614
O O18 0.417767 0.000000 0.954053
O O19 0.500000 0.810744 0.000000
#
# Coordination Sequence:
#
# PCOD9403718 Si02
#       7
#     8   8   8   8   8   8   8
#     4   9  16  28  47  66  86 117 156 198 236 277
#     4  10  20  34  53  73  93 122 160 201 244 287
#     4   8  14  26  44  65  87 113 150 193 234 273
#     4   9  15  21  30  49  79 113 144 177 218 262
#     4   8  14  23  36  55  78 109 147 182 223 271
#     4   8  13  22  36  52  75 110 147 180 215 263
#     4  11  22  33  47  70  97 126 159 195 241 294
#
# _framework density 16.013057
#
# number of rings (size 3 to 8) (size 9 to 14) (size 15 to 20)
#    0.000    3.000    1.429    2.571    0.000    3.143 
#    0.000    2.857    0.000    0.000    0.000    0.000 
#    0.000    1.143    0.000    8.857    0.000    4.000 
#
# Total GULP energy -311765.246556 kJ/mol
# GULP energy per Si atom -5567.236546 kJ/mol
# Density = 1.597661 g / cm^3
# Si number density = 16.013057 Si / 1000 Ang^3
#
#
#
# Elastic Constant Matrix: (Units=GPa)
#
#
# Indices 1 2 3 4 5 6 
#
# 1 32.1417 30.2635 33.4207 0.0000 0.0000 0.0000
# 2 30.2635 83.9674 88.0429 0.0000 0.0000 0.0000
# 3 33.4207 88.0429 160.4092 0.0000 0.0000 0.0000
# 4 0.0000 0.0000 0.0000 6.3748 0.0000 0.0000
# 5 0.0000 0.0000 0.0000 0.0000 10.1258 0.0000
# 6 0.0000 0.0000 0.0000 0.0000 0.0000 8.5253
#
#
#
# Elastic Compliance Matrix: (Units=1/GPa)
#
#
# Indices 1 2 3 4 5 6 
#
# 1 0.047187 -0.015780 -0.001170 0.000000 0.000000 0.000000
# 2 -0.015780 0.033333 -0.015007 0.000000 0.000000 0.000000
# 3 -0.001170 -0.015007 0.014715 0.000000 0.000000 0.000000
# 4 0.000000 0.000000 0.000000 0.156869 0.000000 0.000000
# 5 0.000000 0.000000 0.000000 0.000000 0.098757 0.000000
# 6 0.000000 0.000000 0.000000 0.000000 0.000000 0.117298
#
#
# Mechanical properties :
#
#
# Convention : Reuss Voigt Hill
#
# Bulk Modulus (GPa) = 31.92937 64.44139 48.18538
# Shear Modulus (GPa) = 9.21636 13.32459 11.27048
#
# Velocity S-wave (km/s) = 2.40167 2.88776 2.65586
# Velocity P-wave (km/s) = 5.26057 7.17281 6.28979
#
# Compressibility (1/GPa) = 0.03131913
#
# Stress axis : x y z
#
# Youngs Moduli (GPa) = 21.19226 30.00051 67.95873
#
# Poissons Ratio (x) = 0.47342 0.07951
# Poissons Ratio (y) = 0.33442 1.01988
# Poissons Ratio (z) = 0.02479 0.45023
#
# Static dielectric constant tensor:
#      x y z
#    x 1.513930 0.000000 0.000000 
#    y 0.000000 1.528720 0.000000 
#    z 0.000000 0.000000 1.556290 
# 
# From -- ./inp_files/30466.got.cif
#   From: 2010.05.17/outbox.cif.g08.bks.cpg/sg51_16_cif.got.tgz:30466.got - 2010.06.03 11:52:47.
