data_PCOD9403131
_publ_section_title
;
Structure prediction by ZEFSAII (Michael W. Deem and Ramdas Pophale) SiO2 
 PCOD9403131
Probable space group: P M M A
;
_chemical_formula_sum "Si O2"
_cell_formula_units_Z 40
_cell_length_a 15.359793
_cell_length_b 7.417542
_cell_length_c 15.949684
_cell_angle_alpha 90.000000
_cell_angle_beta 90.000000
_cell_angle_gamma 90.000000
_cell_volume 1817.177957
_symmetry_space_group_name_H-M "P M M A"
_symmetry_group_IT_number 51
_symmetry_cell_setting 'orthorhombic'
loop_
_space_group_symop_operation_xyz
x,y,z
1/2-x,-y,z
1/2+x,-y,-z
-x,y,-z
-x,-y,-z
1/2+x,y,-z
1/2-x,y,z
x,-y,z
loop_
_atom_site_type_symbol
_atom_site_label
_atom_site_fract_x
_atom_site_fract_y
_atom_site_fract_z
Si Si1 0.105913 0.789946 0.337432
Si Si2 0.750000 0.780296 0.342407
Si Si3 0.750000 0.716350 0.990892
Si Si4 0.069501 0.221672 0.740529
Si Si5 0.750000 0.778485 0.535437
Si Si6 0.250000 0.283574 0.201669
Si Si7 0.935804 0.210608 0.070152
O O1 0.165283 0.716139 0.412537
O O2 0.165861 0.777558 0.254232
O O3 0.011294 0.715793 0.316039
O O4 0.092846 0.000000 0.357321
O O5 0.662482 0.722558 0.295569
O O6 0.750000 0.724119 0.439293
O O7 0.750000 0.000000 0.341979
O O8 0.750000 0.500000 0.989863
O O9 0.662807 0.776493 0.037708
O O10 0.750000 0.779559 0.894175
O O11 0.057049 0.284351 0.836076
O O12 0.068846 0.000000 0.741001
O O13 0.750000 0.000000 0.538415
O O14 0.250000 0.500000 0.201695
O O15 0.959477 0.000000 0.077840
O O16 0.000000 0.290199 0.000000
#
# Coordination Sequence:
#
# PCOD9403131 Si02
#       7
#     8   4   4   8   4   4   8
#     4   9  17  31  51  74  98 124 161 204 244 287
#     4   9  16  26  42  70 107 134 156 195 247 295
#     4  11  23  35  49  72 103 136 166 205 257 305
#     4   9  17  29  47  71  99 131 164 203 247 288
#     4   8  15  26  43  72 103 128 155 194 244 296
#     4  10  20  33  49  72  99 128 161 198 248 300
#     4  10  20  34  53  75  98 131 176 215 248 292
#
# _framework density 22.012153999999999
#
# number of rings (size 3 to 8) (size 9 to 14) (size 15 to 20)
#    0.000    2.600    0.000    3.000    0.000    6.000 
#    0.000    5.000    0.000    0.000    0.000   22.400 
#    0.000    0.000    0.000    0.000    0.000    0.000 
#
# Total GULP energy -223465.892798 kJ/mol
# GULP energy per Si atom -5586.647320 kJ/mol
# Density = 2.196205 g / cm^3
# Si number density = 22.012154 Si / 1000 Ang^3
#
#
#
# Elastic Constant Matrix: (Units=GPa)
#
#
# Indices 1 2 3 4 5 6 
#
# 1 201.1659 -2.2702 91.4966 0.0000 0.0000 0.0000
# 2 -2.2702 72.5215 9.6053 0.0000 0.0000 0.0000
# 3 91.4966 9.6053 170.9250 0.0000 0.0000 0.0000
# 4 0.0000 0.0000 0.0000 -19.2708 0.0000 0.0000
# 5 0.0000 0.0000 0.0000 0.0000 -15.9297 0.0000
# 6 0.0000 0.0000 0.0000 0.0000 0.0000 -7.0359
#
#
#
# Elastic Compliance Matrix: (Units=1/GPa)
#
#
# Indices 1 2 3 4 5 6 
#
# 1 0.006604 0.000680 -0.003573 0.000000 0.000000 0.000000
# 2 0.000680 0.013962 -0.001149 0.000000 0.000000 0.000000
# 3 -0.003573 -0.001149 0.007828 0.000000 0.000000 0.000000
# 4 0.000000 0.000000 0.000000 -0.051892 0.000000 0.000000
# 5 0.000000 0.000000 0.000000 0.000000 -0.062776 0.000000
# 6 0.000000 0.000000 0.000000 0.000000 0.000000 -0.142128
#
#
# Mechanical properties :
#
#
# Convention : Reuss Voigt Hill
#
# Bulk Modulus (GPa) = 49.23599 71.36397 60.29998
# Shear Modulus (GPa) = -23.41403 14.60476 -4.40463
#
# Velocity S-wave (km/s) = -3.26496 2.57862 -1.41610
# Velocity P-wave (km/s) = 2.86407 6.43089 4.97791
#
# Compressibility (1/GPa) = 0.02031035
#
# Stress axis : x y z
#
# Youngs Moduli (GPa) = 151.42432 71.62075 127.74843
#
# Poissons Ratio (x) = -0.04870 0.45649
# Poissons Ratio (y) = -0.10297 0.14674
# Poissons Ratio (z) = 0.54109 0.08227
#
# Static dielectric constant tensor:
#      x y z
#    x 1.757330 0.000000 0.000000 
#    y 0.000000 1.807820 0.000000 
#    z 0.000000 0.000000 1.768190 
# 
# From -- ./inp_files/23870.got.cif
#   From: 2010.05.17/outbox.cif.g08.bks.cpg/sg51_12_cif.got.tgz:23870.got - 2010.06.03 11:52:47.
