data_PCOD9403212
_publ_section_title
;
Structure prediction by ZEFSAII (Michael W. Deem and Ramdas Pophale) SiO2 
 PCOD9403212
Probable space group: P M M A
;
_chemical_formula_sum "Si O2"
_cell_formula_units_Z 48
_cell_length_a 9.440910
_cell_length_b 9.105315
_cell_length_c 32.213625
_cell_angle_alpha 90.000000
_cell_angle_beta 90.000000
_cell_angle_gamma 90.000000
_cell_volume 2769.162432
_symmetry_space_group_name_H-M "P M M A"
_symmetry_group_IT_number 51
_symmetry_cell_setting 'orthorhombic'
loop_
_space_group_symop_operation_xyz
x,y,z
1/2-x,-y,z
1/2+x,-y,-z
-x,y,-z
-x,-y,-z
1/2+x,y,-z
1/2-x,y,z
x,-y,z
loop_
_atom_site_type_symbol
_atom_site_label
_atom_site_fract_x
_atom_site_fract_y
_atom_site_fract_z
Si Si1 0.920222 0.325677 0.132308
Si Si2 0.586692 0.820819 0.459407
Si Si3 0.086488 0.679001 0.960138
Si Si4 0.081747 0.825587 0.207323
Si Si5 0.417088 0.823666 0.377343
Si Si6 0.577699 0.330985 0.707764
O O1 0.750000 0.307195 0.134722
O O2 0.949161 0.500000 0.136496
O O3 0.965194 0.277556 0.085782
O O4 0.998308 0.239834 0.168488
O O5 0.500000 0.772731 0.500000
O O6 0.750000 0.773387 0.460598
O O7 0.507346 0.776699 0.417217
O O8 0.586401 0.000000 0.459853
O O9 0.250000 0.722886 0.964187
O O10 0.083321 0.500000 0.960165
O O11 0.000000 0.730579 0.000000
O O12 0.250000 0.795208 0.202487
O O13 0.033051 0.751707 0.250423
O O14 0.063353 0.000000 0.209958
O O15 0.250000 0.790904 0.384050
O O16 0.465582 0.748104 0.334763
O O17 0.428856 0.000000 0.372864
O O18 0.750000 0.327583 0.707704
O O19 0.532425 0.500000 0.708529
#
# Coordination Sequence:
#
# PCOD9403212 Si02
#       6
#     8   8   8   8   8   8
#     4   9  18  32  49  71 100 131 162 198 242 291
#     4   9  16  26  42  66  95 124 154 189 228 270
#     4   8  14  25  42  66  95 124 155 193 236 282
#     4  10  20  33  50  73  99 127 163 205 244 286
#     4   9  16  27  45  68  93 121 153 190 232 276
#     4   9  17  30  49  71  94 122 157 196 238 284
#
# _framework density 17.333762
#
# number of rings (size 3 to 8) (size 9 to 14) (size 15 to 20)
#    0.000    3.000    0.000    2.500    0.000    6.000 
#    0.000    2.500    0.000    4.500    0.000    0.000 
#    0.000    0.000    0.000    0.000    0.000    0.000 
#
# Total GULP energy -267475.214084 kJ/mol
# GULP energy per Si atom -5572.400293 kJ/mol
# Density = 1.729431 g / cm^3
# Si number density = 17.333762 Si / 1000 Ang^3
#
#
#
# Elastic Constant Matrix: (Units=GPa)
#
#
# Indices 1 2 3 4 5 6 
#
# 1 59.5382 32.7543 81.9871 0.0000 0.0000 0.0000
# 2 32.7543 35.3216 59.6669 0.0000 0.0000 0.0000
# 3 81.9871 59.6669 220.5754 0.0000 0.0000 0.0000
# 4 0.0000 0.0000 0.0000 24.8113 0.0000 0.0000
# 5 0.0000 0.0000 0.0000 0.0000 33.9655 0.0000
# 6 0.0000 0.0000 0.0000 0.0000 0.0000 14.5384
#
#
#
# Elastic Compliance Matrix: (Units=1/GPa)
#
#
# Indices 1 2 3 4 5 6 
#
# 1 0.043044 -0.023734 -0.009579 0.000000 0.000000 0.000000
# 2 -0.023734 0.065220 -0.008821 0.000000 0.000000 0.000000
# 3 -0.009579 -0.008821 0.010480 0.000000 0.000000 0.000000
# 4 0.000000 0.000000 0.000000 0.040304 0.000000 0.000000
# 5 0.000000 0.000000 0.000000 0.000000 0.029442 0.000000
# 6 0.000000 0.000000 0.000000 0.000000 0.000000 0.068784
#
#
# Mechanical properties :
#
#
# Convention : Reuss Voigt Hill
#
# Bulk Modulus (GPa) = 29.00478 73.80575 51.40526
# Shear Modulus (GPa) = 14.16299 24.06484 19.11392
#
# Velocity S-wave (km/s) = 2.86155 3.73006 3.32429
# Velocity P-wave (km/s) = 5.26188 7.82450 6.66747
#
# Compressibility (1/GPa) = 0.03447708
#
# Stress axis : x y z
#
# Youngs Moduli (GPa) = 23.23220 15.33268 95.41849
#
# Poissons Ratio (x) = 0.36390 0.91402
# Poissons Ratio (y) = 0.55139 0.84166
# Poissons Ratio (z) = 0.22254 0.13524
#
# Static dielectric constant tensor:
#      x y z
#    x 1.579120 0.000000 0.000000 
#    y 0.000000 1.580830 0.000000 
#    z 0.000000 0.000000 1.581770 
# 
# From -- ./inp_files/36935.got.cif
#   From: 2010.05.17/outbox.cif.g08.bks.cpg/sg51_19_cif.got.tgz:36935.got - 2010.06.03 11:52:47.
