data_PCOD9403680
_publ_section_title
;
Structure prediction by ZEFSAII (Michael W. Deem and Ramdas Pophale) SiO2 
 PCOD9403680
Probable space group: P M M A
;
_chemical_formula_sum "Si O2"
_cell_formula_units_Z 44
_cell_length_a 8.575670
_cell_length_b 28.584915
_cell_length_c 9.998468
_cell_angle_alpha 90.000000
_cell_angle_beta 90.000000
_cell_angle_gamma 90.000000
_cell_volume 2450.972434
_symmetry_space_group_name_H-M "P M M A"
_symmetry_group_IT_number 51
_symmetry_cell_setting 'orthorhombic'
loop_
_space_group_symop_operation_xyz
x,y,z
1/2-x,-y,z
1/2+x,-y,-z
-x,y,-z
-x,-y,-z
1/2+x,y,-z
1/2-x,y,z
x,-y,z
loop_
_atom_site_type_symbol
_atom_site_label
_atom_site_fract_x
_atom_site_fract_y
_atom_site_fract_z
Si Si1 0.063826 0.000000 0.348630
Si Si2 0.561794 0.446959 0.851598
Si Si3 0.062464 0.265086 0.649740
Si Si4 0.562313 0.185375 0.145795
Si Si5 0.562450 0.634126 0.650023
Si Si6 0.437659 0.922577 0.851946
O O1 0.000000 0.000000 0.500000
O O2 0.004385 0.955628 0.263033
O O3 0.250000 0.000000 0.352842
O O4 0.750000 0.446327 0.855041
O O5 0.512496 0.500000 0.815369
O O6 0.510744 0.407809 0.746510
O O7 0.500000 0.437032 0.000000
O O8 0.250000 0.266579 0.646756
O O9 0.010369 0.222700 0.744313
O O10 0.000000 0.258173 0.500000
O O11 0.999880 0.315440 0.697023
O O12 0.750000 0.186032 0.142700
O O13 0.515617 0.131574 0.172479
O O14 0.500000 0.198346 0.000000
O O15 0.500000 0.626948 0.500000
O O16 0.750000 0.635550 0.646348
O O17 0.250000 0.925984 0.853131
O O18 0.500000 0.935653 0.000000
#
# Coordination Sequence:
#
# PCOD9403680 Si02
#       6
#     4   8   8   8   8   8
#     4  12  25  40  57  82 112 144 180 222 269 316
#     4   9  19  35  53  74 101 132 168 210 256 306
#     4  10  20  35  53  76 105 138 174 213 258 308
#     4   9  20  36  56  81 108 138 176 217 258 307
#     4  10  20  34  52  75 102 134 172 212 255 306
#     4  10  20  38  60  83 110 143 181 220 263 314
#
# _framework density 17.952059999999999
#
# number of rings (size 3 to 8) (size 9 to 14) (size 15 to 20)
#    0.000    2.182    0.000    3.818    0.000    5.455 
#    0.000    5.455    0.000    0.000    0.000    0.000 
#    0.000    0.000    0.000    0.000    0.000    0.000 
#
# Total GULP energy -245608.648150 kJ/mol
# GULP energy per Si atom -5582.014731 kJ/mol
# Density = 1.791120 g / cm^3
# Si number density = 17.952060 Si / 1000 Ang^3
#
#
#
# Elastic Constant Matrix: (Units=GPa)
#
#
# Indices 1 2 3 4 5 6 
#
# 1 55.4031 40.1582 38.5481 0.0000 0.0000 0.0000
# 2 40.1582 150.3306 116.7024 0.0000 0.0000 0.0000
# 3 38.5481 116.7024 129.8726 0.0000 0.0000 0.0000
# 4 0.0000 0.0000 0.0000 45.8585 0.0000 0.0000
# 5 0.0000 0.0000 0.0000 0.0000 31.5604 0.0000
# 6 0.0000 0.0000 0.0000 0.0000 0.0000 23.1884
#
#
#
# Elastic Compliance Matrix: (Units=1/GPa)
#
#
# Indices 1 2 3 4 5 6 
#
# 1 0.023099 -0.002804 -0.004336 0.000000 0.000000 0.000000
# 2 -0.002804 0.022336 -0.019239 0.000000 0.000000 0.000000
# 3 -0.004336 -0.019239 0.026275 0.000000 0.000000 0.000000
# 4 0.000000 0.000000 0.000000 0.021806 0.000000 0.000000
# 5 0.000000 0.000000 0.000000 0.000000 0.031685 0.000000
# 6 0.000000 0.000000 0.000000 0.000000 0.000000 0.043125
#
#
# Mechanical properties :
#
#
# Convention : Reuss Voigt Hill
#
# Bulk Modulus (GPa) = 52.76625 80.71375 66.74000
# Shear Modulus (GPa) = 21.98734 29.46796 25.72765
#
# Velocity S-wave (km/s) = 3.50348 4.05591 3.78978
# Velocity P-wave (km/s) = 6.76923 8.18488 7.51049
#
# Compressibility (1/GPa) = 0.01895151
#
# Stress axis : x y z
#
# Youngs Moduli (GPa) = 43.29137 44.76984 38.05905
#
# Poissons Ratio (x) = 0.12555 0.16504
# Poissons Ratio (y) = 0.12140 0.73222
# Poissons Ratio (z) = 0.18773 0.86133
#
# Static dielectric constant tensor:
#      x y z
#    x 1.610880 0.000000 0.000000 
#    y 0.000000 1.626110 0.000000 
#    z 0.000000 0.000000 1.573940 
# 
# From -- ./inp_files/5863.got.cif
#   From: 2010.05.17/outbox.cif.g08.bks.cpg/sg51_3_cif.got.tgz:5863.got - 2010.06.03 11:52:47.
