data_PCOD9403888
_publ_section_title
;
Structure prediction by ZEFSAII (Michael W. Deem and Ramdas Pophale) SiO2 
 PCOD9403888
Probable space group: P M M A
;
_chemical_formula_sum "Si O2"
_cell_formula_units_Z 64
_cell_length_a 7.524040
_cell_length_b 9.534797
_cell_length_c 42.504068
_cell_angle_alpha 90.000000
_cell_angle_beta 90.000000
_cell_angle_gamma 90.000000
_cell_volume 3049.250085
_symmetry_space_group_name_H-M "P M M A"
_symmetry_group_IT_number 51
_symmetry_cell_setting 'orthorhombic'
loop_
_space_group_symop_operation_xyz
x,y,z
1/2-x,-y,z
1/2+x,-y,-z
-x,y,-z
-x,-y,-z
1/2+x,y,-z
1/2-x,y,z
x,-y,z
loop_
_atom_site_type_symbol
_atom_site_label
_atom_site_fract_x
_atom_site_fract_y
_atom_site_fract_z
Si Si1 0.462706 0.839923 0.775145
Si Si2 0.967940 0.339218 0.905391
Si Si3 0.036609 0.659065 0.716782
Si Si4 0.032227 0.338627 0.405105
Si Si5 0.537215 0.159842 0.964763
Si Si6 0.462768 0.840156 0.464376
Si Si7 0.963059 0.159752 0.846037
Si Si8 0.462997 0.840289 0.345103
O O1 0.250000 0.847394 0.771515
O O2 0.531320 0.737961 0.747985
O O3 0.497941 0.790738 0.810678
O O4 0.531741 0.000000 0.772070
O O5 0.750000 0.338729 0.905404
O O6 0.024691 0.500000 0.905530
O O7 0.027597 0.256930 0.936558
O O8 0.027334 0.258120 0.874054
O O9 0.250000 0.650066 0.719623
O O10 0.968726 0.500000 0.713413
O O11 0.999659 0.753819 0.686446
O O12 0.250000 0.339555 0.404949
O O13 0.975224 0.500000 0.402936
O O14 0.973107 0.263336 0.437230
O O15 0.972703 0.246711 0.375319
O O16 0.750000 0.152472 0.961553
O O17 0.468037 0.000000 0.962359
O O18 0.500000 0.212193 0.000000
O O19 0.500000 0.793607 0.500000
O O20 0.250000 0.847292 0.461038
O O21 0.531426 0.000000 0.460736
O O22 0.750000 0.153181 0.848983
O O23 0.031423 0.000000 0.849030
O O24 0.250000 0.849235 0.348275
O O25 0.531433 0.000000 0.343732
#
# Coordination Sequence:
#
# PCOD9403888 Si02
#       8
#     8   8   8   8   8   8   8   8
#     4   9  18  33  51  70  95 128 162 195 236 286
#     4   9  17  29  46  68  93 121 152 187 230 278
#     4  10  21  36  53  74 102 135 167 200 244 297
#     4   9  17  30  49  72  98 128 161 199 245 294
#     4   9  17  30  48  68  90 118 152 188 226 270
#     4   9  17  30  48  69  94 125 161 199 239 286
#     4   9  17  30  49  71  93 119 155 197 235 274
#     4  10  20  34  54  78 101 128 166 209 249 292
#
# _framework density 20.988768
#
# number of rings (size 3 to 8) (size 9 to 14) (size 15 to 20)
#    0.000    2.750    0.000    1.500    0.000    6.000 
#    0.000    2.500    0.000    6.000    0.000    0.000 
#    0.000    0.000    0.000    0.000    0.000    0.000 
#
# Total GULP energy -357342.565089 kJ/mol
# GULP energy per Si atom -5583.477580 kJ/mol
# Density = 2.094100 g / cm^3
# Si number density = 20.988768 Si / 1000 Ang^3
#
#
#
# Elastic Constant Matrix: (Units=GPa)
#
#
# Indices 1 2 3 4 5 6 
#
# 1 53.3888 6.7171 -1.2029 0.0000 0.0000 0.0000
# 2 6.7171 177.8684 155.3073 0.0000 0.0000 0.0000
# 3 -1.2029 155.3073 236.4312 0.0000 0.0000 0.0000
# 4 0.0000 0.0000 0.0000 136.5467 0.0000 0.0000
# 5 0.0000 0.0000 0.0000 0.0000 19.9756 0.0000
# 6 0.0000 0.0000 0.0000 0.0000 0.0000 9.6700
#
#
#
# Elastic Compliance Matrix: (Units=1/GPa)
#
#
# Indices 1 2 3 4 5 6 
#
# 1 0.018997 -0.001880 0.001332 0.000000 0.000000 0.000000
# 2 -0.001880 0.013370 -0.008792 0.000000 0.000000 0.000000
# 3 0.001332 -0.008792 0.010012 0.000000 0.000000 0.000000
# 4 0.000000 0.000000 0.000000 0.007324 0.000000 0.000000
# 5 0.000000 0.000000 0.000000 0.000000 0.050061 0.000000
# 6 0.000000 0.000000 0.000000 0.000000 0.000000 0.103412
#
#
# Mechanical properties :
#
#
# Convention : Reuss Voigt Hill
#
# Bulk Modulus (GPa) = 42.19827 87.70348 64.95088
# Shear Modulus (GPa) = 21.76223 53.69626 37.72924
#
# Velocity S-wave (km/s) = 3.22351 5.06348 4.24440
# Velocity P-wave (km/s) = 5.83125 8.72134 7.41840
#
# Compressibility (1/GPa) = 0.02369765
#
# Stress axis : x y z
#
# Youngs Moduli (GPa) = 52.63963 74.79416 99.88319
#
# Poissons Ratio (x) = 0.14063 -0.13302
# Poissons Ratio (y) = 0.09897 0.87818
# Poissons Ratio (z) = -0.07010 0.65760
#
# Static dielectric constant tensor:
#      x y z
#    x 1.810580 0.000000 0.000000 
#    y 0.000000 1.734290 0.000000 
#    z 0.000000 0.000000 1.715090 
# 
# From -- ./inp_files/37773.got.cif
#   From: 2010.05.17/outbox.cif.g08.bks.cpg/sg51_19_cif.got.tgz:37773.got - 2010.06.03 11:52:47.
