data_PCOD9403598
_publ_section_title
;
Structure prediction by ZEFSAII (Michael W. Deem and Ramdas Pophale) SiO2 
 PCOD9403598
Probable space group: P M M A
;
_chemical_formula_sum "Si O2"
_cell_formula_units_Z 64
_cell_length_a 9.534359
_cell_length_b 14.734520
_cell_length_c 21.277027
_cell_angle_alpha 90.000000
_cell_angle_beta 90.000000
_cell_angle_gamma 90.000000
_cell_volume 2989.086188
_symmetry_space_group_name_H-M "P M M A"
_symmetry_group_IT_number 51
_symmetry_cell_setting 'orthorhombic'
loop_
_space_group_symop_operation_xyz
x,y,z
1/2-x,-y,z
1/2+x,-y,-z
-x,y,-z
-x,-y,-z
1/2+x,y,-z
1/2-x,y,z
x,-y,z
loop_
_atom_site_type_symbol
_atom_site_label
_atom_site_fract_x
_atom_site_fract_y
_atom_site_fract_z
Si Si1 0.587911 0.110471 0.820243
Si Si2 0.411206 0.610876 0.183654
Si Si3 0.910020 0.391661 0.302037
Si Si4 0.408721 0.890783 0.320898
Si Si5 0.088997 0.889139 0.939362
Si Si6 0.091736 0.361283 0.557276
Si Si7 0.587628 0.610692 0.061172
Si Si8 0.092023 0.145096 0.557860
O O1 0.750000 0.135589 0.832413
O O2 0.550026 0.139244 0.749395
O O3 0.485992 0.141467 0.875374
O O4 0.584106 0.000000 0.820879
O O5 0.250000 0.641394 0.179669
O O6 0.407996 0.500000 0.183978
O O7 0.487944 0.641567 0.247360
O O8 0.504100 0.637768 0.123772
O O9 0.750000 0.354512 0.297913
O O10 0.899469 0.500000 0.293456
O O11 0.965170 0.376567 0.372541
O O12 0.250000 0.857419 0.334350
O O13 0.514454 0.867620 0.376122
O O14 0.401747 0.000000 0.318721
O O15 0.250000 0.860255 0.943250
O O16 0.088669 0.000000 0.939003
O O17 0.000000 0.861021 0.000000
O O18 0.250000 0.397862 0.556206
O O19 0.101542 0.253219 0.548764
O O20 0.000000 0.396985 0.500000
O O21 0.750000 0.640017 0.060457
O O22 0.590020 0.500000 0.060676
O O23 0.500000 0.639272 0.000000
O O24 0.250000 0.108567 0.558259
O O25 0.000000 0.108355 0.500000
#
# Coordination Sequence:
#
# PCOD9403598 Si02
#       8
#     8   8   8   8   8   8   8   8
#     4   8  14  25  39  55  79 110 141 176 219 262
#     4   9  16  25  37  56  83 113 146 184 224 266
#     4   9  17  30  47  66  90 120 151 184 225 271
#     4   9  18  32  49  69  93 120 150 186 228 272
#     4   9  15  21  31  49  75 109 147 182 215 255
#     4   9  19  34  50  69  92 118 149 185 225 268
#     4   9  15  22  33  50  75 110 149 185 222 265
#     4  10  20  34  51  69  91 119 150 185 224 268
#
# _framework density 21.411225999999999
#
# number of rings (size 3 to 8) (size 9 to 14) (size 15 to 20)
#    0.000    3.000    0.000    2.250    0.000    6.750 
#    0.000    1.250    0.000    0.000    0.000    0.000 
#    0.000    1.000    0.000    5.250    0.000    8.750 
#
# Total GULP energy -357315.921802 kJ/mol
# GULP energy per Si atom -5583.061278 kJ/mol
# Density = 2.136249 g / cm^3
# Si number density = 21.411226 Si / 1000 Ang^3
#
#
#
# Elastic Constant Matrix: (Units=GPa)
#
#
# Indices 1 2 3 4 5 6 
#
# 1 195.3091 6.4658 160.8796 0.0000 0.0000 0.0000
# 2 6.4658 64.7264 0.7855 0.0000 0.0000 0.0000
# 3 160.8796 0.7855 233.3499 0.0000 0.0000 0.0000
# 4 0.0000 0.0000 0.0000 32.3457 0.0000 0.0000
# 5 0.0000 0.0000 0.0000 0.0000 32.0774 0.0000
# 6 0.0000 0.0000 0.0000 0.0000 0.0000 -543.4519
#
#
#
# Elastic Compliance Matrix: (Units=1/GPa)
#
#
# Indices 1 2 3 4 5 6 
#
# 1 0.011926 -0.001092 -0.008218 0.000000 0.000000 0.000000
# 2 -0.001092 0.015550 0.000700 0.000000 0.000000 0.000000
# 3 -0.008218 0.000700 0.009949 0.000000 0.000000 0.000000
# 4 0.000000 0.000000 0.000000 0.030916 0.000000 0.000000
# 5 0.000000 0.000000 0.000000 0.000000 0.031175 0.000000
# 6 0.000000 0.000000 0.000000 0.000000 0.000000 -0.001840
#
#
# Mechanical properties :
#
#
# Convention : Reuss Voigt Hill
#
# Bulk Modulus (GPa) = 49.49117 92.18302 70.83709
# Shear Modulus (GPa) = 41.10803 -74.12213 -16.50705
#
# Velocity S-wave (km/s) = 4.38645 -5.89012 -2.77962
# Velocity P-wave (km/s) = 6.98709 1.76379 4.78061
#
# Compressibility (1/GPa) = 0.02020562
#
# Stress axis : x y z
#
# Youngs Moduli (GPa) = 83.85077 64.30785 100.51091
#
# Poissons Ratio (x) = 0.07020 0.82605
# Poissons Ratio (y) = 0.09153 -0.07038
# Poissons Ratio (z) = 0.68913 -0.04503
#
# Static dielectric constant tensor:
#      x y z
#    x 1.747230 0.000000 0.000000 
#    y 0.000000 1.818480 0.000000 
#    z 0.000000 0.000000 1.739940 
# 
# From -- ./inp_files/28622.got.cif
#   From: 2010.05.17/outbox.cif.g08.bks.cpg/sg51_15_cif.got.tgz:28622.got - 2010.06.03 11:52:47.
