data_PCOD9403619
_publ_section_title
;
Structure prediction by ZEFSAII (Michael W. Deem and Ramdas Pophale) SiO2 
 PCOD9403619
Probable space group: P M M A
;
_chemical_formula_sum "Si O2"
_cell_formula_units_Z 40
_cell_length_a 8.419254
_cell_length_b 13.723278
_cell_length_c 15.640003
_cell_angle_alpha 90.000000
_cell_angle_beta 90.000000
_cell_angle_gamma 90.000000
_cell_volume 1807.042243
_symmetry_space_group_name_H-M "P M M A"
_symmetry_group_IT_number 51
_symmetry_cell_setting 'orthorhombic'
loop_
_space_group_symop_operation_xyz
x,y,z
1/2-x,-y,z
1/2+x,-y,-z
-x,y,-z
-x,-y,-z
1/2+x,y,-z
1/2-x,y,z
x,-y,z
loop_
_atom_site_type_symbol
_atom_site_label
_atom_site_fract_x
_atom_site_fract_y
_atom_site_fract_z
Si Si1 0.940756 0.777226 0.408429
Si Si2 0.074774 0.000000 0.221699
Si Si3 0.928207 0.000000 0.389688
Si Si4 0.433230 0.864584 0.909000
Si Si5 0.060903 0.607794 0.282791
Si Si6 0.433130 0.632773 0.906932
O O1 0.750000 0.782954 0.405239
O O2 0.000000 0.738191 0.500000
O O3 0.992264 0.702016 0.333486
O O4 0.000498 0.891473 0.406044
O O5 0.047488 0.907462 0.162327
O O6 0.250000 0.000000 0.261139
O O7 0.932972 0.000000 0.288090
O O8 0.750000 0.000000 0.426429
O O9 0.250000 0.894007 0.896986
O O10 0.437686 0.749261 0.907572
O O11 0.500000 0.896203 0.000000
O O12 0.250000 0.612999 0.292349
O O13 0.006709 0.500000 0.315730
O O14 0.020345 0.607281 0.181451
O O15 0.250000 0.603336 0.900568
O O16 0.500000 0.602574 0.000000
#
# Coordination Sequence:
#
# PCOD9403619 Si02
#       6
#     8   4   4   8   8   8
#     4  11  24  44  71 100 132 169 211 263 322 386
#     4  12  23  32  49  78 113 156 203 253 310 371
#     4  10  23  42  64  94 129 164 203 251 312 379
#     4  10  20  34  51  74 109 153 203 258 313 371
#     4  11  25  44  66  95 132 173 219 270 322 380
#     4  10  21  38  62  90 122 164 212 263 320 380
#
# _framework density 22.135619999999999
#
# number of rings (size 3 to 8) (size 9 to 14) (size 15 to 20)
#    0.000    1.400    0.000    5.100    0.000   11.200 
#    0.000    0.000    0.000    0.000    0.000    0.000 
#    0.000    0.000    0.000    0.000    0.000    0.000 
#
# Total GULP energy -223120.056479 kJ/mol
# GULP energy per Si atom -5578.001412 kJ/mol
# Density = 2.208524 g / cm^3
# Si number density = 22.135620 Si / 1000 Ang^3
#
#
#
# Elastic Constant Matrix: (Units=GPa)
#
#
# Indices 1 2 3 4 5 6 
#
# 1 81.9672 29.0626 13.4786 0.0000 0.0000 0.0000
# 2 29.0626 187.7613 47.3964 0.0000 0.0000 0.0000
# 3 13.4786 47.3964 121.7496 0.0000 0.0000 0.0000
# 4 0.0000 0.0000 0.0000 -15.7310 0.0000 0.0000
# 5 0.0000 0.0000 0.0000 0.0000 34.1227 0.0000
# 6 0.0000 0.0000 0.0000 0.0000 0.0000 23.3297
#
#
#
# Elastic Compliance Matrix: (Units=1/GPa)
#
#
# Indices 1 2 3 4 5 6 
#
# 1 0.012966 -0.001824 -0.000725 0.000000 0.000000 0.000000
# 2 -0.001824 0.006163 -0.002197 0.000000 0.000000 0.000000
# 3 -0.000725 -0.002197 0.009149 0.000000 0.000000 0.000000
# 4 0.000000 0.000000 0.000000 -0.063569 0.000000 0.000000
# 5 0.000000 0.000000 0.000000 0.000000 0.029306 0.000000
# 6 0.000000 0.000000 0.000000 0.000000 0.000000 0.042864
#
#
# Mechanical properties :
#
#
# Convention : Reuss Voigt Hill
#
# Bulk Modulus (GPa) = 53.23374 63.48370 58.35872
# Shear Modulus (GPa) = 94.99559 28.44698 61.72128
#
# Velocity S-wave (km/s) = 6.55808 3.58875 5.28619
# Velocity P-wave (km/s) = 9.02473 6.77598 7.97996
#
# Compressibility (1/GPa) = 0.01878508
#
# Stress axis : x y z
#
# Youngs Moduli (GPa) = 77.12515 162.26230 109.29832
#
# Poissons Ratio (x) = 0.29594 0.07929
# Poissons Ratio (y) = 0.14066 0.24016
# Poissons Ratio (z) = 0.05595 0.35653
#
# Static dielectric constant tensor:
#      x y z
#    x 1.808960 0.000000 0.000000 
#    y 0.000000 1.877330 0.000000 
#    z 0.000000 0.000000 1.793840 
# 
# From -- ./inp_files/20573.got.cif
#   From: 2010.05.17/outbox.cif.g08.bks.cpg/sg51_11_cif.got.tgz:20573.got - 2010.06.03 11:52:47.
