data_PCOD9403937
_publ_section_title
;
Structure prediction by ZEFSAII (Michael W. Deem and Ramdas Pophale) SiO2 
 PCOD9403937
Probable space group: P M M A
;
_chemical_formula_sum "Si O2"
_cell_formula_units_Z 48
_cell_length_a 15.111567
_cell_length_b 16.960169
_cell_length_c 7.550823
_cell_angle_alpha 90.000000
_cell_angle_beta 90.000000
_cell_angle_gamma 90.000000
_cell_volume 1935.236143
_symmetry_space_group_name_H-M "P M M A"
_symmetry_group_IT_number 51
_symmetry_cell_setting 'orthorhombic'
loop_
_space_group_symop_operation_xyz
x,y,z
1/2-x,-y,z
1/2+x,-y,-z
-x,y,-z
-x,-y,-z
1/2+x,y,-z
1/2-x,y,z
x,-y,z
loop_
_atom_site_type_symbol
_atom_site_label
_atom_site_fract_x
_atom_site_fract_y
_atom_site_fract_z
Si Si1 0.407690 0.753520 0.402350
Si Si2 0.592506 0.086763 0.101785
Si Si3 0.894828 0.584188 0.979798
Si Si4 0.848224 0.748178 0.965034
Si Si5 0.605046 0.414538 0.554824
Si Si6 0.149697 0.083791 0.520677
O O1 0.500000 0.762218 0.500000
O O2 0.419709 0.742729 0.192186
O O3 0.363440 0.674726 0.484737
O O4 0.358921 0.836496 0.415003
O O5 0.583612 0.086444 0.313923
O O6 0.633031 0.000000 0.057872
O O7 0.500000 0.090109 0.000000
O O8 0.641533 0.168558 0.060139
O O9 0.861680 0.500000 0.050992
O O10 0.858752 0.664725 0.064055
O O11 0.879299 0.583079 0.767595
O O12 0.000000 0.584815 0.000000
O O13 0.750000 0.745630 0.884057
O O14 0.500000 0.413227 0.500000
O O15 0.638290 0.500000 0.487487
O O16 0.250000 0.082525 0.594501
O O17 0.136920 0.000000 0.423742
#
# Coordination Sequence:
#
# PCOD9403937 Si02
#       6
#     8   8   8   8   8   8
#     4  10  20  34  54  79 106 141 183 223 261 313
#     4  10  21  38  59  80 103 136 179 224 269 324
#     4   9  18  33  53  76 104 141 182 220 260 313
#     4  11  22  34  52  81 114 143 175 223 281 331
#     4   8  15  29  49  75 103 130 167 214 258 299
#     4  10  21  37  55  75 103 139 175 215 269 326
#
# _framework density 24.803176000000001
#
# number of rings (size 3 to 8) (size 9 to 14) (size 15 to 20)
#    0.000    2.333    0.000    2.500    0.000    5.000 
#    0.000    0.000    0.000    1.500    0.000    0.000 
#    0.000    6.667    0.000    0.000    0.000    0.000 
#
# Total GULP energy -267593.752751 kJ/mol
# GULP energy per Si atom -5574.869849 kJ/mol
# Density = 2.474672 g / cm^3
# Si number density = 24.803176 Si / 1000 Ang^3
#
#
#
# Elastic Constant Matrix: (Units=GPa)
#
#
# Indices 1 2 3 4 5 6 
#
# 1 40.8617 29.8126 -13.0954 0.0000 0.0000 0.0000
# 2 29.8126 333.4440 26.3128 0.0000 0.0000 0.0000
# 3 -13.0954 26.3128 35.9583 0.0000 0.0000 0.0000
# 4 0.0000 0.0000 0.0000 2.8030 0.0000 0.0000
# 5 0.0000 0.0000 0.0000 0.0000 16.1668 0.0000
# 6 0.0000 0.0000 0.0000 0.0000 0.0000 28.3085
#
#
#
# Elastic Compliance Matrix: (Units=1/GPa)
#
#
# Indices 1 2 3 4 5 6 
#
# 1 0.032100 -0.004025 0.014635 0.000000 0.000000 0.000000
# 2 -0.004025 0.003687 -0.004164 0.000000 0.000000 0.000000
# 3 0.014635 -0.004164 0.036187 0.000000 0.000000 0.000000
# 4 0.000000 0.000000 0.000000 0.356757 0.000000 0.000000
# 5 0.000000 0.000000 0.000000 0.000000 0.061855 0.000000
# 6 0.000000 0.000000 0.000000 0.000000 0.000000 0.035325
#
#
# Mechanical properties :
#
#
# Convention : Reuss Voigt Hill
#
# Bulk Modulus (GPa) = 11.78315 55.14713 33.46514
# Shear Modulus (GPa) = 9.23689 33.93792 21.58741
#
# Velocity S-wave (km/s) = 1.93188 3.70305 2.95337
# Velocity P-wave (km/s) = 3.12045 6.36912 5.01512
#
# Compressibility (1/GPa) = 0.08486692
#
# Stress axis : x y z
#
# Youngs Moduli (GPa) = 31.15296 271.18915 27.63420
#
# Poissons Ratio (x) = 1.09151 -0.40444
# Poissons Ratio (y) = 0.12539 0.11507
# Poissons Ratio (z) = -0.45594 1.12927
#
# Static dielectric constant tensor:
#      x y z
#    x 2.003930 0.000000 0.000000 
#    y 0.000000 2.084640 0.000000 
#    z 0.000000 0.000000 1.956790 
# 
# From -- ./inp_files/8209.got.cif
#   From: 2010.05.17/outbox.cif.g08.bks.cpg/sg51_5_cif.got.tgz:8209.got - 2010.06.03 11:52:47.
