data_PCOD9403043
_publ_section_title
;
Structure prediction by ZEFSAII (Michael W. Deem and Ramdas Pophale) SiO2 
 PCOD9403043
Probable space group: P M M A
;
_chemical_formula_sum "Si O2"
_cell_formula_units_Z 48
_cell_length_a 7.650336
_cell_length_b 14.143175
_cell_length_c 24.958606
_cell_angle_alpha 90.000000
_cell_angle_beta 90.000000
_cell_angle_gamma 90.000000
_cell_volume 2700.522189
_symmetry_space_group_name_H-M "P M M A"
_symmetry_group_IT_number 51
_symmetry_cell_setting 'orthorhombic'
loop_
_space_group_symop_operation_xyz
x,y,z
1/2-x,-y,z
1/2+x,-y,-z
-x,y,-z
-x,-y,-z
1/2+x,y,-z
1/2-x,y,z
x,-y,z
loop_
_atom_site_type_symbol
_atom_site_label
_atom_site_fract_x
_atom_site_fract_y
_atom_site_fract_z
Si Si1 0.462332 0.200573 0.784195
Si Si2 0.463036 0.110709 0.673985
Si Si3 0.957759 0.895777 0.894613
Si Si4 0.458227 0.698557 0.060335
Si Si5 0.044625 0.603605 0.831339
Si Si6 0.459349 0.891284 0.557499
O O1 0.250000 0.202018 0.784036
O O2 0.524048 0.166060 0.726290
O O3 0.514719 0.130367 0.832216
O O4 0.527556 0.305119 0.800188
O O5 0.250000 0.113759 0.675028
O O6 0.519672 0.147318 0.615161
O O7 0.511235 0.000000 0.678047
O O8 0.750000 0.899426 0.904383
O O9 0.027100 0.805071 0.927242
O O10 0.030448 0.000000 0.906808
O O11 0.250000 0.699989 0.067276
O O12 0.529823 0.629759 0.105985
O O13 0.500000 0.670978 0.000000
O O14 0.250000 0.599545 0.818089
O O15 0.968211 0.500000 0.820742
O O16 0.500000 0.845764 0.500000
O O17 0.250000 0.895673 0.560334
O O18 0.526357 0.000000 0.555386
#
# Coordination Sequence:
#
# PCOD9403043 Si02
#       6
#     8   8   8   8   8   8
#     4   9  16  27  44  63  81 104 136 168 197 238
#     4   8  13  21  35  56  80 105 133 164 195 227
#     4   9  18  31  44  60  85 112 133 159 197 234
#     4  10  20  33  48  65  84 106 133 163 195 235
#     4   9  18  32  48  65  84 104 127 161 205 246
#     4   8  13  21  32  47  71 103 135 164 192 222
#
# _framework density 17.774339000000001
#
# number of rings (size 3 to 8) (size 9 to 14) (size 15 to 20)
#    0.000    3.167    0.000    2.000    0.000    2.667 
#    0.000    0.833    0.000    3.000    0.000    0.000 
#    0.000    0.667    0.000    0.500    0.000    1.000 
#
# Total GULP energy -267327.001809 kJ/mol
# GULP energy per Si atom -5569.312538 kJ/mol
# Density = 1.773388 g / cm^3
# Si number density = 17.774339 Si / 1000 Ang^3
#
#
#
# Elastic Constant Matrix: (Units=GPa)
#
#
# Indices 1 2 3 4 5 6 
#
# 1 32.3724 -1.1530 -13.5759 0.0000 0.0000 0.0000
# 2 -1.1530 62.8008 7.3843 0.0000 0.0000 0.0000
# 3 -13.5759 7.3843 101.8478 0.0000 0.0000 0.0000
# 4 0.0000 0.0000 0.0000 -29.5341 0.0000 0.0000
# 5 0.0000 0.0000 0.0000 0.0000 15.9223 0.0000
# 6 0.0000 0.0000 0.0000 0.0000 0.0000 7.2975
#
#
#
# Elastic Compliance Matrix: (Units=1/GPa)
#
#
# Indices 1 2 3 4 5 6 
#
# 1 0.032720 0.000089 0.004355 0.000000 0.000000 0.000000
# 2 0.000089 0.016061 -0.001153 0.000000 0.000000 0.000000
# 3 0.004355 -0.001153 0.010483 0.000000 0.000000 0.000000
# 4 0.000000 0.000000 0.000000 -0.033859 0.000000 0.000000
# 5 0.000000 0.000000 0.000000 0.000000 0.062805 0.000000
# 6 0.000000 0.000000 0.000000 0.000000 0.000000 0.137033
#
#
# Mechanical properties :
#
#
# Convention : Reuss Voigt Hill
#
# Bulk Modulus (GPa) = 15.18711 20.25909 17.72310
# Shear Modulus (GPa) = 20.78062 12.36150 16.57106
#
# Velocity S-wave (km/s) = 3.42297 2.64004 3.05668
# Velocity P-wave (km/s) = 4.91785 4.55145 4.73820
#
# Compressibility (1/GPa) = 0.06584530
#
# Stress axis : x y z
#
# Youngs Moduli (GPa) = 30.56231 62.26452 95.39577
#
# Poissons Ratio (x) = -0.00552 -0.41545
# Poissons Ratio (y) = -0.00271 0.10995
# Poissons Ratio (z) = -0.13310 0.07177
#
# Static dielectric constant tensor:
#      x y z
#    x 1.667810 0.000000 0.000000 
#    y 0.000000 1.615560 0.000000 
#    z 0.000000 0.000000 1.630980 
# 
# From -- ./inp_files/32937.got.cif
#   From: 2010.05.17/outbox.cif.g08.bks.cpg/sg51_17_cif.got.tgz:32937.got - 2010.06.03 11:52:47.
