data_PCOD9403990
_publ_section_title
;
Structure prediction by ZEFSAII (Michael W. Deem and Ramdas Pophale) SiO2 
 PCOD9403990
Probable space group: P M M A
;
_chemical_formula_sum "Si O2"
_cell_formula_units_Z 64
_cell_length_a 29.311679
_cell_length_b 8.486377
_cell_length_c 12.725266
_cell_angle_alpha 90.000000
_cell_angle_beta 90.000000
_cell_angle_gamma 90.000000
_cell_volume 3165.409389
_symmetry_space_group_name_H-M "P M M A"
_symmetry_group_IT_number 51
_symmetry_cell_setting 'orthorhombic'
loop_
_space_group_symop_operation_xyz
x,y,z
1/2-x,-y,z
1/2+x,-y,-z
-x,y,-z
-x,-y,-z
1/2+x,y,-z
1/2-x,y,z
x,-y,z
loop_
_atom_site_type_symbol
_atom_site_label
_atom_site_fract_x
_atom_site_fract_y
_atom_site_fract_z
Si Si1 0.342408 0.811396 0.747137
Si Si2 0.129355 0.310142 0.138539
Si Si3 0.932676 0.683661 0.533808
Si Si4 0.959019 0.186743 0.761150
Si Si5 0.665128 0.184916 0.485665
Si Si6 0.054033 0.190328 0.693547
Si Si7 0.799185 0.312184 0.687914
Si Si8 0.698370 0.689067 0.040114
O O1 0.320385 0.778959 0.633087
O O2 0.395808 0.762710 0.734542
O O3 0.316954 0.730007 0.842372
O O4 0.341508 0.000000 0.764212
O O5 0.129304 0.500000 0.136778
O O6 0.077807 0.256751 0.158685
O O7 0.159455 0.259254 0.239075
O O8 0.158459 0.252890 0.038415
O O9 0.942746 0.500000 0.547369
O O10 0.944750 0.771387 0.641449
O O11 0.879118 0.712585 0.513736
O O12 0.953934 0.745947 0.424692
O O13 0.011806 0.240489 0.766527
O O14 0.957978 0.000000 0.773957
O O15 0.699517 0.223394 0.577888
O O16 0.652028 0.000000 0.487070
O O17 0.054167 0.000000 0.686515
O O18 0.750000 0.288223 0.741058
O O19 0.803872 0.500000 0.669956
O O20 0.750000 0.748416 0.019291
O O21 0.699955 0.500000 0.027586
#
# Coordination Sequence:
#
# PCOD9403990 Si02
#       8
#     8   8   8   8   8   8   8   8
#     4   9  20  39  60  82 112 148 190 238 285 334
#     4  10  21  38  58  82 114 149 189 238 288 339
#     4  11  20  31  51  81 116 153 192 233 276 330
#     4  11  21  34  55  82 115 154 193 232 280 340
#     4  10  20  35  54  79 114 152 188 231 284 340
#     4   9  20  37  55  80 116 156 193 233 283 337
#     4  10  20  34  54  80 111 147 184 228 289 353
#     4  10  22  41  64  87 111 145 190 239 292 347
#
# _framework density 20.218554999999999
#
# number of rings (size 3 to 8) (size 9 to 14) (size 15 to 20)
#    0.000    2.000    1.250    3.375    0.000    8.000 
#    0.000    3.125    0.000    6.000    0.000    0.000 
#    0.000    0.000    0.000    0.000    0.000    0.000 
#
# Total GULP energy -357137.887362 kJ/mol
# GULP energy per Si atom -5580.279490 kJ/mol
# Density = 2.017254 g / cm^3
# Si number density = 20.218555 Si / 1000 Ang^3
#
#
#
# Elastic Constant Matrix: (Units=GPa)
#
#
# Indices 1 2 3 4 5 6 
#
# 1 35.9148 2.5476 1.8055 0.0000 0.0000 0.0000
# 2 2.5476 10.7378 3.3027 0.0000 0.0000 0.0000
# 3 1.8055 3.3027 59.9167 0.0000 0.0000 0.0000
# 4 0.0000 0.0000 0.0000 36.1277 0.0000 0.0000
# 5 0.0000 0.0000 0.0000 0.0000 21.5752 0.0000
# 6 0.0000 0.0000 0.0000 0.0000 0.0000 22.9897
#
#
#
# Elastic Compliance Matrix: (Units=1/GPa)
#
#
# Indices 1 2 3 4 5 6 
#
# 1 0.028335 -0.006571 -0.000492 0.000000 0.000000 0.000000
# 2 -0.006571 0.096259 -0.005108 0.000000 0.000000 0.000000
# 3 -0.000492 -0.005108 0.016986 0.000000 0.000000 0.000000
# 4 0.000000 0.000000 0.000000 0.027680 0.000000 0.000000
# 5 0.000000 0.000000 0.000000 0.000000 0.046349 0.000000
# 6 0.000000 0.000000 0.000000 0.000000 0.000000 0.043498
#
#
# Mechanical properties :
#
#
# Convention : Reuss Voigt Hill
#
# Bulk Modulus (GPa) = 8.52965 13.54232 11.03598
# Shear Modulus (GPa) = 15.50254 22.73275 19.11764
#
# Velocity S-wave (km/s) = 2.77203 3.35677 3.07831
# Velocity P-wave (km/s) = 3.80439 4.66223 4.25498
#
# Compressibility (1/GPa) = 0.11723816
#
# Stress axis : x y z
#
# Youngs Moduli (GPa) = 35.29265 10.38862 58.87127
#
# Poissons Ratio (x) = 0.06827 0.02894
# Poissons Ratio (y) = 0.23192 0.30071
# Poissons Ratio (z) = 0.01735 0.05306
#
# Static dielectric constant tensor:
#      x y z
#    x 1.796220 0.000000 0.000000 
#    y 0.000000 1.697200 0.000000 
#    z 0.000000 0.000000 1.703430 
# 
# From -- ./inp_files/19597.got.cif
#   From: 2010.05.17/outbox.cif.g08.bks.cpg/sg51_10_cif.got.tgz:19597.got - 2010.06.03 11:52:47.
