data_PCOD9403015
_publ_section_title
;
Structure prediction by ZEFSAII (Michael W. Deem and Ramdas Pophale) SiO2 
 PCOD9403015
Probable space group: P M M A
;
_chemical_formula_sum "Si O2"
_cell_formula_units_Z 56
_cell_length_a 16.425071
_cell_length_b 18.490071
_cell_length_c 9.466277
_cell_angle_alpha 90.000000
_cell_angle_beta 90.000000
_cell_angle_gamma 90.000000
_cell_volume 2874.915226
_symmetry_space_group_name_H-M "P M M A"
_symmetry_group_IT_number 51
_symmetry_cell_setting 'orthorhombic'
loop_
_space_group_symop_operation_xyz
x,y,z
1/2-x,-y,z
1/2+x,-y,-z
-x,y,-z
-x,-y,-z
1/2+x,y,-z
1/2-x,y,z
x,-y,z
loop_
_atom_site_type_symbol
_atom_site_label
_atom_site_fract_x
_atom_site_fract_y
_atom_site_fract_z
Si Si1 0.347323 0.915105 0.687797
Si Si2 0.844196 0.258957 0.812936
Si Si3 0.156761 0.700976 0.714469
Si Si4 0.346039 0.580557 0.222758
Si Si5 0.585735 0.806763 0.078055
Si Si6 0.095586 0.196501 0.474646
Si Si7 0.411049 0.416823 0.536020
O O1 0.250000 0.904275 0.699074
O O2 0.389518 0.871329 0.816342
O O3 0.377014 0.880247 0.539939
O O4 0.364933 0.000000 0.694908
O O5 0.750000 0.266777 0.772662
O O6 0.876815 0.341596 0.835093
O O7 0.887444 0.216721 0.686044
O O8 0.852361 0.210828 0.952170
O O9 0.250000 0.706200 0.764718
O O10 0.093666 0.735949 0.823235
O O11 0.145697 0.747412 0.571451
O O12 0.132287 0.622047 0.664899
O O13 0.250000 0.577761 0.190738
O O14 0.380006 0.500000 0.182822
O O15 0.359687 0.586927 0.391780
O O16 0.500000 0.816388 0.000000
O O17 0.000000 0.204140 0.500000
O O18 0.500000 0.384233 0.500000
O O19 0.423883 0.500000 0.573026
#
# Coordination Sequence:
#
# PCOD9403015 Si02
#       7
#     8   8   8   8   8   8   8
#     4  10  22  43  66  87 117 155 190 229 287 359
#     4  11  20  34  57  84 114 150 193 242 286 341
#     4  11  21  37  58  82 116 159 203 245 292 354
#     4   9  18  31  50  78 111 149 190 236 290 338
#     4  11  24  39  59  85 116 153 193 241 292 350
#     4  11  21  35  59  88 118 147 187 238 287 342
#     4  10  20  32  53  84 117 150 196 253 303 345
#
# _framework density 19.478835
#
# number of rings (size 3 to 8) (size 9 to 14) (size 15 to 20)
#    0.000    1.571    1.429    6.000    2.000    1.429 
#    0.000    1.429    0.000    5.143    0.000    0.000 
#    0.000    0.000    0.000    0.000    0.000    0.000 
#
# Total GULP energy -312330.589934 kJ/mol
# GULP energy per Si atom -5577.331963 kJ/mol
# Density = 1.943450 g / cm^3
# Si number density = 19.478835 Si / 1000 Ang^3
#
#
#
# Elastic Constant Matrix: (Units=GPa)
#
#
# Indices 1 2 3 4 5 6 
#
# 1 63.6392 30.3337 -4.7692 0.0000 0.0000 0.0000
# 2 30.3337 119.2043 25.9622 0.0000 0.0000 0.0000
# 3 -4.7692 25.9622 52.0563 0.0000 0.0000 0.0000
# 4 0.0000 0.0000 0.0000 20.2441 0.0000 0.0000
# 5 0.0000 0.0000 0.0000 0.0000 9.3067 0.0000
# 6 0.0000 0.0000 0.0000 0.0000 0.0000 15.7599
#
#
#
# Elastic Compliance Matrix: (Units=1/GPa)
#
#
# Indices 1 2 3 4 5 6 
#
# 1 0.018821 -0.005794 0.004614 0.000000 0.000000 0.000000
# 2 -0.005794 0.011195 -0.006114 0.000000 0.000000 0.000000
# 3 0.004614 -0.006114 0.022682 0.000000 0.000000 0.000000
# 4 0.000000 0.000000 0.000000 0.049397 0.000000 0.000000
# 5 0.000000 0.000000 0.000000 0.000000 0.107450 0.000000
# 6 0.000000 0.000000 0.000000 0.000000 0.000000 0.063452
#
#
# Mechanical properties :
#
#
# Convention : Reuss Voigt Hill
#
# Bulk Modulus (GPa) = 26.24009 37.55037 31.89523
# Shear Modulus (GPa) = 16.65059 21.28701 18.96880
#
# Velocity S-wave (km/s) = 2.92688 3.30938 3.12399
# Velocity P-wave (km/s) = 4.99224 5.82426 5.42423
#
# Compressibility (1/GPa) = 0.03810962
#
# Stress axis : x y z
#
# Youngs Moduli (GPa) = 53.13136 89.32481 44.08768
#
# Poissons Ratio (x) = 0.51758 -0.20343
# Poissons Ratio (y) = 0.30786 0.26956
# Poissons Ratio (z) = -0.24516 0.54615
#
# Static dielectric constant tensor:
#      x y z
#    x 1.717180 0.000000 0.000000 
#    y 0.000000 1.729320 0.000000 
#    z 0.000000 0.000000 1.677360 
# 
# From -- ./inp_files/8579.got.cif
#   From: 2010.05.17/outbox.cif.g08.bks.cpg/sg51_5_cif.got.tgz:8579.got - 2010.06.03 11:52:47.
