data_PCOD9403050
_publ_section_title
;
Structure prediction by ZEFSAII (Michael W. Deem and Ramdas Pophale) SiO2 
 PCOD9403050
Probable space group: P M M A
;
_chemical_formula_sum "Si O2"
_cell_formula_units_Z 64
_cell_length_a 23.925068
_cell_length_b 8.948182
_cell_length_c 17.312508
_cell_angle_alpha 90.000000
_cell_angle_beta 90.000000
_cell_angle_gamma 90.000000
_cell_volume 3706.363213
_symmetry_space_group_name_H-M "P M M A"
_symmetry_group_IT_number 51
_symmetry_cell_setting 'orthorhombic'
loop_
_space_group_symop_operation_xyz
x,y,z
1/2-x,-y,z
1/2+x,-y,-z
-x,y,-z
-x,-y,-z
1/2+x,y,-z
1/2-x,y,z
x,-y,z
loop_
_atom_site_type_symbol
_atom_site_label
_atom_site_fract_x
_atom_site_fract_y
_atom_site_fract_z
Si Si1 0.184295 0.822177 0.803291
Si Si2 0.990297 0.679256 0.413393
Si Si3 0.568815 0.679724 0.726594
Si Si4 0.891933 0.322769 0.067198
Si Si5 0.311375 0.678875 0.224826
Si Si6 0.813362 0.821390 0.943928
Si Si7 0.902817 0.828949 0.314063
Si Si8 0.484281 0.172812 0.836581
O O1 0.250000 0.798825 0.806225
O O2 0.151892 0.724354 0.865801
O O3 0.157691 0.789277 0.719571
O O4 0.173109 0.000000 0.819028
O O5 0.993281 0.500000 0.415425
O O6 0.036267 0.731300 0.350395
O O7 0.000000 0.735995 0.500000
O O8 0.931001 0.727453 0.378144
O O9 0.562825 0.500000 0.731002
O O10 0.634165 0.717656 0.725843
O O11 0.539123 0.748085 0.802436
O O12 0.896988 0.500000 0.061180
O O13 0.863090 0.253879 0.991670
O O14 0.951061 0.252771 0.094210
O O15 0.250000 0.711277 0.258918
O O16 0.313725 0.500000 0.209926
O O17 0.315274 0.763916 0.143604
O O18 0.750000 0.783776 0.973690
O O19 0.818727 0.000000 0.947895
O O20 0.941927 0.821597 0.237193
O O21 0.902919 0.000000 0.340857
O O22 0.494912 0.000000 0.855240
#
# Coordination Sequence:
#
# PCOD9403050 Si02
#       8
#     8   8   8   8   8   8   8   8
#     4   9  17  29  44  63  90 125 162 196 231 274
#     4   9  17  29  47  71  97 123 149 181 225 275
#     4   9  17  31  51  73  96 122 154 192 234 282
#     4  11  20  29  44  67  95 125 160 202 242 280
#     4   9  18  33  52  72  93 119 154 196 240 285
#     4  10  20  33  48  66  91 124 161 202 246 287
#     4   8  15  27  43  64  89 118 152 188 224 264
#     4   9  17  30  47  67  93 124 157 193 236 283
#
# _framework density 17.267600999999999
#
# number of rings (size 3 to 8) (size 9 to 14) (size 15 to 20)
#    0.000    2.750    0.000    3.000    0.000    6.250 
#    0.000    0.625    0.000    4.500    0.000    1.750 
#    0.000    0.000    0.000    0.000    0.000    0.000 
#
# Total GULP energy -356599.846437 kJ/mol
# GULP energy per Si atom -5571.872601 kJ/mol
# Density = 1.722830 g / cm^3
# Si number density = 17.267601 Si / 1000 Ang^3
#
#
#
# Elastic Constant Matrix: (Units=GPa)
#
#
# Indices 1 2 3 4 5 6 
#
# 1 77.3091 21.0272 15.1467 0.0000 0.0000 0.0000
# 2 21.0272 37.6385 15.1224 0.0000 0.0000 0.0000
# 3 15.1467 15.1224 37.9903 0.0000 0.0000 0.0000
# 4 0.0000 0.0000 0.0000 0.6431 0.0000 0.0000
# 5 0.0000 0.0000 0.0000 0.0000 17.3392 0.0000
# 6 0.0000 0.0000 0.0000 0.0000 0.0000 21.2495
#
#
#
# Elastic Compliance Matrix: (Units=1/GPa)
#
#
# Indices 1 2 3 4 5 6 
#
# 1 0.015587 -0.007393 -0.003272 0.000000 0.000000 0.000000
# 2 -0.007393 0.035134 -0.011038 0.000000 0.000000 0.000000
# 3 -0.003272 -0.011038 0.032020 0.000000 0.000000 0.000000
# 4 0.000000 0.000000 0.000000 1.554998 0.000000 0.000000
# 5 0.000000 0.000000 0.000000 0.000000 0.057673 0.000000
# 6 0.000000 0.000000 0.000000 0.000000 0.000000 0.047060
#
#
# Mechanical properties :
#
#
# Convention : Reuss Voigt Hill
#
# Bulk Modulus (GPa) = 25.42191 28.39230 26.90711
# Shear Modulus (GPa) = 2.77934 14.62246 8.70090
#
# Velocity S-wave (km/s) = 1.27006 2.91317 2.24718
# Velocity P-wave (km/s) = 4.11157 5.27196 4.72751
#
# Compressibility (1/GPa) = 0.03933614
#
# Stress axis : x y z
#
# Youngs Moduli (GPa) = 64.15611 28.46272 31.23003
#
# Poissons Ratio (x) = 0.21044 0.10217
# Poissons Ratio (y) = 0.47433 0.34470
# Poissons Ratio (z) = 0.20989 0.31416
#
# Static dielectric constant tensor:
#      x y z
#    x 1.623770 0.000000 0.000000 
#    y 0.000000 1.582370 0.000000 
#    z 0.000000 0.000000 1.580150 
# 
# From -- ./inp_files/30933.got.cif
#   From: 2010.05.17/outbox.cif.g08.bks.cpg/sg51_16_cif.got.tgz:30933.got - 2010.06.03 11:52:47.
