data_PCOD9403249
_publ_section_title
;
Structure prediction by ZEFSAII (Michael W. Deem and Ramdas Pophale) SiO2 
 PCOD9403249
Probable space group: P M M A
;
_chemical_formula_sum "Si O2"
_cell_formula_units_Z 64
_cell_length_a 15.704277
_cell_length_b 9.228488
_cell_length_c 23.872121
_cell_angle_alpha 90.000000
_cell_angle_beta 90.000000
_cell_angle_gamma 90.000000
_cell_volume 3459.708479
_symmetry_space_group_name_H-M "P M M A"
_symmetry_group_IT_number 51
_symmetry_cell_setting 'orthorhombic'
loop_
_space_group_symop_operation_xyz
x,y,z
1/2-x,-y,z
1/2+x,-y,-z
-x,y,-z
-x,-y,-z
1/2+x,y,-z
1/2-x,y,z
x,-y,z
loop_
_atom_site_type_symbol
_atom_site_label
_atom_site_fract_x
_atom_site_fract_y
_atom_site_fract_z
Si Si1 0.654705 0.827537 0.186509
Si Si2 0.346780 0.673314 0.570283
Si Si3 0.348795 0.163858 0.026686
Si Si4 0.597446 0.334783 0.078687
Si Si5 0.349317 0.827595 0.451128
Si Si6 0.406435 0.335393 0.128273
Si Si7 0.506246 0.325919 0.760404
Si Si8 0.019983 0.673506 0.368174
O O1 0.750000 0.798334 0.208008
O O2 0.646641 0.761353 0.124219
O O3 0.581010 0.753014 0.222698
O O4 0.641741 0.000000 0.184185
O O5 0.250000 0.707971 0.589440
O O6 0.349731 0.500000 0.559961
O O7 0.362466 0.756008 0.512074
O O8 0.423122 0.707758 0.612742
O O9 0.250000 0.162557 0.009858
O O10 0.355304 0.228007 0.088917
O O11 0.382262 0.000000 0.025036
O O12 0.395871 0.264996 0.982190
O O13 0.629206 0.500000 0.077829
O O14 0.500688 0.337721 0.100665
O O15 0.250000 0.801336 0.435877
O O16 0.413653 0.756215 0.407350
O O17 0.362566 0.000000 0.454395
O O18 0.372520 0.500000 0.126535
O O19 0.423368 0.290288 0.192369
O O20 0.492494 0.500000 0.764621
O O21 0.531402 0.291069 0.697157
O O22 0.031610 0.500000 0.375116
#
# Coordination Sequence:
#
# PCOD9403249 Si02
#       8
#     8   8   8   8   8   8   8   8
#     4  10  20  33  50  75 107 140 173 210 254 307
#     4   9  18  33  54  82 115 147 178 215 262 318
#     4  11  23  35  49  74 103 128 160 204 254 309
#     4  10  20  34  54  78 101 128 165 207 253 308
#     4  10  21  36  54  79 111 146 183 223 270 321
#     4   9  19  36  54  72  96 128 166 205 248 301
#     4   9  20  37  55  76 102 134 176 220 259 306
#     4  10  20  35  57  83 109 141 182 226 271 317
#
# _framework density 18.498667999999999
#
# number of rings (size 3 to 8) (size 9 to 14) (size 15 to 20)
#    0.000    2.250    0.000    3.375    0.000   11.250 
#    0.000    1.875    0.000    5.250    0.000    0.000 
#    0.000    0.000    0.000    0.000    0.000    0.000 
#
# Total GULP energy -357177.449659 kJ/mol
# GULP energy per Si atom -5580.897651 kJ/mol
# Density = 1.845656 g / cm^3
# Si number density = 18.498668 Si / 1000 Ang^3
#
#
#
# Elastic Constant Matrix: (Units=GPa)
#
#
# Indices 1 2 3 4 5 6 
#
# 1 34.3044 13.4301 27.1667 0.0000 0.0000 0.0000
# 2 13.4301 37.0855 24.4119 0.0000 0.0000 0.0000
# 3 27.1667 24.4119 102.4457 0.0000 0.0000 0.0000
# 4 0.0000 0.0000 0.0000 2.0232 0.0000 0.0000
# 5 0.0000 0.0000 0.0000 0.0000 12.2677 0.0000
# 6 0.0000 0.0000 0.0000 0.0000 0.0000 27.0687
#
#
#
# Elastic Compliance Matrix: (Units=1/GPa)
#
#
# Indices 1 2 3 4 5 6 
#
# 1 0.039135 -0.008707 -0.008303 0.000000 0.000000 0.000000
# 2 -0.008707 0.033918 -0.005774 0.000000 0.000000 0.000000
# 3 -0.008303 -0.005774 0.013339 0.000000 0.000000 0.000000
# 4 0.000000 0.000000 0.000000 0.494255 0.000000 0.000000
# 5 0.000000 0.000000 0.000000 0.000000 0.081515 0.000000
# 6 0.000000 0.000000 0.000000 0.000000 0.000000 0.036943
#
#
# Mechanical properties :
#
#
# Convention : Reuss Voigt Hill
#
# Bulk Modulus (GPa) = 24.49456 33.76143 29.12799
# Shear Modulus (GPa) = 6.59387 15.52705 11.06046
#
# Velocity S-wave (km/s) = 1.89004 2.90031 2.44786
# Velocity P-wave (km/s) = 4.24653 5.43195 4.87540
#
# Compressibility (1/GPa) = 0.04082540
#
# Stress axis : x y z
#
# Youngs Moduli (GPa) = 25.55259 29.48263 74.96872
#
# Poissons Ratio (x) = 0.25669 0.62248
# Poissons Ratio (y) = 0.22248 0.43284
# Poissons Ratio (z) = 0.21217 0.17022
#
# Static dielectric constant tensor:
#      x y z
#    x 1.648620 0.000000 0.000000 
#    y 0.000000 1.627640 0.000000 
#    z 0.000000 0.000000 1.624670 
# 
# From -- ./inp_files/35769.got.cif
#   From: 2010.05.17/outbox.cif.g08.bks.cpg/sg51_18_cif.got.tgz:35769.got - 2010.06.03 11:52:47.
