data_PCOD9403196
_publ_section_title
;
Structure prediction by ZEFSAII (Michael W. Deem and Ramdas Pophale) SiO2 
 PCOD9403196
Probable space group: P M M A
;
_chemical_formula_sum "Si O2"
_cell_formula_units_Z 64
_cell_length_a 8.703550
_cell_length_b 20.270141
_cell_length_c 20.744206
_cell_angle_alpha 90.000000
_cell_angle_beta 90.000000
_cell_angle_gamma 90.000000
_cell_volume 3659.738163
_symmetry_space_group_name_H-M "P M M A"
_symmetry_group_IT_number 51
_symmetry_cell_setting 'orthorhombic'
loop_
_space_group_symop_operation_xyz
x,y,z
1/2-x,-y,z
1/2+x,-y,-z
-x,y,-z
-x,-y,-z
1/2+x,y,-z
1/2-x,y,z
x,-y,z
loop_
_atom_site_type_symbol
_atom_site_label
_atom_site_fract_x
_atom_site_fract_y
_atom_site_fract_z
Si Si1 0.065234 0.577356 0.672904
Si Si2 0.065135 0.077183 0.326149
Si Si3 0.933822 0.828271 0.069786
Si Si4 0.937141 0.575203 0.179619
Si Si5 0.564783 0.076237 0.822018
Si Si6 0.433066 0.822617 0.570345
Si Si7 0.932986 0.321786 0.570254
Si Si8 0.064414 0.675665 0.930288
O O1 0.250000 0.585810 0.668176
O O2 0.032372 0.500000 0.660725
O O3 0.018594 0.591750 0.746940
O O4 0.984241 0.624997 0.622694
O O5 0.250000 0.084370 0.331507
O O6 0.021893 0.092454 0.251951
O O7 0.984721 0.124718 0.376698
O O8 0.029161 0.000000 0.337778
O O9 0.750000 0.830845 0.067192
O O10 0.980624 0.751898 0.081482
O O11 0.993746 0.875047 0.126090
O O12 0.000000 0.847805 0.000000
O O13 0.750000 0.575200 0.179013
O O14 0.986005 0.500000 0.165413
O O15 0.989279 0.627315 0.126420
O O16 0.750000 0.079493 0.825766
O O17 0.520143 0.000000 0.834238
O O18 0.500000 0.840366 0.500000
O O19 0.750000 0.818753 0.433694
O O20 0.499587 0.750323 0.586729
O O21 0.750000 0.317466 0.566204
O O22 0.000000 0.339554 0.500000
O O23 0.250000 0.673306 0.932590
O O24 0.000000 0.655996 0.000000
#
# Coordination Sequence:
#
# PCOD9403196 Si02
#       8
#     8   8   8   8   8   8   8   8
#     4   9  18  34  55  78 105 138 175 214 259 312
#     4   9  19  37  58  80 109 142 174 211 259 314
#     4  10  20  33  50  73 102 136 173 215 259 307
#     4   8  15  30  52  75 101 134 169 206 250 301
#     4   9  19  36  56  77 103 134 167 208 258 309
#     4  11  22  37  57  80 108 140 177 219 261 308
#     4  11  22  37  56  78 106 138 174 216 263 313
#     4   9  18  32  49  72 101 132 169 209 251 298
#
# _framework density 17.487589
#
# number of rings (size 3 to 8) (size 9 to 14) (size 15 to 20)
#    0.000    2.500    0.000    4.875    0.000    3.750 
#    0.000    3.125    0.000    0.750    0.000    0.000 
#    0.000    0.000    0.000    0.000    0.000    0.000 
#
# Total GULP energy -357102.421382 kJ/mol
# GULP energy per Si atom -5579.725334 kJ/mol
# Density = 1.744779 g / cm^3
# Si number density = 17.487589 Si / 1000 Ang^3
#
#
#
# Elastic Constant Matrix: (Units=GPa)
#
#
# Indices 1 2 3 4 5 6 
#
# 1 67.9667 56.6661 66.1074 0.0000 0.0000 0.0000
# 2 56.6661 113.5754 127.7248 0.0000 0.0000 0.0000
# 3 66.1074 127.7248 167.3133 0.0000 0.0000 0.0000
# 4 0.0000 0.0000 0.0000 42.8577 0.0000 0.0000
# 5 0.0000 0.0000 0.0000 0.0000 27.6685 0.0000
# 6 0.0000 0.0000 0.0000 0.0000 0.0000 20.5723
#
#
#
# Elastic Compliance Matrix: (Units=1/GPa)
#
#
# Indices 1 2 3 4 5 6 
#
# 1 0.025346 -0.009778 -0.002550 0.000000 0.000000 0.000000
# 2 -0.009778 0.065993 -0.046515 0.000000 0.000000 0.000000
# 3 -0.002550 -0.046515 0.042493 0.000000 0.000000 0.000000
# 4 0.000000 0.000000 0.000000 0.023333 0.000000 0.000000
# 5 0.000000 0.000000 0.000000 0.000000 0.036142 0.000000
# 6 0.000000 0.000000 0.000000 0.000000 0.000000 0.048609
#
#
# Mechanical properties :
#
#
# Convention : Reuss Voigt Hill
#
# Bulk Modulus (GPa) = 61.93440 94.42798 78.18119
# Shear Modulus (GPa) = 13.69926 24.77684 19.23805
#
# Velocity S-wave (km/s) = 2.80191 3.76816 3.32037
# Velocity P-wave (km/s) = 6.77943 8.54672 7.71385
#
# Compressibility (1/GPa) = 0.01614612
#
# Stress axis : x y z
#
# Youngs Moduli (GPa) = 39.45472 15.15311 23.53331
#
# Poissons Ratio (x) = 0.14817 0.06000
# Poissons Ratio (y) = 0.38580 1.09465
# Poissons Ratio (z) = 0.10060 0.70484
#
# Static dielectric constant tensor:
#      x y z
#    x 1.585690 0.000000 0.000000 
#    y 0.000000 1.579470 0.000000 
#    z 0.000000 0.000000 1.571930 
# 
# From -- ./inp_files/28435.got.cif
#   From: 2010.05.17/outbox.cif.g08.bks.cpg/sg51_15_cif.got.tgz:28435.got - 2010.06.03 11:52:47.
