data_PCOD9403724
_publ_section_title
;
Structure prediction by ZEFSAII (Michael W. Deem and Ramdas Pophale) SiO2 
 PCOD9403724
Probable space group: P M M A
;
_chemical_formula_sum "Si O2"
_cell_formula_units_Z 64
_cell_length_a 8.945131
_cell_length_b 14.756380
_cell_length_c 30.431590
_cell_angle_alpha 90.000000
_cell_angle_beta 90.000000
_cell_angle_gamma 90.000000
_cell_volume 4016.901475
_symmetry_space_group_name_H-M "P M M A"
_symmetry_group_IT_number 51
_symmetry_cell_setting 'orthorhombic'
loop_
_space_group_symop_operation_xyz
x,y,z
1/2-x,-y,z
1/2+x,-y,-z
-x,y,-z
-x,-y,-z
1/2+x,y,-z
1/2-x,y,z
x,-y,z
loop_
_atom_site_type_symbol
_atom_site_label
_atom_site_fract_x
_atom_site_fract_y
_atom_site_fract_z
Si Si1 0.422575 0.389525 0.954741
Si Si2 0.420293 0.390277 0.134776
Si Si3 0.078670 0.601870 0.366003
Si Si4 0.073156 0.104575 0.359986
Si Si5 0.923167 0.634592 0.455067
Si Si6 0.922393 0.146106 0.454080
Si Si7 0.426132 0.738581 0.695268
Si Si8 0.069625 0.605292 0.772600
O O1 0.250000 0.362533 0.954018
O O2 0.426778 0.500000 0.954580
O O3 0.505071 0.358410 0.910518
O O4 0.500000 0.360215 0.000000
O O5 0.250000 0.358291 0.138549
O O6 0.416765 0.500000 0.132022
O O7 0.512233 0.370709 0.178814
O O8 0.250000 0.634680 0.361295
O O9 0.071621 0.500000 0.348249
O O10 0.028025 0.601608 0.416088
O O11 0.960737 0.665532 0.342397
O O12 0.250000 0.122008 0.363781
O O13 0.001706 0.118403 0.408534
O O14 0.005286 0.171591 0.323265
O O15 0.049457 0.000000 0.347475
O O16 0.750000 0.606252 0.450918
O O17 0.923863 0.744305 0.454117
O O18 0.000000 0.605940 0.500000
O O19 0.750000 0.115964 0.453657
O O20 0.000000 0.116736 0.500000
O O21 0.250000 0.755879 0.699690
O O22 0.480484 0.683218 0.738448
O O23 0.250000 0.604223 0.771710
O O24 0.021416 0.500000 0.762752
#
# Coordination Sequence:
#
# PCOD9403724 Si02
#       8
#     8   8   8   8   8   8   8   8
#     4   9  15  22  33  50  76 112 154 200 247 289
#     4   9  16  25  38  58  84 115 155 200 242 283
#     4  11  23  36  52  74  99 127 156 187 224 268
#     4  11  24  40  58  79 102 127 153 185 227 277
#     4  10  20  34  53  74  96 124 153 183 220 262
#     4  10  20  35  57  81 102 126 151 180 220 267
#     4  11  22  37  56  76  97 124 155 194 238 278
#     4   9  18  32  49  69  94 124 158 196 239 284
#
# _framework density 15.932679
#
# number of rings (size 3 to 8) (size 9 to 14) (size 15 to 20)
#    0.000    2.000    1.250    3.000    0.000    8.000 
#    0.000    1.250    0.000    0.000    0.000    0.000 
#    0.000    0.000    0.000    0.000    0.000    0.625 
#
# Total GULP energy -356892.468554 kJ/mol
# GULP energy per Si atom -5576.444821 kJ/mol
# Density = 1.589642 g / cm^3
# Si number density = 15.932679 Si / 1000 Ang^3
#
#
#
# Elastic Constant Matrix: (Units=GPa)
#
#
# Indices 1 2 3 4 5 6 
#
# 1 63.2801 28.9760 35.3479 0.0000 0.0000 0.0000
# 2 28.9760 67.3635 35.8956 0.0000 0.0000 0.0000
# 3 35.3479 35.8956 122.3818 0.0000 0.0000 0.0000
# 4 0.0000 0.0000 0.0000 -2.8844 0.0000 0.0000
# 5 0.0000 0.0000 0.0000 0.0000 26.6124 0.0000
# 6 0.0000 0.0000 0.0000 0.0000 0.0000 -22.1078
#
#
#
# Elastic Compliance Matrix: (Units=1/GPa)
#
#
# Indices 1 2 3 4 5 6 
#
# 1 0.021287 -0.006969 -0.004104 0.000000 0.000000 0.000000
# 2 -0.006969 0.019877 -0.003817 0.000000 0.000000 0.000000
# 3 -0.004104 -0.003817 0.010476 0.000000 0.000000 0.000000
# 4 0.000000 0.000000 0.000000 -0.346690 0.000000 0.000000
# 5 0.000000 0.000000 0.000000 0.000000 0.037577 0.000000
# 6 0.000000 0.000000 0.000000 0.000000 0.000000 -0.045233
#
#
# Mechanical properties :
#
#
# Convention : Reuss Voigt Hill
#
# Bulk Modulus (GPa) = 45.74907 50.38496 48.06702
# Shear Modulus (GPa) = -18.82249 10.51109 -4.15570
#
# Velocity S-wave (km/s) = -3.44084 2.57129 -1.61677
# Velocity P-wave (km/s) = 3.60423 6.36456 5.17195
#
# Compressibility (1/GPa) = 0.02185837
#
# Stress axis : x y z
#
# Youngs Moduli (GPa) = 46.97803 50.31040 95.45533
#
# Poissons Ratio (x) = 0.35063 0.39176
# Poissons Ratio (y) = 0.32741 0.36435
# Poissons Ratio (z) = 0.19280 0.19203
#
# Static dielectric constant tensor:
#      x y z
#    x 1.542900 0.000000 0.000000 
#    y 0.000000 1.544170 0.000000 
#    z 0.000000 0.000000 1.541960 
# 
# From -- ./inp_files/37517.got.cif
#   From: 2010.05.17/outbox.cif.g08.bks.cpg/sg51_19_cif.got.tgz:37517.got - 2010.06.03 11:52:47.
