data_PCOD9403578
_publ_section_title
;
Structure prediction by ZEFSAII (Michael W. Deem and Ramdas Pophale) SiO2 
 PCOD9403578
Probable space group: P M M A
;
_chemical_formula_sum "Si O2"
_cell_formula_units_Z 52
_cell_length_a 7.260452
_cell_length_b 8.679757
_cell_length_c 36.016132
_cell_angle_alpha 90.000000
_cell_angle_beta 90.000000
_cell_angle_gamma 90.000000
_cell_volume 2269.699148
_symmetry_space_group_name_H-M "P M M A"
_symmetry_group_IT_number 51
_symmetry_cell_setting 'orthorhombic'
loop_
_space_group_symop_operation_xyz
x,y,z
1/2-x,-y,z
1/2+x,-y,-z
-x,y,-z
-x,-y,-z
1/2+x,y,-z
1/2-x,y,z
x,-y,z
loop_
_atom_site_type_symbol
_atom_site_label
_atom_site_fract_x
_atom_site_fract_y
_atom_site_fract_z
Si Si1 0.974610 0.323715 0.383109
Si Si2 0.026104 0.326166 0.920219
Si Si3 0.530703 0.175023 0.459430
Si Si4 0.025696 0.674825 0.770055
Si Si5 0.973677 0.173440 0.154555
Si Si6 0.968144 0.000000 0.043827
Si Si7 0.025807 0.175703 0.693772
O O1 0.750000 0.317969 0.383442
O O2 0.028533 0.500000 0.379322
O O3 0.038072 0.258366 0.422633
O O4 0.034884 0.233140 0.346543
O O5 0.250000 0.328221 0.922858
O O6 0.966231 0.500000 0.931818
O O7 0.974417 0.293608 0.877342
O O8 0.964946 0.167509 0.940882
O O9 0.500000 0.247754 0.500000
O O10 0.750000 0.166183 0.455367
O O11 0.458298 0.000000 0.460582
O O12 0.250000 0.680402 0.769608
O O13 0.971688 0.500000 0.777347
O O14 0.966013 0.780358 0.804281
O O15 0.965295 0.727080 0.729294
O O16 0.750000 0.172778 0.154901
O O17 0.031766 0.000000 0.144782
O O18 0.750000 0.000000 0.052565
O O19 0.000000 0.000000 0.000000
O O20 0.250000 0.182378 0.693250
O O21 0.972384 0.000000 0.699472
#
# Coordination Sequence:
#
# PCOD9403578 Si02
#       7
#     8   8   8   8   8   4   8
#     4   9  16  25  37  52  71  97 129 164 201 243
#     4   9  16  27  43  62  85 115 151 189 229 274
#     4   9  17  29  44  61  80 103 132 166 203 244
#     4   9  15  20  27  43  68  99 136 175 211 248
#     4   9  14  21  33  50  74 105 142 181 218 259
#     4  10  20  34  50  70  94 122 156 194 234 278
#     4   9  15  22  31  44  65  96 133 169 203 243
#
# _framework density 22.910525
#
# number of rings (size 3 to 8) (size 9 to 14) (size 15 to 20)
#    0.000    2.923    0.769    1.846    0.000    8.000 
#    0.000    0.000    0.000    0.000    0.000    0.000 
#    0.000    0.000    0.000    1.385    2.154    8.462 
#
# Total GULP energy -290290.041235 kJ/mol
# GULP energy per Si atom -5582.500793 kJ/mol
# Density = 2.285838 g / cm^3
# Si number density = 22.910525 Si / 1000 Ang^3
#
#
#
# Elastic Constant Matrix: (Units=GPa)
#
#
# Indices 1 2 3 4 5 6 
#
# 1 102.1019 1.7916 -4.5795 0.0000 0.0000 0.0000
# 2 1.7916 144.0301 58.3195 0.0000 0.0000 0.0000
# 3 -4.5795 58.3195 135.3740 0.0000 0.0000 0.0000
# 4 0.0000 0.0000 0.0000 28.6621 0.0000 0.0000
# 5 0.0000 0.0000 0.0000 0.0000 -7.8515 0.0000
# 6 0.0000 0.0000 0.0000 0.0000 0.0000 -20.8886
#
#
#
# Elastic Compliance Matrix: (Units=1/GPa)
#
#
# Indices 1 2 3 4 5 6 
#
# 1 0.009821 -0.000311 0.000466 0.000000 0.000000 0.000000
# 2 -0.000311 0.008420 -0.003638 0.000000 0.000000 0.000000
# 3 0.000466 -0.003638 0.008970 0.000000 0.000000 0.000000
# 4 0.000000 0.000000 0.000000 0.034889 0.000000 0.000000
# 5 0.000000 0.000000 0.000000 0.000000 -0.127364 0.000000
# 6 0.000000 0.000000 0.000000 0.000000 0.000000 -0.047873
#
#
# Mechanical properties :
#
#
# Convention : Reuss Voigt Hill
#
# Bulk Modulus (GPa) = 49.39464 54.72991 52.06227
# Shear Modulus (GPa) = -50.28990 21.71602 -14.28694
#
# Velocity S-wave (km/s) = -4.69023 3.08208 -2.49990
# Velocity P-wave (km/s) = 2.77927 6.05029 3.80011
#
# Compressibility (1/GPa) = 0.02024511
#
# Stress axis : x y z
#
# Youngs Moduli (GPa) = 101.82778 118.76682 111.48403
#
# Poissons Ratio (x) = 0.03693 -0.05197
# Poissons Ratio (y) = 0.03166 0.40556
# Poissons Ratio (z) = -0.04747 0.43205
#
# Static dielectric constant tensor:
#      x y z
#    x 1.923490 0.000000 0.000000 
#    y 0.000000 1.814260 0.000000 
#    z 0.000000 0.000000 1.815730 
# 
# From -- ./inp_files/37704.got.cif
#   From: 2010.05.17/outbox.cif.g08.bks.cpg/sg51_19_cif.got.tgz:37704.got - 2010.06.03 11:52:47.
