data_PCOD9403713
_publ_section_title
;
Structure prediction by ZEFSAII (Michael W. Deem and Ramdas Pophale) SiO2 
 PCOD9403713
Probable space group: P M M A
;
_chemical_formula_sum "Si O2"
_cell_formula_units_Z 64
_cell_length_a 8.793274
_cell_length_b 24.967653
_cell_length_c 15.730236
_cell_angle_alpha 90.000000
_cell_angle_beta 90.000000
_cell_angle_gamma 90.000000
_cell_volume 3453.532635
_symmetry_space_group_name_H-M "P M M A"
_symmetry_group_IT_number 51
_symmetry_cell_setting 'orthorhombic'
loop_
_space_group_symop_operation_xyz
x,y,z
1/2-x,-y,z
1/2+x,-y,-z
-x,y,-z
-x,-y,-z
1/2+x,y,-z
1/2-x,y,z
x,-y,z
loop_
_atom_site_type_symbol
_atom_site_label
_atom_site_fract_x
_atom_site_fract_y
_atom_site_fract_z
Si Si1 0.430453 0.063856 0.591400
Si Si2 0.432516 0.353710 0.409823
Si Si3 0.427223 0.254502 0.678550
Si Si4 0.931518 0.141794 0.729729
Si Si5 0.932506 0.164080 0.088873
Si Si6 0.429752 0.397934 0.087063
Si Si7 0.564594 0.560127 0.731100
Si Si8 0.425822 0.713124 0.873496
O O1 0.500000 0.079872 0.500000
O O2 0.250000 0.074369 0.591562
O O3 0.508544 0.095326 0.668210
O O4 0.454039 0.000000 0.600624
O O5 0.500000 0.370194 0.500000
O O6 0.250000 0.352886 0.412549
O O7 0.493928 0.295013 0.385840
O O8 0.482773 0.395450 0.336922
O O9 0.250000 0.246090 0.657405
O O10 0.509358 0.197768 0.689833
O O11 0.433964 0.282266 0.771465
O O12 0.750000 0.141873 0.734208
O O13 0.999404 0.138741 0.825262
O O14 0.750000 0.159213 0.090405
O O15 0.969407 0.227763 0.094708
O O16 0.000000 0.143467 0.000000
O O17 0.250000 0.404593 0.083478
O O18 0.487324 0.425124 0.173807
O O19 0.470873 0.335078 0.095338
O O20 0.500000 0.419053 0.000000
O O21 0.750000 0.561240 0.732503
O O22 0.517257 0.500000 0.708276
O O23 0.250000 0.702606 0.897756
#
# Coordination Sequence:
#
# PCOD9403713 Si02
#       8
#     8   8   8   8   8   8   8   8
#     4  10  21  39  63  90 121 157 199 247 296 346
#     4  11  22  38  60  85 110 142 181 225 280 342
#     4  10  20  36  57  82 115 149 185 231 281 336
#     4  11  22  36  58  88 122 160 200 242 289 345
#     4  10  20  34  52  80 117 159 200 243 289 341
#     4  11  21  33  53  79 106 140 179 221 271 330
#     4   9  20  39  59  78 105 141 180 226 279 337
#     4   9  18  32  52  77 108 143 180 225 273 325
#
# _framework density 18.531749000000001
#
# number of rings (size 3 to 8) (size 9 to 14) (size 15 to 20)
#    0.000    1.875    1.250    4.125    0.000    5.250 
#    0.000    2.500    0.000    5.625    0.000    0.000 
#    0.000    0.000    0.000    0.000    0.000    0.000 
#
# Total GULP energy -357428.338903 kJ/mol
# GULP energy per Si atom -5584.817795 kJ/mol
# Density = 1.848957 g / cm^3
# Si number density = 18.531749 Si / 1000 Ang^3
#
#
#
# Elastic Constant Matrix: (Units=GPa)
#
#
# Indices 1 2 3 4 5 6 
#
# 1 78.3771 39.7283 53.9999 0.0000 0.0000 0.0000
# 2 39.7283 56.9033 52.8604 0.0000 0.0000 0.0000
# 3 53.9999 52.8604 139.8662 0.0000 0.0000 0.0000
# 4 0.0000 0.0000 0.0000 2.6998 0.0000 0.0000
# 5 0.0000 0.0000 0.0000 0.0000 34.8308 0.0000
# 6 0.0000 0.0000 0.0000 0.0000 0.0000 14.6544
#
#
#
# Elastic Compliance Matrix: (Units=1/GPa)
#
#
# Indices 1 2 3 4 5 6 
#
# 1 0.021088 -0.011033 -0.003972 0.000000 0.000000 0.000000
# 2 -0.011033 0.032854 -0.008157 0.000000 0.000000 0.000000
# 3 -0.003972 -0.008157 0.011766 0.000000 0.000000 0.000000
# 4 0.000000 0.000000 0.000000 0.370399 0.000000 0.000000
# 5 0.000000 0.000000 0.000000 0.000000 0.028710 0.000000
# 6 0.000000 0.000000 0.000000 0.000000 0.000000 0.068239
#
#
# Mechanical properties :
#
#
# Convention : Reuss Voigt Hill
#
# Bulk Modulus (GPa) = 51.58933 63.14708 57.36820
# Shear Modulus (GPa) = 8.53472 19.00752 13.77112
#
# Velocity S-wave (km/s) = 2.14836 3.20609 2.72896
# Velocity P-wave (km/s) = 5.83547 6.91769 6.39950
#
# Compressibility (1/GPa) = 0.01938385
#
# Stress axis : x y z
#
# Youngs Moduli (GPa) = 47.42032 30.43727 84.99093
#
# Poissons Ratio (x) = 0.33583 0.33756
# Poissons Ratio (y) = 0.52321 0.69327
# Poissons Ratio (z) = 0.18834 0.24828
#
# Static dielectric constant tensor:
#      x y z
#    x 1.625200 0.000000 0.000000 
#    y 0.000000 1.617330 0.000000 
#    z 0.000000 0.000000 1.651450 
# 
# From -- ./inp_files/22292.got.cif
#   From: 2010.05.17/outbox.cif.g08.bks.cpg/sg51_12_cif.got.tgz:22292.got - 2010.06.03 11:52:47.
