data_PCOD9403118
_publ_section_title
;
Structure prediction by ZEFSAII (Michael W. Deem and Ramdas Pophale) SiO2 
 PCOD9403118
Probable space group: P M M A
;
_chemical_formula_sum "Si O2"
_cell_formula_units_Z 56
_cell_length_a 18.468813
_cell_length_b 8.796043
_cell_length_c 19.866693
_cell_angle_alpha 90.000000
_cell_angle_beta 90.000000
_cell_angle_gamma 90.000000
_cell_volume 3227.393414
_symmetry_space_group_name_H-M "P M M A"
_symmetry_group_IT_number 51
_symmetry_cell_setting 'orthorhombic'
loop_
_space_group_symop_operation_xyz
x,y,z
1/2-x,-y,z
1/2+x,-y,-z
-x,y,-z
-x,-y,-z
1/2+x,y,-z
1/2-x,y,z
x,-y,z
loop_
_atom_site_type_symbol
_atom_site_label
_atom_site_fract_x
_atom_site_fract_y
_atom_site_fract_z
Si Si1 0.535979 0.681259 0.157244
Si Si2 0.834676 0.175915 0.522039
Si Si3 0.165998 0.316507 0.942758
Si Si4 0.833366 0.681083 0.666583
Si Si5 0.957320 0.183594 0.432723
Si Si6 0.432850 0.826849 0.052367
Si Si7 0.978500 0.817583 0.708754
O O1 0.537260 0.500000 0.163787
O O2 0.609148 0.727516 0.116563
O O3 0.466085 0.730783 0.113294
O O4 0.525544 0.757700 0.229312
O O5 0.750000 0.179557 0.510120
O O6 0.849161 0.271924 0.589043
O O7 0.876287 0.223628 0.454857
O O8 0.856066 0.000000 0.537730
O O9 0.250000 0.273008 0.931348
O O10 0.162950 0.500000 0.947917
O O11 0.133380 0.245963 0.011286
O O12 0.750000 0.729900 0.680668
O O13 0.836907 0.500000 0.673497
O O14 0.895984 0.757688 0.710505
O O15 0.000000 0.231524 0.500000
O O16 0.987405 0.239542 0.362079
O O17 0.962619 0.000000 0.428595
O O18 0.416813 0.000000 0.073015
O O19 0.500000 0.831085 0.000000
O O20 0.977559 0.000000 0.709435
#
# Coordination Sequence:
#
# PCOD9403118 Si02
#       7
#     8   8   8   8   8   8   8
#     4  10  20  35  54  77 109 145 180 216 259 311
#     4   9  16  29  50  71  92 124 166 210 259 314
#     4   9  18  34  57  83 110 144 181 213 251 302
#     4  10  20  33  49  71  98 125 159 209 267 322
#     4   9  16  29  48  72  98 126 167 219 265 309
#     4   9  17  31  53  80 107 134 169 211 253 297
#     4  11  21  34  53  74 102 139 179 220 266 319
#
# _framework density 17.351462999999999
#
# number of rings (size 3 to 8) (size 9 to 14) (size 15 to 20)
#    0.000    2.429    1.429    1.714    0.000    3.429 
#    0.000    3.571    0.000    5.143    0.000    0.000 
#    0.000    0.000    0.000    0.000    0.000    0.000 
#
# Total GULP energy -311936.783092 kJ/mol
# GULP energy per Si atom -5570.299698 kJ/mol
# Density = 1.731197 g / cm^3
# Si number density = 17.351463 Si / 1000 Ang^3
#
#
#
# Elastic Constant Matrix: (Units=GPa)
#
#
# Indices 1 2 3 4 5 6 
#
# 1 112.1431 30.6892 47.9215 0.0000 0.0000 0.0000
# 2 30.6892 41.7958 22.8518 0.0000 0.0000 0.0000
# 3 47.9215 22.8518 80.0954 0.0000 0.0000 0.0000
# 4 0.0000 0.0000 0.0000 4.0148 0.0000 0.0000
# 5 0.0000 0.0000 0.0000 0.0000 23.5531 0.0000
# 6 0.0000 0.0000 0.0000 0.0000 0.0000 18.2983
#
#
#
# Elastic Compliance Matrix: (Units=1/GPa)
#
#
# Indices 1 2 3 4 5 6 
#
# 1 0.013287 -0.006409 -0.006121 0.000000 0.000000 0.000000
# 2 -0.006409 0.031440 -0.005135 0.000000 0.000000 0.000000
# 3 -0.006121 -0.005135 0.017612 0.000000 0.000000 0.000000
# 4 0.000000 0.000000 0.000000 0.249075 0.000000 0.000000
# 5 0.000000 0.000000 0.000000 0.000000 0.042457 0.000000
# 6 0.000000 0.000000 0.000000 0.000000 0.000000 0.054650
#
#
# Mechanical properties :
#
#
# Convention : Reuss Voigt Hill
#
# Bulk Modulus (GPa) = 37.02627 48.55103 42.78865
# Shear Modulus (GPa) = 11.04106 18.01137 14.52621
#
# Velocity S-wave (km/s) = 2.52527 3.22535 2.89654
# Velocity P-wave (km/s) = 5.46699 6.47396 5.99167
#
# Compressibility (1/GPa) = 0.02700785
#
# Stress axis : x y z
#
# Youngs Moduli (GPa) = 75.26262 31.80694 56.77819
#
# Poissons Ratio (x) = 0.20386 0.34753
# Poissons Ratio (y) = 0.48239 0.29157
# Poissons Ratio (z) = 0.46068 0.16333
#
# Static dielectric constant tensor:
#      x y z
#    x 1.630990 0.000000 0.000000 
#    y 0.000000 1.599510 0.000000 
#    z 0.000000 0.000000 1.584940 
# 
# From -- ./inp_files/33725.got.cif
#   From: 2010.05.17/outbox.cif.g08.bks.cpg/sg51_17_cif.got.tgz:33725.got - 2010.06.03 11:52:47.
