data_PCOD9403241
_publ_section_title
;
Structure prediction by ZEFSAII (Michael W. Deem and Ramdas Pophale) SiO2 
 PCOD9403241
Probable space group: P M M A
;
_chemical_formula_sum "Si O2"
_cell_formula_units_Z 64
_cell_length_a 8.984842
_cell_length_b 28.227970
_cell_length_c 14.050333
_cell_angle_alpha 90.000000
_cell_angle_beta 90.000000
_cell_angle_gamma 90.000000
_cell_volume 3563.499555
_symmetry_space_group_name_H-M "P M M A"
_symmetry_group_IT_number 51
_symmetry_cell_setting 'orthorhombic'
loop_
_space_group_symop_operation_xyz
x,y,z
1/2-x,-y,z
1/2+x,-y,-z
-x,y,-z
-x,-y,-z
1/2+x,y,-z
1/2-x,y,z
x,-y,z
loop_
_atom_site_type_symbol
_atom_site_label
_atom_site_fract_x
_atom_site_fract_y
_atom_site_fract_z
Si Si1 0.421136 0.057662 0.403130
Si Si2 0.426835 0.444182 0.602085
Si Si3 0.925870 0.216067 0.226965
Si Si4 0.427048 0.270150 0.396594
Si Si5 0.575218 0.943474 0.204502
Si Si6 0.426800 0.862241 0.099790
Si Si7 0.425790 0.688655 0.896806
Si Si8 0.573462 0.634980 0.726553
O O1 0.500000 0.074118 0.500000
O O2 0.250000 0.073743 0.396738
O O3 0.513293 0.069925 0.308958
O O4 0.418376 0.000000 0.406916
O O5 0.500000 0.432762 0.500000
O O6 0.250000 0.436157 0.596771
O O7 0.452843 0.500000 0.620298
O O8 0.498711 0.411148 0.681675
O O9 0.750000 0.206654 0.236497
O O10 0.945019 0.260394 0.154546
O O11 0.996389 0.232422 0.326418
O O12 0.010431 0.172060 0.181276
O O13 0.500000 0.269338 0.500000
O O14 0.250000 0.262171 0.401951
O O15 0.451318 0.321373 0.346938
O O16 0.750000 0.932065 0.196963
O O17 0.482214 0.914548 0.127574
O O18 0.557793 0.000000 0.193910
O O19 0.250000 0.859689 0.093786
O O20 0.500000 0.847953 0.000000
O O21 0.250000 0.679616 0.904622
O O22 0.501201 0.651057 0.825796
O O23 0.500000 0.688811 0.000000
O O24 0.750000 0.628708 0.737250
#
# Coordination Sequence:
#
# PCOD9403241 Si02
#       8
#     8   8   8   8   8   8   8   8
#     4   9  16  28  49  77 107 138 171 207 249 297
#     4  10  20  33  50  74 106 144 186 231 278 329
#     4  10  21  38  59  83 111 143 179 219 264 316
#     4  10  20  34  54  82 115 150 185 222 268 322
#     4  10  21  38  59  83 111 142 178 220 264 312
#     4  12  25  41  61  83 109 141 177 218 265 317
#     4  10  20  34  55  81 109 140 177 223 272 322
#     4  10  20  33  52  78 109 145 186 230 275 326
#
# _framework density 17.959872000000001
#
# number of rings (size 3 to 8) (size 9 to 14) (size 15 to 20)
#    0.000    1.875    0.000    4.500    0.000    8.250 
#    0.000    0.625    0.000    0.375    0.000    0.000 
#    0.000    0.000    0.000    0.000    0.000    0.000 
#
# Total GULP energy -357580.511584 kJ/mol
# GULP energy per Si atom -5587.195493 kJ/mol
# Density = 1.791899 g / cm^3
# Si number density = 17.959872 Si / 1000 Ang^3
#
#
#
# Elastic Constant Matrix: (Units=GPa)
#
#
# Indices 1 2 3 4 5 6 
#
# 1 139.0210 50.8829 71.7305 0.0000 0.0000 0.0000
# 2 50.8829 42.7687 30.5912 0.0000 0.0000 0.0000
# 3 71.7305 30.5912 121.0483 0.0000 0.0000 0.0000
# 4 0.0000 0.0000 0.0000 19.8042 0.0000 0.0000
# 5 0.0000 0.0000 0.0000 0.0000 37.6170 0.0000
# 6 0.0000 0.0000 0.0000 0.0000 0.0000 26.2381
#
#
#
# Elastic Compliance Matrix: (Units=1/GPa)
#
#
# Indices 1 2 3 4 5 6 
#
# 1 0.015176 -0.014187 -0.005408 0.000000 0.000000 0.000000
# 2 -0.014187 0.041804 -0.002158 0.000000 0.000000 0.000000
# 3 -0.005408 -0.002158 0.012011 0.000000 0.000000 0.000000
# 4 0.000000 0.000000 0.000000 0.050494 0.000000 0.000000
# 5 0.000000 0.000000 0.000000 0.000000 0.026584 0.000000
# 6 0.000000 0.000000 0.000000 0.000000 0.000000 0.038112
#
#
# Mechanical properties :
#
#
# Convention : Reuss Voigt Hill
#
# Bulk Modulus (GPa) = 39.23757 67.69413 53.46585
# Shear Modulus (GPa) = 21.17020 26.70744 23.93882
#
# Velocity S-wave (km/s) = 3.43702 3.86043 3.65486
# Velocity P-wave (km/s) = 6.13560 7.59238 6.90253
#
# Compressibility (1/GPa) = 0.02548578
#
# Stress axis : x y z
#
# Youngs Moduli (GPa) = 65.89363 23.92127 83.25848
#
# Poissons Ratio (x) = 0.33938 0.45022
# Poissons Ratio (y) = 0.93486 0.17963
# Poissons Ratio (z) = 0.35632 0.05161
#
# Static dielectric constant tensor:
#      x y z
#    x 1.530590 0.000000 0.000000 
#    y 0.000000 1.617890 0.000000 
#    z 0.000000 0.000000 1.592120 
# 
# From -- ./inp_files/14803.got.cif
#   From: 2010.05.17/outbox.cif.g08.bks.cpg/sg51_8_cif.got.tgz:14803.got - 2010.06.03 11:52:47.
