data_PCOD9403048
_publ_section_title
;
Structure prediction by ZEFSAII (Michael W. Deem and Ramdas Pophale) SiO2 
 PCOD9403048
Probable space group: P M M A
;
_chemical_formula_sum "Si O2"
_cell_formula_units_Z 44
_cell_length_a 7.534843
_cell_length_b 7.723678
_cell_length_c 35.503116
_cell_angle_alpha 90.000000
_cell_angle_beta 90.000000
_cell_angle_gamma 90.000000
_cell_volume 2066.164230
_symmetry_space_group_name_H-M "P M M A"
_symmetry_group_IT_number 51
_symmetry_cell_setting 'orthorhombic'
loop_
_space_group_symop_operation_xyz
x,y,z
1/2-x,-y,z
1/2+x,-y,-z
-x,y,-z
-x,-y,-z
1/2+x,y,-z
1/2-x,y,z
x,-y,z
loop_
_atom_site_type_symbol
_atom_site_label
_atom_site_fract_x
_atom_site_fract_y
_atom_site_fract_z
Si Si1 0.537589 0.500000 0.455927
Si Si2 0.467530 0.500000 0.096721
Si Si3 0.456036 0.210048 0.680922
Si Si4 0.032270 0.800226 0.598607
Si Si5 0.968479 0.500000 0.816538
Si Si6 0.462657 0.195995 0.042731
Si Si7 0.457467 0.194789 0.235918
O O1 0.750000 0.500000 0.451779
O O2 0.500000 0.500000 0.500000
O O3 0.473297 0.329254 0.433965
O O4 0.250000 0.500000 0.096424
O O5 0.522453 0.500000 0.140067
O O6 0.527410 0.331494 0.073553
O O7 0.250000 0.258893 0.682217
O O8 0.527116 0.264196 0.640101
O O9 0.532802 0.262572 0.721061
O O10 0.468845 0.000000 0.679839
O O11 0.250000 0.801504 0.599710
O O12 0.977840 0.000000 0.592935
O O13 0.750000 0.500000 0.815723
O O14 0.031023 0.668461 0.793614
O O15 0.250000 0.188150 0.046538
O O16 0.532259 0.000000 0.046964
O O17 0.500000 0.254256 0.000000
O O18 0.250000 0.178545 0.227097
O O19 0.535060 0.000000 0.234659
#
# Coordination Sequence:
#
# PCOD9403048 Si02
#       7
#     4   4   8   8   4   8   8
#     4  10  20  33  48  66  89 117 148 179 213 257
#     4   9  17  29  45  65  89 117 151 187 214 248
#     4   8  14  27  48  70  89 112 145 183 220 258
#     4   8  15  29  48  68  89 114 145 180 217 258
#     4   9  18  30  43  63  90 120 154 184 212 253
#     4   9  17  29  47  70  91 112 142 181 225 268
#     4   9  17  29  45  65  90 118 145 178 221 261
#
# _framework density 21.295501000000002
#
# number of rings (size 3 to 8) (size 9 to 14) (size 15 to 20)
#    0.000    3.273    0.000    1.364    0.000    1.818 
#    0.000    5.909    0.000    3.273    0.000    5.091 
#    0.000    0.000    0.000    0.000    0.000    0.000 
#
# Total GULP energy -245386.319951 kJ/mol
# GULP energy per Si atom -5576.961817 kJ/mol
# Density = 2.124703 g / cm^3
# Si number density = 21.295501 Si / 1000 Ang^3
#
#
#
# Elastic Constant Matrix: (Units=GPa)
#
#
# Indices 1 2 3 4 5 6 
#
# 1 46.7765 4.5937 2.5565 0.0000 0.0000 0.0000
# 2 4.5937 125.6790 125.0939 0.0000 0.0000 0.0000
# 3 2.5565 125.0939 227.2070 0.0000 0.0000 0.0000
# 4 0.0000 0.0000 0.0000 300.6957 0.0000 0.0000
# 5 0.0000 0.0000 0.0000 0.0000 21.2026 0.0000
# 6 0.0000 0.0000 0.0000 0.0000 0.0000 -11.4141
#
#
#
# Elastic Compliance Matrix: (Units=1/GPa)
#
#
# Indices 1 2 3 4 5 6 
#
# 1 0.021473 -0.001204 0.000422 0.000000 0.000000 0.000000
# 2 -0.001204 0.017671 -0.009716 0.000000 0.000000 0.000000
# 3 0.000422 -0.009716 0.009746 0.000000 0.000000 0.000000
# 4 0.000000 0.000000 0.000000 0.003326 0.000000 0.000000
# 5 0.000000 0.000000 0.000000 0.000000 0.047164 0.000000
# 6 0.000000 0.000000 0.000000 0.000000 0.000000 -0.087611
#
#
# Mechanical properties :
#
#
# Convention : Reuss Voigt Hill
#
# Bulk Modulus (GPa) = 35.85106 73.79454 54.82280
# Shear Modulus (GPa) = 118.86327 79.92471 99.39399
#
# Velocity S-wave (km/s) = 7.47913 6.13292 6.83923
# Velocity P-wave (km/s) = 9.56319 9.21294 9.38970
#
# Compressibility (1/GPa) = 0.02789318
#
# Stress axis : x y z
#
# Youngs Moduli (GPa) = 46.56904 56.58851 102.60819
#
# Poissons Ratio (x) = 0.06816 -0.04325
# Poissons Ratio (y) = 0.05609 0.99693
# Poissons Ratio (z) = -0.01963 0.54981
#
# Static dielectric constant tensor:
#      x y z
#    x 1.815490 0.000000 0.000000 
#    y 0.000000 1.783980 0.000000 
#    z 0.000000 0.000000 1.735180 
# 
# From -- ./inp_files/36865.got.cif
#   From: 2010.05.17/outbox.cif.g08.bks.cpg/sg51_19_cif.got.tgz:36865.got - 2010.06.03 11:52:47.
