data_PCOD9403769
_publ_section_title
;
Structure prediction by ZEFSAII (Michael W. Deem and Ramdas Pophale) SiO2 
 PCOD9403769
Probable space group: P M M A
;
_chemical_formula_sum "Si O2"
_cell_formula_units_Z 48
_cell_length_a 15.835539
_cell_length_b 9.072240
_cell_length_c 19.211483
_cell_angle_alpha 90.000000
_cell_angle_beta 90.000000
_cell_angle_gamma 90.000000
_cell_volume 2759.994850
_symmetry_space_group_name_H-M "P M M A"
_symmetry_group_IT_number 51
_symmetry_cell_setting 'orthorhombic'
loop_
_space_group_symop_operation_xyz
x,y,z
1/2-x,-y,z
1/2+x,-y,-z
-x,y,-z
-x,-y,-z
1/2+x,y,-z
1/2-x,y,z
x,-y,z
loop_
_atom_site_type_symbol
_atom_site_label
_atom_site_fract_x
_atom_site_fract_y
_atom_site_fract_z
Si Si1 0.577289 0.176668 0.048385
Si Si2 0.153386 0.825197 0.584293
Si Si3 0.074457 0.176182 0.788403
Si Si4 0.250000 0.667350 0.954271
Si Si5 0.847256 0.173700 0.582585
Si Si6 0.250000 0.669502 0.785223
Si Si7 0.001561 0.324735 0.337106
O O1 0.561909 0.211063 0.129934
O O2 0.664684 0.249968 0.025427
O O3 0.586022 0.000000 0.043608
O O4 0.500000 0.223733 0.000000
O O5 0.250000 0.783632 0.603107
O O6 0.144824 0.807962 0.500834
O O7 0.080487 0.733879 0.621178
O O8 0.143061 0.000000 0.599854
O O9 0.165207 0.243477 0.766403
O O10 0.006018 0.250130 0.738643
O O11 0.075574 0.000000 0.780270
O O12 0.250000 0.500000 0.979124
O O13 0.250000 0.665443 0.869712
O O14 0.750000 0.208354 0.601006
O O15 0.915637 0.269212 0.622760
O O16 0.861959 0.000000 0.597084
O O17 0.250000 0.500000 0.760176
O O18 0.999632 0.500000 0.331821
#
# Coordination Sequence:
#
# PCOD9403769 Si02
#       7
#     8   8   8   4   8   4   8
#     4   9  18  34  57  81 105 135 178 226 264 303
#     4   9  19  36  57  80 106 138 178 220 263 316
#     4  10  20  34  53  76 105 142 179 214 262 319
#     4   9  17  29  49  79 109 139 168 199 254 321
#     4   9  19  38  61  79  98 133 182 229 267 314
#     4   9  17  31  49  73 107 137 166 207 258 315
#     4  12  24  34  50  78 113 144 174 218 267 316
#
# _framework density 17.391335999999999
#
# number of rings (size 3 to 8) (size 9 to 14) (size 15 to 20)
#    0.000    2.333    0.000    4.000    1.167    6.333 
#    0.000    1.667    1.833    0.000    0.000    0.000 
#    0.000    0.000    0.000    0.000    0.000    0.000 
#
# Total GULP energy -267951.061046 kJ/mol
# GULP energy per Si atom -5582.313772 kJ/mol
# Density = 1.735175 g / cm^3
# Si number density = 17.391336 Si / 1000 Ang^3
#
#
#
# Elastic Constant Matrix: (Units=GPa)
#
#
# Indices 1 2 3 4 5 6 
#
# 1 120.6276 68.8877 63.9120 0.0000 0.0000 0.0000
# 2 68.8877 90.4664 49.0854 0.0000 0.0000 0.0000
# 3 63.9120 49.0854 69.0495 0.0000 0.0000 0.0000
# 4 0.0000 0.0000 0.0000 16.5401 0.0000 0.0000
# 5 0.0000 0.0000 0.0000 0.0000 26.9507 0.0000
# 6 0.0000 0.0000 0.0000 0.0000 0.0000 -50.3389
#
#
#
# Elastic Compliance Matrix: (Units=1/GPa)
#
#
# Indices 1 2 3 4 5 6 
#
# 1 0.019390 -0.008184 -0.012130 0.000000 0.000000 0.000000
# 2 -0.008184 0.021448 -0.007672 0.000000 0.000000 0.000000
# 3 -0.012130 -0.007672 0.031164 0.000000 0.000000 0.000000
# 4 0.000000 0.000000 0.000000 0.060459 0.000000 0.000000
# 5 0.000000 0.000000 0.000000 0.000000 0.037105 0.000000
# 6 0.000000 0.000000 0.000000 0.000000 0.000000 -0.019865
#
#
# Mechanical properties :
#
#
# Convention : Reuss Voigt Hill
#
# Bulk Modulus (GPa) = 62.38084 71.54599 66.96341
# Shear Modulus (GPa) = 23.69482 5.18093 14.43788
#
# Velocity S-wave (km/s) = 3.69514 1.72786 2.88440
# Velocity P-wave (km/s) = 7.35882 6.72375 7.04844
#
# Compressibility (1/GPa) = 0.01603056
#
# Stress axis : x y z
#
# Youngs Moduli (GPa) = 51.57199 46.62379 32.08839
#
# Poissons Ratio (x) = 0.38155 0.38924
# Poissons Ratio (y) = 0.42205 0.24619
# Poissons Ratio (z) = 0.62557 0.35771
#
# Static dielectric constant tensor:
#      x y z
#    x 1.573580 0.000000 0.000000 
#    y 0.000000 1.576720 0.000000 
#    z 0.000000 0.000000 1.603960 
# 
# From -- ./inp_files/29546.got.cif
#   From: 2010.05.17/outbox.cif.g08.bks.cpg/sg51_15_cif.got.tgz:29546.got - 2010.06.03 11:52:47.
