data_PCOD9403986
_publ_section_title
;
Structure prediction by ZEFSAII (Michael W. Deem and Ramdas Pophale) SiO2 
 PCOD9403986
Probable space group: P M M A
;
_chemical_formula_sum "Si O2"
_cell_formula_units_Z 40
_cell_length_a 15.491875
_cell_length_b 7.811223
_cell_length_c 15.512110
_cell_angle_alpha 90.000000
_cell_angle_beta 90.000000
_cell_angle_gamma 90.000000
_cell_volume 1877.128037
_symmetry_space_group_name_H-M "P M M A"
_symmetry_group_IT_number 51
_symmetry_cell_setting 'orthorhombic'
loop_
_space_group_symop_operation_xyz
x,y,z
1/2-x,-y,z
1/2+x,-y,-z
-x,y,-z
-x,-y,-z
1/2+x,y,-z
1/2-x,y,z
x,-y,z
loop_
_atom_site_type_symbol
_atom_site_label
_atom_site_fract_x
_atom_site_fract_y
_atom_site_fract_z
Si Si1 0.112307 0.707644 0.325597
Si Si2 0.750000 0.289677 0.336959
Si Si3 0.750000 0.304535 0.010652
Si Si4 0.068487 0.299833 0.731703
Si Si5 0.750000 0.708605 0.535824
Si Si6 0.250000 0.800571 0.182334
Si Si7 0.936394 0.199991 0.074113
O O1 0.110902 0.500000 0.326776
O O2 0.166464 0.764072 0.409125
O O3 0.167642 0.759576 0.241867
O O4 0.014956 0.773164 0.317120
O O5 0.750000 0.500000 0.332354
O O6 0.837864 0.227642 0.292116
O O7 0.750000 0.238661 0.437065
O O8 0.750000 0.500000 0.042089
O O9 0.750000 0.298944 0.907081
O O10 0.837758 0.219697 0.043900
O O11 0.071773 0.500000 0.708019
O O12 0.052600 0.285845 0.833459
O O13 0.750000 0.500000 0.535976
O O14 0.250000 0.000000 0.159883
O O15 0.957146 0.000000 0.085681
O O16 0.000000 0.269257 0.000000
#
# Coordination Sequence:
#
# PCOD9403986 Si02
#       7
#     8   4   4   8   4   4   8
#     4   9  18  33  54  80 109 142 182 227 276 327
#     4   9  18  32  52  81 113 144 183 227 272 323
#     4  12  24  38  58  81 110 147 186 231 280 331
#     4  10  20  34  54  80 110 146 186 228 275 326
#     4   8  15  30  52  80 112 142 178 228 277 322
#     4  11  21  34  54  80 109 141 179 226 279 332
#     4  11  24  40  58  82 112 147 189 233 278 331
#
# _framework density 21.309149000000001
#
# number of rings (size 3 to 8) (size 9 to 14) (size 15 to 20)
#    0.000    2.000    0.000    4.800    0.000    7.200 
#    0.000    4.000    0.000    4.800    0.000    7.000 
#    0.000    0.000    0.000    0.000    0.000    0.000 
#
# Total GULP energy -223499.521145 kJ/mol
# GULP energy per Si atom -5587.488029 kJ/mol
# Density = 2.126065 g / cm^3
# Si number density = 21.309149 Si / 1000 Ang^3
#
#
#
# Elastic Constant Matrix: (Units=GPa)
#
#
# Indices 1 2 3 4 5 6 
#
# 1 191.1850 0.3818 58.4519 0.0000 0.0000 0.0000
# 2 0.3818 35.2256 -11.9215 0.0000 0.0000 0.0000
# 3 58.4519 -11.9215 88.2335 0.0000 0.0000 0.0000
# 4 0.0000 0.0000 0.0000 -150.2710 0.0000 0.0000
# 5 0.0000 0.0000 0.0000 0.0000 -6.2764 0.0000
# 6 0.0000 0.0000 0.0000 0.0000 0.0000 20.5067
#
#
#
# Elastic Compliance Matrix: (Units=1/GPa)
#
#
# Indices 1 2 3 4 5 6 
#
# 1 0.006648 -0.001637 -0.004625 0.000000 0.000000 0.000000
# 2 -0.001637 0.030152 0.005159 0.000000 0.000000 0.000000
# 3 -0.004625 0.005159 0.015095 0.000000 0.000000 0.000000
# 4 0.000000 0.000000 0.000000 -0.006655 0.000000 0.000000
# 5 0.000000 0.000000 0.000000 0.000000 -0.159328 0.000000
# 6 0.000000 0.000000 0.000000 0.000000 0.000000 0.048765
#
#
# Mechanical properties :
#
#
# Convention : Reuss Voigt Hill
#
# Bulk Modulus (GPa) = 20.12616 45.38539 32.75578
# Shear Modulus (GPa) = -107.40469 -9.35934 -58.38202
#
# Velocity S-wave (km/s) = -7.10722 -2.09802 -5.23995
# Velocity P-wave (km/s) = 7.60820 3.93393 4.60482
#
# Compressibility (1/GPa) = 0.04968658
#
# Stress axis : x y z
#
# Youngs Moduli (GPa) = 150.42327 33.16525 66.24863
#
# Poissons Ratio (x) = 0.05430 0.30642
# Poissons Ratio (y) = 0.24630 -0.34175
# Poissons Ratio (z) = 0.69575 -0.17109
#
# Static dielectric constant tensor:
#      x y z
#    x 1.795190 0.000000 0.000000 
#    y 0.000000 1.764060 0.000000 
#    z 0.000000 0.000000 1.720080 
# 
# From -- ./inp_files/23868.got.cif
#   From: 2010.05.17/outbox.cif.g08.bks.cpg/sg51_12_cif.got.tgz:23868.got - 2010.06.03 11:52:47.
