data_PCOD9403972
_publ_section_title
;
Structure prediction by ZEFSAII (Michael W. Deem and Ramdas Pophale) SiO2 
 PCOD9403972
Probable space group: P M M A
;
_chemical_formula_sum "Si O2"
_cell_formula_units_Z 64
_cell_length_a 34.462329
_cell_length_b 8.884186
_cell_length_c 10.882368
_cell_angle_alpha 90.000000
_cell_angle_beta 90.000000
_cell_angle_gamma 90.000000
_cell_volume 3331.851790
_symmetry_space_group_name_H-M "P M M A"
_symmetry_group_IT_number 51
_symmetry_cell_setting 'orthorhombic'
loop_
_space_group_symop_operation_xyz
x,y,z
1/2-x,-y,z
1/2+x,-y,-z
-x,y,-z
-x,-y,-z
1/2+x,y,-z
1/2-x,y,z
x,-y,z
loop_
_atom_site_type_symbol
_atom_site_label
_atom_site_fract_x
_atom_site_fract_y
_atom_site_fract_z
Si Si1 0.626606 0.180278 0.170933
Si Si2 0.293785 0.818539 0.711496
Si Si3 0.872448 0.678099 0.674962
Si Si4 0.942792 0.173090 0.550307
Si Si5 0.942106 0.322970 0.302596
Si Si6 0.706695 0.680759 0.557638
Si Si7 0.414125 0.678029 0.065063
Si Si8 0.486615 0.824548 0.188077
O O1 0.670754 0.227145 0.200784
O O2 0.598228 0.238350 0.278103
O O3 0.624923 0.000000 0.163662
O O4 0.608616 0.251233 0.048485
O O5 0.250000 0.773096 0.749968
O O6 0.300518 0.753135 0.575469
O O7 0.294473 0.000000 0.704047
O O8 0.878027 0.500000 0.645714
O O9 0.899610 0.776644 0.587344
O O10 0.827865 0.718062 0.650639
O O11 0.887736 0.699525 0.812976
O O12 0.955874 0.277351 0.438675
O O13 0.966629 0.186508 0.676760
O O14 0.945084 0.000000 0.509284
O O15 0.937045 0.500000 0.292053
O O16 0.973483 0.264755 0.203995
O O17 0.750000 0.726352 0.598216
O O18 0.706544 0.500000 0.542901
O O19 0.419942 0.500000 0.046589
O O20 0.455387 0.755722 0.094575
O O21 0.493745 0.000000 0.161642
#
# Coordination Sequence:
#
# PCOD9403972 Si02
#       8
#     8   8   8   8   8   8   8   8
#     4  11  23  39  58  79 106 142 184 227 270 318
#     4   9  19  36  57  81 109 140 174 216 266 316
#     4   9  18  33  53  76 105 141 177 217 266 318
#     4  10  20  34  54  80 109 140 176 220 268 321
#     4  12  24  36  54  81 112 143 178 222 270 321
#     4   9  17  30  51  80 111 140 171 210 260 319
#     4  10  21  38  57  78 106 141 183 227 270 317
#     4  10  21  38  58  80 108 143 182 222 268 320
#
# _framework density 19.208537
#
# number of rings (size 3 to 8) (size 9 to 14) (size 15 to 20)
#    0.000    2.000    0.000    3.750    0.000    7.500 
#    0.000    3.125    0.000    0.750    0.000    0.000 
#    0.000    0.000    0.000    0.000    0.000    0.000 
#
# Total GULP energy -357500.860660 kJ/mol
# GULP energy per Si atom -5585.950948 kJ/mol
# Density = 1.916482 g / cm^3
# Si number density = 19.208537 Si / 1000 Ang^3
#
#
#
# Elastic Constant Matrix: (Units=GPa)
#
#
# Indices 1 2 3 4 5 6 
#
# 1 78.1897 10.9181 6.2510 0.0000 0.0000 0.0000
# 2 10.9181 44.0343 16.2623 0.0000 0.0000 0.0000
# 3 6.2510 16.2623 47.1766 0.0000 0.0000 0.0000
# 4 0.0000 0.0000 0.0000 26.0336 0.0000 0.0000
# 5 0.0000 0.0000 0.0000 0.0000 27.2153 0.0000
# 6 0.0000 0.0000 0.0000 0.0000 0.0000 23.1861
#
#
#
# Elastic Compliance Matrix: (Units=1/GPa)
#
#
# Indices 1 2 3 4 5 6 
#
# 1 0.013269 -0.003026 -0.000715 0.000000 0.000000 0.000000
# 2 -0.003026 0.026712 -0.008807 0.000000 0.000000 0.000000
# 3 -0.000715 -0.008807 0.024328 0.000000 0.000000 0.000000
# 4 0.000000 0.000000 0.000000 0.038412 0.000000 0.000000
# 5 0.000000 0.000000 0.000000 0.000000 0.036744 0.000000
# 6 0.000000 0.000000 0.000000 0.000000 0.000000 0.043129
#
#
# Mechanical properties :
#
#
# Convention : Reuss Voigt Hill
#
# Bulk Modulus (GPa) = 25.50186 26.25147 25.87667
# Shear Modulus (GPa) = 22.64888 24.35163 23.50025
#
# Velocity S-wave (km/s) = 3.43753 3.56441 3.50155
# Velocity P-wave (km/s) = 5.39079 5.53500 5.46337
#
# Compressibility (1/GPa) = 0.03921283
#
# Stress axis : x y z
#
# Youngs Moduli (GPa) = 75.36305 37.43582 41.10553
#
# Poissons Ratio (x) = 0.11328 0.02939
# Poissons Ratio (y) = 0.22804 0.36202
# Poissons Ratio (z) = 0.05389 0.32970
#
# Static dielectric constant tensor:
#      x y z
#    x 1.691060 0.000000 0.000000 
#    y 0.000000 1.639250 0.000000 
#    z 0.000000 0.000000 1.675020 
# 
# From -- ./inp_files/19478.got.cif
#   From: 2010.05.17/outbox.cif.g08.bks.cpg/sg51_10_cif.got.tgz:19478.got - 2010.06.03 11:52:47.
