data_PCOD9403305
_publ_section_title
;
Structure prediction by ZEFSAII (Michael W. Deem and Ramdas Pophale) SiO2 
 PCOD9403305
Probable space group: P M M A
;
_chemical_formula_sum "Si O2"
_cell_formula_units_Z 64
_cell_length_a 14.030018
_cell_length_b 9.604338
_cell_length_c 21.115073
_cell_angle_alpha 90.000000
_cell_angle_beta 90.000000
_cell_angle_gamma 90.000000
_cell_volume 2845.235711
_symmetry_space_group_name_H-M "P M M A"
_symmetry_group_IT_number 51
_symmetry_cell_setting 'orthorhombic'
loop_
_space_group_symop_operation_xyz
x,y,z
1/2-x,-y,z
1/2+x,-y,-z
-x,y,-z
-x,-y,-z
1/2+x,y,-z
1/2-x,y,z
x,-y,z
loop_
_atom_site_type_symbol
_atom_site_label
_atom_site_fract_x
_atom_site_fract_y
_atom_site_fract_z
Si Si1 0.366173 0.660080 0.845608
Si Si2 0.633860 0.660049 0.771804
Si Si3 0.133304 0.340423 0.702533
Si Si4 0.134228 0.839368 0.348005
Si Si5 0.605141 0.342538 0.527557
Si Si6 0.366277 0.340275 0.084727
Si Si7 0.366731 0.159624 0.965285
Si Si8 0.641156 0.153513 0.410147
O O1 0.250000 0.662103 0.845725
O O2 0.394572 0.500000 0.856862
O O3 0.395161 0.698470 0.774057
O O4 0.397520 0.757616 0.902637
O O5 0.750000 0.660803 0.772071
O O6 0.605253 0.500000 0.758250
O O7 0.603562 0.765410 0.717223
O O8 0.603479 0.694855 0.843554
O O9 0.250000 0.341758 0.701755
O O10 0.104429 0.500000 0.689405
O O11 0.096530 0.239090 0.647806
O O12 0.250000 0.842483 0.347509
O O13 0.108108 0.742441 0.407469
O O14 0.102273 0.000000 0.353341
O O15 0.500000 0.357003 0.500000
O O16 0.643742 0.500000 0.534260
O O17 0.647738 0.245331 0.472980
O O18 0.250000 0.338157 0.085104
O O19 0.393938 0.500000 0.070854
O O20 0.396945 0.237428 0.029350
O O21 0.250000 0.161279 0.965146
O O22 0.396848 0.000000 0.963729
O O23 0.750000 0.134388 0.389639
O O24 0.599645 0.000000 0.422228
#
# Coordination Sequence:
#
# PCOD9403305 Si02
#       8
#     8   8   8   8   8   8   8   8
#     4   8  13  21  32  46  68 102 143 182 219 262
#     4   8  14  25  41  60  82 111 148 188 227 267
#     4   8  14  25  41  60  82 111 148 188 227 267
#     4  10  20  33  51  75  99 123 153 190 234 283
#     4  11  24  39  54  72  94 123 158 193 230 274
#     4   8  13  21  32  46  68 102 143 182 219 262
#     4   9  15  19  25  41  67 101 140 181 224 267
#     4  10  20  33  51  75  99 123 153 190 234 283
#
# _framework density 22.493742000000001
#
# number of rings (size 3 to 8) (size 9 to 14) (size 15 to 20)
#    0.000    3.000    0.000    3.375    0.000    6.500 
#    0.000    5.000    0.000    0.000    0.000    0.000 
#    0.000    0.000    0.000    1.125    0.000   23.000 
#
# Total GULP energy -357581.209400 kJ/mol
# GULP energy per Si atom -5587.206397 kJ/mol
# Density = 2.244255 g / cm^3
# Si number density = 22.493742 Si / 1000 Ang^3
#
#
#
# Elastic Constant Matrix: (Units=GPa)
#
#
# Indices 1 2 3 4 5 6 
#
# 1 65.9818 16.3169 13.5169 0.0000 0.0000 0.0000
# 2 16.3169 215.2554 172.2155 0.0000 0.0000 0.0000
# 3 13.5169 172.2155 218.7553 0.0000 0.0000 0.0000
# 4 0.0000 0.0000 0.0000 -17.8706 0.0000 0.0000
# 5 0.0000 0.0000 0.0000 0.0000 28.4667 0.0000
# 6 0.0000 0.0000 0.0000 0.0000 0.0000 14.8501
#
#
#
# Elastic Compliance Matrix: (Units=1/GPa)
#
#
# Indices 1 2 3 4 5 6 
#
# 1 0.015446 -0.001100 -0.000088 0.000000 0.000000 0.000000
# 2 -0.001100 0.012629 -0.009874 0.000000 0.000000 0.000000
# 3 -0.000088 -0.009874 0.012350 0.000000 0.000000 0.000000
# 4 0.000000 0.000000 0.000000 -0.055958 0.000000 0.000000
# 5 0.000000 0.000000 0.000000 0.000000 0.035129 0.000000
# 6 0.000000 0.000000 0.000000 0.000000 0.000000 0.067340
#
#
# Mechanical properties :
#
#
# Convention : Reuss Voigt Hill
#
# Bulk Modulus (GPa) = 54.64564 100.45458 77.55011
# Shear Modulus (GPa) = 43.41766 24.95211 34.18489
#
# Velocity S-wave (km/s) = 4.39818 3.33422 3.90263
# Velocity P-wave (km/s) = 7.08085 7.71871 7.40665
#
# Compressibility (1/GPa) = 0.01829972
#
# Stress axis : x y z
#
# Youngs Moduli (GPa) = 64.74229 79.18393 80.97061
#
# Poissons Ratio (x) = 0.08712 0.00714
# Poissons Ratio (y) = 0.07123 0.79951
# Poissons Ratio (z) = 0.00571 0.78187
#
# Static dielectric constant tensor:
#      x y z
#    x 1.725590 0.000000 0.000000 
#    y 0.000000 1.792780 0.000000 
#    z 0.000000 0.000000 1.770880 
# 
# From -- ./inp_files/34083.got.cif
#   From: 2010.05.17/outbox.cif.g08.bks.cpg/sg51_18_cif.got.tgz:34083.got - 2010.06.03 11:52:47.
