data_PCOD9403239
_publ_section_title
;
Structure prediction by ZEFSAII (Michael W. Deem and Ramdas Pophale) SiO2 
 PCOD9403239
Probable space group: P M M A
;
_chemical_formula_sum "Si O2"
_cell_formula_units_Z 64
_cell_length_a 9.071957
_cell_length_b 28.499331
_cell_length_c 14.033834
_cell_angle_alpha 90.000000
_cell_angle_beta 90.000000
_cell_angle_gamma 90.000000
_cell_volume 3628.373477
_symmetry_space_group_name_H-M "P M M A"
_symmetry_group_IT_number 51
_symmetry_cell_setting 'orthorhombic'
loop_
_space_group_symop_operation_xyz
x,y,z
1/2-x,-y,z
1/2+x,-y,-z
-x,y,-z
-x,-y,-z
1/2+x,y,-z
1/2-x,y,z
x,-y,z
loop_
_atom_site_type_symbol
_atom_site_label
_atom_site_fract_x
_atom_site_fract_y
_atom_site_fract_z
Si Si1 0.576094 0.685015 0.897348
Si Si2 0.573800 0.145100 0.099868
Si Si3 0.576078 0.221101 0.771033
Si Si4 0.581752 0.057130 0.595213
Si Si5 0.575610 0.631601 0.271282
Si Si6 0.575171 0.274776 0.397188
Si Si7 0.424228 0.555684 0.398743
Si Si8 0.073439 0.946482 0.792330
O O1 0.750000 0.675435 0.906491
O O2 0.559829 0.735232 0.844535
O O3 0.499578 0.647826 0.826817
O O4 0.500000 0.685998 0.000000
O O5 0.750000 0.150762 0.094646
O O6 0.507185 0.177636 0.182038
O O7 0.538304 0.091297 0.127148
O O8 0.500000 0.157856 0.000000
O O9 0.750000 0.211943 0.758937
O O10 0.502145 0.237495 0.672742
O O11 0.500000 0.073745 0.500000
O O12 0.750000 0.073329 0.597127
O O13 0.499034 0.068810 0.692717
O O14 0.582834 0.000000 0.591161
O O15 0.750000 0.624587 0.258334
O O16 0.555418 0.674778 0.345567
O O17 0.499465 0.586527 0.317465
O O18 0.500000 0.275073 0.500000
O O19 0.750000 0.265912 0.404485
O O20 0.500000 0.566922 0.500000
O O21 0.250000 0.565765 0.404239
O O22 0.443264 0.500000 0.382199
O O23 0.250000 0.946661 0.779631
O O24 0.026543 0.000000 0.813800
#
# Coordination Sequence:
#
# PCOD9403239 Si02
#       8
#     8   8   8   8   8   8   8   8
#     4  10  20  34  54  79 106 136 173 218 266 316
#     4  11  23  38  57  79 104 135 171 212 258 308
#     4  10  21  37  57  80 107 139 174 213 258 309
#     4   9  16  27  47  74 101 129 160 196 239 286
#     4  10  20  33  52  78 108 143 182 224 269 318
#     4  10  20  34  54  81 113 146 179 216 261 314
#     4  10  20  33  50  74 106 144 185 228 272 319
#     4   9  19  36  55  76 104 136 170 209 252 299
#
# _framework density 17.638756999999998
#
# number of rings (size 3 to 8) (size 9 to 14) (size 15 to 20)
#    0.000    2.125    0.000    3.375    0.000    8.500 
#    0.000    0.625    0.000    3.375    0.000    0.000 
#    0.000    0.000    0.000    0.000    0.000    0.000 
#
# Total GULP energy -357333.279755 kJ/mol
# GULP energy per Si atom -5583.332496 kJ/mol
# Density = 1.759861 g / cm^3
# Si number density = 17.638757 Si / 1000 Ang^3
#
#
#
# Elastic Constant Matrix: (Units=GPa)
#
#
# Indices 1 2 3 4 5 6 
#
# 1 102.2360 46.4212 65.3015 0.0000 0.0000 0.0000
# 2 46.4212 45.9774 26.4102 0.0000 0.0000 0.0000
# 3 65.3015 26.4102 112.3745 0.0000 0.0000 0.0000
# 4 0.0000 0.0000 0.0000 22.9209 0.0000 0.0000
# 5 0.0000 0.0000 0.0000 0.0000 35.3184 0.0000
# 6 0.0000 0.0000 0.0000 0.0000 0.0000 24.2940
#
#
#
# Elastic Compliance Matrix: (Units=1/GPa)
#
#
# Indices 1 2 3 4 5 6 
#
# 1 0.024994 -0.019529 -0.009935 0.000000 0.000000 0.000000
# 2 -0.019529 0.040403 0.001853 0.000000 0.000000 0.000000
# 3 -0.009935 0.001853 0.014236 0.000000 0.000000 0.000000
# 4 0.000000 0.000000 0.000000 0.043628 0.000000 0.000000
# 5 0.000000 0.000000 0.000000 0.000000 0.028314 0.000000
# 6 0.000000 0.000000 0.000000 0.000000 0.000000 0.041162
#
#
# Mechanical properties :
#
#
# Convention : Reuss Voigt Hill
#
# Bulk Modulus (GPa) = 40.96304 59.65042 50.30673
# Shear Modulus (GPa) = 19.52395 24.67033 22.09714
#
# Velocity S-wave (km/s) = 3.33059 3.74390 3.54328
# Velocity P-wave (km/s) = 6.16961 7.25123 6.73218
#
# Compressibility (1/GPa) = 0.02441225
#
# Stress axis : x y z
#
# Youngs Moduli (GPa) = 40.00964 24.75086 70.24255
#
# Poissons Ratio (x) = 0.48335 0.69783
# Poissons Ratio (y) = 0.78133 -0.13015
# Poissons Ratio (z) = 0.39748 -0.04586
#
# Static dielectric constant tensor:
#      x y z
#    x 1.585130 0.000000 0.000000 
#    y 0.000000 1.601640 0.000000 
#    z 0.000000 0.000000 1.570650 
# 
# From -- ./inp_files/14861.got.cif
#   From: 2010.05.17/outbox.cif.g08.bks.cpg/sg51_8_cif.got.tgz:14861.got - 2010.06.03 11:52:47.
