data_PCOD9403191
_publ_section_title
;
Structure prediction by ZEFSAII (Michael W. Deem and Ramdas Pophale) SiO2 
 PCOD9403191
Probable space group: P M M A
;
_chemical_formula_sum "Si O2"
_cell_formula_units_Z 64
_cell_length_a 20.737881
_cell_length_b 7.889562
_cell_length_c 20.744097
_cell_angle_alpha 90.000000
_cell_angle_beta 90.000000
_cell_angle_gamma 90.000000
_cell_volume 3393.999750
_symmetry_space_group_name_H-M "P M M A"
_symmetry_group_IT_number 51
_symmetry_cell_setting 'orthorhombic'
loop_
_space_group_symop_operation_xyz
x,y,z
1/2-x,-y,z
1/2+x,-y,-z
-x,y,-z
-x,-y,-z
1/2+x,y,-z
1/2-x,y,z
x,-y,z
loop_
_atom_site_type_symbol
_atom_site_label
_atom_site_fract_x
_atom_site_fract_y
_atom_site_fract_z
Si Si1 0.822642 0.292380 0.569383
Si Si2 0.103833 0.295622 0.305004
Si Si3 0.931387 0.707279 0.469610
Si Si4 0.436713 0.203110 0.814948
Si Si5 0.956601 0.295368 0.327472
Si Si6 0.677386 0.799091 0.095294
Si Si7 0.677274 0.700668 0.950518
Si Si8 0.417858 0.200701 0.163063
O O1 0.750000 0.237094 0.556859
O O2 0.823349 0.500000 0.569226
O O3 0.847208 0.238133 0.639957
O O4 0.873406 0.236685 0.515358
O O5 0.104178 0.500000 0.305179
O O6 0.114727 0.239071 0.231999
O O7 0.031553 0.240190 0.324518
O O8 0.931213 0.500000 0.469808
O O9 0.927139 0.762316 0.395260
O O10 0.000000 0.758473 0.500000
O O11 0.425504 0.237255 0.739349
O O12 0.379050 0.271354 0.859304
O O13 0.508486 0.270084 0.832933
O O14 0.439271 0.000000 0.823629
O O15 0.956185 0.500000 0.327548
O O16 0.750000 0.728448 0.104949
O O17 0.681055 0.000000 0.108384
O O18 0.660638 0.777693 0.020030
O O19 0.750000 0.760514 0.932769
O O20 0.680191 0.500000 0.959825
O O21 0.625363 0.735709 0.895494
O O22 0.422688 0.000000 0.156103
#
# Coordination Sequence:
#
# PCOD9403191 Si02
#       8
#     8   8   8   8   8   8   8   8
#     4   9  16  25  40  65  94 121 154 200 247 287
#     4   9  16  28  45  66  93 125 162 200 240 286
#     4   9  14  24  43  65  88 120 159 195 235 287
#     4   9  19  34  51  74 103 130 161 204 246 288
#     4   9  16  27  47  71  93 123 163 201 239 289
#     4   9  18  35  57  75  94 128 170 204 240 291
#     4  10  21  36  53  74 100 129 163 204 245 288
#     4  10  20  33  50  73 102 133 163 198 242 292
#
# _framework density 18.856807
#
# number of rings (size 3 to 8) (size 9 to 14) (size 15 to 20)
#    0.000    2.750    1.250    0.750    0.000    2.750 
#    0.000    4.375    0.000    1.875    0.000    0.000 
#    0.000    0.000    0.000    0.000    0.000    0.000 
#
# Total GULP energy -356826.051281 kJ/mol
# GULP energy per Si atom -5575.407051 kJ/mol
# Density = 1.881389 g / cm^3
# Si number density = 18.856807 Si / 1000 Ang^3
#
#
#
# Elastic Constant Matrix: (Units=GPa)
#
#
# Indices 1 2 3 4 5 6 
#
# 1 127.6878 5.8365 103.2504 0.0000 0.0000 0.0000
# 2 5.8365 15.4317 -0.5963 0.0000 0.0000 0.0000
# 3 103.2504 -0.5963 142.4765 0.0000 0.0000 0.0000
# 4 0.0000 0.0000 0.0000 30.8885 0.0000 0.0000
# 5 0.0000 0.0000 0.0000 0.0000 32.0522 0.0000
# 6 0.0000 0.0000 0.0000 0.0000 0.0000 9.0422
#
#
#
# Elastic Compliance Matrix: (Units=1/GPa)
#
#
# Indices 1 2 3 4 5 6 
#
# 1 0.019874 -0.008075 -0.014436 0.000000 0.000000 0.000000
# 2 -0.008075 0.068093 0.006136 0.000000 0.000000 0.000000
# 3 -0.014436 0.006136 0.017506 0.000000 0.000000 0.000000
# 4 0.000000 0.000000 0.000000 0.032374 0.000000 0.000000
# 5 0.000000 0.000000 0.000000 0.000000 0.031199 0.000000
# 6 0.000000 0.000000 0.000000 0.000000 0.000000 0.110593
#
#
# Mechanical properties :
#
#
# Convention : Reuss Voigt Hill
#
# Bulk Modulus (GPa) = 13.75055 55.84192 34.79623
# Shear Modulus (GPa) = 14.85313 26.20360 20.52837
#
# Velocity S-wave (km/s) = 2.80961 3.73179 3.30304
# Velocity P-wave (km/s) = 4.22293 6.94596 5.74802
#
# Compressibility (1/GPa) = 0.07272439
#
# Stress axis : x y z
#
# Youngs Moduli (GPa) = 50.31697 14.68585 57.12310
#
# Poissons Ratio (x) = 0.11858 0.82464
# Poissons Ratio (y) = 0.40628 -0.35053
# Poissons Ratio (z) = 0.72638 -0.09012
#
# Static dielectric constant tensor:
#      x y z
#    x 1.669600 0.000000 0.000000 
#    y 0.000000 1.686680 0.000000 
#    z 0.000000 0.000000 1.634940 
# 
# From -- ./inp_files/30526.got.cif
#   From: 2010.05.17/outbox.cif.g08.bks.cpg/sg51_16_cif.got.tgz:30526.got - 2010.06.03 11:52:47.
