data_PCOD9403344
_publ_section_title
;
Structure prediction by ZEFSAII (Michael W. Deem and Ramdas Pophale) SiO2 
 PCOD9403344
Probable space group: P M M A
;
_chemical_formula_sum "Si O2"
_cell_formula_units_Z 48
_cell_length_a 9.005096
_cell_length_b 16.139019
_cell_length_c 19.267207
_cell_angle_alpha 90.000000
_cell_angle_beta 90.000000
_cell_angle_gamma 90.000000
_cell_volume 2800.168999
_symmetry_space_group_name_H-M "P M M A"
_symmetry_group_IT_number 51
_symmetry_cell_setting 'orthorhombic'
loop_
_space_group_symop_operation_xyz
x,y,z
1/2-x,-y,z
1/2+x,-y,-z
-x,y,-z
-x,-y,-z
1/2+x,y,-z
1/2-x,y,z
x,-y,z
loop_
_atom_site_type_symbol
_atom_site_label
_atom_site_fract_x
_atom_site_fract_y
_atom_site_fract_z
Si Si1 0.572525 0.408637 0.331610
Si Si2 0.427328 0.094912 0.575727
Si Si3 0.073790 0.238804 0.335430
Si Si4 0.427148 0.410413 0.179975
Si Si5 0.426916 0.095048 0.925522
Si Si6 0.425241 0.769809 0.169207
O O1 0.750000 0.399222 0.334528
O O2 0.533878 0.500000 0.361401
O O3 0.493691 0.326679 0.360481
O O4 0.517913 0.411456 0.251619
O O5 0.500000 0.104740 0.500000
O O6 0.250000 0.105152 0.570967
O O7 0.496450 0.162639 0.626388
O O8 0.457513 0.000000 0.598774
O O9 0.250000 0.238117 0.347358
O O10 0.049362 0.230880 0.252282
O O11 0.250000 0.405539 0.197040
O O12 0.451956 0.500000 0.144973
O O13 0.462952 0.323647 0.143462
O O14 0.250000 0.099731 0.931913
O O15 0.483970 0.160046 0.869396
O O16 0.467011 0.000000 0.906728
O O17 0.500000 0.113001 0.000000
O O18 0.250000 0.784036 0.157537
#
# Coordination Sequence:
#
# PCOD9403344 Si02
#       6
#     8   8   8   8   8   8
#     4   9  16  26  43  69 100 132 166 205 247 291
#     4  10  21  37  56  76 100 132 169 208 250 299
#     4  10  20  33  51  76 105 136 169 206 248 293
#     4   8  14  26  44  67  97 131 163 195 237 290
#     4  10  21  36  53  71  93 125 163 202 246 297
#     4   9  18  31  49  75 103 130 161 200 244 286
#
# _framework density 17.141822999999999
#
# number of rings (size 3 to 8) (size 9 to 14) (size 15 to 20)
#    0.000    2.667    0.000    3.000    0.000    7.000 
#    0.000    3.333    0.000    1.000    0.000    0.000 
#    0.000    0.000    0.000    0.000    0.000    0.000 
#
# Total GULP energy -267350.018546 kJ/mol
# GULP energy per Si atom -5569.792053 kJ/mol
# Density = 1.710281 g / cm^3
# Si number density = 17.141823 Si / 1000 Ang^3
#
#
#
# Elastic Constant Matrix: (Units=GPa)
#
#
# Indices 1 2 3 4 5 6 
#
# 1 71.4960 80.9656 34.0470 0.0000 0.0000 0.0000
# 2 80.9656 173.9310 57.8744 0.0000 0.0000 0.0000
# 3 34.0470 57.8744 28.2197 0.0000 0.0000 0.0000
# 4 0.0000 0.0000 0.0000 -15.2021 0.0000 0.0000
# 5 0.0000 0.0000 0.0000 0.0000 26.4118 0.0000
# 6 0.0000 0.0000 0.0000 0.0000 0.0000 30.9266
#
#
#
# Elastic Compliance Matrix: (Units=1/GPa)
#
#
# Indices 1 2 3 4 5 6 
#
# 1 0.035497 -0.007159 -0.028145 0.000000 0.000000 0.000000
# 2 -0.007159 0.019547 -0.031450 0.000000 0.000000 0.000000
# 3 -0.028145 -0.031450 0.133893 0.000000 0.000000 0.000000
# 4 0.000000 0.000000 0.000000 -0.065780 0.000000 0.000000
# 5 0.000000 0.000000 0.000000 0.000000 0.037862 0.000000
# 6 0.000000 0.000000 0.000000 0.000000 0.000000 0.032335
#
#
# Mechanical properties :
#
#
# Convention : Reuss Voigt Hill
#
# Bulk Modulus (GPa) = 18.04141 68.82451 43.43296
# Shear Modulus (GPa) = 14.47863 15.14457 14.81160
#
# Velocity S-wave (km/s) = 2.90942 2.97557 2.94268
# Velocity P-wave (km/s) = 4.67268 7.21406 6.07769
#
# Compressibility (1/GPa) = 0.05542804
#
# Stress axis : x y z
#
# Youngs Moduli (GPa) = 28.17168 51.15938 7.46866
#
# Poissons Ratio (x) = 0.36624 0.21020
# Poissons Ratio (y) = 0.20168 0.23489
# Poissons Ratio (z) = 0.79289 1.60898
#
# Static dielectric constant tensor:
#      x y z
#    x 1.570600 0.000000 0.000000 
#    y 0.000000 1.628280 0.000000 
#    z 0.000000 0.000000 1.544980 
# 
# From -- ./inp_files/27532.got.cif
#   From: 2010.05.17/outbox.cif.g08.bks.cpg/sg51_14_cif.got.tgz:27532.got - 2010.06.03 11:52:47.
