data_PCOD9403036
_publ_section_title
;
Structure prediction by ZEFSAII (Michael W. Deem and Ramdas Pophale) SiO2 
 PCOD9403036
Probable space group: P M M A
;
_chemical_formula_sum "Si O2"
_cell_formula_units_Z 56
_cell_length_a 14.152978
_cell_length_b 14.178365
_cell_length_c 14.717419
_cell_angle_alpha 90.000000
_cell_angle_beta 90.000000
_cell_angle_gamma 90.000000
_cell_volume 2953.286895
_symmetry_space_group_name_H-M "P M M A"
_symmetry_group_IT_number 51
_symmetry_cell_setting 'orthorhombic'
loop_
_space_group_symop_operation_xyz
x,y,z
1/2-x,-y,z
1/2+x,-y,-z
-x,y,-z
-x,-y,-z
1/2+x,y,-z
1/2-x,y,z
x,-y,z
loop_
_atom_site_type_symbol
_atom_site_label
_atom_site_fract_x
_atom_site_fract_y
_atom_site_fract_z
Si Si1 0.363895 0.208062 0.878195
Si Si2 0.139126 0.891496 0.520350
Si Si3 0.364860 0.103475 0.058192
Si Si4 0.546862 0.894451 0.286533
Si Si5 0.365082 0.604607 0.986454
Si Si6 0.136084 0.707060 0.162918
Si Si7 0.860734 0.186703 0.670712
O O1 0.250000 0.207870 0.868583
O O2 0.410953 0.179067 0.784474
O O3 0.392112 0.309380 0.920236
O O4 0.388974 0.130700 0.954811
O O5 0.250000 0.890110 0.543123
O O6 0.082195 0.872342 0.611571
O O7 0.125135 0.819220 0.437476
O O8 0.117050 0.000000 0.490292
O O9 0.250000 0.101475 0.063403
O O10 0.393336 0.193286 0.117626
O O11 0.400521 0.000000 0.083249
O O12 0.433931 0.889062 0.290929
O O13 0.579761 0.000000 0.263923
O O14 0.250000 0.605179 0.986104
O O15 0.395692 0.500000 0.959728
O O16 0.395920 0.629192 0.090092
O O17 0.250000 0.701585 0.159065
O O18 0.115206 0.719436 0.270185
O O19 0.750000 0.164094 0.686829
#
# Coordination Sequence:
#
# PCOD9403036 Si02
#       7
#     8   8   8   8   8   8   8
#     4   9  17  29  46  70  99 128 160 200 245 291
#     4   9  18  32  49  69  93 124 164 205 243 285
#     4   8  13  22  37  57  85 123 160 190 224 270
#     4  11  21  31  46  69  98 133 170 205 240 283
#     4   8  14  28  52  78 101 127 161 203 251 299
#     4   8  15  27  44  67  93 123 159 197 238 286
#     4  10  20  33  47  64  92 129 168 209 246 281
#
# _framework density 18.961922999999999
#
# number of rings (size 3 to 8) (size 9 to 14) (size 15 to 20)
#    0.000    3.000    0.000    3.429    0.000    4.571 
#    0.000    7.143    0.000    6.000    0.000    1.000 
#    0.000    8.000    0.000    0.286    0.000    0.143 
#
# Total GULP energy -312113.376772 kJ/mol
# GULP energy per Si atom -5573.453157 kJ/mol
# Density = 1.891876 g / cm^3
# Si number density = 18.961923 Si / 1000 Ang^3
#
#
#
# Elastic Constant Matrix: (Units=GPa)
#
#
# Indices 1 2 3 4 5 6 
#
# 1 65.6491 9.0734 25.5505 0.0000 0.0000 0.0000
# 2 9.0734 88.6599 42.9747 0.0000 0.0000 0.0000
# 3 25.5505 42.9747 115.6482 0.0000 0.0000 0.0000
# 4 0.0000 0.0000 0.0000 19.1326 0.0000 0.0000
# 5 0.0000 0.0000 0.0000 0.0000 16.3887 0.0000
# 6 0.0000 0.0000 0.0000 0.0000 0.0000 10.3006
#
#
#
# Elastic Compliance Matrix: (Units=1/GPa)
#
#
# Indices 1 2 3 4 5 6 
#
# 1 0.016666 0.000097 -0.003718 0.000000 0.000000 0.000000
# 2 0.000097 0.013757 -0.005134 0.000000 0.000000 0.000000
# 3 -0.003718 -0.005134 0.011376 0.000000 0.000000 0.000000
# 4 0.000000 0.000000 0.000000 0.052267 0.000000 0.000000
# 5 0.000000 0.000000 0.000000 0.000000 0.061018 0.000000
# 6 0.000000 0.000000 0.000000 0.000000 0.000000 0.097081
#
#
# Mechanical properties :
#
#
# Convention : Reuss Voigt Hill
#
# Bulk Modulus (GPa) = 41.16988 47.23937 44.20462
# Shear Modulus (GPa) = 18.00037 21.98830 19.99434
#
# Velocity S-wave (km/s) = 3.08440 3.40899 3.25075
# Velocity P-wave (km/s) = 5.86887 6.36096 6.11986
#
# Compressibility (1/GPa) = 0.02428960
#
# Stress axis : x y z
#
# Youngs Moduli (GPa) = 60.00174 72.68768 87.90461
#
# Poissons Ratio (x) = -0.00702 0.32683
# Poissons Ratio (y) = -0.00579 0.45127
# Poissons Ratio (z) = 0.22309 0.37315
#
# Static dielectric constant tensor:
#      x y z
#    x 1.735140 0.000000 0.000000 
#    y 0.000000 1.633380 0.000000 
#    z 0.000000 0.000000 1.687380 
# 
# From -- ./inp_files/24266.got.cif
#   From: 2010.05.17/outbox.cif.g08.bks.cpg/sg51_13_cif.got.tgz:24266.got - 2010.06.03 11:52:47.
