data_PCOD9403658
_publ_section_title
;
Structure prediction by ZEFSAII (Michael W. Deem and Ramdas Pophale) SiO2 
 PCOD9403658
Probable space group: P M M A
;
_chemical_formula_sum "Si O2"
_cell_formula_units_Z 40
_cell_length_a 8.728586
_cell_length_b 27.067074
_cell_length_c 9.487035
_cell_angle_alpha 90.000000
_cell_angle_beta 90.000000
_cell_angle_gamma 90.000000
_cell_volume 2241.381115
_symmetry_space_group_name_H-M "P M M A"
_symmetry_group_IT_number 51
_symmetry_cell_setting 'orthorhombic'
loop_
_space_group_symop_operation_xyz
x,y,z
1/2-x,-y,z
1/2+x,-y,-z
-x,y,-z
-x,-y,-z
1/2+x,y,-z
1/2-x,y,z
x,-y,z
loop_
_atom_site_type_symbol
_atom_site_label
_atom_site_fract_x
_atom_site_fract_y
_atom_site_fract_z
Si Si1 0.565871 0.851756 0.343676
Si Si2 0.566086 0.763237 0.841539
Si Si3 0.067162 0.346530 0.158653
Si Si4 0.933321 0.446078 0.159476
Si Si5 0.934654 0.056062 0.154733
O O1 0.500000 0.850307 0.500000
O O2 0.750000 0.850248 0.347489
O O3 0.504406 0.805661 0.254184
O O4 0.517327 0.902254 0.264840
O O5 0.750000 0.767904 0.848029
O O6 0.530038 0.707974 0.783557
O O7 0.500000 0.767224 0.000000
O O8 0.250000 0.351463 0.151517
O O9 0.998897 0.396063 0.227456
O O10 0.000000 0.345254 0.000000
O O11 0.750000 0.442363 0.151518
O O12 0.972781 0.500000 0.222746
O O13 0.000000 0.447062 0.000000
O O14 0.750000 0.056872 0.146557
O O15 0.982090 0.000000 0.192627
O O16 0.000000 0.067222 0.000000
#
# Coordination Sequence:
#
# PCOD9403658 Si02
#       5
#     8   8   8   8   8
#     4  11  23  37  54  76 104 137 171 210 256 303
#     4  10  20  34  52  74 100 131 170 213 256 303
#     4   9  16  25  39  59  84 117 156 198 242 290
#     4   9  15  21  31  50  79 115 152 191 237 289
#     4   9  19  36  57  81 107 135 169 207 247 294
#
# _framework density 17.846139999999998
#
# number of rings (size 3 to 8) (size 9 to 14) (size 15 to 20)
#    0.000    2.400    0.000    4.200    0.000    7.200 
#    0.000    0.000    0.000    0.000    0.000    0.000 
#    0.000    0.800    0.000    2.600    0.000   11.200 
#
# Total GULP energy -222924.752436 kJ/mol
# GULP energy per Si atom -5573.118811 kJ/mol
# Density = 1.780552 g / cm^3
# Si number density = 17.846140 Si / 1000 Ang^3
#
#
#
# Elastic Constant Matrix: (Units=GPa)
#
#
# Indices 1 2 3 4 5 6 
#
# 1 59.1710 62.1449 27.0766 0.0000 0.0000 0.0000
# 2 62.1449 197.9953 85.6170 0.0000 0.0000 0.0000
# 3 27.0766 85.6170 65.7349 0.0000 0.0000 0.0000
# 4 0.0000 0.0000 0.0000 -3.5563 0.0000 0.0000
# 5 0.0000 0.0000 0.0000 0.0000 20.3090 0.0000
# 6 0.0000 0.0000 0.0000 0.0000 0.0000 30.3757
#
#
#
# Elastic Compliance Matrix: (Units=1/GPa)
#
#
# Indices 1 2 3 4 5 6 
#
# 1 0.025212 -0.007836 -0.000179 0.000000 0.000000 0.000000
# 2 -0.007836 0.013998 -0.015005 0.000000 0.000000 0.000000
# 3 -0.000179 -0.015005 0.034829 0.000000 0.000000 0.000000
# 4 0.000000 0.000000 0.000000 -0.281193 0.000000 0.000000
# 5 0.000000 0.000000 0.000000 0.000000 0.049239 0.000000
# 6 0.000000 0.000000 0.000000 0.000000 0.000000 0.032921
#
#
# Mechanical properties :
#
#
# Convention : Reuss Voigt Hill
#
# Bulk Modulus (GPa) = 35.71378 74.73090 55.22234
# Shear Modulus (GPa) = -71.81737 19.29653 -26.26042
#
# Velocity S-wave (km/s) = -6.35058 3.29184 -3.84016
# Velocity P-wave (km/s) = 5.80669 7.51094 3.36872
#
# Compressibility (1/GPa) = 0.02800040
#
# Stress axis : x y z
#
# Youngs Moduli (GPa) = 39.66405 71.43685 28.71136
#
# Poissons Ratio (x) = 0.55976 0.00514
# Poissons Ratio (y) = 0.31080 0.43081
# Poissons Ratio (z) = 0.00710 1.07189
#
# Static dielectric constant tensor:
#      x y z
#    x 1.603910 0.000000 0.000000 
#    y 0.000000 1.684280 0.000000 
#    z 0.000000 0.000000 1.559190 
# 
# From -- ./inp_files/5488.got.cif
#   From: 2010.05.17/outbox.cif.g08.bks.cpg/sg51_3_cif.got.tgz:5488.got - 2010.06.03 11:52:47.
