data_PCOD9403877
_publ_section_title
;
Structure prediction by ZEFSAII (Michael W. Deem and Ramdas Pophale) SiO2 
 PCOD9403877
Probable space group: P M M A
;
_chemical_formula_sum "Si O2"
_cell_formula_units_Z 48
_cell_length_a 9.483308
_cell_length_b 17.075779
_cell_length_c 15.447075
_cell_angle_alpha 90.000000
_cell_angle_beta 90.000000
_cell_angle_gamma 90.000000
_cell_volume 2501.420107
_symmetry_space_group_name_H-M "P M M A"
_symmetry_group_IT_number 51
_symmetry_cell_setting 'orthorhombic'
loop_
_space_group_symop_operation_xyz
x,y,z
1/2-x,-y,z
1/2+x,-y,-z
-x,y,-z
-x,-y,-z
1/2+x,y,-z
1/2-x,y,z
x,-y,z
loop_
_atom_site_type_symbol
_atom_site_label
_atom_site_fract_x
_atom_site_fract_y
_atom_site_fract_z
Si Si1 0.538808 0.643867 0.807434
Si Si2 0.750000 0.409607 0.139272
Si Si3 0.416077 0.905647 0.087438
Si Si4 0.091898 0.590557 0.378914
Si Si5 0.579712 0.809819 0.226370
Si Si6 0.083175 0.747441 0.582352
Si Si7 0.750000 0.593870 0.949047
O O1 0.383795 0.610351 0.806588
O O2 0.607380 0.605874 0.723693
O O3 0.513231 0.735782 0.804530
O O4 0.615963 0.620446 0.894593
O O5 0.750000 0.500000 0.120635
O O6 0.750000 0.370897 0.044847
O O7 0.250000 0.879583 0.088828
O O8 0.506417 0.878733 0.171616
O O9 0.413524 0.000000 0.085529
O O10 0.500000 0.879096 0.000000
O O11 0.250000 0.600749 0.417155
O O12 0.047538 0.500000 0.394442
O O13 0.985457 0.660500 0.404405
O O14 0.750000 0.804520 0.208242
O O15 0.565450 0.800044 0.330753
O O16 0.250000 0.740724 0.566853
O O17 0.000000 0.781151 0.500000
O O18 0.750000 0.500000 0.948966
#
# Coordination Sequence:
#
# PCOD9403877 Si02
#       7
#     8   4   8   8   8   8   4
#     4  11  21  36  51  74 105 144 196 247 298 354
#     4  11  22  34  48  66 100 146 192 249 300 344
#     4  10  22  40  65  97 130 164 198 236 286 344
#     4  10  20  34  54  76 103 144 192 245 303 360
#     4  10  22  40  60  88 119 155 199 240 294 355
#     4  10  22  39  60  86 116 150 194 245 300 359
#     4  11  22  34  48  70 100 144 198 247 300 350
#
# _framework density 19.1891
#
# number of rings (size 3 to 8) (size 9 to 14) (size 15 to 20)
#    0.000    1.667    1.667    3.000    2.333    5.667 
#    0.000    0.000    0.000    0.500    0.000    0.000 
#    0.000    0.000    0.000    0.000    0.000    0.000 
#
# Total GULP energy -267450.765691 kJ/mol
# GULP energy per Si atom -5571.890952 kJ/mol
# Density = 1.914543 g / cm^3
# Si number density = 19.189100 Si / 1000 Ang^3
#
#
#
# Elastic Constant Matrix: (Units=GPa)
#
#
# Indices 1 2 3 4 5 6 
#
# 1 135.0096 21.7415 49.9769 0.0000 0.0000 0.0000
# 2 21.7415 31.1069 26.0749 0.0000 0.0000 0.0000
# 3 49.9769 26.0749 89.1585 0.0000 0.0000 0.0000
# 4 0.0000 0.0000 0.0000 -18.7062 0.0000 0.0000
# 5 0.0000 0.0000 0.0000 0.0000 32.6940 0.0000
# 6 0.0000 0.0000 0.0000 0.0000 0.0000 18.2360
#
#
#
# Elastic Compliance Matrix: (Units=1/GPa)
#
#
# Indices 1 2 3 4 5 6 
#
# 1 0.009539 -0.002895 -0.004500 0.000000 0.000000 0.000000
# 2 -0.002895 0.043466 -0.011089 0.000000 0.000000 0.000000
# 3 -0.004500 -0.011089 0.016982 0.000000 0.000000 0.000000
# 4 0.000000 0.000000 0.000000 -0.053458 0.000000 0.000000
# 5 0.000000 0.000000 0.000000 0.000000 0.030587 0.000000
# 6 0.000000 0.000000 0.000000 0.000000 0.000000 0.054837
#
#
# Mechanical properties :
#
#
# Convention : Reuss Voigt Hill
#
# Bulk Modulus (GPa) = 30.28659 50.09573 40.19116
# Shear Modulus (GPa) = 33.34980 16.94356 25.14668
#
# Velocity S-wave (km/s) = 4.17340 2.97472 3.62396
# Velocity P-wave (km/s) = 6.24824 6.16130 6.20492
#
# Compressibility (1/GPa) = 0.03301791
#
# Stress axis : x y z
#
# Youngs Moduli (GPa) = 104.83337 23.00658 58.88672
#
# Poissons Ratio (x) = 0.06660 0.26501
# Poissons Ratio (y) = 0.30345 0.65301
# Poissons Ratio (z) = 0.47179 0.25513
#
# Static dielectric constant tensor:
#      x y z
#    x 1.629840 0.000000 0.000000 
#    y 0.000000 1.754390 0.000000 
#    z 0.000000 0.000000 1.710220 
# 
# From -- ./inp_files/21234.got.cif
#   From: 2010.05.17/outbox.cif.g08.bks.cpg/sg51_11_cif.got.tgz:21234.got - 2010.06.03 11:52:47.
