data_PCOD9403501
_publ_section_title
;
Structure prediction by ZEFSAII (Michael W. Deem and Ramdas Pophale) SiO2 
 PCOD9403501
Probable space group: P M M A
;
_chemical_formula_sum "Si O2"
_cell_formula_units_Z 64
_cell_length_a 18.859461
_cell_length_b 9.471610
_cell_length_c 20.898875
_cell_angle_alpha 90.000000
_cell_angle_beta 90.000000
_cell_angle_gamma 90.000000
_cell_volume 3733.154743
_symmetry_space_group_name_H-M "P M M A"
_symmetry_group_IT_number 51
_symmetry_cell_setting 'orthorhombic'
loop_
_space_group_symop_operation_xyz
x,y,z
1/2-x,-y,z
1/2+x,-y,-z
-x,y,-z
-x,-y,-z
1/2+x,y,-z
1/2-x,y,z
x,-y,z
loop_
_atom_site_type_symbol
_atom_site_label
_atom_site_fract_x
_atom_site_fract_y
_atom_site_fract_z
Si Si1 0.831409 0.331642 0.621587
Si Si2 0.407420 0.332910 0.244136
Si Si3 0.166158 0.668411 0.108485
Si Si4 0.965275 0.166696 0.301602
Si Si5 0.457783 0.832621 0.436849
Si Si6 0.332622 0.335773 0.893905
Si Si7 0.084002 0.832016 0.997174
Si Si8 0.668491 0.665729 0.259216
O O1 0.750000 0.288256 0.613591
O O2 0.836366 0.500000 0.611295
O O3 0.857041 0.305413 0.694622
O O4 0.885535 0.251120 0.575680
O O5 0.425312 0.500000 0.244840
O O6 0.367051 0.302436 0.178287
O O7 0.478132 0.242562 0.255018
O O8 0.250000 0.700498 0.107663
O O9 0.158524 0.500000 0.096353
O O10 0.124352 0.755741 0.055320
O O11 0.889343 0.237973 0.292655
O O12 0.994521 0.188464 0.373484
O O13 0.962718 0.000000 0.288901
O O14 0.500000 0.787505 0.500000
O O15 0.443022 0.000000 0.442193
O O16 0.250000 0.311084 0.911282
O O17 0.348581 0.500000 0.908995
O O18 0.382975 0.233362 0.932916
O O19 0.338826 0.318272 0.817615
O O20 0.095062 0.000000 0.999719
O O21 0.000000 0.804168 0.000000
O O22 0.750000 0.699844 0.275785
O O23 0.656542 0.500000 0.273635
#
# Coordination Sequence:
#
# PCOD9403501 Si02
#       8
#     8   8   8   8   8   8   8   8
#     4   9  17  31  53  81 110 137 171 217 264 309
#     4   9  18  33  54  79 107 139 170 207 259 314
#     4  10  21  37  57  79 102 133 174 214 254 307
#     4  10  20  33  53  80 108 137 173 217 258 303
#     4   9  19  36  54  74 105 146 185 216 251 301
#     4   9  19  37  59  78  96 126 172 218 258 309
#     4  11  25  39  50  72 106 139 171 212 261 310
#     4   9  19  36  57  80 105 134 171 216 265 316
#
# _framework density 17.143677
#
# number of rings (size 3 to 8) (size 9 to 14) (size 15 to 20)
#    0.000    2.500    0.000    2.250    1.750    6.750 
#    0.000    1.875    0.000    6.000    0.000    0.000 
#    0.000    0.000    0.000    0.000    0.000    0.000 
#
# Total GULP energy -357153.933225 kJ/mol
# GULP energy per Si atom -5580.530207 kJ/mol
# Density = 1.710466 g / cm^3
# Si number density = 17.143677 Si / 1000 Ang^3
#
#
#
# Elastic Constant Matrix: (Units=GPa)
#
#
# Indices 1 2 3 4 5 6 
#
# 1 150.0289 85.5981 52.5807 0.0000 0.0000 0.0000
# 2 85.5981 64.8043 41.2765 0.0000 0.0000 0.0000
# 3 52.5807 41.2765 42.3753 0.0000 0.0000 0.0000
# 4 0.0000 0.0000 0.0000 24.0219 0.0000 0.0000
# 5 0.0000 0.0000 0.0000 0.0000 24.1233 0.0000
# 6 0.0000 0.0000 0.0000 0.0000 0.0000 17.7443
#
#
#
# Elastic Compliance Matrix: (Units=1/GPa)
#
#
# Indices 1 2 3 4 5 6 
#
# 1 0.027225 -0.038053 0.003284 0.000000 0.000000 0.000000
# 2 -0.038053 0.093840 -0.044190 0.000000 0.000000 0.000000
# 3 0.003284 -0.044190 0.062568 0.000000 0.000000 0.000000
# 4 0.000000 0.000000 0.000000 0.041629 0.000000 0.000000
# 5 0.000000 0.000000 0.000000 0.000000 0.041454 0.000000
# 6 0.000000 0.000000 0.000000 0.000000 0.000000 0.056356
#
#
# Mechanical properties :
#
#
# Convention : Reuss Voigt Hill
#
# Bulk Modulus (GPa) = 38.88614 68.45769 53.67192
# Shear Modulus (GPa) = 10.21325 18.36144 14.28734
#
# Velocity S-wave (km/s) = 2.44344 3.27621 2.88998
# Velocity P-wave (km/s) = 5.54006 7.37088 6.52005
#
# Compressibility (1/GPa) = 0.02571610
#
# Stress axis : x y z
#
# Youngs Moduli (GPa) = 36.73078 10.65643 15.98269
#
# Poissons Ratio (x) = 0.40551 -0.05249
# Poissons Ratio (y) = 1.39770 0.70627
# Poissons Ratio (z) = -0.12063 0.47091
#
# Static dielectric constant tensor:
#      x y z
#    x 1.547160 0.000000 0.000000 
#    y 0.000000 1.564790 0.000000 
#    z 0.000000 0.000000 1.567440 
# 
# From -- ./inp_files/33944.got.cif
#   From: 2010.05.17/outbox.cif.g08.bks.cpg/sg51_17_cif.got.tgz:33944.got - 2010.06.03 11:52:47.
