data_PCOD9403351
_publ_section_title
;
Structure prediction by ZEFSAII (Michael W. Deem and Ramdas Pophale) SiO2 
 PCOD9403351
Probable space group: P M M A
;
_chemical_formula_sum "Si O2"
_cell_formula_units_Z 64
_cell_length_a 9.000256
_cell_length_b 29.837049
_cell_length_c 13.664216
_cell_angle_alpha 90.000000
_cell_angle_beta 90.000000
_cell_angle_gamma 90.000000
_cell_volume 3669.403312
_symmetry_space_group_name_H-M "P M M A"
_symmetry_group_IT_number 51
_symmetry_cell_setting 'orthorhombic'
loop_
_space_group_symop_operation_xyz
x,y,z
1/2-x,-y,z
1/2+x,-y,-z
-x,y,-z
-x,-y,-z
1/2+x,y,-z
1/2-x,y,z
x,-y,z
loop_
_atom_site_type_symbol
_atom_site_label
_atom_site_fract_x
_atom_site_fract_y
_atom_site_fract_z
Si Si1 0.576172 0.902765 0.603967
Si Si2 0.926080 0.410331 0.895901
Si Si3 0.926467 0.861899 0.220564
Si Si4 0.928428 0.358115 0.396280
Si Si5 0.928454 0.770537 0.106799
Si Si6 0.072663 0.684372 0.206848
Si Si7 0.428103 0.450203 0.705360
Si Si8 0.574670 0.950789 0.796780
O O1 0.500000 0.908525 0.500000
O O2 0.750000 0.893765 0.591132
O O3 0.500648 0.864597 0.671752
O O4 0.560908 0.944943 0.678369
O O5 0.750000 0.417578 0.900964
O O6 0.952444 0.358546 0.863952
O O7 0.995629 0.439653 0.808938
O O8 0.000000 0.419383 0.000000
O O9 0.750000 0.865887 0.230184
O O10 0.962368 0.816467 0.164523
O O11 0.989326 0.906634 0.167006
O O12 0.750000 0.353600 0.398396
O O13 0.966622 0.409664 0.367390
O O14 0.000000 0.347030 0.500000
O O15 0.997865 0.328434 0.309813
O O16 0.750000 0.765888 0.100172
O O17 0.997802 0.728194 0.162265
O O18 0.000000 0.772761 0.000000
O O19 0.250000 0.689974 0.217518
O O20 0.250000 0.448613 0.718948
O O21 0.469065 0.500000 0.670887
O O22 0.750000 0.947052 0.819326
O O23 0.521400 0.000000 0.826981
#
# Coordination Sequence:
#
# PCOD9403351 Si02
#       8
#     8   8   8   8   8   8   8   8
#     4   9  17  29  47  71 102 138 174 212 254 302
#     4  10  20  33  51  76 105 139 176 218 268 322
#     4   9  19  34  50  74 105 137 173 214 259 310
#     4  10  20  36  58  82 111 144 179 219 264 314
#     4  11  23  38  59  84 109 136 172 215 264 320
#     4  10  21  37  58  83 109 136 174 219 267 319
#     4   9  19  35  53  75 105 142 183 225 266 311
#     4   8  16  30  48  72 103 140 179 217 260 308
#
# _framework density 17.441528000000002
#
# number of rings (size 3 to 8) (size 9 to 14) (size 15 to 20)
#    0.750    1.750    0.000    2.250    0.000    6.250 
#    0.000    0.625    0.000    3.375    0.000    0.000 
#    0.000    0.000    0.000    0.000    0.000    0.000 
#
# Total GULP energy -356544.540945 kJ/mol
# GULP energy per Si atom -5571.008452 kJ/mol
# Density = 1.740183 g / cm^3
# Si number density = 17.441528 Si / 1000 Ang^3
#
#
#
# Elastic Constant Matrix: (Units=GPa)
#
#
# Indices 1 2 3 4 5 6 
#
# 1 42.5476 26.6250 6.0958 0.0000 0.0000 0.0000
# 2 26.6250 77.8859 -7.0317 0.0000 0.0000 0.0000
# 3 6.0958 -7.0317 23.4844 0.0000 0.0000 0.0000
# 4 0.0000 0.0000 0.0000 4.1748 0.0000 0.0000
# 5 0.0000 0.0000 0.0000 0.0000 26.2824 0.0000
# 6 0.0000 0.0000 0.0000 0.0000 0.0000 24.6660
#
#
#
# Elastic Compliance Matrix: (Units=1/GPa)
#
#
# Indices 1 2 3 4 5 6 
#
# 1 0.033020 -0.012397 -0.012283 0.000000 0.000000 0.000000
# 2 -0.012397 0.017850 0.008562 0.000000 0.000000 0.000000
# 3 -0.012283 0.008562 0.048333 0.000000 0.000000 0.000000
# 4 0.000000 0.000000 0.000000 0.239530 0.000000 0.000000
# 5 0.000000 0.000000 0.000000 0.000000 0.038048 0.000000
# 6 0.000000 0.000000 0.000000 0.000000 0.000000 0.040542
#
#
# Mechanical properties :
#
#
# Convention : Reuss Voigt Hill
#
# Bulk Modulus (GPa) = 14.93216 21.69958 18.31587
# Shear Modulus (GPa) = 10.59589 18.90658 14.75123
#
# Velocity S-wave (km/s) = 2.46744 3.29598 2.91134
# Velocity P-wave (km/s) = 4.08627 5.19163 4.67175
#
# Compressibility (1/GPa) = 0.06696955
#
# Stress axis : x y z
#
# Youngs Moduli (GPa) = 30.28432 56.02199 20.68962
#
# Poissons Ratio (x) = 0.69449 0.25413
# Poissons Ratio (y) = 0.37543 -0.17715
# Poissons Ratio (z) = 0.37198 -0.47969
#
# Static dielectric constant tensor:
#      x y z
#    x 1.577250 0.000000 0.000000 
#    y 0.000000 1.598180 0.000000 
#    z 0.000000 0.000000 1.568090 
# 
# From -- ./inp_files/22588.got.cif
#   From: 2010.05.17/outbox.cif.g08.bks.cpg/sg51_12_cif.got.tgz:22588.got - 2010.06.03 11:52:47.
