data_PCOD9403892
_publ_section_title
;
Structure prediction by ZEFSAII (Michael W. Deem and Ramdas Pophale) SiO2 
 PCOD9403892
Probable space group: P M M A
;
_chemical_formula_sum "Si O2"
_cell_formula_units_Z 40
_cell_length_a 9.221060
_cell_length_b 9.012997
_cell_length_c 26.799474
_cell_angle_alpha 90.000000
_cell_angle_beta 90.000000
_cell_angle_gamma 90.000000
_cell_volume 2227.287832
_symmetry_space_group_name_H-M "P M M A"
_symmetry_group_IT_number 51
_symmetry_cell_setting 'orthorhombic'
loop_
_space_group_symop_operation_xyz
x,y,z
1/2-x,-y,z
1/2+x,-y,-z
-x,y,-z
-x,-y,-z
1/2+x,y,-z
1/2-x,y,z
x,-y,z
loop_
_atom_site_type_symbol
_atom_site_label
_atom_site_fract_x
_atom_site_fract_y
_atom_site_fract_z
Si Si1 0.579776 0.678441 0.448501
Si Si2 0.426597 0.171736 0.841478
Si Si3 0.420101 0.822507 0.354565
Si Si4 0.582586 0.818897 0.049355
Si Si5 0.422616 0.676079 0.738896
O O1 0.500000 0.718982 0.500000
O O2 0.750000 0.715966 0.450863
O O3 0.568043 0.500000 0.442582
O O4 0.503636 0.755663 0.401891
O O5 0.250000 0.172751 0.843965
O O6 0.476499 0.225955 0.896124
O O7 0.468523 0.266567 0.793549
O O8 0.470647 0.000000 0.834460
O O9 0.250000 0.783669 0.357319
O O10 0.490464 0.757294 0.304503
O O11 0.433461 0.000000 0.354479
O O12 0.750000 0.773711 0.045626
O O13 0.579420 0.000000 0.050061
O O14 0.500000 0.768805 0.000000
O O15 0.250000 0.707797 0.733346
O O16 0.442103 0.500000 0.735062
#
# Coordination Sequence:
#
# PCOD9403892 Si02
#       5
#     8   8   8   8   8
#     4  10  21  38  61  87 113 143 178 213 252 300
#     4   8  14  26  45  68  95 127 162 203 252 303
#     4  11  24  39  55  78 108 141 176 214 258 306
#     4   8  13  22  38  61  88 119 156 198 245 295
#     4  10  20  34  54  78 101 130 171 215 260 311
#
# _framework density 17.959061999999999
#
# number of rings (size 3 to 8) (size 9 to 14) (size 15 to 20)
#    0.000    2.600    0.000    3.600    0.000    6.800 
#    0.000    1.000    0.000    4.200    0.000    0.000 
#    0.000    0.000    0.000    0.000    0.000    0.000 
#
# Total GULP energy -223096.009679 kJ/mol
# GULP energy per Si atom -5577.400242 kJ/mol
# Density = 1.791819 g / cm^3
# Si number density = 17.959062 Si / 1000 Ang^3
#
#
#
# Elastic Constant Matrix: (Units=GPa)
#
#
# Indices 1 2 3 4 5 6 
#
# 1 94.3975 47.7415 93.9554 0.0000 0.0000 0.0000
# 2 47.7415 32.4251 56.3280 0.0000 0.0000 0.0000
# 3 93.9554 56.3280 208.0538 0.0000 0.0000 0.0000
# 4 0.0000 0.0000 0.0000 79.5861 0.0000 0.0000
# 5 0.0000 0.0000 0.0000 0.0000 32.8508 0.0000
# 6 0.0000 0.0000 0.0000 0.0000 0.0000 19.7181
#
#
#
# Elastic Compliance Matrix: (Units=1/GPa)
#
#
# Indices 1 2 3 4 5 6 
#
# 1 0.043473 -0.056456 -0.004347 0.000000 0.000000 0.000000
# 2 -0.056456 0.131540 -0.010118 0.000000 0.000000 0.000000
# 3 -0.004347 -0.010118 0.009509 0.000000 0.000000 0.000000
# 4 0.000000 0.000000 0.000000 0.012565 0.000000 0.000000
# 5 0.000000 0.000000 0.000000 0.000000 0.030441 0.000000
# 6 0.000000 0.000000 0.000000 0.000000 0.000000 0.050715
#
#
# Mechanical properties :
#
#
# Convention : Reuss Voigt Hill
#
# Bulk Modulus (GPa) = 23.43022 81.21404 52.32213
# Shear Modulus (GPa) = 11.51249 35.55444 23.53347
#
# Velocity S-wave (km/s) = 2.53463 4.45426 3.62387
# Velocity P-wave (km/s) = 4.65194 8.47195 6.83427
#
# Compressibility (1/GPa) = 0.04267992
#
# Stress axis : x y z
#
# Youngs Moduli (GPa) = 23.00281 7.60225 105.16424
#
# Poissons Ratio (x) = 0.42919 0.45718
# Poissons Ratio (y) = 1.29864 1.06403
# Poissons Ratio (z) = 0.10000 0.07692
#
# Static dielectric constant tensor:
#      x y z
#    x 1.604170 0.000000 0.000000 
#    y 0.000000 1.599760 0.000000 
#    z 0.000000 0.000000 1.613700 
# 
# From -- ./inp_files/34296.got.cif
#   From: 2010.05.17/outbox.cif.g08.bks.cpg/sg51_18_cif.got.tgz:34296.got - 2010.06.03 11:52:47.
