data_PCOD9403167
_publ_section_title
;
Structure prediction by ZEFSAII (Michael W. Deem and Ramdas Pophale) SiO2 
 PCOD9403167
Probable space group: P M M A
;
_chemical_formula_sum "Si O2"
_cell_formula_units_Z 48
_cell_length_a 9.365894
_cell_length_b 7.487033
_cell_length_c 32.040249
_cell_angle_alpha 90.000000
_cell_angle_beta 90.000000
_cell_angle_gamma 90.000000
_cell_volume 2246.750609
_symmetry_space_group_name_H-M "P M M A"
_symmetry_group_IT_number 51
_symmetry_cell_setting 'orthorhombic'
loop_
_space_group_symop_operation_xyz
x,y,z
1/2-x,-y,z
1/2+x,-y,-z
-x,y,-z
-x,-y,-z
1/2+x,y,-z
1/2-x,y,z
x,-y,z
loop_
_atom_site_type_symbol
_atom_site_label
_atom_site_fract_x
_atom_site_fract_y
_atom_site_fract_z
Si Si1 0.914932 0.218139 0.958714
Si Si2 0.587826 0.785723 0.539498
Si Si3 0.912335 0.786131 0.794927
Si Si4 0.914853 0.781549 0.123979
Si Si5 0.411581 0.285625 0.711322
Si Si6 0.413276 0.713544 0.367950
O O1 0.750000 0.275586 0.958866
O O2 0.998652 0.273782 0.917141
O O3 0.913810 0.000000 0.958815
O O4 0.000000 0.274699 0.000000
O O5 0.500000 0.717418 0.500000
O O6 0.750000 0.716387 0.538660
O O7 0.528451 0.747965 0.585607
O O8 0.594152 0.000000 0.535740
O O9 0.750000 0.717025 0.794281
O O10 0.003590 0.720720 0.834397
O O11 0.994115 0.750991 0.751968
O O12 0.903631 0.000000 0.799556
O O13 0.750000 0.724466 0.123165
O O14 0.913858 0.000000 0.124175
O O15 0.250000 0.217314 0.715818
O O16 0.402811 0.500000 0.707453
O O17 0.490066 0.217315 0.669693
O O18 0.250000 0.783352 0.365783
O O19 0.404816 0.500000 0.363233
#
# Coordination Sequence:
#
# PCOD9403167 Si02
#       6
#     8   8   8   8   8   8
#     4   9  15  22  33  51  78 114 155 195 237 288
#     4   9  18  32  49  70  97 127 158 193 234 280
#     4  10  20  33  50  72  97 127 163 201 243 293
#     4   9  16  26  40  59  86 119 154 195 242 289
#     4  10  21  36  53  74 100 129 162 202 247 293
#     4   9  18  33  51  70  94 125 159 195 237 284
#
# _framework density 21.364186
#
# number of rings (size 3 to 8) (size 9 to 14) (size 15 to 20)
#    0.000    2.667    0.000    2.000    0.000    7.667 
#    0.000    1.667    0.000    0.000    0.000    0.000 
#    0.000    0.667    0.000    2.500    0.000    5.500 
#
# Total GULP energy -268097.308891 kJ/mol
# GULP energy per Si atom -5585.360602 kJ/mol
# Density = 2.131556 g / cm^3
# Si number density = 21.364186 Si / 1000 Ang^3
#
#
#
# Elastic Constant Matrix: (Units=GPa)
#
#
# Indices 1 2 3 4 5 6 
#
# 1 204.1024 5.7282 147.2674 0.0000 0.0000 0.0000
# 2 5.7282 59.9189 -1.5586 0.0000 0.0000 0.0000
# 3 147.2674 -1.5586 251.8401 0.0000 0.0000 0.0000
# 4 0.0000 0.0000 0.0000 23.9209 0.0000 0.0000
# 5 0.0000 0.0000 0.0000 0.0000 41.5842 0.0000
# 6 0.0000 0.0000 0.0000 0.0000 0.0000 8.8910
#
#
#
# Elastic Compliance Matrix: (Units=1/GPa)
#
#
# Indices 1 2 3 4 5 6 
#
# 1 0.008529 -0.000945 -0.004993 0.000000 0.000000 0.000000
# 2 -0.000945 0.016797 0.000657 0.000000 0.000000 0.000000
# 3 -0.004993 0.000657 0.006895 0.000000 0.000000 0.000000
# 4 0.000000 0.000000 0.000000 0.041804 0.000000 0.000000
# 5 0.000000 0.000000 0.000000 0.000000 0.024048 0.000000
# 6 0.000000 0.000000 0.000000 0.000000 0.000000 0.112473
#
#
# Mechanical properties :
#
#
# Convention : Reuss Voigt Hill
#
# Bulk Modulus (GPa) = 46.17516 90.97062 68.57289
# Shear Modulus (GPa) = 21.89835 39.17419 30.53627
#
# Velocity S-wave (km/s) = 3.20504 4.28675 3.78474
# Velocity P-wave (km/s) = 5.94614 8.19603 7.16001
#
# Compressibility (1/GPa) = 0.02165667
#
# Stress axis : x y z
#
# Youngs Moduli (GPa) = 117.24971 59.53566 145.03922
#
# Poissons Ratio (x) = 0.05627 0.72421
# Poissons Ratio (y) = 0.11083 -0.09525
# Poissons Ratio (z) = 0.58545 -0.03910
#
# Static dielectric constant tensor:
#      x y z
#    x 1.750390 0.000000 0.000000 
#    y 0.000000 1.828510 0.000000 
#    z 0.000000 0.000000 1.729280 
# 
# From -- ./inp_files/34535.got.cif
#   From: 2010.05.17/outbox.cif.g08.bks.cpg/sg51_18_cif.got.tgz:34535.got - 2010.06.03 11:52:47.
