data_PCOD9403555
_publ_section_title
;
Structure prediction by ZEFSAII (Michael W. Deem and Ramdas Pophale) SiO2 
 PCOD9403555
Probable space group: P M M A
;
_chemical_formula_sum "Si O2"
_cell_formula_units_Z 34
_cell_length_a 13.970864
_cell_length_b 9.782029
_cell_length_c 11.907866
_cell_angle_alpha 90.000000
_cell_angle_beta 90.000000
_cell_angle_gamma 90.000000
_cell_volume 1627.369416
_symmetry_space_group_name_H-M "P M M A"
_symmetry_group_IT_number 51
_symmetry_cell_setting 'orthorhombic'
loop_
_space_group_symop_operation_xyz
x,y,z
1/2-x,-y,z
1/2+x,-y,-z
-x,y,-z
-x,-y,-z
1/2+x,y,-z
1/2-x,y,z
x,-y,z
loop_
_atom_site_type_symbol
_atom_site_label
_atom_site_fract_x
_atom_site_fract_y
_atom_site_fract_z
Si Si1 0.860560 0.500000 0.190703
Si Si2 0.250000 0.000000 0.094243
Si Si3 0.360641 0.500000 0.079145
Si Si4 0.973447 0.264549 0.315304
Si Si5 0.138756 0.340135 0.481409
Si Si6 0.933332 0.197425 0.891864
O O1 0.750000 0.500000 0.225646
O O2 0.912785 0.369837 0.241221
O O3 0.864166 0.500000 0.056412
O O4 0.165302 0.117857 0.095179
O O5 0.250000 0.500000 0.115799
O O6 0.409978 0.640235 0.116352
O O7 0.902628 0.241491 0.421102
O O8 0.068641 0.322809 0.375979
O O9 0.011846 0.158961 0.223322
O O10 0.250000 0.314424 0.457053
O O11 0.129659 0.500000 0.518512
O O12 0.000000 0.174838 0.000000
#
# Coordination Sequence:
#
# PCOD9403555 Si02
#       6
#     4   2   4   8   8   8
#     4  11  19  32  56  95 144 176 207 269 331 397
#     4  12  30  50  64  96 138 184 226 262 340 410
#     4  11  22  38  64 102 135 171 218 271 334 391
#     4  11  20  35  58  92 131 174 220 261 331 393
#     4  10  20  33  54  92 141 178 209 265 337 399
#     4  12  25  45  70  99 136 175 219 280 335 401
#
# _framework density 20.892614999999999
#
# number of rings (size 3 to 8) (size 9 to 14) (size 15 to 20)
#    0.000    0.941    5.882    2.824    1.647    0.000 
#    2.118    0.000    0.000    2.824    0.000    0.000 
#    0.000    0.000    0.000    0.000    0.000    0.000 
#
# Total GULP energy -189304.486936 kJ/mol
# GULP energy per Si atom -5567.779028 kJ/mol
# Density = 2.084506 g / cm^3
# Si number density = 20.892615 Si / 1000 Ang^3
#
#
#
# Elastic Constant Matrix: (Units=GPa)
#
#
# Indices 1 2 3 4 5 6 
#
# 1 208.1395 42.8478 59.3442 0.0000 0.0000 0.0000
# 2 42.8478 90.0804 18.1806 0.0000 0.0000 0.0000
# 3 59.3442 18.1806 102.2209 0.0000 0.0000 0.0000
# 4 0.0000 0.0000 0.0000 -20.5333 0.0000 0.0000
# 5 0.0000 0.0000 0.0000 0.0000 23.1465 0.0000
# 6 0.0000 0.0000 0.0000 0.0000 0.0000 21.8041
#
#
#
# Elastic Compliance Matrix: (Units=1/GPa)
#
#
# Indices 1 2 3 4 5 6 
#
# 1 0.006185 -0.002300 -0.003182 0.000000 0.000000 0.000000
# 2 -0.002300 0.012370 -0.000865 0.000000 0.000000 0.000000
# 3 -0.003182 -0.000865 0.011784 0.000000 0.000000 0.000000
# 4 0.000000 0.000000 0.000000 -0.048701 0.000000 0.000000
# 5 0.000000 0.000000 0.000000 0.000000 0.043203 0.000000
# 6 0.000000 0.000000 0.000000 0.000000 0.000000 0.045863
#
#
# Mechanical properties :
#
#
# Convention : Reuss Voigt Hill
#
# Bulk Modulus (GPa) = 56.67115 71.24288 63.95701
# Shear Modulus (GPa) = 56.00512 23.55470 39.77991
#
# Velocity S-wave (km/s) = 5.18309 3.36135 4.36824
# Velocity P-wave (km/s) = 7.93744 7.01701 7.49138
#
# Compressibility (1/GPa) = 0.01764566
#
# Stress axis : x y z
#
# Youngs Moduli (GPa) = 161.67953 80.84278 84.86312
#
# Poissons Ratio (x) = 0.18593 0.27001
# Poissons Ratio (y) = 0.37184 0.07339
# Poissons Ratio (z) = 0.51441 0.06992
#
# Static dielectric constant tensor:
#      x y z
#    x 1.732970 0.000000 0.000000 
#    y 0.000000 1.760040 0.000000 
#    z 0.000000 0.000000 1.786290 
# 
# From -- ./inp_files/16134.got.cif
#   From: 2010.05.17/outbox.cif.g08.bks.cpg/sg51_9_cif.got.tgz:16134.got - 2010.06.03 11:52:47.
