data_PCOD9403610
_publ_section_title
;
Structure prediction by ZEFSAII (Michael W. Deem and Ramdas Pophale) SiO2 
 PCOD9403610
Probable space group: P M M A
;
_chemical_formula_sum "Si O2"
_cell_formula_units_Z 48
_cell_length_a 19.626638
_cell_length_b 8.982510
_cell_length_c 16.196911
_cell_angle_alpha 90.000000
_cell_angle_beta 90.000000
_cell_angle_gamma 90.000000
_cell_volume 2855.458268
_symmetry_space_group_name_H-M "P M M A"
_symmetry_group_IT_number 51
_symmetry_cell_setting 'orthorhombic'
loop_
_space_group_symop_operation_xyz
x,y,z
1/2-x,-y,z
1/2+x,-y,-z
-x,y,-z
-x,-y,-z
1/2+x,y,-z
1/2-x,y,z
x,-y,z
loop_
_atom_site_type_symbol
_atom_site_label
_atom_site_fract_x
_atom_site_fract_y
_atom_site_fract_z
Si Si1 0.477143 0.178805 0.632734
Si Si2 0.750000 0.321974 0.776787
Si Si3 0.021110 0.676800 0.806150
Si Si4 0.379278 0.179467 0.134807
Si Si5 0.924175 0.828710 0.040480
Si Si6 0.390891 0.178430 0.469279
Si Si7 0.250000 0.323360 0.419015
O O1 0.459199 0.262185 0.716470
O O2 0.425686 0.211500 0.557548
O O3 0.552818 0.220754 0.599956
O O4 0.476964 0.000000 0.645825
O O5 0.750000 0.500000 0.789288
O O6 0.683962 0.248316 0.817703
O O7 0.750000 0.292577 0.679028
O O8 0.014098 0.500000 0.805964
O O9 0.072336 0.728213 0.878689
O O10 0.948702 0.752689 0.828542
O O11 0.381533 0.000000 0.142293
O O12 0.377045 0.215090 0.036658
O O13 0.910392 0.000000 0.063899
O O14 0.000000 0.825567 0.000000
O O15 0.318849 0.255041 0.456188
O O16 0.382805 0.000000 0.464253
O O17 0.250000 0.500000 0.431066
#
# Coordination Sequence:
#
# PCOD9403610 Si02
#       7
#     8   4   8   8   8   8   4
#     4   9  18  34  54  76 100 129 170 216 257 300
#     4  11  23  35  49  74 105 134 163 197 244 299
#     4  11  20  29  48  77 104 130 161 201 251 299
#     4  10  20  34  51  71  98 134 171 204 241 287
#     4   8  16  31  49  69  94 126 163 200 237 279
#     4   9  19  35  55  75  97 131 173 213 253 299
#     4  11  23  35  49  74 107 138 165 199 250 309
#
# _framework density 16.809912000000001
#
# number of rings (size 3 to 8) (size 9 to 14) (size 15 to 20)
#    0.000    2.333    0.000    5.500    0.000    9.000 
#    0.000    1.667    0.000    1.000    0.000    7.000 
#    0.000    0.000    0.000    0.000    0.000    0.000 
#
# Total GULP energy -267775.444351 kJ/mol
# GULP energy per Si atom -5578.655091 kJ/mol
# Density = 1.677165 g / cm^3
# Si number density = 16.809912 Si / 1000 Ang^3
#
#
#
# Elastic Constant Matrix: (Units=GPa)
#
#
# Indices 1 2 3 4 5 6 
#
# 1 85.2074 39.5736 38.9102 0.0000 0.0000 0.0000
# 2 39.5736 71.5686 64.8392 0.0000 0.0000 0.0000
# 3 38.9102 64.8392 110.8621 0.0000 0.0000 0.0000
# 4 0.0000 0.0000 0.0000 12.1214 0.0000 0.0000
# 5 0.0000 0.0000 0.0000 0.0000 14.4844 0.0000
# 6 0.0000 0.0000 0.0000 0.0000 0.0000 15.7290
#
#
#
# Elastic Compliance Matrix: (Units=1/GPa)
#
#
# Indices 1 2 3 4 5 6 
#
# 1 0.015836 -0.007915 -0.000929 0.000000 0.000000 0.000000
# 2 -0.007915 0.033677 -0.016918 0.000000 0.000000 0.000000
# 3 -0.000929 -0.016918 0.019241 0.000000 0.000000 0.000000
# 4 0.000000 0.000000 0.000000 0.082499 0.000000 0.000000
# 5 0.000000 0.000000 0.000000 0.000000 0.069040 0.000000
# 6 0.000000 0.000000 0.000000 0.000000 0.000000 0.063577
#
#
# Mechanical properties :
#
#
# Convention : Reuss Voigt Hill
#
# Bulk Modulus (GPa) = 58.03956 61.58710 59.81333
# Shear Modulus (GPa) = 14.65687 16.75464 15.70576
#
# Velocity S-wave (km/s) = 2.95603 3.16050 3.05997
# Velocity P-wave (km/s) = 6.80094 7.07356 6.93859
#
# Compressibility (1/GPa) = 0.01722963
#
# Stress axis : x y z
#
# Youngs Moduli (GPa) = 63.14595 29.69420 51.97194
#
# Poissons Ratio (x) = 0.23503 0.04828
# Poissons Ratio (y) = 0.49980 0.87927
# Poissons Ratio (z) = 0.05867 0.50237
#
# Static dielectric constant tensor:
#      x y z
#    x 1.553660 0.000000 0.000000 
#    y 0.000000 1.552150 0.000000 
#    z 0.000000 0.000000 1.578720 
# 
# From -- ./inp_files/24999.got.cif
#   From: 2010.05.17/outbox.cif.g08.bks.cpg/sg51_13_cif.got.tgz:24999.got - 2010.06.03 11:52:47.
