data_PCOD9403192
_publ_section_title
;
Structure prediction by ZEFSAII (Michael W. Deem and Ramdas Pophale) SiO2 
 PCOD9403192
Probable space group: P M M A
;
_chemical_formula_sum "Si O2"
_cell_formula_units_Z 44
_cell_length_a 8.865106
_cell_length_b 21.596388
_cell_length_c 13.748961
_cell_angle_alpha 90.000000
_cell_angle_beta 90.000000
_cell_angle_gamma 90.000000
_cell_volume 2632.297276
_symmetry_space_group_name_H-M "P M M A"
_symmetry_group_IT_number 51
_symmetry_cell_setting 'orthorhombic'
loop_
_space_group_symop_operation_xyz
x,y,z
1/2-x,-y,z
1/2+x,-y,-z
-x,y,-z
-x,-y,-z
1/2+x,y,-z
1/2-x,y,z
x,-y,z
loop_
_atom_site_type_symbol
_atom_site_label
_atom_site_fract_x
_atom_site_fract_y
_atom_site_fract_z
Si Si1 0.570921 0.256515 0.899705
Si Si2 0.069411 0.376654 0.803220
Si Si3 0.569936 0.309611 0.397572
Si Si4 0.430226 0.070514 0.607290
Si Si5 0.928894 0.189184 0.698529
Si Si6 0.569385 0.500000 0.891590
O O1 0.750000 0.266428 0.909771
O O2 0.491351 0.320821 0.870073
O O3 0.545793 0.210291 0.809615
O O4 0.500000 0.233877 0.000000
O O5 0.250000 0.382261 0.813688
O O6 0.035754 0.355732 0.692233
O O7 0.989596 0.439380 0.835567
O O8 0.500000 0.329410 0.500000
O O9 0.750000 0.304500 0.405766
O O10 0.502364 0.242915 0.367592
O O11 0.500000 0.078549 0.500000
O O12 0.250000 0.077117 0.601676
O O13 0.499016 0.123447 0.674457
O O14 0.464838 0.000000 0.638971
O O15 0.750000 0.187812 0.680170
O O16 0.750000 0.500000 0.897633
O O17 0.500000 0.500000 0.000000
#
# Coordination Sequence:
#
# PCOD9403192 Si02
#       6
#     8   8   8   8   8   4
#     4  10  20  34  53  77 103 132 166 207 254 300
#     4  10  21  37  55  77 104 134 169 208 250 298
#     4  10  20  34  54  77 104 136 169 208 250 295
#     4  10  20  33  50  73 102 135 169 206 249 297
#     4  10  20  33  51  75 103 134 169 208 250 298
#     4  12  24  38  57  78 103 134 167 208 254 302
#
# _framework density 16.715437000000001
#
# number of rings (size 3 to 8) (size 9 to 14) (size 15 to 20)
#    0.000    1.818    0.000    4.636    0.000    5.455 
#    0.000    0.455    0.000    0.545    0.000    0.000 
#    0.000    0.000    0.000    0.000    0.000    0.000 
#
# Total GULP energy -245762.014380 kJ/mol
# GULP energy per Si atom -5585.500327 kJ/mol
# Density = 1.667739 g / cm^3
# Si number density = 16.715437 Si / 1000 Ang^3
#
#
#
# Elastic Constant Matrix: (Units=GPa)
#
#
# Indices 1 2 3 4 5 6 
#
# 1 103.9821 74.1057 65.7749 0.0000 0.0000 0.0000
# 2 74.1057 135.2920 57.8736 0.0000 0.0000 0.0000
# 3 65.7749 57.8736 100.8291 0.0000 0.0000 0.0000
# 4 0.0000 0.0000 0.0000 11.2212 0.0000 0.0000
# 5 0.0000 0.0000 0.0000 0.0000 32.4708 0.0000
# 6 0.0000 0.0000 0.0000 0.0000 0.0000 31.3073
#
#
#
# Elastic Compliance Matrix: (Units=1/GPa)
#
#
# Indices 1 2 3 4 5 6 
#
# 1 0.020778 -0.007400 -0.009307 0.000000 0.000000 0.000000
# 2 -0.007400 0.012432 -0.002309 0.000000 0.000000 0.000000
# 3 -0.009307 -0.002309 0.017314 0.000000 0.000000 0.000000
# 4 0.000000 0.000000 0.000000 0.089117 0.000000 0.000000
# 5 0.000000 0.000000 0.000000 0.000000 0.030797 0.000000
# 6 0.000000 0.000000 0.000000 0.000000 0.000000 0.031941
#
#
# Mechanical properties :
#
#
# Convention : Reuss Voigt Hill
#
# Bulk Modulus (GPa) = 80.04136 81.73461 80.88798
# Shear Modulus (GPa) = 20.44363 24.48980 22.46671
#
# Velocity S-wave (km/s) = 3.50099 3.83182 3.67013
# Velocity P-wave (km/s) = 8.02068 8.28136 8.15206
#
# Compressibility (1/GPa) = 0.01249354
#
# Stress axis : x y z
#
# Youngs Moduli (GPa) = 48.12795 80.43639 57.75622
#
# Poissons Ratio (x) = 0.59521 0.53754
# Poissons Ratio (y) = 0.35614 0.13334
# Poissons Ratio (z) = 0.44793 0.18569
#
# Static dielectric constant tensor:
#      x y z
#    x 1.555240 0.000000 0.000000 
#    y 0.000000 1.538310 0.000000 
#    z 0.000000 0.000000 1.556900 
# 
# From -- ./inp_files/20939.got.cif
#   From: 2010.05.17/outbox.cif.g08.bks.cpg/sg51_11_cif.got.tgz:20939.got - 2010.06.03 11:52:47.
