data_PCOD9403624
_publ_section_title
;
Structure prediction by ZEFSAII (Michael W. Deem and Ramdas Pophale) SiO2 
 PCOD9403624
Probable space group: P M M A
;
_chemical_formula_sum "Si O2"
_cell_formula_units_Z 56
_cell_length_a 16.957571
_cell_length_b 7.771158
_cell_length_c 19.124228
_cell_angle_alpha 90.000000
_cell_angle_beta 90.000000
_cell_angle_gamma 90.000000
_cell_volume 2520.190069
_symmetry_space_group_name_H-M "P M M A"
_symmetry_group_IT_number 51
_symmetry_cell_setting 'orthorhombic'
loop_
_space_group_symop_operation_xyz
x,y,z
1/2-x,-y,z
1/2+x,-y,-z
-x,y,-z
-x,-y,-z
1/2+x,y,-z
1/2-x,y,z
x,-y,z
loop_
_atom_site_type_symbol
_atom_site_label
_atom_site_fract_x
_atom_site_fract_y
_atom_site_fract_z
Si Si1 0.504542 0.795172 0.421675
Si Si2 0.493627 0.200373 0.155367
Si Si3 0.089695 0.209279 0.292324
Si Si4 0.750000 0.788484 0.783536
Si Si5 0.162387 0.707751 0.660035
Si Si6 0.418839 0.308369 0.023077
Si Si7 0.250000 0.201618 0.055505
Si Si8 0.336611 0.292246 0.823282
O O1 0.500000 0.723292 0.500000
O O2 0.439334 0.725501 0.367225
O O3 0.589993 0.770998 0.386223
O O4 0.490612 0.000000 0.426612
O O5 0.476859 0.252742 0.234933
O O6 0.436081 0.305823 0.105907
O O7 0.585598 0.225227 0.138681
O O8 0.471905 0.000000 0.147952
O O9 0.172391 0.265393 0.259316
O O10 0.092881 0.000000 0.296228
O O11 0.750000 0.727274 0.864427
O O12 0.750000 0.000000 0.785357
O O13 0.250000 0.760995 0.635114
O O14 0.160064 0.500000 0.659944
O O15 0.156773 0.761473 0.741590
O O16 0.421219 0.500000 0.992803
O O17 0.330205 0.246792 0.015444
O O18 0.500000 0.214107 0.000000
O O19 0.250000 0.000000 0.064436
O O20 0.250000 0.236390 0.848560
O O21 0.338690 0.500000 0.825606
#
# Coordination Sequence:
#
# PCOD9403624 Si02
#       8
#     8   8   8   4   8   8   4   8
#     4  10  20  34  51  78 113 148 189 234 288 350
#     4  11  20  34  60  88 114 147 193 247 298 347
#     4   9  17  31  52  80 112 144 183 236 294 348
#     4   9  16  31  57  85 111 142 183 238 300 346
#     4   9  18  33  53  75 100 138 185 225 271 335
#     4  11  25  44  64  89 125 167 204 243 300 368
#     4  11  21  39  69  99 123 154 203 258 310 364
#     4   9  18  33  53  79 111 147 186 230 286 349
#
# _framework density 22.220548000000001
#
# number of rings (size 3 to 8) (size 9 to 14) (size 15 to 20)
#    0.000    2.143    2.857    1.929    0.000    2.000 
#    2.571    1.429    0.000    0.000    0.000    0.000 
#    0.000    0.000    0.000    0.000    0.000    0.000 
#
# Total GULP energy -312610.077830 kJ/mol
# GULP energy per Si atom -5582.322818 kJ/mol
# Density = 2.216997 g / cm^3
# Si number density = 22.220548 Si / 1000 Ang^3
#
#
#
# Elastic Constant Matrix: (Units=GPa)
#
#
# Indices 1 2 3 4 5 6 
#
# 1 196.2160 3.3038 46.5801 0.0000 0.0000 0.0000
# 2 3.3038 32.7688 4.6921 0.0000 0.0000 0.0000
# 3 46.5801 4.6921 81.6338 0.0000 0.0000 0.0000
# 4 0.0000 0.0000 0.0000 9.4332 0.0000 0.0000
# 5 0.0000 0.0000 0.0000 0.0000 21.5813 0.0000
# 6 0.0000 0.0000 0.0000 0.0000 0.0000 19.7186
#
#
#
# Elastic Compliance Matrix: (Units=1/GPa)
#
#
# Indices 1 2 3 4 5 6 
#
# 1 0.005895 -0.000114 -0.003357 0.000000 0.000000 0.000000
# 2 -0.000114 0.030772 -0.001704 0.000000 0.000000 0.000000
# 3 -0.003357 -0.001704 0.014263 0.000000 0.000000 0.000000
# 4 0.000000 0.000000 0.000000 0.106008 0.000000 0.000000
# 5 0.000000 0.000000 0.000000 0.000000 0.046336 0.000000
# 6 0.000000 0.000000 0.000000 0.000000 0.000000 0.050714
#
#
# Mechanical properties :
#
#
# Convention : Reuss Voigt Hill
#
# Bulk Modulus (GPa) = 24.64186 46.64118 35.64152
# Shear Modulus (GPa) = 17.99428 27.21614 22.60521
#
# Velocity S-wave (km/s) = 2.84879 3.50354 3.19299
# Velocity P-wave (km/s) = 4.68344 6.11572 5.44686
#
# Compressibility (1/GPa) = 0.04058135
#
# Stress axis : x y z
#
# Youngs Moduli (GPa) = 169.62549 32.49680 70.10929
#
# Poissons Ratio (x) = 0.00369 0.23538
# Poissons Ratio (y) = 0.01928 0.11946
# Poissons Ratio (z) = 0.56949 0.05537
#
# Static dielectric constant tensor:
#      x y z
#    x 1.671630 0.000000 0.000000 
#    y 0.000000 1.813510 0.000000 
#    z 0.000000 0.000000 1.857390 
# 
# From -- ./inp_files/33611.got.cif
#   From: 2010.05.17/outbox.cif.g08.bks.cpg/sg51_17_cif.got.tgz:33611.got - 2010.06.03 11:52:47.
