data_PCOD9403097
_publ_section_title
;
Structure prediction by ZEFSAII (Michael W. Deem and Ramdas Pophale) SiO2 
 PCOD9403097
Probable space group: P M M A
;
_chemical_formula_sum "Si O2"
_cell_formula_units_Z 64
_cell_length_a 18.491913
_cell_length_b 9.454731
_cell_length_c 21.389936
_cell_angle_alpha 90.000000
_cell_angle_beta 90.000000
_cell_angle_gamma 90.000000
_cell_volume 3739.732200
_symmetry_space_group_name_H-M "P M M A"
_symmetry_group_IT_number 51
_symmetry_cell_setting 'orthorhombic'
loop_
_space_group_symop_operation_xyz
x,y,z
1/2-x,-y,z
1/2+x,-y,-z
-x,y,-z
-x,-y,-z
1/2+x,y,-z
1/2-x,y,z
x,-y,z
loop_
_atom_site_type_symbol
_atom_site_label
_atom_site_fract_x
_atom_site_fract_y
_atom_site_fract_z
Si Si1 0.915757 0.328364 0.251143
Si Si2 0.415849 0.670107 0.247222
Si Si3 0.337998 0.163043 0.996451
Si Si4 0.163679 0.333054 0.376293
Si Si5 0.835845 0.830118 0.863618
Si Si6 0.163358 0.332335 0.622490
Si Si7 0.336021 0.331311 0.874369
Si Si8 0.838112 0.162736 0.500916
O O1 0.089921 0.500000 0.238869
O O2 0.875866 0.282572 0.314456
O O3 0.876735 0.280074 0.187721
O O4 0.999879 0.291457 0.251097
O O5 0.346200 0.500000 0.880319
O O6 0.376570 0.705482 0.312442
O O7 0.378313 0.748890 0.189859
O O8 0.250000 0.165057 0.997210
O O9 0.359938 0.210957 0.065977
O O10 0.360137 0.000000 0.987999
O O11 0.361388 0.256034 0.937796
O O12 0.250000 0.313164 0.367881
O O13 0.151650 0.500000 0.388585
O O14 0.139360 0.242724 0.435949
O O15 0.750000 0.800656 0.857763
O O16 0.844688 0.000000 0.858366
O O17 0.250000 0.316673 0.630092
O O18 0.149183 0.500000 0.613376
O O19 0.139745 0.246450 0.561339
O O20 0.250000 0.306071 0.866923
O O21 0.410561 0.500000 0.748983
O O22 0.750000 0.164633 0.501084
O O23 0.861499 0.000000 0.500058
#
# Coordination Sequence:
#
# PCOD9403097 Si02
#       8
#     8   8   8   8   8   8   8   8
#     4   9  18  32  48  69  98 128 158 194 237 281
#     4  10  20  33  49  70  97 127 159 197 236 276
#     4   8  15  29  48  70  95 121 152 193 238 281
#     4   9  17  30  48  69  91 117 152 190 228 276
#     4   9  18  33  52  72  95 124 157 194 237 284
#     4   9  16  29  51  73  93 123 160 194 231 279
#     4   9  16  28  49  74  96 121 157 198 236 278
#     4   9  17  29  47  72  97 118 147 192 239 278
#
# _framework density 17.113524999999999
#
# number of rings (size 3 to 8) (size 9 to 14) (size 15 to 20)
#    0.000    3.000    0.000    1.875    0.000    4.750 
#    0.000    5.625    0.000   10.500    0.000    0.000 
#    0.000    0.000    0.000    0.000    0.000    0.000 
#
# Total GULP energy -356647.938215 kJ/mol
# GULP energy per Si atom -5572.624035 kJ/mol
# Density = 1.707457 g / cm^3
# Si number density = 17.113525 Si / 1000 Ang^3
#
#
#
# Elastic Constant Matrix: (Units=GPa)
#
#
# Indices 1 2 3 4 5 6 
#
# 1 43.7668 39.9447 74.2507 0.0000 0.0000 0.0000
# 2 39.9447 50.9578 85.5952 0.0000 0.0000 0.0000
# 3 74.2507 85.5952 223.4139 0.0000 0.0000 0.0000
# 4 0.0000 0.0000 0.0000 -19.0292 0.0000 0.0000
# 5 0.0000 0.0000 0.0000 0.0000 -4.5735 0.0000
# 6 0.0000 0.0000 0.0000 0.0000 0.0000 12.1029
#
#
#
# Elastic Compliance Matrix: (Units=1/GPa)
#
#
# Indices 1 2 3 4 5 6 
#
# 1 0.084657 -0.053586 -0.007606 0.000000 0.000000 0.000000
# 2 -0.053586 0.088971 -0.016278 0.000000 0.000000 0.000000
# 3 -0.007606 -0.016278 0.013240 0.000000 0.000000 0.000000
# 4 0.000000 0.000000 0.000000 -0.052551 0.000000 0.000000
# 5 0.000000 0.000000 0.000000 0.000000 -0.218652 0.000000
# 6 0.000000 0.000000 0.000000 0.000000 0.000000 0.082625
#
#
# Mechanical properties :
#
#
# Convention : Reuss Voigt Hill
#
# Bulk Modulus (GPa) = 31.31828 79.74664 55.53246
# Shear Modulus (GPa) = 30.51153 5.58990 18.05071
#
# Velocity S-wave (km/s) = 4.22701 1.80927 3.25124
# Velocity P-wave (km/s) = 6.49334 7.14593 6.82744
#
# Compressibility (1/GPa) = 0.03193024
#
# Stress axis : x y z
#
# Youngs Moduli (GPa) = 11.81233 11.23960 75.52768
#
# Poissons Ratio (x) = 0.60228 0.57443
# Poissons Ratio (y) = 0.63297 1.22944
# Poissons Ratio (z) = 0.08984 0.18296
#
# Static dielectric constant tensor:
#      x y z
#    x 1.561470 0.000000 0.000000 
#    y 0.000000 1.569190 0.000000 
#    z 0.000000 0.000000 1.569080 
# 
# From -- ./inp_files/30684.got.cif
#   From: 2010.05.17/outbox.cif.g08.bks.cpg/sg51_16_cif.got.tgz:30684.got - 2010.06.03 11:52:47.
