data_PCOD9403074
_publ_section_title
;
Structure prediction by ZEFSAII (Michael W. Deem and Ramdas Pophale) SiO2 
 PCOD9403074
Probable space group: P M M A
;
_chemical_formula_sum "Si O2"
_cell_formula_units_Z 56
_cell_length_a 18.723713
_cell_length_b 7.594375
_cell_length_c 20.057954
_cell_angle_alpha 90.000000
_cell_angle_beta 90.000000
_cell_angle_gamma 90.000000
_cell_volume 2852.138721
_symmetry_space_group_name_H-M "P M M A"
_symmetry_group_IT_number 51
_symmetry_cell_setting 'orthorhombic'
loop_
_space_group_symop_operation_xyz
x,y,z
1/2-x,-y,z
1/2+x,-y,-z
-x,y,-z
-x,-y,-z
1/2+x,y,-z
1/2-x,y,z
x,-y,z
loop_
_atom_site_type_symbol
_atom_site_label
_atom_site_fract_x
_atom_site_fract_y
_atom_site_fract_z
Si Si1 0.166290 0.715295 0.083779
Si Si2 0.662951 0.704819 0.060641
Si Si3 0.524041 0.791457 0.571178
Si Si4 0.830346 0.713344 0.638790
Si Si5 0.606571 0.295571 0.778212
Si Si6 0.331278 0.287206 0.794134
Si Si7 0.034912 0.791969 0.710043
O O1 0.250000 0.758655 0.091341
O O2 0.161935 0.500000 0.080639
O O3 0.125788 0.779023 0.149600
O O4 0.140698 0.780282 0.011019
O O5 0.750000 0.706513 0.059987
O O6 0.640305 0.500000 0.061130
O O7 0.643217 0.780081 0.132885
O O8 0.500000 0.717171 0.500000
O O9 0.607625 0.768081 0.587966
O O10 0.482276 0.720440 0.636187
O O11 0.508929 0.000000 0.569162
O O12 0.750000 0.770528 0.622721
O O13 0.831213 0.500000 0.640376
O O14 0.853211 0.778106 0.712843
O O15 0.628725 0.500000 0.781371
O O16 0.523245 0.286388 0.760662
O O17 0.250000 0.227104 0.782495
O O18 0.329250 0.500000 0.798468
O O19 0.386269 0.238825 0.736902
O O20 0.020963 0.000000 0.708964
#
# Coordination Sequence:
#
# PCOD9403074 Si02
#       7
#     8   8   8   8   8   8   8
#     4   8  12  20  39  67  93 117 151 193 229 259
#     4   7  11  21  39  64  90 114 146 190 231 262
#     4   9  19  36  54  70  91 122 158 191 224 267
#     4   9  17  29  47  74 103 126 151 185 226 273
#     4   9  16  27  45  68  95 125 153 184 223 266
#     4   9  17  31  51  71  90 115 150 192 233 271
#     4  10  20  33  49  68  90 117 149 185 226 273
#
# _framework density 19.634388999999999
#
# number of rings (size 3 to 8) (size 9 to 14) (size 15 to 20)
#    0.000    3.286    0.000    2.571    0.000    3.143 
#    0.000    1.429    0.000   10.714    0.000    2.000 
#    0.000    0.000    0.000    0.000    0.000    0.000 
#
# Total GULP energy -311911.496991 kJ/mol
# GULP energy per Si atom -5569.848161 kJ/mol
# Density = 1.958970 g / cm^3
# Si number density = 19.634389 Si / 1000 Ang^3
#
#
#
# Elastic Constant Matrix: (Units=GPa)
#
#
# Indices 1 2 3 4 5 6 
#
# 1 86.5841 -11.5040 87.5389 0.0000 0.0000 0.0000
# 2 -11.5040 39.0815 5.2213 0.0000 0.0000 0.0000
# 3 87.5389 5.2213 153.0033 0.0000 0.0000 0.0000
# 4 0.0000 0.0000 0.0000 17.6257 0.0000 0.0000
# 5 0.0000 0.0000 0.0000 0.0000 25.9946 0.0000
# 6 0.0000 0.0000 0.0000 0.0000 0.0000 47.6932
#
#
#
# Elastic Compliance Matrix: (Units=1/GPa)
#
#
# Indices 1 2 3 4 5 6 
#
# 1 0.032152 0.011977 -0.018804 0.000000 0.000000 0.000000
# 2 0.011977 0.030166 -0.007882 0.000000 0.000000 0.000000
# 3 -0.018804 -0.007882 0.017563 0.000000 0.000000 0.000000
# 4 0.000000 0.000000 0.000000 0.056735 0.000000 0.000000
# 5 0.000000 0.000000 0.000000 0.000000 0.038470 0.000000
# 6 0.000000 0.000000 0.000000 0.000000 0.000000 0.020967
#
#
# Mechanical properties :
#
#
# Convention : Reuss Voigt Hill
#
# Bulk Modulus (GPa) = 19.81650 49.02012 34.41831
# Shear Modulus (GPa) = 20.63614 31.42358 26.02986
#
# Velocity S-wave (km/s) = 3.24546 4.00488 3.64500
# Velocity P-wave (km/s) = 4.91515 6.81220 5.93990
#
# Compressibility (1/GPa) = 0.05046301
#
# Stress axis : x y z
#
# Youngs Moduli (GPa) = 31.10193 33.14997 56.93667
#
# Poissons Ratio (x) = -0.39702 1.07065
# Poissons Ratio (y) = -0.37250 0.44876
# Poissons Ratio (z) = 0.58485 0.26128
#
# Static dielectric constant tensor:
#      x y z
#    x 1.653380 0.000000 0.000000 
#    y 0.000000 1.764310 0.000000 
#    z 0.000000 0.000000 1.728760 
# 
# From -- ./inp_files/33722.got.cif
#   From: 2010.05.17/outbox.cif.g08.bks.cpg/sg51_17_cif.got.tgz:33722.got - 2010.06.03 11:52:47.
