data_PCOD9403902
_publ_section_title
;
Structure prediction by ZEFSAII (Michael W. Deem and Ramdas Pophale) SiO2 
 PCOD9403902
Probable space group: P M M A
;
_chemical_formula_sum "Si O2"
_cell_formula_units_Z 56
_cell_length_a 20.683751
_cell_length_b 7.757162
_cell_length_c 15.517067
_cell_angle_alpha 90.000000
_cell_angle_beta 90.000000
_cell_angle_gamma 90.000000
_cell_volume 2489.670065
_symmetry_space_group_name_H-M "P M M A"
_symmetry_group_IT_number 51
_symmetry_cell_setting 'orthorhombic'
loop_
_space_group_symop_operation_xyz
x,y,z
1/2-x,-y,z
1/2+x,-y,-z
-x,y,-z
-x,-y,-z
1/2+x,y,-z
1/2-x,y,z
x,-y,z
loop_
_atom_site_type_symbol
_atom_site_label
_atom_site_fract_x
_atom_site_fract_y
_atom_site_fract_z
Si Si1 0.083575 0.700985 0.353977
Si Si2 0.541360 0.704347 0.267787
Si Si3 0.178896 0.801009 0.502309
Si Si4 0.322597 0.789766 0.998837
Si Si5 0.455104 0.208672 0.920985
Si Si6 0.175672 0.791544 0.198018
Si Si7 0.679535 0.301842 0.305622
O O1 0.075861 0.500000 0.373688
O O2 0.123310 0.777701 0.432871
O O3 0.126613 0.719480 0.267837
O O4 0.012962 0.775822 0.331906
O O5 0.546759 0.500000 0.286257
O O6 0.519182 0.726721 0.169849
O O7 0.613319 0.781344 0.273086
O O8 0.250000 0.760390 0.463594
O O9 0.172654 0.697347 0.590577
O O10 0.179515 0.000000 0.529084
O O11 0.250000 0.732120 0.975471
O O12 0.381612 0.732454 0.939364
O O13 0.321984 0.000000 0.997406
O O14 0.336124 0.740956 0.098545
O O15 0.455745 0.000000 0.918741
O O16 0.500000 0.263330 0.000000
O O17 0.250000 0.744330 0.218484
O O18 0.171208 0.000000 0.201845
O O19 0.750000 0.223342 0.285087
O O20 0.681415 0.500000 0.275029
#
# Coordination Sequence:
#
# PCOD9403902 Si02
#       7
#     8   8   8   8   8   8   8
#     4  11  22  34  50  75 110 146 177 212 257 314
#     4  10  23  39  54  78 109 141 177 218 267 316
#     4  10  21  37  58  84 111 138 172 215 260 307
#     4   8  15  29  49  73 100 130 167 215 269 317
#     4  10  20  34  54  78 103 136 179 221 262 315
#     4   9  17  31  52  76 104 139 178 221 265 309
#     4   9  19  39  63  81 103 139 180 220 264 316
#
# _framework density 22.492940000000001
#
# number of rings (size 3 to 8) (size 9 to 14) (size 15 to 20)
#    0.000    2.429    0.000    3.000    0.000    7.143 
#    0.000    3.571    0.000    0.857    0.000    0.000 
#    0.000    0.000    0.000    0.000    0.000    0.000 
#
# Total GULP energy -312721.644474 kJ/mol
# GULP energy per Si atom -5584.315080 kJ/mol
# Density = 2.244175 g / cm^3
# Si number density = 22.492940 Si / 1000 Ang^3
#
#
#
# Elastic Constant Matrix: (Units=GPa)
#
#
# Indices 1 2 3 4 5 6 
#
# 1 102.3898 4.5917 18.5085 0.0000 0.0000 0.0000
# 2 4.5917 37.7894 -7.8878 0.0000 0.0000 0.0000
# 3 18.5085 -7.8878 29.0293 0.0000 0.0000 0.0000
# 4 0.0000 0.0000 0.0000 15.9247 0.0000 0.0000
# 5 0.0000 0.0000 0.0000 0.0000 37.0623 0.0000
# 6 0.0000 0.0000 0.0000 0.0000 0.0000 8.7816
#
#
#
# Elastic Compliance Matrix: (Units=1/GPa)
#
#
# Indices 1 2 3 4 5 6 
#
# 1 0.011365 -0.003067 -0.008079 0.000000 0.000000 0.000000
# 2 -0.003067 0.028881 0.009803 0.000000 0.000000 0.000000
# 3 -0.008079 0.009803 0.042263 0.000000 0.000000 0.000000
# 4 0.000000 0.000000 0.000000 0.062796 0.000000 0.000000
# 5 0.000000 0.000000 0.000000 0.000000 0.026982 0.000000
# 6 0.000000 0.000000 0.000000 0.000000 0.000000 0.113874
#
#
# Mechanical properties :
#
#
# Convention : Reuss Voigt Hill
#
# Bulk Modulus (GPa) = 12.52786 22.18148 17.35467
# Shear Modulus (GPa) = 15.85017 22.62013 19.23515
#
# Velocity S-wave (km/s) = 2.65745 3.17465 2.92749
# Velocity P-wave (km/s) = 3.87270 4.82916 4.37713
#
# Compressibility (1/GPa) = 0.07982209
#
# Stress axis : x y z
#
# Youngs Moduli (GPa) = 87.99262 34.62438 23.66149
#
# Poissons Ratio (x) = 0.10620 0.19117
# Poissons Ratio (y) = 0.26990 -0.23196
# Poissons Ratio (z) = 0.71091 -0.33943
#
# Static dielectric constant tensor:
#      x y z
#    x 1.881770 0.000000 0.000000 
#    y 0.000000 1.834350 0.000000 
#    z 0.000000 0.000000 1.784360 
# 
# From -- ./inp_files/25620.got.cif
#   From: 2010.05.17/outbox.cif.g08.bks.cpg/sg51_13_cif.got.tgz:25620.got - 2010.06.03 11:52:47.
