data_PCOD9403243
_publ_section_title
;
Structure prediction by ZEFSAII (Michael W. Deem and Ramdas Pophale) SiO2 
 PCOD9403243
Probable space group: P M M A
;
_chemical_formula_sum "Si O2"
_cell_formula_units_Z 52
_cell_length_a 9.277687
_cell_length_b 10.376827
_cell_length_c 30.150563
_cell_angle_alpha 90.000000
_cell_angle_beta 90.000000
_cell_angle_gamma 90.000000
_cell_volume 2902.683733
_symmetry_space_group_name_H-M "P M M A"
_symmetry_group_IT_number 51
_symmetry_cell_setting 'orthorhombic'
loop_
_space_group_symop_operation_xyz
x,y,z
1/2-x,-y,z
1/2+x,-y,-z
-x,y,-z
-x,-y,-z
1/2+x,y,-z
1/2-x,y,z
x,-y,z
loop_
_atom_site_type_symbol
_atom_site_label
_atom_site_fract_x
_atom_site_fract_y
_atom_site_fract_z
Si Si1 0.078371 0.000000 0.547874
Si Si2 0.422419 0.150679 0.865792
Si Si3 0.578406 0.758095 0.387147
Si Si4 0.084673 0.156677 0.043699
Si Si5 0.408980 0.351731 0.460398
Si Si6 0.077921 0.651895 0.305344
Si Si7 0.921361 0.649369 0.212111
O O1 0.047246 0.119757 0.581031
O O2 0.000000 0.000000 0.500000
O O3 0.250000 0.000000 0.538954
O O4 0.250000 0.157175 0.873241
O O5 0.503831 0.189241 0.910764
O O6 0.457845 0.247769 0.825920
O O7 0.456972 0.000000 0.855673
O O8 0.750000 0.745122 0.382801
O O9 0.502678 0.649225 0.416420
O O10 0.502495 0.745853 0.339736
O O11 0.250000 0.200429 0.043618
O O12 0.085970 0.000000 0.041942
O O13 0.000000 0.201580 0.000000
O O14 0.500000 0.289666 0.500000
O O15 0.250000 0.293054 0.454589
O O16 0.387729 0.500000 0.472906
O O17 0.250000 0.670943 0.306711
O O18 0.049846 0.500000 0.316457
O O19 0.013611 0.671763 0.256350
O O20 0.750000 0.662626 0.222160
O O21 0.944340 0.500000 0.198024
#
# Coordination Sequence:
#
# PCOD9403243 Si02
#       7
#     4   8   8   8   8   8   8
#     4  10  24  42  58  78 104 138 174 208 247 298
#     4   9  17  30  49  75 105 137 175 221 272 320
#     4  11  22  37  56  77 101 131 168 206 247 296
#     4   9  16  26  43  69 102 139 178 222 271 322
#     4  10  20  33  50  75 104 129 156 194 240 288
#     4  10  21  37  57  81 107 134 168 212 260 309
#     4   9  18  34  55  77 103 140 181 218 264 324
#
# _framework density 17.914456000000001
#
# number of rings (size 3 to 8) (size 9 to 14) (size 15 to 20)
#    0.000    2.308    0.000    2.769    0.000    8.615 
#    1.385    0.000    0.000    0.462    0.000    0.000 
#    0.000    0.000    0.000    0.000    0.000    0.000 
#
# Total GULP energy -289734.033640 kJ/mol
# GULP energy per Si atom -5571.808339 kJ/mol
# Density = 1.787368 g / cm^3
# Si number density = 17.914456 Si / 1000 Ang^3
#
#
#
# Elastic Constant Matrix: (Units=GPa)
#
#
# Indices 1 2 3 4 5 6 
#
# 1 103.7172 52.3546 88.9158 0.0000 0.0000 0.0000
# 2 52.3546 68.7811 65.2695 0.0000 0.0000 0.0000
# 3 88.9158 65.2695 161.2716 0.0000 0.0000 0.0000
# 4 0.0000 0.0000 0.0000 34.2440 0.0000 0.0000
# 5 0.0000 0.0000 0.0000 0.0000 34.6540 0.0000
# 6 0.0000 0.0000 0.0000 0.0000 0.0000 -29.0999
#
#
#
# Elastic Compliance Matrix: (Units=1/GPa)
#
#
# Indices 1 2 3 4 5 6 
#
# 1 0.020674 -0.007988 -0.008166 0.000000 0.000000 0.000000
# 2 -0.007988 0.026691 -0.006398 0.000000 0.000000 0.000000
# 3 -0.008166 -0.006398 0.013292 0.000000 0.000000 0.000000
# 4 0.000000 0.000000 0.000000 0.029202 0.000000 0.000000
# 5 0.000000 0.000000 0.000000 0.000000 0.028857 0.000000
# 6 0.000000 0.000000 0.000000 0.000000 0.000000 -0.034364
#
#
# Mechanical properties :
#
#
# Convention : Reuss Voigt Hill
#
# Bulk Modulus (GPa) = 64.29390 82.98332 73.63861
# Shear Modulus (GPa) = 37.13631 16.44161 26.78896
#
# Velocity S-wave (km/s) = 4.55794 3.03278 3.87121
# Velocity P-wave (km/s) = 7.97916 7.66069 7.82155
#
# Compressibility (1/GPa) = 0.01555357
#
# Stress axis : x y z
#
# Youngs Moduli (GPa) = 48.36977 37.46646 75.23214
#
# Poissons Ratio (x) = 0.29928 0.61432
# Poissons Ratio (y) = 0.38637 0.48134
# Poissons Ratio (z) = 0.39497 0.23971
#
# Static dielectric constant tensor:
#      x y z
#    x 1.646850 0.000000 0.000000 
#    y 0.000000 1.690520 0.000000 
#    z 0.000000 0.000000 1.620850 
# 
# From -- ./inp_files/36218.got.cif
#   From: 2010.05.17/outbox.cif.g08.bks.cpg/sg51_19_cif.got.tgz:36218.got - 2010.06.03 11:52:47.
