data_PCOD9403721
_publ_section_title
;
Structure prediction by ZEFSAII (Michael W. Deem and Ramdas Pophale) SiO2 
 PCOD9403721
Probable space group: P M M A
;
_chemical_formula_sum "Si O2"
_cell_formula_units_Z 40
_cell_length_a 8.702743
_cell_length_b 19.092101
_cell_length_c 13.905277
_cell_angle_alpha 90.000000
_cell_angle_beta 90.000000
_cell_angle_gamma 90.000000
_cell_volume 2310.412505
_symmetry_space_group_name_H-M "P M M A"
_symmetry_group_IT_number 51
_symmetry_cell_setting 'orthorhombic'
loop_
_space_group_symop_operation_xyz
x,y,z
1/2-x,-y,z
1/2+x,-y,-z
-x,y,-z
-x,-y,-z
1/2+x,y,-z
1/2-x,y,z
x,-y,z
loop_
_atom_site_type_symbol
_atom_site_label
_atom_site_fract_x
_atom_site_fract_y
_atom_site_fract_z
Si Si1 0.936067 0.352671 0.697908
Si Si2 0.566846 0.213362 0.395936
Si Si3 0.564211 0.855889 0.791159
Si Si4 0.565919 0.286281 0.896390
Si Si5 0.435623 0.000000 0.107536
Si Si6 0.564456 0.500000 0.607267
O O1 0.750000 0.346916 0.691564
O O2 0.979952 0.336855 0.808403
O O3 0.983022 0.428957 0.661384
O O4 0.006824 0.290636 0.634060
O O5 0.500000 0.195052 0.500000
O O6 0.750000 0.213381 0.398669
O O7 0.506985 0.162059 0.312061
O O8 0.750000 0.854445 0.781991
O O9 0.519976 0.791970 0.862167
O O10 0.517227 0.929888 0.835805
O O11 0.750000 0.287502 0.902525
O O12 0.500000 0.303711 0.000000
O O13 0.250000 0.000000 0.102362
O O14 0.500000 0.000000 0.000000
O O15 0.750000 0.500000 0.603403
O O16 0.500000 0.500000 0.500000
#
# Coordination Sequence:
#
# PCOD9403721 Si02
#       6
#     8   8   8   8   4   4
#     4   9  19  35  52  74 103 134 168 208 252 302
#     4  11  21  34  54  77 101 133 170 211 255 302
#     4   9  19  35  52  75 105 136 170 209 251 299
#     4   9  17  30  49  71  99 132 167 205 245 289
#     4  10  20  34  55  80 109 140 169 208 258 306
#     4  10  20  34  53  74 100 132 165 204 255 306
#
# _framework density 17.312925
#
# number of rings (size 3 to 8) (size 9 to 14) (size 15 to 20)
#    0.000    2.400    0.000    4.200    0.000    6.400 
#    0.000    1.000    0.000    0.000    0.000    0.000 
#    0.000    0.000    0.000    0.000    0.000    0.000 
#
# Total GULP energy -223204.657325 kJ/mol
# GULP energy per Si atom -5580.116433 kJ/mol
# Density = 1.727352 g / cm^3
# Si number density = 17.312925 Si / 1000 Ang^3
#
#
#
# Elastic Constant Matrix: (Units=GPa)
#
#
# Indices 1 2 3 4 5 6 
#
# 1 29.0336 32.8400 37.6877 0.0000 0.0000 0.0000
# 2 32.8400 151.1736 92.1293 0.0000 0.0000 0.0000
# 3 37.6877 92.1293 165.6062 0.0000 0.0000 0.0000
# 4 0.0000 0.0000 0.0000 14.9384 0.0000 0.0000
# 5 0.0000 0.0000 0.0000 0.0000 35.4752 0.0000
# 6 0.0000 0.0000 0.0000 0.0000 0.0000 18.4828
#
#
#
# Elastic Compliance Matrix: (Units=1/GPa)
#
#
# Indices 1 2 3 4 5 6 
#
# 1 0.052505 -0.006239 -0.008478 0.000000 0.000000 0.000000
# 2 -0.006239 0.010749 -0.004560 0.000000 0.000000 0.000000
# 3 -0.008478 -0.004560 0.010505 0.000000 0.000000 0.000000
# 4 0.000000 0.000000 0.000000 0.066941 0.000000 0.000000
# 5 0.000000 0.000000 0.000000 0.000000 0.028189 0.000000
# 6 0.000000 0.000000 0.000000 0.000000 0.000000 0.054104
#
#
# Mechanical properties :
#
#
# Convention : Reuss Voigt Hill
#
# Bulk Modulus (GPa) = 28.40550 74.56972 51.48761
# Shear Modulus (GPa) = 18.29611 25.98972 22.14291
#
# Velocity S-wave (km/s) = 3.25436 3.87870 3.58017
# Velocity P-wave (km/s) = 5.52846 7.95137 6.84792
#
# Compressibility (1/GPa) = 0.03520445
#
# Stress axis : x y z
#
# Youngs Moduli (GPa) = 19.04592 93.02878 95.19612
#
# Poissons Ratio (x) = 0.58042 0.80705
# Poissons Ratio (y) = 0.11883 0.43411
# Poissons Ratio (z) = 0.16147 0.42423
#
# Static dielectric constant tensor:
#      x y z
#    x 1.587250 0.000000 0.000000 
#    y 0.000000 1.580140 0.000000 
#    z 0.000000 0.000000 1.565160 
# 
# From -- ./inp_files/14289.got.cif
#   From: 2010.05.17/outbox.cif.g08.bks.cpg/sg51_8_cif.got.tgz:14289.got - 2010.06.03 11:52:47.
