data_PCOD9403784
_publ_section_title
;
Structure prediction by ZEFSAII (Michael W. Deem and Ramdas Pophale) SiO2 
 PCOD9403784
Probable space group: P M M A
;
_chemical_formula_sum "Si O2"
_cell_formula_units_Z 36
_cell_length_a 8.474031
_cell_length_b 24.077071
_cell_length_c 9.465998
_cell_angle_alpha 90.000000
_cell_angle_beta 90.000000
_cell_angle_gamma 90.000000
_cell_volume 1931.346115
_symmetry_space_group_name_H-M "P M M A"
_symmetry_group_IT_number 51
_symmetry_cell_setting 'orthorhombic'
loop_
_space_group_symop_operation_xyz
x,y,z
1/2-x,-y,z
1/2+x,-y,-z
-x,y,-z
-x,-y,-z
1/2+x,y,-z
1/2-x,y,z
x,-y,z
loop_
_atom_site_type_symbol
_atom_site_label
_atom_site_fract_x
_atom_site_fract_y
_atom_site_fract_z
Si Si1 0.939357 0.286048 0.839641
Si Si2 0.560486 0.166416 0.159422
Si Si3 0.059281 0.607414 0.339990
Si Si4 0.940578 0.938600 0.340322
Si Si5 0.559216 0.500000 0.839553
O O1 0.750000 0.285185 0.844263
O O2 0.991812 0.336184 0.738924
O O3 0.999406 0.226081 0.788214
O O4 0.000000 0.294324 0.000000
O O5 0.750000 0.167565 0.159305
O O6 0.504411 0.113647 0.249179
O O7 0.500000 0.160594 0.000000
O O8 0.250000 0.607084 0.342763
O O9 0.007441 0.554608 0.246696
O O10 0.000000 0.604155 0.500000
O O11 0.750000 0.937649 0.340776
O O12 0.000000 0.933324 0.500000
O O13 0.990202 0.000000 0.287378
O O14 0.750000 0.500000 0.843144
O O15 0.500000 0.500000 0.000000
#
# Coordination Sequence:
#
# PCOD9403784 Si02
#       5
#     8   8   8   8   4
#     4  10  20  35  54  77 104 136 174 213 255 306
#     4  10  20  34  53  77 104 135 171 212 257 305
#     4  10  22  37  55  80 109 139 174 215 258 306
#     4   9  19  35  53  74 101 133 170 211 256 307
#     4  10  21  38  58  82 108 138 177 216 258 308
#
# _framework density 18.639848000000001
#
# number of rings (size 3 to 8) (size 9 to 14) (size 15 to 20)
#    0.000    2.222    0.000    3.667    0.000    5.778 
#    0.000    4.444    0.000    0.000    0.000    0.000 
#    0.000    0.000    0.000    0.000    0.000    0.000 
#
# Total GULP energy -200947.051952 kJ/mol
# GULP energy per Si atom -5581.862554 kJ/mol
# Density = 1.859742 g / cm^3
# Si number density = 18.639848 Si / 1000 Ang^3
#
#
#
# Elastic Constant Matrix: (Units=GPa)
#
#
# Indices 1 2 3 4 5 6 
#
# 1 25.4880 33.1548 17.7984 0.0000 0.0000 0.0000
# 2 33.1548 231.6984 119.3241 0.0000 0.0000 0.0000
# 3 17.7984 119.3241 116.4914 0.0000 0.0000 0.0000
# 4 0.0000 0.0000 0.0000 40.2415 0.0000 0.0000
# 5 0.0000 0.0000 0.0000 0.0000 32.3730 0.0000
# 6 0.0000 0.0000 0.0000 0.0000 0.0000 31.8603
#
#
#
# Elastic Compliance Matrix: (Units=1/GPa)
#
#
# Indices 1 2 3 4 5 6 
#
# 1 0.048229 -0.006575 -0.000634 0.000000 0.000000 0.000000
# 2 -0.006575 0.010031 -0.009270 0.000000 0.000000 0.000000
# 3 -0.000634 -0.009270 0.018177 0.000000 0.000000 0.000000
# 4 0.000000 0.000000 0.000000 0.024850 0.000000 0.000000
# 5 0.000000 0.000000 0.000000 0.000000 0.030890 0.000000
# 6 0.000000 0.000000 0.000000 0.000000 0.000000 0.031387
#
#
# Mechanical properties :
#
#
# Convention : Reuss Voigt Hill
#
# Bulk Modulus (GPa) = 22.99970 79.35916 51.17943
# Shear Modulus (GPa) = 23.69488 34.45500 29.07494
#
# Velocity S-wave (km/s) = 3.56925 4.30404 3.95375
# Velocity P-wave (km/s) = 5.41773 8.20774 6.95410
#
# Compressibility (1/GPa) = 0.04347882
#
# Stress axis : x y z
#
# Youngs Moduli (GPa) = 20.73420 99.69109 55.01450
#
# Poissons Ratio (x) = 0.65544 0.03489
# Poissons Ratio (y) = 0.13632 0.51000
# Poissons Ratio (z) = 0.01315 0.92417
#
# Static dielectric constant tensor:
#      x y z
#    x 1.643620 0.000000 0.000000 
#    y 0.000000 1.667180 0.000000 
#    z 0.000000 0.000000 1.595770 
# 
# From -- ./inp_files/5240.got.cif
#   From: 2010.05.17/outbox.cif.g08.bks.cpg/sg51_3_cif.got.tgz:5240.got - 2010.06.03 11:52:47.
