data_PCOD9403056
_publ_section_title
;
Structure prediction by ZEFSAII (Michael W. Deem and Ramdas Pophale) SiO2 
 PCOD9403056
Probable space group: P M M A
;
_chemical_formula_sum "Si O2"
_cell_formula_units_Z 64
_cell_length_a 19.308570
_cell_length_b 8.926840
_cell_length_c 22.330188
_cell_angle_alpha 90.000000
_cell_angle_beta 90.000000
_cell_angle_gamma 90.000000
_cell_volume 3848.932025
_symmetry_space_group_name_H-M "P M M A"
_symmetry_group_IT_number 51
_symmetry_cell_setting 'orthorhombic'
loop_
_space_group_symop_operation_xyz
x,y,z
1/2-x,-y,z
1/2+x,-y,-z
-x,y,-z
-x,-y,-z
1/2+x,y,-z
1/2-x,y,z
x,-y,z
loop_
_atom_site_type_symbol
_atom_site_label
_atom_site_fract_x
_atom_site_fract_y
_atom_site_fract_z
Si Si1 0.970239 0.179095 0.700445
Si Si2 0.539506 0.321892 0.826088
Si Si3 0.540627 0.178916 0.062147
Si Si4 0.110649 0.325985 0.474679
Si Si5 0.173295 0.819947 0.362461
Si Si6 0.169793 0.676853 0.992048
Si Si7 0.169604 0.176196 0.123063
Si Si8 0.961133 0.325272 0.408613
O O1 0.985806 0.257314 0.763095
O O2 0.893237 0.228133 0.677001
O O3 0.025379 0.228523 0.650139
O O4 0.969459 0.000000 0.707024
O O5 0.535519 0.500000 0.827738
O O6 0.498191 0.252196 0.882007
O O7 0.618227 0.265555 0.834649
O O8 0.616424 0.248310 0.053200
O O9 0.543189 0.000000 0.069178
O O10 0.500000 0.211493 0.000000
O O11 0.132282 0.500000 0.476545
O O12 0.159534 0.234662 0.430349
O O13 0.095927 0.274182 0.542693
O O14 0.035102 0.321514 0.442991
O O15 0.250000 0.769330 0.342435
O O16 0.172601 0.000000 0.361537
O O17 0.250000 0.693614 0.974045
O O18 0.155119 0.500000 0.999145
O O19 0.161774 0.758334 0.056159
O O20 0.250000 0.191030 0.140150
O O21 0.151517 0.000000 0.122901
O O22 0.947854 0.500000 0.393934
#
# Coordination Sequence:
#
# PCOD9403056 Si02
#       8
#     8   8   8   8   8   8   8   8
#     4  10  20  33  48  67  95 131 172 209 247 299
#     4  12  24  36  52  73 101 135 175 220 266 316
#     4  11  22  36  56  79 104 135 171 215 267 317
#     4   8  14  25  44  68  92 120 154 196 240 282
#     4   9  18  31  46  67  98 135 171 206 242 283
#     4  10  20  34  54  80 106 131 162 203 254 311
#     4  10  20  34  51  71  98 132 169 209 253 305
#     4   8  14  27  45  66  92 119 152 195 244 286
#
# _framework density 16.62799
#
# number of rings (size 3 to 8) (size 9 to 14) (size 15 to 20)
#    0.000    2.250    1.250    3.375    0.000    3.750 
#    0.000    3.750    0.000    0.000    0.000    0.875 
#    0.000    3.000    0.000    0.000    0.000    0.000 
#
# Total GULP energy -356851.802007 kJ/mol
# GULP energy per Si atom -5575.809406 kJ/mol
# Density = 1.659014 g / cm^3
# Si number density = 16.627990 Si / 1000 Ang^3
#
#
#
# Elastic Constant Matrix: (Units=GPa)
#
#
# Indices 1 2 3 4 5 6 
#
# 1 25.2404 21.1904 21.7141 0.0000 0.0000 0.0000
# 2 21.1904 72.9526 48.9786 0.0000 0.0000 0.0000
# 3 21.7141 48.9786 102.9660 0.0000 0.0000 0.0000
# 4 0.0000 0.0000 0.0000 21.0806 0.0000 0.0000
# 5 0.0000 0.0000 0.0000 0.0000 13.9744 0.0000
# 6 0.0000 0.0000 0.0000 0.0000 0.0000 21.0949
#
#
#
# Elastic Compliance Matrix: (Units=1/GPa)
#
#
# Indices 1 2 3 4 5 6 
#
# 1 0.054689 -0.011963 -0.005843 0.000000 0.000000 0.000000
# 2 -0.011963 0.022756 -0.008302 0.000000 0.000000 0.000000
# 3 -0.005843 -0.008302 0.014893 0.000000 0.000000 0.000000
# 4 0.000000 0.000000 0.000000 0.047437 0.000000 0.000000
# 5 0.000000 0.000000 0.000000 0.000000 0.071559 0.000000
# 6 0.000000 0.000000 0.000000 0.000000 0.000000 0.047405
#
#
# Mechanical properties :
#
#
# Convention : Reuss Voigt Hill
#
# Bulk Modulus (GPa) = 24.92311 42.76947 33.84629
# Shear Modulus (GPa) = 15.41652 18.51503 16.96577
#
# Velocity S-wave (km/s) = 3.04820 3.34051 3.19770
# Velocity P-wave (km/s) = 5.23545 6.37620 5.83377
#
# Compressibility (1/GPa) = 0.04012340
#
# Stress axis : x y z
#
# Youngs Moduli (GPa) = 18.28533 43.94473 67.14559
#
# Poissons Ratio (x) = 0.52570 0.39231
# Poissons Ratio (y) = 0.21874 0.55742
# Poissons Ratio (z) = 0.10684 0.36482
#
# Static dielectric constant tensor:
#      x y z
#    x 1.577370 0.000000 0.000000 
#    y 0.000000 1.552860 0.000000 
#    z 0.000000 0.000000 1.566070 
# 
# From -- ./inp_files/34174.got.cif
#   From: 2010.05.17/outbox.cif.g08.bks.cpg/sg51_18_cif.got.tgz:34174.got - 2010.06.03 11:52:47.
