data_PCOD9403549
_publ_section_title
;
Structure prediction by ZEFSAII (Michael W. Deem and Ramdas Pophale) SiO2 
 PCOD9403549
Probable space group: P M M A
;
_chemical_formula_sum "Si O2"
_cell_formula_units_Z 48
_cell_length_a 20.931841
_cell_length_b 7.546500
_cell_length_c 13.932452
_cell_angle_alpha 90.000000
_cell_angle_beta 90.000000
_cell_angle_gamma 90.000000
_cell_volume 2200.799907
_symmetry_space_group_name_H-M "P M M A"
_symmetry_group_IT_number 51
_symmetry_cell_setting 'orthorhombic'
loop_
_space_group_symop_operation_xyz
x,y,z
1/2-x,-y,z
1/2+x,-y,-z
-x,y,-z
-x,-y,-z
1/2+x,y,-z
1/2-x,y,z
x,-y,z
loop_
_atom_site_type_symbol
_atom_site_label
_atom_site_fract_x
_atom_site_fract_y
_atom_site_fract_z
Si Si1 0.499856 0.713643 0.609597
Si Si2 0.636454 0.286362 0.318280
Si Si3 0.431394 0.217336 0.039801
Si Si4 0.750000 0.789305 0.681651
Si Si5 0.386192 0.788909 0.247659
Si Si6 0.750000 0.714191 0.456175
Si Si7 0.320895 0.789042 0.897758
O O1 0.500000 0.777155 0.500000
O O2 0.497017 0.500000 0.606999
O O3 0.435235 0.777762 0.661303
O O4 0.563371 0.760052 0.667378
O O5 0.635592 0.500000 0.323659
O O6 0.687255 0.224367 0.398133
O O7 0.660102 0.238612 0.212614
O O8 0.415549 0.277546 0.147574
O O9 0.432409 0.000000 0.039865
O O10 0.500000 0.274711 0.000000
O O11 0.375509 0.278219 0.968485
O O12 0.683923 0.717230 0.725692
O O13 0.750000 0.765803 0.566964
O O14 0.750000 0.000000 0.699927
O O15 0.379255 0.000000 0.236048
O O16 0.750000 0.500000 0.453244
O O17 0.250000 0.715926 0.915094
O O18 0.317929 0.000000 0.913762
#
# Coordination Sequence:
#
# PCOD9403549 Si02
#       7
#     8   8   8   4   8   4   8
#     4  10  21  37  57  81 109 143 186 230 273 328
#     4  10  20  35  56  80 108 143 181 226 277 325
#     4   9  18  33  54  79 108 142 179 218 266 323
#     4  10  22  36  53  80 110 142 181 224 271 320
#     4  10  21  37  57  81 112 147 182 226 274 323
#     4  10  20  36  57  78 106 148 187 222 273 328
#     4  10  20  33  54  83 110 142 182 224 270 324
#
# _framework density 21.81025
#
# number of rings (size 3 to 8) (size 9 to 14) (size 15 to 20)
#    0.000    2.167    0.833    2.000    1.167    5.000 
#    0.000    0.833    0.000    3.000    0.000    0.000 
#    0.000    0.000    0.000    0.000    0.000    0.000 
#
# Total GULP energy -268287.723670 kJ/mol
# GULP energy per Si atom -5589.327576 kJ/mol
# Density = 2.176061 g / cm^3
# Si number density = 21.810250 Si / 1000 Ang^3
#
#
#
# Elastic Constant Matrix: (Units=GPa)
#
#
# Indices 1 2 3 4 5 6 
#
# 1 247.8309 7.2708 123.7808 0.0000 0.0000 0.0000
# 2 7.2708 52.1132 -2.2313 0.0000 0.0000 0.0000
# 3 123.7808 -2.2313 178.1317 0.0000 0.0000 0.0000
# 4 0.0000 0.0000 0.0000 -8.3483 0.0000 0.0000
# 5 0.0000 0.0000 0.0000 0.0000 45.0949 0.0000
# 6 0.0000 0.0000 0.0000 0.0000 0.0000 9.5085
#
#
#
# Elastic Compliance Matrix: (Units=1/GPa)
#
#
# Indices 1 2 3 4 5 6 
#
# 1 0.006237 -0.001056 -0.004347 0.000000 0.000000 0.000000
# 2 -0.001056 0.019378 0.000977 0.000000 0.000000 0.000000
# 3 -0.004347 0.000977 0.008647 0.000000 0.000000 0.000000
# 4 0.000000 0.000000 0.000000 -0.119785 0.000000 0.000000
# 5 0.000000 0.000000 0.000000 0.000000 0.022175 0.000000
# 6 0.000000 0.000000 0.000000 0.000000 0.000000 0.105169
#
#
# Mechanical properties :
#
#
# Convention : Reuss Voigt Hill
#
# Bulk Modulus (GPa) = 39.35691 81.74625 60.55158
# Shear Modulus (GPa) = 84.53707 32.53473 58.53590
#
# Velocity S-wave (km/s) = 6.23253 3.86647 5.18623
# Velocity P-wave (km/s) = 8.35924 7.58253 7.98034
#
# Compressibility (1/GPa) = 0.02540850
#
# Stress axis : x y z
#
# Youngs Moduli (GPa) = 160.32365 51.60438 115.64625
#
# Poissons Ratio (x) = 0.05451 0.50277
# Poissons Ratio (y) = 0.16936 -0.11296
# Poissons Ratio (z) = 0.69701 -0.05041
#
# Static dielectric constant tensor:
#      x y z
#    x 1.773420 0.000000 0.000000 
#    y 0.000000 1.830360 0.000000 
#    z 0.000000 0.000000 1.735740 
# 
# From -- ./inp_files/24927.got.cif
#   From: 2010.05.17/outbox.cif.g08.bks.cpg/sg51_13_cif.got.tgz:24927.got - 2010.06.03 11:52:47.
