data_PCOD9403333
_publ_section_title
;
Structure prediction by ZEFSAII (Michael W. Deem and Ramdas Pophale) SiO2 
 PCOD9403333
Probable space group: P M M A
;
_chemical_formula_sum "Si O2"
_cell_formula_units_Z 64
_cell_length_a 7.764537
_cell_length_b 15.951970
_cell_length_c 25.159817
_cell_angle_alpha 90.000000
_cell_angle_beta 90.000000
_cell_angle_gamma 90.000000
_cell_volume 3116.286412
_symmetry_space_group_name_H-M "P M M A"
_symmetry_group_IT_number 51
_symmetry_cell_setting 'orthorhombic'
loop_
_space_group_symop_operation_xyz
x,y,z
1/2-x,-y,z
1/2+x,-y,-z
-x,y,-z
-x,-y,-z
1/2+x,y,-z
1/2-x,y,z
x,-y,z
loop_
_atom_site_type_symbol
_atom_site_label
_atom_site_fract_x
_atom_site_fract_y
_atom_site_fract_z
Si Si1 0.957271 0.089945 0.646183
Si Si2 0.045890 0.725480 0.765940
Si Si3 0.541976 0.272852 0.937878
Si Si4 0.454720 0.272100 0.644921
Si Si5 0.045543 0.405557 0.145950
Si Si6 0.957397 0.089986 0.937152
Si Si7 0.957058 0.090653 0.771083
Si Si8 0.042474 0.595395 0.559931
O O1 0.750000 0.090538 0.644756
O O2 0.007846 0.090891 0.708627
O O3 0.018787 0.177845 0.623480
O O4 0.016492 0.000000 0.623839
O O5 0.250000 0.716321 0.763296
O O6 0.974986 0.723210 0.705334
O O7 0.977409 0.650168 0.801502
O O8 0.010381 0.817676 0.790566
O O9 0.750000 0.271024 0.933295
O O10 0.474304 0.348652 0.902115
O O11 0.478267 0.180863 0.918799
O O12 0.500000 0.282981 0.000000
O O13 0.250000 0.285135 0.649065
O O14 0.524582 0.341306 0.604588
O O15 0.250000 0.412967 0.136967
O O16 0.974944 0.500000 0.149551
O O17 0.750000 0.089571 0.930303
O O18 0.022018 0.000000 0.916148
O O19 0.000000 0.089754 0.000000
O O20 0.750000 0.089279 0.774567
O O21 0.017951 0.000000 0.792706
O O22 0.250000 0.593235 0.564028
O O23 0.978532 0.500000 0.566941
O O24 0.000000 0.622448 0.500000
#
# Coordination Sequence:
#
# PCOD9403333 Si02
#       8
#     8   8   8   8   8   8   8   8
#     4   8  14  25  43  69  99 130 165 203 240 281
#     4  10  20  33  51  76 104 133 167 207 250 297
#     4   9  18  33  53  75  97 123 159 202 247 297
#     4   9  18  31  49  74 101 131 164 200 246 295
#     4  10  22  39  54  69  96 133 169 210 260 307
#     4   8  13  23  42  68  95 120 146 179 223 278
#     4   8  14  27  48  72 100 135 169 200 240 292
#     4   9  18  33  51  71  97 127 160 202 251 300
#
# _framework density 20.537265999999999
#
# number of rings (size 3 to 8) (size 9 to 14) (size 15 to 20)
#    0.000    3.125    0.000    1.125    0.000    3.000 
#    0.000    4.375    0.000    4.125    0.000    1.750 
#    0.000    0.000    0.000    0.000    0.000    0.000 
#
# Total GULP energy -356538.724030 kJ/mol
# GULP energy per Si atom -5570.917563 kJ/mol
# Density = 2.049052 g / cm^3
# Si number density = 20.537266 Si / 1000 Ang^3
#
#
#
# Elastic Constant Matrix: (Units=GPa)
#
#
# Indices 1 2 3 4 5 6 
#
# 1 26.0170 8.4178 -1.4029 0.0000 0.0000 0.0000
# 2 8.4178 224.2806 85.2064 0.0000 0.0000 0.0000
# 3 -1.4029 85.2064 91.6694 0.0000 0.0000 0.0000
# 4 0.0000 0.0000 0.0000 96.3389 0.0000 0.0000
# 5 0.0000 0.0000 0.0000 0.0000 11.2411 0.0000
# 6 0.0000 0.0000 0.0000 0.0000 0.0000 14.2720
#
#
#
# Elastic Compliance Matrix: (Units=1/GPa)
#
#
# Indices 1 2 3 4 5 6 
#
# 1 0.039457 -0.002644 0.003061 0.000000 0.000000 0.000000
# 2 -0.002644 0.007070 -0.006612 0.000000 0.000000 0.000000
# 3 0.003061 -0.006612 0.017101 0.000000 0.000000 0.000000
# 4 0.000000 0.000000 0.000000 0.010380 0.000000 0.000000
# 5 0.000000 0.000000 0.000000 0.000000 0.088959 0.000000
# 6 0.000000 0.000000 0.000000 0.000000 0.000000 0.070067
#
#
# Mechanical properties :
#
#
# Convention : Reuss Voigt Hill
#
# Bulk Modulus (GPa) = 19.51629 58.48994 39.00312
# Shear Modulus (GPa) = 19.04738 41.02011 30.03375
#
# Velocity S-wave (km/s) = 3.04872 4.47402 3.82829
# Velocity P-wave (km/s) = 4.68150 7.43175 6.21077
#
# Compressibility (1/GPa) = 0.05123926
#
# Stress axis : x y z
#
# Youngs Moduli (GPa) = 25.34408 141.44573 58.47497
#
# Poissons Ratio (x) = 0.37398 -0.17902
# Poissons Ratio (y) = 0.06701 0.38663
# Poissons Ratio (z) = -0.07759 0.93522
#
# Static dielectric constant tensor:
#      x y z
#    x 1.744810 0.000000 0.000000 
#    y 0.000000 1.779970 0.000000 
#    z 0.000000 0.000000 1.708370 
# 
# From -- ./inp_files/35006.got.cif
#   From: 2010.05.17/outbox.cif.g08.bks.cpg/sg51_18_cif.got.tgz:35006.got - 2010.06.03 11:52:47.
