data_PCOD9403173
_publ_section_title
;
Structure prediction by ZEFSAII (Michael W. Deem and Ramdas Pophale) SiO2 
 PCOD9403173
Probable space group: P M M A
;
_chemical_formula_sum "Si O2"
_cell_formula_units_Z 64
_cell_length_a 25.159722
_cell_length_b 8.220193
_cell_length_c 15.761807
_cell_angle_alpha 90.000000
_cell_angle_beta 90.000000
_cell_angle_gamma 90.000000
_cell_volume 3259.821785
_symmetry_space_group_name_H-M "P M M A"
_symmetry_group_IT_number 51
_symmetry_cell_setting 'orthorhombic'
loop_
_space_group_symop_operation_xyz
x,y,z
1/2-x,-y,z
1/2+x,-y,-z
-x,y,-z
-x,-y,-z
1/2+x,y,-z
1/2-x,y,z
x,-y,z
loop_
_atom_site_type_symbol
_atom_site_label
_atom_site_fract_x
_atom_site_fract_y
_atom_site_fract_z
Si Si1 0.112906 0.192418 0.276765
Si Si2 0.344594 0.314683 0.597500
Si Si3 0.503031 0.816505 0.246887
Si Si4 0.531552 0.316918 0.414926
Si Si5 0.811355 0.696558 0.063144
Si Si6 0.619913 0.806698 0.220980
Si Si7 0.687356 0.695435 0.871341
Si Si8 0.691522 0.805875 0.579642
O O1 0.055718 0.261544 0.245950
O O2 0.153704 0.217284 0.200234
O O3 0.142961 0.258283 0.361409
O O4 0.103045 0.000000 0.291498
O O5 0.325358 0.500000 0.599600
O O6 0.406107 0.309830 0.569382
O O7 0.348912 0.252863 0.694544
O O8 0.315191 0.225078 0.520853
O O9 0.515083 0.815314 0.347068
O O10 0.558913 0.740035 0.214657
O O11 0.499363 0.000000 0.211440
O O12 0.500000 0.294638 0.500000
O O13 0.520035 0.500000 0.381299
O O14 0.750000 0.747387 0.075777
O O15 0.812418 0.500000 0.066299
O O16 0.847943 0.763554 0.137153
O O17 0.827653 0.743935 0.967565
O O18 0.614841 0.000000 0.230094
O O19 0.750000 0.728763 0.861301
O O20 0.680178 0.500000 0.863705
O O21 0.750000 0.742064 0.606263
O O22 0.691873 0.000000 0.592724
#
# Coordination Sequence:
#
# PCOD9403173 Si02
#       8
#     8   8   8   8   8   8   8   8
#     4  10  20  35  55  78 106 141 178 216 260 309
#     4  10  20  33  50  72  99 134 172 208 252 305
#     4   9  19  33  49  73 104 137 173 211 254 306
#     4   9  17  29  46  69  95 124 164 212 253 292
#     4   9  19  37  59  81 105 133 168 213 263 314
#     4  10  20  35  55  79 108 140 174 215 261 309
#     4   9  19  36  57  81 107 134 169 216 266 314
#     4  10  21  35  50  72 103 137 175 219 262 306
#
# _framework density 19.632975999999999
#
# number of rings (size 3 to 8) (size 9 to 14) (size 15 to 20)
#    0.000    2.500    0.000    2.625    0.000    4.500 
#    0.000    1.875    0.000    3.750    0.000    0.000 
#    0.000    0.000    0.000    0.000    0.000    0.000 
#
# Total GULP energy -356468.752048 kJ/mol
# GULP energy per Si atom -5569.824251 kJ/mol
# Density = 1.958829 g / cm^3
# Si number density = 19.632976 Si / 1000 Ang^3
#
#
#
# Elastic Constant Matrix: (Units=GPa)
#
#
# Indices 1 2 3 4 5 6 
#
# 1 66.9273 2.6424 44.4410 0.0000 0.0000 0.0000
# 2 2.6424 7.9465 -2.0835 0.0000 0.0000 0.0000
# 3 44.4410 -2.0835 73.8280 0.0000 0.0000 0.0000
# 4 0.0000 0.0000 0.0000 29.4534 0.0000 0.0000
# 5 0.0000 0.0000 0.0000 0.0000 28.3836 0.0000
# 6 0.0000 0.0000 0.0000 0.0000 0.0000 24.9574
#
#
#
# Elastic Compliance Matrix: (Units=1/GPa)
#
#
# Indices 1 2 3 4 5 6 
#
# 1 0.026143 -0.012915 -0.016101 0.000000 0.000000 0.000000
# 2 -0.012915 0.133160 0.011532 0.000000 0.000000 0.000000
# 3 -0.016101 0.011532 0.023563 0.000000 0.000000 0.000000
# 4 0.000000 0.000000 0.000000 0.033952 0.000000 0.000000
# 5 0.000000 0.000000 0.000000 0.000000 0.035232 0.000000
# 6 0.000000 0.000000 0.000000 0.000000 0.000000 0.040068
#
#
# Mechanical properties :
#
#
# Convention : Reuss Voigt Hill
#
# Bulk Modulus (GPa) = 6.76146 26.52239 16.64193
# Shear Modulus (GPa) = 13.28429 23.47234 18.37831
#
# Velocity S-wave (km/s) = 2.60404 3.46143 3.06288
# Velocity P-wave (km/s) = 3.53451 5.43266 4.58293
#
# Compressibility (1/GPa) = 0.14789708
#
# Stress axis : x y z
#
# Youngs Moduli (GPa) = 38.25105 7.50979 42.43997
#
# Poissons Ratio (x) = 0.09699 0.68334
# Poissons Ratio (y) = 0.49400 -0.48941
# Poissons Ratio (z) = 0.61589 -0.08660
#
# Static dielectric constant tensor:
#      x y z
#    x 1.727230 0.000000 0.000000 
#    y 0.000000 1.732910 0.000000 
#    z 0.000000 0.000000 1.654050 
# 
# From -- ./inp_files/26358.got.cif
#   From: 2010.05.17/outbox.cif.g08.bks.cpg/sg51_14_cif.got.tgz:26358.got - 2010.06.03 11:52:47.
