data_PCOD9403497
_publ_section_title
;
Structure prediction by ZEFSAII (Michael W. Deem and Ramdas Pophale) SiO2 
 PCOD9403497
Probable space group: P M M A
;
_chemical_formula_sum "Si O2"
_cell_formula_units_Z 58
_cell_length_a 7.738401
_cell_length_b 27.419227
_cell_length_c 12.082125
_cell_angle_alpha 90.000000
_cell_angle_beta 90.000000
_cell_angle_gamma 90.000000
_cell_volume 2563.597046
_symmetry_space_group_name_H-M "P M M A"
_symmetry_group_IT_number 51
_symmetry_cell_setting 'orthorhombic'
loop_
_space_group_symop_operation_xyz
x,y,z
1/2-x,-y,z
1/2+x,-y,-z
-x,y,-z
-x,-y,-z
1/2+x,y,-z
1/2-x,y,z
x,-y,z
loop_
_atom_site_type_symbol
_atom_site_label
_atom_site_fract_x
_atom_site_fract_y
_atom_site_fract_z
Si Si1 0.054216 0.824620 0.653494
Si Si2 0.948031 0.682036 0.847082
Si Si3 0.051807 0.067432 0.375594
Si Si4 0.557153 0.576760 0.124247
Si Si5 0.455920 0.791994 0.117966
Si Si6 0.455624 0.284779 0.617986
Si Si7 0.555097 0.558767 0.373130
Si Si8 0.750000 0.000000 0.293203
O O1 0.250000 0.828020 0.611144
O O2 0.980172 0.771696 0.619773
O O3 0.958460 0.873881 0.624837
O O4 0.049782 0.820262 0.785547
O O5 0.750000 0.676945 0.883691
O O6 0.015842 0.735401 0.880734
O O7 0.052304 0.635432 0.884019
O O8 0.956346 0.685413 0.714565
O O9 0.250000 0.053939 0.351294
O O10 0.000000 0.052369 0.500000
O O11 0.904641 0.042484 0.301248
O O12 0.750000 0.557460 0.135902
O O13 0.472927 0.568150 0.248304
O O14 0.500000 0.559780 0.000000
O O15 0.250000 0.791820 0.138178
O O16 0.500000 0.813346 0.000000
O O17 0.500000 0.305853 0.500000
O O18 0.250000 0.283495 0.637296
O O19 0.500000 0.573756 0.500000
O O20 0.750000 0.578911 0.363322
O O21 0.556107 0.500000 0.378731
#
# Coordination Sequence:
#
# PCOD9403497 Si02
#       8
#     8   8   8   8   8   8   8   2
#     4  10  20  36  53  79 110 142 181 228 281 334
#     4  10  21  36  54  78 112 153 195 239 290 347
#     4  12  23  36  57  80 113 148 182 224 272 333
#     4  11  23  38  58  86 121 157 200 247 302 366
#     4  10  20  34  54  79 107 141 182 230 279 332
#     4  10  20  33  53  76 110 151 195 238 286 343
#     4   9  20  40  64  89 117 152 196 251 308 366
#     4  12  24  40  54  82 114 144 190 220 278 330
#
# _framework density 22.624459999999999
#
# number of rings (size 3 to 8) (size 9 to 14) (size 15 to 20)
#    0.000    1.655    1.379    3.310    0.000    7.448 
#    0.000    1.379    0.000    0.000    0.000    0.483 
#    0.000    0.000    0.000    0.000    0.000    0.000 
#
# Total GULP energy -322974.601238 kJ/mol
# GULP energy per Si atom -5568.527608 kJ/mol
# Density = 2.257297 g / cm^3
# Si number density = 22.624460 Si / 1000 Ang^3
#
#
#
# Elastic Constant Matrix: (Units=GPa)
#
#
# Indices 1 2 3 4 5 6 
#
# 1 110.2321 21.8991 8.6397 0.0000 0.0000 0.0000
# 2 21.8991 96.9228 7.5332 0.0000 0.0000 0.0000
# 3 8.6397 7.5332 181.2683 0.0000 0.0000 0.0000
# 4 0.0000 0.0000 0.0000 36.0276 0.0000 0.0000
# 5 0.0000 0.0000 0.0000 0.0000 26.0555 0.0000
# 6 0.0000 0.0000 0.0000 0.0000 0.0000 -5.9388
#
#
#
# Elastic Compliance Matrix: (Units=1/GPa)
#
#
# Indices 1 2 3 4 5 6 
#
# 1 0.009522 -0.002123 -0.000366 0.000000 0.000000 0.000000
# 2 -0.002123 0.010824 -0.000349 0.000000 0.000000 0.000000
# 3 -0.000366 -0.000349 0.005549 0.000000 0.000000 0.000000
# 4 0.000000 0.000000 0.000000 0.027757 0.000000 0.000000
# 5 0.000000 0.000000 0.000000 0.000000 0.038380 0.000000
# 6 0.000000 0.000000 0.000000 0.000000 0.000000 -0.168384
#
#
# Mechanical properties :
#
#
# Convention : Reuss Voigt Hill
#
# Bulk Modulus (GPa) = 49.45495 51.61857 50.53676
# Shear Modulus (GPa) = -78.20115 34.58560 -21.80777
#
# Velocity S-wave (km/s) = -5.88557 3.91408 -3.10805
# Velocity P-wave (km/s) = 4.92748 6.57963 3.08314
#
# Compressibility (1/GPa) = 0.02022042
#
# Stress axis : x y z
#
# Youngs Moduli (GPa) = 105.01775 92.38492 180.22565
#
# Poissons Ratio (x) = 0.19614 0.06589
# Poissons Ratio (y) = 0.22296 0.06283
# Poissons Ratio (z) = 0.03840 0.03221
#
# Static dielectric constant tensor:
#      x y z
#    x 1.776060 0.000000 0.000000 
#    y 0.000000 1.833400 0.000000 
#    z 0.000000 0.000000 1.910190 
# 
# From -- ./inp_files/14686.got.cif
#   From: 2010.05.17/outbox.cif.g08.bks.cpg/sg51_8_cif.got.tgz:14686.got - 2010.06.03 11:52:47.
