data_PCOD9403386
_publ_section_title
;
Structure prediction by ZEFSAII (Michael W. Deem and Ramdas Pophale) SiO2 
 PCOD9403386
Probable space group: P M M A
;
_chemical_formula_sum "Si O2"
_cell_formula_units_Z 48
_cell_length_a 24.091167
_cell_length_b 7.731722
_cell_length_c 11.151416
_cell_angle_alpha 90.000000
_cell_angle_beta 90.000000
_cell_angle_gamma 90.000000
_cell_volume 2077.131949
_symmetry_space_group_name_H-M "P M M A"
_symmetry_group_IT_number 51
_symmetry_cell_setting 'orthorhombic'
loop_
_space_group_symop_operation_xyz
x,y,z
1/2-x,-y,z
1/2+x,-y,-z
-x,y,-z
-x,-y,-z
1/2+x,y,-z
1/2-x,y,z
x,-y,z
loop_
_atom_site_type_symbol
_atom_site_label
_atom_site_fract_x
_atom_site_fract_y
_atom_site_fract_z
Si Si1 0.380756 0.301669 0.967423
Si Si2 0.519621 0.710556 0.181046
Si Si3 0.411604 0.708560 0.581455
Si Si4 0.186398 0.204849 0.736085
Si Si5 0.919307 0.700970 0.680854
Si Si6 0.187327 0.799675 0.194888
O O1 0.388567 0.500000 0.008886
O O2 0.440804 0.227874 0.926858
O O3 0.345316 0.298491 0.844499
O O4 0.343022 0.212640 0.066518
O O5 0.520931 0.500000 0.166711
O O6 0.550122 0.758813 0.306228
O O7 0.457081 0.769537 0.209509
O O8 0.413613 0.500000 0.577277
O O9 0.349588 0.762627 0.617480
O O10 0.428790 0.776836 0.451188
O O11 0.250000 0.260325 0.725832
O O12 0.185216 0.000000 0.762589
O O13 0.935452 0.500000 0.671761
O O14 0.855037 0.711926 0.713872
O O15 0.250000 0.729819 0.189491
O O16 0.190182 0.000000 0.228871
#
# Coordination Sequence:
#
# PCOD9403386 Si02
#       6
#     8   8   8   8   8   8
#     4  10  20  36  60  85 107 135 177 227 274 323
#     4   8  16  33  58  87 113 136 168 218 277 324
#     4   9  18  33  55  82 110 143 182 222 265 316
#     4  10  20  33  51  77 110 146 181 222 275 326
#     4  10  20  36  59  83 109 143 183 223 262 315
#     4  11  25  42  56  74 108 150 185 221 270 323
#
# _framework density 23.108785000000001
#
# number of rings (size 3 to 8) (size 9 to 14) (size 15 to 20)
#    0.000    2.333    0.000    3.500    0.000    8.667 
#    0.000   10.833    0.000    5.000    0.000    0.000 
#    0.000    0.000    0.000    0.000    0.000    0.000 
#
# Total GULP energy -268015.262405 kJ/mol
# GULP energy per Si atom -5583.651300 kJ/mol
# Density = 2.305619 g / cm^3
# Si number density = 23.108785 Si / 1000 Ang^3
#
#
#
# Elastic Constant Matrix: (Units=GPa)
#
#
# Indices 1 2 3 4 5 6 
#
# 1 133.2040 -5.7539 10.6006 0.0000 0.0000 0.0000
# 2 -5.7539 38.0669 -7.4705 0.0000 0.0000 0.0000
# 3 10.6006 -7.4705 68.0814 0.0000 0.0000 0.0000
# 4 0.0000 0.0000 0.0000 31.2922 0.0000 0.0000
# 5 0.0000 0.0000 0.0000 0.0000 22.9944 0.0000
# 6 0.0000 0.0000 0.0000 0.0000 0.0000 22.6971
#
#
#
# Elastic Compliance Matrix: (Units=1/GPa)
#
#
# Indices 1 2 3 4 5 6 
#
# 1 0.007634 0.000941 -0.001085 0.000000 0.000000 0.000000
# 2 0.000941 0.026964 0.002812 0.000000 0.000000 0.000000
# 3 -0.001085 0.002812 0.015166 0.000000 0.000000 0.000000
# 4 0.000000 0.000000 0.000000 0.031957 0.000000 0.000000
# 5 0.000000 0.000000 0.000000 0.000000 0.043489 0.000000
# 6 0.000000 0.000000 0.000000 0.000000 0.000000 0.044058
#
#
# Mechanical properties :
#
#
# Convention : Reuss Voigt Hill
#
# Bulk Modulus (GPa) = 18.14908 26.01163 22.08035
# Shear Modulus (GPa) = 27.42745 31.52848 29.47797
#
# Velocity S-wave (km/s) = 3.44886 3.69772 3.57545
# Velocity P-wave (km/s) = 4.87137 5.43244 5.15954
#
# Compressibility (1/GPa) = 0.05509922
#
# Stress axis : x y z
#
# Youngs Moduli (GPa) = 130.98766 37.08693 65.93745
#
# Poissons Ratio (x) = -0.03490 0.07157
# Poissons Ratio (y) = -0.12325 -0.18543
# Poissons Ratio (z) = 0.14218 -0.10430
#
# Static dielectric constant tensor:
#      x y z
#    x 1.894290 0.000000 0.000000 
#    y 0.000000 1.861100 0.000000 
#    z 0.000000 0.000000 1.874210 
# 
# From -- ./inp_files/18536.got.cif
#   From: 2010.05.17/outbox.cif.g08.bks.cpg/sg51_10_cif.got.tgz:18536.got - 2010.06.03 11:52:47.
