data_PCOD9403691
_publ_section_title
;
Structure prediction by ZEFSAII (Michael W. Deem and Ramdas Pophale) SiO2 
 PCOD9403691
Probable space group: P M M A
;
_chemical_formula_sum "Si O2"
_cell_formula_units_Z 48
_cell_length_a 25.974754
_cell_length_b 7.665274
_cell_length_c 12.221784
_cell_angle_alpha 90.000000
_cell_angle_beta 90.000000
_cell_angle_gamma 90.000000
_cell_volume 2433.401272
_symmetry_space_group_name_H-M "P M M A"
_symmetry_group_IT_number 51
_symmetry_cell_setting 'orthorhombic'
loop_
_space_group_symop_operation_xyz
x,y,z
1/2-x,-y,z
1/2+x,-y,-z
-x,y,-z
-x,-y,-z
1/2+x,y,-z
1/2-x,y,z
x,-y,z
loop_
_atom_site_type_symbol
_atom_site_label
_atom_site_fract_x
_atom_site_fract_y
_atom_site_fract_z
Si Si1 0.191359 0.287194 0.382960
Si Si2 0.691589 0.289599 0.368008
Si Si3 0.907124 0.295083 0.748430
Si Si4 0.404167 0.793150 0.777123
Si Si5 0.059977 0.788841 0.009965
Si Si6 0.007848 0.202356 0.619856
O O1 0.250000 0.229846 0.359305
O O2 0.192437 0.500000 0.381471
O O3 0.177984 0.234081 0.507748
O O4 0.147266 0.229861 0.299294
O O5 0.750000 0.231115 0.345770
O O6 0.691606 0.500000 0.368432
O O7 0.650673 0.231151 0.278975
O O8 0.910439 0.500000 0.722278
O O9 0.914754 0.272899 0.877608
O O10 0.954965 0.207996 0.686755
O O11 0.447411 0.718224 0.695128
O O12 0.414444 0.000000 0.786043
O O13 0.411247 0.726501 0.900328
O O14 0.060543 0.000000 0.014848
O O15 0.000000 0.735699 0.000000
O O16 0.000000 0.282373 0.500000
O O17 0.022942 0.000000 0.601561
#
# Coordination Sequence:
#
# PCOD9403691 Si02
#       6
#     8   8   8   8   8   8
#     4   8  16  33  54  76 106 141 170 203 259 319
#     4   9  18  34  56  79 105 138 171 208 259 314
#     4  11  21  32  53  82 106 132 175 225 265 304
#     4  10  20  34  53  76 101 137 177 214 258 305
#     4  10  20  38  56  69 100 146 181 210 255 317
#     4  10  20  34  52  75 106 141 173 209 262 324
#
# _framework density 19.725477000000001
#
# number of rings (size 3 to 8) (size 9 to 14) (size 15 to 20)
#    0.000    2.333    1.667    2.500    0.000    2.333 
#    0.000    1.667    0.000    7.000    0.000    0.000 
#    0.000    0.000    0.000    0.000    0.000    0.000 
#
# Total GULP energy -267900.328159 kJ/mol
# GULP energy per Si atom -5581.256837 kJ/mol
# Density = 1.968058 g / cm^3
# Si number density = 19.725477 Si / 1000 Ang^3
#
#
#
# Elastic Constant Matrix: (Units=GPa)
#
#
# Indices 1 2 3 4 5 6 
#
# 1 110.6482 -15.1916 81.4702 0.0000 0.0000 0.0000
# 2 -15.1916 30.8401 -10.8739 0.0000 0.0000 0.0000
# 3 81.4702 -10.8739 167.0943 0.0000 0.0000 0.0000
# 4 0.0000 0.0000 0.0000 1.7633 0.0000 0.0000
# 5 0.0000 0.0000 0.0000 0.0000 23.2034 0.0000
# 6 0.0000 0.0000 0.0000 0.0000 0.0000 19.5498
#
#
#
# Elastic Compliance Matrix: (Units=1/GPa)
#
#
# Indices 1 2 3 4 5 6 
#
# 1 0.014775 0.004849 -0.006888 0.000000 0.000000 0.000000
# 2 0.004849 0.034778 -0.000101 0.000000 0.000000 0.000000
# 3 -0.006888 -0.000101 0.009337 0.000000 0.000000 0.000000
# 4 0.000000 0.000000 0.000000 0.567109 0.000000 0.000000
# 5 0.000000 0.000000 0.000000 0.000000 0.043097 0.000000
# 6 0.000000 0.000000 0.000000 0.000000 0.000000 0.051151
#
#
# Mechanical properties :
#
#
# Convention : Reuss Voigt Hill
#
# Bulk Modulus (GPa) = 18.31163 46.59911 32.45537
# Shear Modulus (GPa) = 6.73191 25.78184 16.25687
#
# Velocity S-wave (km/s) = 1.84938 3.61921 2.87393
# Velocity P-wave (km/s) = 3.72339 6.41405 5.24422
#
# Compressibility (1/GPa) = 0.05461011
#
# Stress axis : x y z
#
# Youngs Moduli (GPa) = 67.67981 28.75346 107.10445
#
# Poissons Ratio (x) = -0.13944 0.73779
# Poissons Ratio (y) = -0.32821 0.01084
# Poissons Ratio (z) = 0.46621 0.00291
#
# Static dielectric constant tensor:
#      x y z
#    x 1.671990 0.000000 0.000000 
#    y 0.000000 1.748550 0.000000 
#    z 0.000000 0.000000 1.685680 
# 
# From -- ./inp_files/18558.got.cif
#   From: 2010.05.17/outbox.cif.g08.bks.cpg/sg51_10_cif.got.tgz:18558.got - 2010.06.03 11:52:47.
