data_PCOD9403811
_publ_section_title
;
Structure prediction by ZEFSAII (Michael W. Deem and Ramdas Pophale) SiO2 
 PCOD9403811
Probable space group: P M M A
;
_chemical_formula_sum "Si O2"
_cell_formula_units_Z 48
_cell_length_a 8.735996
_cell_length_b 21.049921
_cell_length_c 14.498234
_cell_angle_alpha 90.000000
_cell_angle_beta 90.000000
_cell_angle_gamma 90.000000
_cell_volume 2666.109619
_symmetry_space_group_name_H-M "P M M A"
_symmetry_group_IT_number 51
_symmetry_cell_setting 'orthorhombic'
loop_
_space_group_symop_operation_xyz
x,y,z
1/2-x,-y,z
1/2+x,-y,-z
-x,y,-z
-x,-y,-z
1/2+x,y,-z
1/2-x,y,z
x,-y,z
loop_
_atom_site_type_symbol
_atom_site_label
_atom_site_fract_x
_atom_site_fract_y
_atom_site_fract_z
Si Si1 0.064667 0.128195 0.791266
Si Si2 0.933725 0.249512 0.896676
Si Si3 0.934355 0.926015 0.401177
Si Si4 0.065325 0.624653 0.216026
Si Si5 0.434148 0.000000 0.898098
Si Si6 0.066863 0.574104 0.599676
Si Si7 0.934503 0.500000 0.897798
O O1 0.250000 0.133516 0.794483
O O2 0.018264 0.117341 0.684872
O O3 0.992334 0.188086 0.841735
O O4 0.020207 0.063658 0.844438
O O5 0.750000 0.248222 0.902620
O O6 0.979904 0.312221 0.839199
O O7 0.000000 0.250776 0.000000
O O8 0.750000 0.925180 0.405024
O O9 0.000000 0.906691 0.500000
O O10 0.979645 0.000000 0.384431
O O11 0.250000 0.624034 0.223577
O O12 0.017366 0.562906 0.157248
O O13 0.995831 0.616650 0.317383
O O14 0.250000 0.000000 0.901968
O O15 0.500000 0.000000 0.000000
O O16 0.250000 0.576799 0.596850
O O17 0.021136 0.500000 0.616819
O O18 0.000000 0.591921 0.500000
O O19 0.750000 0.500000 0.902508
O O20 0.000000 0.500000 0.000000
#
# Coordination Sequence:
#
# PCOD9403811 Si02
#       7
#     8   8   8   8   4   8   4
#     4  10  20  37  58  80 111 149 187 231 282 335
#     4  11  24  40  58  82 113 151 191 232 281 338
#     4   9  17  32  55  83 113 144 179 224 278 331
#     4  10  21  38  58  81 112 149 189 234 282 334
#     4  10  20  34  53  78 106 138 183 234 281 330
#     4  10  20  34  57  88 118 149 185 230 283 338
#     4  10  20  34  55  80 107 140 181 232 284 330
#
# _framework density 18.00376
#
# number of rings (size 3 to 8) (size 9 to 14) (size 15 to 20)
#    0.000    2.000    1.667    2.000    0.000    5.333 
#    0.000    0.833    0.000    2.000    0.000    0.000 
#    0.000    0.000    0.000    0.000    0.000    0.000 
#
# Total GULP energy -268015.837544 kJ/mol
# GULP energy per Si atom -5583.663282 kJ/mol
# Density = 1.796278 g / cm^3
# Si number density = 18.003760 Si / 1000 Ang^3
#
#
#
# Elastic Constant Matrix: (Units=GPa)
#
#
# Indices 1 2 3 4 5 6 
#
# 1 23.0604 40.5091 47.4292 0.0000 0.0000 0.0000
# 2 40.5091 151.2814 103.8002 0.0000 0.0000 0.0000
# 3 47.4292 103.8002 207.6283 0.0000 0.0000 0.0000
# 4 0.0000 0.0000 0.0000 32.2658 0.0000 0.0000
# 5 0.0000 0.0000 0.0000 0.0000 37.6104 0.0000
# 6 0.0000 0.0000 0.0000 0.0000 0.0000 22.1731
#
#
#
# Elastic Compliance Matrix: (Units=1/GPa)
#
#
# Indices 1 2 3 4 5 6 
#
# 1 0.106530 -0.018005 -0.015334 0.000000 0.000000 0.000000
# 2 -0.018005 0.013105 -0.002438 0.000000 0.000000 0.000000
# 3 -0.015334 -0.002438 0.009538 0.000000 0.000000 0.000000
# 4 0.000000 0.000000 0.000000 0.030993 0.000000 0.000000
# 5 0.000000 0.000000 0.000000 0.000000 0.026588 0.000000
# 6 0.000000 0.000000 0.000000 0.000000 0.000000 0.045100
#
#
# Mechanical properties :
#
#
# Convention : Reuss Voigt Hill
#
# Bulk Modulus (GPa) = 17.35546 85.04966 51.20256
# Shear Modulus (GPa) = 15.49838 31.09196 23.29517
#
# Velocity S-wave (km/s) = 2.93719 4.16019 3.60099
# Velocity P-wave (km/s) = 4.60040 8.39159 6.76692
#
# Compressibility (1/GPa) = 0.05761876
#
# Stress axis : x y z
#
# Youngs Moduli (GPa) = 9.38699 76.30936 104.84221
#
# Poissons Ratio (x) = 1.37394 1.60764
# Poissons Ratio (y) = 0.16901 0.25566
# Poissons Ratio (z) = 0.14394 0.18608
#
# Static dielectric constant tensor:
#      x y z
#    x 1.609630 0.000000 0.000000 
#    y 0.000000 1.603810 0.000000 
#    z 0.000000 0.000000 1.595200 
# 
# From -- ./inp_files/21162.got.cif
#   From: 2010.05.17/outbox.cif.g08.bks.cpg/sg51_11_cif.got.tgz:21162.got - 2010.06.03 11:52:47.
