data_PCOD9403942
_publ_section_title
;
Structure prediction by ZEFSAII (Michael W. Deem and Ramdas Pophale) SiO2 
 PCOD9403942
Probable space group: P M M A
;
_chemical_formula_sum "Si O2"
_cell_formula_units_Z 64
_cell_length_a 9.439561
_cell_length_b 23.772123
_cell_length_c 15.514766
_cell_angle_alpha 90.000000
_cell_angle_beta 90.000000
_cell_angle_gamma 90.000000
_cell_volume 3481.488747
_symmetry_space_group_name_H-M "P M M A"
_symmetry_group_IT_number 51
_symmetry_cell_setting 'orthorhombic'
loop_
_space_group_symop_operation_xyz
x,y,z
1/2-x,-y,z
1/2+x,-y,-z
-x,y,-z
-x,-y,-z
1/2+x,y,-z
1/2-x,y,z
x,-y,z
loop_
_atom_site_type_symbol
_atom_site_label
_atom_site_fract_x
_atom_site_fract_y
_atom_site_fract_z
Si Si1 0.093036 0.066544 0.077479
Si Si2 0.583867 0.605065 0.587182
Si Si3 0.916380 0.434726 0.247526
Si Si4 0.416451 0.740188 0.412387
Si Si5 0.083109 0.937576 0.747638
Si Si6 0.916889 0.224789 0.087528
Si Si7 0.581222 0.185136 0.276883
Si Si8 0.917738 0.357692 0.087228
O O1 0.250000 0.091582 0.082754
O O2 0.009957 0.067718 0.166762
O O3 0.109712 0.000000 0.058471
O O4 0.000000 0.090420 0.000000
O O5 0.500000 0.590251 0.500000
O O6 0.750000 0.590863 0.580173
O O7 0.509838 0.576738 0.668711
O O8 0.572303 0.672763 0.599032
O O9 0.750000 0.422494 0.266674
O O10 0.926580 0.500000 0.222376
O O11 0.961394 0.394870 0.168792
O O12 0.500000 0.754555 0.500000
O O13 0.250000 0.754132 0.419137
O O14 0.490610 0.772923 0.334495
O O15 0.250000 0.936084 0.771477
O O16 0.057105 0.879999 0.696245
O O17 0.055943 0.000000 0.709300
O O18 0.750000 0.215344 0.072882
O O19 0.955994 0.192678 0.175528
O O20 0.939275 0.291427 0.105318
O O21 0.000000 0.212210 0.000000
O O22 0.750000 0.197481 0.284764
O O23 0.750000 0.366397 0.073859
O O24 0.000000 0.372121 0.000000
#
# Coordination Sequence:
#
# PCOD9403942 Si02
#       8
#     8   8   8   8   8   8   8   8
#     4   9  16  26  41  60  84 119 164 211 254 296
#     4  10  21  37  58  83 110 141 175 213 262 318
#     4  10  21  36  54  78 109 145 184 225 268 314
#     4  10  21  37  59  86 111 135 168 214 266 319
#     4   9  18  32  48  68  97 133 172 212 256 310
#     4   9  18  32  50  73 102 137 176 219 267 316
#     4  10  20  34  54  79 107 140 175 215 266 318
#     4   9  18  33  52  73 100 136 178 224 271 315
#
# _framework density 18.382940999999999
#
# number of rings (size 3 to 8) (size 9 to 14) (size 15 to 20)
#    0.000    2.500    0.000    1.875    0.000    6.750 
#    0.000    3.750    0.000    0.375    0.000    0.000 
#    0.000    0.000    0.000    0.000    0.000    0.000 
#
# Total GULP energy -357009.604495 kJ/mol
# GULP energy per Si atom -5578.275070 kJ/mol
# Density = 1.834110 g / cm^3
# Si number density = 18.382941 Si / 1000 Ang^3
#
#
#
# Elastic Constant Matrix: (Units=GPa)
#
#
# Indices 1 2 3 4 5 6 
#
# 1 48.3498 32.3282 27.8155 0.0000 0.0000 0.0000
# 2 32.3282 63.0594 41.2382 0.0000 0.0000 0.0000
# 3 27.8155 41.2382 70.1215 0.0000 0.0000 0.0000
# 4 0.0000 0.0000 0.0000 -4.7134 0.0000 0.0000
# 5 0.0000 0.0000 0.0000 0.0000 32.2053 0.0000
# 6 0.0000 0.0000 0.0000 0.0000 0.0000 6.8918
#
#
#
# Elastic Compliance Matrix: (Units=1/GPa)
#
#
# Indices 1 2 3 4 5 6 
#
# 1 0.032527 -0.013385 -0.005031 0.000000 0.000000 0.000000
# 2 -0.013385 0.031277 -0.013084 0.000000 0.000000 0.000000
# 3 -0.005031 -0.013084 0.023951 0.000000 0.000000 0.000000
# 4 0.000000 0.000000 0.000000 -0.212163 0.000000 0.000000
# 5 0.000000 0.000000 0.000000 0.000000 0.031051 0.000000
# 6 0.000000 0.000000 0.000000 0.000000 0.000000 0.145100
#
#
# Mechanical properties :
#
#
# Convention : Reuss Voigt Hill
#
# Bulk Modulus (GPa) = 40.39694 42.69939 41.54816
# Shear Modulus (GPa) = 40.65270 12.22001 26.43635
#
# Velocity S-wave (km/s) = 4.70769 2.58107 3.79633
# Velocity P-wave (km/s) = 7.18142 5.67104 6.47045
#
# Compressibility (1/GPa) = 0.02475435
#
# Stress axis : x y z
#
# Youngs Moduli (GPa) = 30.74412 31.97276 41.75161
#
# Poissons Ratio (x) = 0.42797 0.21004
# Poissons Ratio (y) = 0.41152 0.54628
# Poissons Ratio (z) = 0.15466 0.41833
#
# Static dielectric constant tensor:
#      x y z
#    x 1.793820 0.000000 0.000000 
#    y 0.000000 1.664740 0.000000 
#    z 0.000000 0.000000 1.593520 
# 
# From -- ./inp_files/22383.got.cif
#   From: 2010.05.17/outbox.cif.g08.bks.cpg/sg51_12_cif.got.tgz:22383.got - 2010.06.03 11:52:47.
