data_PCOD9403532
_publ_section_title
;
Structure prediction by ZEFSAII (Michael W. Deem and Ramdas Pophale) SiO2 
 PCOD9403532
Probable space group: P M M A
;
_chemical_formula_sum "Si O2"
_cell_formula_units_Z 40
_cell_length_a 16.429917
_cell_length_b 7.817108
_cell_length_c 15.189525
_cell_angle_alpha 90.000000
_cell_angle_beta 90.000000
_cell_angle_gamma 90.000000
_cell_volume 1950.858071
_symmetry_space_group_name_H-M "P M M A"
_symmetry_group_IT_number 51
_symmetry_cell_setting 'orthorhombic'
loop_
_space_group_symop_operation_xyz
x,y,z
1/2-x,-y,z
1/2+x,-y,-z
-x,y,-z
-x,-y,-z
1/2+x,y,-z
1/2-x,y,z
x,-y,z
loop_
_atom_site_type_symbol
_atom_site_label
_atom_site_fract_x
_atom_site_fract_y
_atom_site_fract_z
Si Si1 0.395129 0.706003 0.588349
Si Si2 0.918988 0.706058 0.604883
Si Si3 0.250000 0.790316 0.919487
Si Si4 0.589257 0.209319 0.970367
Si Si5 0.159139 0.795083 0.211044
Si Si6 0.250000 0.798596 0.718503
O O1 0.396149 0.500000 0.586781
O O2 0.379410 0.764573 0.487563
O O3 0.487009 0.765022 0.609046
O O4 0.328873 0.754826 0.660195
O O5 0.920655 0.500000 0.601599
O O6 0.873505 0.757178 0.692589
O O7 0.250000 0.727636 0.818140
O O8 0.250000 0.000000 0.920589
O O9 0.167086 0.738325 0.970298
O O10 0.604934 0.265917 0.870142
O O11 0.588448 0.000000 0.973187
O O12 0.500000 0.267297 0.000000
O O13 0.250000 0.725943 0.200676
O O14 0.162860 0.000000 0.202364
O O15 0.250000 0.000000 0.730176
#
# Coordination Sequence:
#
# PCOD9403532 Si02
#       6
#     8   8   4   8   8   4
#     4   9  20  40  58  75 105 147 187 219 261 323
#     4   9  20  38  59  78 102 143 189 224 261 319
#     4   9  18  33  48  75 110 138 179 221 258 325
#     4   9  17  31  52  74 104 146 181 214 266 328
#     4  10  20  33  53  83 113 139 173 224 279 323
#     4  11  23  33  54  87 114 138 175 225 274 315
#
# _framework density 20.503799999999998
#
# number of rings (size 3 to 8) (size 9 to 14) (size 15 to 20)
#    0.000    2.600    1.000    1.500    4.200    2.000 
#    0.000    2.000    0.000    3.000    0.000    0.000 
#    0.000    0.000    0.000    0.000    0.000    0.000 
#
# Total GULP energy -223156.135507 kJ/mol
# GULP energy per Si atom -5578.903388 kJ/mol
# Density = 2.045713 g / cm^3
# Si number density = 20.503800 Si / 1000 Ang^3
#
#
#
# Elastic Constant Matrix: (Units=GPa)
#
#
# Indices 1 2 3 4 5 6 
#
# 1 111.1928 4.9699 67.2210 0.0000 0.0000 0.0000
# 2 4.9699 19.6374 3.1214 0.0000 0.0000 0.0000
# 3 67.2210 3.1214 143.9037 0.0000 0.0000 0.0000
# 4 0.0000 0.0000 0.0000 28.7028 0.0000 0.0000
# 5 0.0000 0.0000 0.0000 0.0000 36.1738 0.0000
# 6 0.0000 0.0000 0.0000 0.0000 0.0000 17.9636
#
#
#
# Elastic Compliance Matrix: (Units=1/GPa)
#
#
# Indices 1 2 3 4 5 6 
#
# 1 0.012632 -0.002267 -0.005852 0.000000 0.000000 0.000000
# 2 -0.002267 0.051506 -0.000058 0.000000 0.000000 0.000000
# 3 -0.005852 -0.000058 0.009684 0.000000 0.000000 0.000000
# 4 0.000000 0.000000 0.000000 0.034840 0.000000 0.000000
# 5 0.000000 0.000000 0.000000 0.000000 0.027644 0.000000
# 6 0.000000 0.000000 0.000000 0.000000 0.000000 0.055668
#
#
# Mechanical properties :
#
#
# Convention : Reuss Voigt Hill
#
# Bulk Modulus (GPa) = 17.40078 47.26203 32.33140
# Shear Modulus (GPa) = 21.97950 29.86281 25.92116
#
# Velocity S-wave (km/s) = 3.27765 3.82049 3.55943
# Velocity P-wave (km/s) = 4.77797 6.52395 5.71800
#
# Compressibility (1/GPa) = 0.05746870
#
# Stress axis : x y z
#
# Youngs Moduli (GPa) = 79.16199 19.41509 103.26490
#
# Poissons Ratio (x) = 0.04401 0.60428
# Poissons Ratio (y) = 0.17945 0.00602
# Poissons Ratio (z) = 0.46323 0.00113
#
# Static dielectric constant tensor:
#      x y z
#    x 1.738470 0.000000 0.000000 
#    y 0.000000 1.756500 0.000000 
#    z 0.000000 0.000000 1.727910 
# 
# From -- ./inp_files/23789.got.cif
#   From: 2010.05.17/outbox.cif.g08.bks.cpg/sg51_12_cif.got.tgz:23789.got - 2010.06.03 11:52:47.
