data_PCOD9403794
_publ_section_title
;
Structure prediction by ZEFSAII (Michael W. Deem and Ramdas Pophale) SiO2 
 PCOD9403794
Probable space group: P M M A
;
_chemical_formula_sum "Si O2"
_cell_formula_units_Z 28
_cell_length_a 8.684760
_cell_length_b 13.131687
_cell_length_c 14.726827
_cell_angle_alpha 90.000000
_cell_angle_beta 90.000000
_cell_angle_gamma 90.000000
_cell_volume 1679.529085
_symmetry_space_group_name_H-M "P M M A"
_symmetry_group_IT_number 51
_symmetry_cell_setting 'orthorhombic'
loop_
_space_group_symop_operation_xyz
x,y,z
1/2-x,-y,z
1/2+x,-y,-z
-x,y,-z
-x,-y,-z
1/2+x,y,-z
1/2-x,y,z
x,-y,z
loop_
_atom_site_type_symbol
_atom_site_label
_atom_site_fract_x
_atom_site_fract_y
_atom_site_fract_z
Si Si1 0.434483 0.500000 0.898054
Si Si2 0.564397 0.115427 0.900154
Si Si3 0.433910 0.620598 0.597648
Si Si4 0.064923 0.309583 0.215075
O O1 0.250000 0.500000 0.900130
O O2 0.493748 0.599070 0.844230
O O3 0.500000 0.500000 0.000000
O O4 0.750000 0.116208 0.905034
O O5 0.517919 0.202256 0.829534
O O6 0.515277 0.000000 0.876488
O O7 0.500000 0.139303 0.000000
O O8 0.500000 0.652141 0.500000
O O9 0.250000 0.631371 0.598597
O O10 0.470151 0.500000 0.609107
O O11 0.507522 0.678367 0.682256
O O12 0.250000 0.318004 0.212255
#
# Coordination Sequence:
#
# PCOD9403794 Si02
#       4
#     4   8   8   8
#     4  12  24  36  49  72 107 142 174 212 258 312
#     4   9  19  35  54  77 104 137 177 218 259 304
#     4  10  20  34  53  77 106 139 173 215 259 310
#     4  11  21  34  54  78 106 139 173 214 261 313
#
# _framework density 16.671341000000002
#
# number of rings (size 3 to 8) (size 9 to 14) (size 15 to 20)
#    0.000    1.714    1.429    3.857    0.000    5.714 
#    0.000    0.000    0.000    0.857    0.000    0.000 
#    0.000    0.000    0.000    0.000    0.000    0.000 
#
# Total GULP energy -156374.648544 kJ/mol
# GULP energy per Si atom -5584.808877 kJ/mol
# Density = 1.663340 g / cm^3
# Si number density = 16.671341 Si / 1000 Ang^3
#
#
#
# Elastic Constant Matrix: (Units=GPa)
#
#
# Indices 1 2 3 4 5 6 
#
# 1 55.8115 46.0486 54.9100 0.0000 0.0000 0.0000
# 2 46.0486 116.0173 101.6732 0.0000 0.0000 0.0000
# 3 54.9100 101.6732 177.0809 0.0000 0.0000 0.0000
# 4 0.0000 0.0000 0.0000 18.5808 0.0000 0.0000
# 5 0.0000 0.0000 0.0000 0.0000 34.3663 0.0000
# 6 0.0000 0.0000 0.0000 0.0000 0.0000 7.7479
#
#
#
# Elastic Compliance Matrix: (Units=1/GPa)
#
#
# Indices 1 2 3 4 5 6 
#
# 1 0.028469 -0.007172 -0.004710 0.000000 0.000000 0.000000
# 2 -0.007172 0.019156 -0.008775 0.000000 0.000000 0.000000
# 3 -0.004710 -0.008775 0.012146 0.000000 0.000000 0.000000
# 4 0.000000 0.000000 0.000000 0.053819 0.000000 0.000000
# 5 0.000000 0.000000 0.000000 0.000000 0.029098 0.000000
# 6 0.000000 0.000000 0.000000 0.000000 0.000000 0.129068
#
#
# Mechanical properties :
#
#
# Convention : Reuss Voigt Hill
#
# Bulk Modulus (GPa) = 54.17940 83.79703 68.98822
# Shear Modulus (GPa) = 15.66316 21.89087 18.77702
#
# Velocity S-wave (km/s) = 3.06849 3.62758 3.35969
# Velocity P-wave (km/s) = 6.71739 8.24130 7.51806
#
# Compressibility (1/GPa) = 0.01845720
#
# Stress axis : x y z
#
# Youngs Moduli (GPa) = 35.12635 52.20347 82.33449
#
# Poissons Ratio (x) = 0.37441 0.38777
# Poissons Ratio (y) = 0.25193 0.72245
# Poissons Ratio (z) = 0.16543 0.45806
#
# Static dielectric constant tensor:
#      x y z
#    x 1.557390 0.000000 0.000000 
#    y 0.000000 1.557980 0.000000 
#    z 0.000000 0.000000 1.534530 
# 
# From -- ./inp_files/19949.got.cif
#   From: 2010.05.17/outbox.cif.g08.bks.cpg/sg51_10_cif.got.tgz:19949.got - 2010.06.03 11:52:47.
