data_PCOD9403741
_publ_section_title
;
Structure prediction by ZEFSAII (Michael W. Deem and Ramdas Pophale) SiO2 
 PCOD9403741
Probable space group: P M M A
;
_chemical_formula_sum "Si O2"
_cell_formula_units_Z 64
_cell_length_a 8.951800
_cell_length_b 14.501222
_cell_length_c 32.399213
_cell_angle_alpha 90.000000
_cell_angle_beta 90.000000
_cell_angle_gamma 90.000000
_cell_volume 4205.807905
_symmetry_space_group_name_H-M "P M M A"
_symmetry_group_IT_number 51
_symmetry_cell_setting 'orthorhombic'
loop_
_space_group_symop_operation_xyz
x,y,z
1/2-x,-y,z
1/2+x,-y,-z
-x,y,-z
-x,-y,-z
1/2+x,y,-z
1/2-x,y,z
x,-y,z
loop_
_atom_site_type_symbol
_atom_site_label
_atom_site_fract_x
_atom_site_fract_y
_atom_site_fract_z
Si Si1 0.073353 0.894019 0.166365
Si Si2 0.925219 0.611890 0.632041
Si Si3 0.571626 0.713720 0.958235
Si Si4 0.429588 0.393223 0.717110
Si Si5 0.571394 0.608737 0.873545
Si Si6 0.570664 0.280510 0.201933
Si Si7 0.071290 0.610211 0.458127
Si Si8 0.571245 0.894781 0.075703
O O1 0.250000 0.876638 0.160479
O O2 0.003281 0.819380 0.196719
O O3 0.991476 0.884472 0.122229
O O4 0.054366 0.000000 0.179947
O O5 0.750000 0.634300 0.635597
O O6 0.936426 0.500000 0.631087
O O7 0.980047 0.645209 0.586964
O O8 0.009675 0.641561 0.673199
O O9 0.750000 0.717534 0.962070
O O10 0.534088 0.654244 0.917619
O O11 0.506413 0.815869 0.950799
O O12 0.500000 0.675299 0.000000
O O13 0.250000 0.393706 0.715663
O O14 0.478950 0.500000 0.722977
O O15 0.475636 0.331865 0.756017
O O16 0.750000 0.621177 0.867231
O O17 0.539381 0.500000 0.873636
O O18 0.484799 0.659659 0.837008
O O19 0.750000 0.273276 0.201063
O O20 0.250000 0.620684 0.459885
O O21 0.040258 0.500000 0.457962
O O22 0.000000 0.648717 0.500000
O O23 0.750000 0.882762 0.075610
O O24 0.537565 0.000000 0.062396
#
# Coordination Sequence:
#
# PCOD9403741 Si02
#       8
#     8   8   8   8   8   8   8   8
#     4  10  20  34  53  76 100 124 149 179 218 265
#     4   8  14  24  36  51  74 106 145 188 230 271
#     4  11  23  38  56  76 100 127 155 187 222 264
#     4   9  18  30  42  61  89 119 152 189 228 268
#     4  10  22  39  56  74  96 123 156 191 225 264
#     4  11  21  33  52  75  98 122 152 188 226 269
#     4   8  13  20  30  46  68  96 136 184 230 273
#     4  10  20  35  56  80 103 125 149 179 218 264
#
# _framework density 15.217052000000001
#
# number of rings (size 3 to 8) (size 9 to 14) (size 15 to 20)
#    0.000    2.375    1.250    2.625    0.000    4.750 
#    0.000    3.750    0.000    0.000    0.000    0.000 
#    0.000    0.000    0.000    0.000    0.000    0.625 
#
# Total GULP energy -356789.621103 kJ/mol
# GULP energy per Si atom -5574.837830 kJ/mol
# Density = 1.518242 g / cm^3
# Si number density = 15.217052 Si / 1000 Ang^3
#
#
#
# Elastic Constant Matrix: (Units=GPa)
#
#
# Indices 1 2 3 4 5 6 
#
# 1 31.7076 24.0519 38.7983 0.0000 0.0000 0.0000
# 2 24.0519 56.1036 39.3829 0.0000 0.0000 0.0000
# 3 38.7983 39.3829 131.6704 0.0000 0.0000 0.0000
# 4 0.0000 0.0000 0.0000 4.3828 0.0000 0.0000
# 5 0.0000 0.0000 0.0000 0.0000 28.2625 0.0000
# 6 0.0000 0.0000 0.0000 0.0000 0.0000 17.6663
#
#
#
# Elastic Compliance Matrix: (Units=1/GPa)
#
#
# Indices 1 2 3 4 5 6 
#
# 1 0.059596 -0.016736 -0.012555 0.000000 0.000000 0.000000
# 2 -0.016736 0.027261 -0.003222 0.000000 0.000000 0.000000
# 3 -0.012555 -0.003222 0.012258 0.000000 0.000000 0.000000
# 4 0.000000 0.000000 0.000000 0.228166 0.000000 0.000000
# 5 0.000000 0.000000 0.000000 0.000000 0.035383 0.000000
# 6 0.000000 0.000000 0.000000 0.000000 0.000000 0.056605
#
#
# Mechanical properties :
#
#
# Convention : Reuss Voigt Hill
#
# Bulk Modulus (GPa) = 29.33551 47.10532 38.22041
# Shear Modulus (GPa) = 10.08761 17.87887 13.98324
#
# Velocity S-wave (km/s) = 2.57751 3.43143 3.03466
# Velocity P-wave (km/s) = 5.30829 6.83538 6.11966
#
# Compressibility (1/GPa) = 0.03408838
#
# Stress axis : x y z
#
# Youngs Moduli (GPa) = 16.77973 36.68259 81.57943
#
# Poissons Ratio (x) = 0.61391 1.02422
# Poissons Ratio (y) = 0.28082 0.26288
# Poissons Ratio (z) = 0.21067 0.11820
#
# Static dielectric constant tensor:
#      x y z
#    x 1.507250 0.000000 0.000000 
#    y 0.000000 1.496150 0.000000 
#    z 0.000000 0.000000 1.520940 
# 
# From -- ./inp_files/37657.got.cif
#   From: 2010.05.17/outbox.cif.g08.bks.cpg/sg51_19_cif.got.tgz:37657.got - 2010.06.03 11:52:47.
