data_PCOD9403319
_publ_section_title
;
Structure prediction by ZEFSAII (Michael W. Deem and Ramdas Pophale) SiO2 
 PCOD9403319
Probable space group: P M M A
;
_chemical_formula_sum "Si O2"
_cell_formula_units_Z 56
_cell_length_a 19.605786
_cell_length_b 14.927840
_cell_length_c 9.729710
_cell_angle_alpha 90.000000
_cell_angle_beta 90.000000
_cell_angle_gamma 90.000000
_cell_volume 2847.614040
_symmetry_space_group_name_H-M "P M M A"
_symmetry_group_IT_number 51
_symmetry_cell_setting 'orthorhombic'
loop_
_space_group_symop_operation_xyz
x,y,z
1/2-x,-y,z
1/2+x,-y,-z
-x,y,-z
-x,-y,-z
1/2+x,y,-z
1/2-x,y,z
x,-y,z
loop_
_atom_site_type_symbol
_atom_site_label
_atom_site_fract_x
_atom_site_fract_y
_atom_site_fract_z
Si Si1 0.932925 0.898144 0.908404
Si Si2 0.826374 0.392668 0.128496
Si Si3 0.324489 0.750020 0.096854
Si Si4 0.672684 0.255176 0.573203
Si Si5 0.933213 0.104828 0.581533
Si Si6 0.066114 0.397898 0.403805
Si Si7 0.021351 0.609083 0.845941
O O1 0.880675 0.820819 0.947985
O O2 0.946255 0.887544 0.745120
O O3 0.906016 0.000000 0.926558
O O4 0.000000 0.890066 0.000000
O O5 0.750000 0.369747 0.186227
O O6 0.827838 0.500000 0.115937
O O7 0.900309 0.366355 0.191990
O O8 0.830294 0.344148 0.980828
O O9 0.250000 0.787327 0.059647
O O10 0.325274 0.739412 0.260425
O O11 0.750000 0.256754 0.521707
O O12 0.631318 0.164913 0.541670
O O13 0.625781 0.338751 0.533118
O O14 0.000000 0.135839 0.500000
O O15 0.921765 0.000000 0.550656
O O16 0.089863 0.500000 0.382618
O O17 0.000000 0.400321 0.500000
O O18 0.035350 0.358693 0.261755
O O19 0.018649 0.500000 0.840506
O O20 0.000000 0.636375 0.000000
#
# Coordination Sequence:
#
# PCOD9403319 Si02
#       7
#     8   8   8   8   8   8   8
#     4   9  18  32  51  75 100 127 161 201 244 291
#     4   9  17  29  45  68  99 131 164 207 255 298
#     4   9  18  30  46  72 102 131 163 200 245 292
#     4  10  20  33  51  76 103 131 166 207 249 296
#     4   9  18  34  56  78 100 130 167 207 251 296
#     4  10  21  36  52  72 101 135 168 204 248 298
#     4   9  17  30  49  71  93 124 169 212 247 287
#
# _framework density 19.665588
#
# number of rings (size 3 to 8) (size 9 to 14) (size 15 to 20)
#    0.000    2.714    0.000    1.286    0.000    5.429 
#    0.000    5.000    0.000    5.143    0.000    4.000 
#    0.000    0.000    0.000    0.000    0.000    0.000 
#
# Total GULP energy -312189.406220 kJ/mol
# GULP energy per Si atom -5574.810825 kJ/mol
# Density = 1.962083 g / cm^3
# Si number density = 19.665588 Si / 1000 Ang^3
#
#
#
# Elastic Constant Matrix: (Units=GPa)
#
#
# Indices 1 2 3 4 5 6 
#
# 1 150.6242 46.9203 14.5415 0.0000 0.0000 0.0000
# 2 46.9203 48.4943 7.0190 0.0000 0.0000 0.0000
# 3 14.5415 7.0190 28.8770 0.0000 0.0000 0.0000
# 4 0.0000 0.0000 0.0000 10.9041 0.0000 0.0000
# 5 0.0000 0.0000 0.0000 0.0000 19.0915 0.0000
# 6 0.0000 0.0000 0.0000 0.0000 0.0000 10.5632
#
#
#
# Elastic Compliance Matrix: (Units=1/GPa)
#
#
# Indices 1 2 3 4 5 6 
#
# 1 0.009702 -0.008997 -0.002699 0.000000 0.000000 0.000000
# 2 -0.008997 0.029715 -0.002692 0.000000 0.000000 0.000000
# 3 -0.002699 -0.002692 0.036643 0.000000 0.000000 0.000000
# 4 0.000000 0.000000 0.000000 0.091709 0.000000 0.000000
# 5 0.000000 0.000000 0.000000 0.000000 0.052379 0.000000
# 6 0.000000 0.000000 0.000000 0.000000 0.000000 0.094668
#
#
# Mechanical properties :
#
#
# Convention : Reuss Voigt Hill
#
# Bulk Modulus (GPa) = 21.14844 40.55078 30.84961
# Shear Modulus (GPa) = 13.91385 18.74607 16.32996
#
# Velocity S-wave (km/s) = 2.66282 3.09081 2.88476
# Velocity P-wave (km/s) = 4.49794 5.77948 5.17851
#
# Compressibility (1/GPa) = 0.04728480
#
# Stress axis : x y z
#
# Youngs Moduli (GPa) = 103.07094 33.65283 27.29024
#
# Poissons Ratio (x) = 0.30276 0.07365
# Poissons Ratio (y) = 0.92728 0.07348
# Poissons Ratio (z) = 0.27818 0.09061
#
# Static dielectric constant tensor:
#      x y z
#    x 1.727250 0.000000 0.000000 
#    y 0.000000 1.690130 0.000000 
#    z 0.000000 0.000000 1.724260 
# 
# From -- ./inp_files/10977.got.cif
#   From: 2010.05.17/outbox.cif.g08.bks.cpg/sg51_6_cif.got.tgz:10977.got - 2010.06.03 11:52:47.
