data_PCOD9403542
_publ_section_title
;
Structure prediction by ZEFSAII (Michael W. Deem and Ramdas Pophale) SiO2 
 PCOD9403542
Probable space group: P M M A
;
_chemical_formula_sum "Si O2"
_cell_formula_units_Z 56
_cell_length_a 15.745343
_cell_length_b 15.366638
_cell_length_c 13.025362
_cell_angle_alpha 90.000000
_cell_angle_beta 90.000000
_cell_angle_gamma 90.000000
_cell_volume 3151.525231
_symmetry_space_group_name_H-M "P M M A"
_symmetry_group_IT_number 51
_symmetry_cell_setting 'orthorhombic'
loop_
_space_group_symop_operation_xyz
x,y,z
1/2-x,-y,z
1/2+x,-y,-z
-x,y,-z
-x,-y,-z
1/2+x,y,-z
1/2-x,y,z
x,-y,z
loop_
_atom_site_type_symbol
_atom_site_label
_atom_site_fract_x
_atom_site_fract_y
_atom_site_fract_z
Si Si1 0.852209 0.899907 0.257414
Si Si2 0.649221 0.254167 0.104529
Si Si3 0.485155 0.399959 0.832672
Si Si4 0.045563 0.594401 0.391042
Si Si5 0.899219 0.098057 0.486808
Si Si6 0.347914 0.236721 0.347491
Si Si7 0.849729 0.287083 0.873493
O O1 0.750000 0.903266 0.254759
O O2 0.878031 0.829001 0.172497
O O3 0.878689 0.870100 0.371766
O O4 0.883269 0.000000 0.242033
O O5 0.750000 0.271373 0.125359
O O6 0.588740 0.335868 0.129534
O O7 0.641090 0.239765 0.982400
O O8 0.475387 0.500000 0.867057
O O9 0.484906 0.399604 0.708263
O O10 0.577889 0.361780 0.865424
O O11 0.090186 0.500000 0.380319
O O12 0.102726 0.678704 0.384694
O O13 0.000000 0.595054 0.500000
O O14 0.866380 0.156911 0.578570
O O15 0.000000 0.095243 0.500000
O O16 0.864378 0.000000 0.493293
O O17 0.250000 0.257088 0.355769
O O18 0.366337 0.226751 0.226068
O O19 0.750000 0.317295 0.867845
#
# Coordination Sequence:
#
# PCOD9403542 Si02
#       7
#     8   8   8   8   8   8   8
#     4   9  19  36  57  80 106 140 182 223 269 326
#     4  10  21  36  56  81 112 145 181 228 275 321
#     4  10  21  36  56  81 110 147 186 224 272 324
#     4   9  19  35  53  75 106 141 176 218 265 320
#     4  10  21  35  54  81 110 139 176 221 267 322
#     4  10  20  33  54  78 104 140 177 218 269 317
#     4   9  20  37  54  79 110 143 186 228 268 321
#
# _framework density 17.769174
#
# number of rings (size 3 to 8) (size 9 to 14) (size 15 to 20)
#    0.000    2.429    0.000    1.286    6.000    2.857 
#    0.000    5.000    0.000    6.857    0.000    0.000 
#    0.000    0.000    0.000    0.000    0.000    0.000 
#
# Total GULP energy -311919.242918 kJ/mol
# GULP energy per Si atom -5569.986481 kJ/mol
# Density = 1.772873 g / cm^3
# Si number density = 17.769174 Si / 1000 Ang^3
#
#
#
# Elastic Constant Matrix: (Units=GPa)
#
#
# Indices 1 2 3 4 5 6 
#
# 1 46.7296 32.6373 40.8014 0.0000 0.0000 0.0000
# 2 32.6373 89.8006 85.1143 0.0000 0.0000 0.0000
# 3 40.8014 85.1143 150.8882 0.0000 0.0000 0.0000
# 4 0.0000 0.0000 0.0000 11.8838 0.0000 0.0000
# 5 0.0000 0.0000 0.0000 0.0000 18.7463 0.0000
# 6 0.0000 0.0000 0.0000 0.0000 0.0000 11.0444
#
#
#
# Elastic Compliance Matrix: (Units=1/GPa)
#
#
# Indices 1 2 3 4 5 6 
#
# 1 0.029867 -0.006877 -0.004197 0.000000 0.000000 0.000000
# 2 -0.006877 0.025513 -0.012532 0.000000 0.000000 0.000000
# 3 -0.004197 -0.012532 0.014832 0.000000 0.000000 0.000000
# 4 0.000000 0.000000 0.000000 0.084148 0.000000 0.000000
# 5 0.000000 0.000000 0.000000 0.000000 0.053344 0.000000
# 6 0.000000 0.000000 0.000000 0.000000 0.000000 0.090543
#
#
# Mechanical properties :
#
#
# Convention : Reuss Voigt Hill
#
# Bulk Modulus (GPa) = 43.47859 67.16937 55.32398
# Shear Modulus (GPa) = 14.15919 16.92593 15.54256
#
# Velocity S-wave (km/s) = 2.82590 3.08968 2.96073
# Velocity P-wave (km/s) = 5.93037 7.11416 6.54907
#
# Compressibility (1/GPa) = 0.02299982
#
# Stress axis : x y z
#
# Youngs Moduli (GPa) = 33.48121 39.19520 67.42334
#
# Poissons Ratio (x) = 0.26954 0.28299
# Poissons Ratio (y) = 0.23025 0.84496
# Poissons Ratio (z) = 0.14053 0.49120
#
# Static dielectric constant tensor:
#      x y z
#    x 1.686320 0.000000 0.000000 
#    y 0.000000 1.616120 0.000000 
#    z 0.000000 0.000000 1.629780 
# 
# From -- ./inp_files/16612.got.cif
#   From: 2010.05.17/outbox.cif.g08.bks.cpg/sg51_9_cif.got.tgz:16612.got - 2010.06.03 11:52:47.
