data_PCOD9403252
_publ_section_title
;
Structure prediction by ZEFSAII (Michael W. Deem and Ramdas Pophale) SiO2 
 PCOD9403252
Probable space group: P M M A
;
_chemical_formula_sum "Si O2"
_cell_formula_units_Z 48
_cell_length_a 8.663631
_cell_length_b 14.118802
_cell_length_c 19.636143
_cell_angle_alpha 90.000000
_cell_angle_beta 90.000000
_cell_angle_gamma 90.000000
_cell_volume 2401.894793
_symmetry_space_group_name_H-M "P M M A"
_symmetry_group_IT_number 51
_symmetry_cell_setting 'orthorhombic'
loop_
_space_group_symop_operation_xyz
x,y,z
1/2-x,-y,z
1/2+x,-y,-z
-x,y,-z
-x,-y,-z
1/2+x,y,-z
1/2-x,y,z
x,-y,z
loop_
_atom_site_type_symbol
_atom_site_label
_atom_site_fract_x
_atom_site_fract_y
_atom_site_fract_z
Si Si1 0.066516 0.300838 0.423707
Si Si2 0.930028 0.734029 0.817531
Si Si3 0.936026 0.110385 0.925153
Si Si4 0.934290 0.605863 0.296613
Si Si5 0.435242 0.896972 0.577015
Si Si6 0.573445 0.386826 0.071309
O O1 0.250000 0.302275 0.427147
O O2 0.000000 0.311882 0.500000
O O3 0.003289 0.377764 0.371373
O O4 0.010356 0.198345 0.395266
O O5 0.750000 0.748081 0.802575
O O6 0.987944 0.824957 0.861252
O O7 0.011274 0.692500 0.750842
O O8 0.960854 0.650540 0.871228
O O9 0.750000 0.118764 0.928325
O O10 0.976499 0.000000 0.914373
O O11 0.000000 0.137559 0.000000
O O12 0.750000 0.608173 0.299593
O O13 0.979674 0.500000 0.271300
O O14 0.500000 0.901096 0.500000
O O15 0.250000 0.886766 0.575246
O O16 0.471742 0.000000 0.608886
O O17 0.750000 0.351899 0.080134
O O18 0.579732 0.500000 0.072864
O O19 0.500000 0.357502 0.000000
#
# Coordination Sequence:
#
# PCOD9403252 Si02
#       6
#     8   8   8   8   8   8
#     4  11  22  38  62  89 118 152 193 244 300 361
#     4  11  22  36  57  83 112 148 188 233 286 344
#     4   9  19  36  58  86 120 157 197 239 283 333
#     4  11  25  44  63  83 111 149 193 243 300 362
#     4   9  16  28  50  81 116 150 183 222 270 327
#     4  10  20  33  50  75 108 145 184 227 274 325
#
# _framework density 19.984223
#
# number of rings (size 3 to 8) (size 9 to 14) (size 15 to 20)
#    0.000    1.833    0.000    5.500    0.000    8.333 
#    0.000    0.833    0.000    3.000    0.000    0.000 
#    0.000    0.000    0.000    0.000    0.000    0.000 
#
# Total GULP energy -267740.457758 kJ/mol
# GULP energy per Si atom -5577.926203 kJ/mol
# Density = 1.993874 g / cm^3
# Si number density = 19.984223 Si / 1000 Ang^3
#
#
#
# Elastic Constant Matrix: (Units=GPa)
#
#
# Indices 1 2 3 4 5 6 
#
# 1 62.6154 41.6994 23.8172 0.0000 0.0000 0.0000
# 2 41.6994 110.9241 48.7128 0.0000 0.0000 0.0000
# 3 23.8172 48.7128 96.6070 0.0000 0.0000 0.0000
# 4 0.0000 0.0000 0.0000 28.1588 0.0000 0.0000
# 5 0.0000 0.0000 0.0000 0.0000 28.9326 0.0000
# 6 0.0000 0.0000 0.0000 0.0000 0.0000 92.8850
#
#
#
# Elastic Compliance Matrix: (Units=1/GPa)
#
#
# Indices 1 2 3 4 5 6 
#
# 1 0.021488 -0.007387 -0.001573 0.000000 0.000000 0.000000
# 2 -0.007387 0.014119 -0.005298 0.000000 0.000000 0.000000
# 3 -0.001573 -0.005298 0.013410 0.000000 0.000000 0.000000
# 4 0.000000 0.000000 0.000000 0.035513 0.000000 0.000000
# 5 0.000000 0.000000 0.000000 0.000000 0.034563 0.000000
# 6 0.000000 0.000000 0.000000 0.000000 0.000000 0.010766
#
#
# Mechanical properties :
#
#
# Convention : Reuss Voigt Hill
#
# Bulk Modulus (GPa) = 48.77687 55.40060 52.08873
# Shear Modulus (GPa) = 30.26452 40.38974 35.32713
#
# Velocity S-wave (km/s) = 3.89578 4.50052 4.20902
# Velocity P-wave (km/s) = 6.68557 7.40193 7.05285
#
# Compressibility (1/GPa) = 0.02050152
#
# Stress axis : x y z
#
# Youngs Moduli (GPa) = 46.53662 70.82667 74.56900
#
# Poissons Ratio (x) = 0.52323 0.11727
# Poissons Ratio (y) = 0.34379 0.39507
# Poissons Ratio (z) = 0.07319 0.37524
#
# Static dielectric constant tensor:
#      x y z
#    x 1.682790 0.000000 0.000000 
#    y 0.000000 1.769180 0.000000 
#    z 0.000000 0.000000 1.687010 
# 
# From -- ./inp_files/27597.got.cif
#   From: 2010.05.17/outbox.cif.g08.bks.cpg/sg51_14_cif.got.tgz:27597.got - 2010.06.03 11:52:47.
