data_PCOD9403702
_publ_section_title
;
Structure prediction by ZEFSAII (Michael W. Deem and Ramdas Pophale) SiO2 
 PCOD9403702
Probable space group: P M M A
;
_chemical_formula_sum "Si O2"
_cell_formula_units_Z 64
_cell_length_a 18.046618
_cell_length_b 20.810342
_cell_length_c 9.273082
_cell_angle_alpha 90.000000
_cell_angle_beta 90.000000
_cell_angle_gamma 90.000000
_cell_volume 3482.564296
_symmetry_space_group_name_H-M "P M M A"
_symmetry_group_IT_number 51
_symmetry_cell_setting 'orthorhombic'
loop_
_space_group_symop_operation_xyz
x,y,z
1/2-x,-y,z
1/2+x,-y,-z
-x,y,-z
-x,-y,-z
1/2+x,y,-z
1/2-x,y,z
x,-y,z
loop_
_atom_site_type_symbol
_atom_site_label
_atom_site_fract_x
_atom_site_fract_y
_atom_site_fract_z
Si Si1 0.659494 0.196396 0.074177
Si Si2 0.160029 0.798689 0.258661
Si Si3 0.659798 0.927955 0.245090
Si Si4 0.659981 0.927796 0.578372
Si Si5 0.921547 0.310290 0.557954
Si Si6 0.885664 0.573023 0.086678
Si Si7 0.334012 0.686733 0.731487
Si Si8 0.050367 0.573697 0.224056
O O1 0.750000 0.197502 0.075499
O O2 0.635082 0.128344 0.139558
O O3 0.633429 0.253200 0.179355
O O4 0.637903 0.206256 0.908782
O O5 0.250000 0.793393 0.268738
O O6 0.137988 0.868506 0.321669
O O7 0.122125 0.743032 0.351329
O O8 0.750000 0.927603 0.243147
O O9 0.638178 0.916011 0.411633
O O10 0.636165 0.000000 0.204324
O O11 0.750000 0.929084 0.580625
O O12 0.635149 0.000000 0.620022
O O13 0.876343 0.327589 0.414829
O O14 0.935628 0.373019 0.655993
O O15 0.000000 0.284913 0.500000
O O16 0.859062 0.500000 0.105673
O O17 0.836772 0.626258 0.162329
O O18 0.966571 0.577658 0.162755
O O19 0.898300 0.584475 0.916694
O O20 0.250000 0.703542 0.693191
O O21 0.061664 0.500000 0.274606
#
# Coordination Sequence:
#
# PCOD9403702 Si02
#       8
#     8   8   8   8   8   8   8   8
#     4   9  18  31  48  72 103 141 176 211 262 318
#     4  10  20  34  52  76 109 143 177 223 275 322
#     4   8  13  23  41  67  99 133 170 212 257 308
#     4   8  14  26  47  75 106 140 176 215 264 323
#     4  12  23  36  54  81 107 140 184 227 269 326
#     4   9  18  36  60  83 106 136 175 220 267 319
#     4  11  22  36  54  78 111 146 178 219 273 325
#     4   9  19  37  60  82 106 137 177 222 267 315
#
# _framework density 18.377262999999999
#
# number of rings (size 3 to 8) (size 9 to 14) (size 15 to 20)
#    0.000    2.500    1.250    3.375    0.000    3.500 
#    0.000    3.125    0.000    3.000    0.000    0.000 
#    0.000    4.000    0.000    0.000    0.000    0.000 
#
# Total GULP energy -356870.340955 kJ/mol
# GULP energy per Si atom -5576.099077 kJ/mol
# Density = 1.833544 g / cm^3
# Si number density = 18.377263 Si / 1000 Ang^3
#
#
#
# Elastic Constant Matrix: (Units=GPa)
#
#
# Indices 1 2 3 4 5 6 
#
# 1 21.8715 15.4203 20.8795 0.0000 0.0000 0.0000
# 2 15.4203 111.7663 71.6774 0.0000 0.0000 0.0000
# 3 20.8795 71.6774 101.4739 0.0000 0.0000 0.0000
# 4 0.0000 0.0000 0.0000 32.0639 0.0000 0.0000
# 5 0.0000 0.0000 0.0000 0.0000 17.9682 0.0000
# 6 0.0000 0.0000 0.0000 0.0000 0.0000 -2.2472
#
#
#
# Elastic Compliance Matrix: (Units=1/GPa)
#
#
# Indices 1 2 3 4 5 6 
#
# 1 0.056922 -0.000625 -0.011271 0.000000 0.000000 0.000000
# 2 -0.000625 0.016364 -0.011430 0.000000 0.000000 0.000000
# 3 -0.011271 -0.011430 0.020248 0.000000 0.000000 0.000000
# 4 0.000000 0.000000 0.000000 0.031188 0.000000 0.000000
# 5 0.000000 0.000000 0.000000 0.000000 0.055654 0.000000
# 6 0.000000 0.000000 0.000000 0.000000 0.000000 -0.444989
#
#
# Mechanical properties :
#
#
# Convention : Reuss Voigt Hill
#
# Bulk Modulus (GPa) = 21.33059 50.11848 35.72453
# Shear Modulus (GPa) = -24.71146 18.03261 -3.33943
#
# Velocity S-wave (km/s) = -3.67096 3.13588 -1.34948
# Velocity P-wave (km/s) = 2.51708 6.35947 4.12960
#
# Compressibility (1/GPa) = 0.04688103
#
# Stress axis : x y z
#
# Youngs Moduli (GPa) = 17.56793 61.11041 49.38857
#
# Poissons Ratio (x) = 0.03822 0.55664
# Poissons Ratio (y) = 0.01099 0.56452
# Poissons Ratio (z) = 0.19800 0.69850
#
# Static dielectric constant tensor:
#      x y z
#    x 1.647270 0.000000 0.000000 
#    y 0.000000 1.630700 0.000000 
#    z 0.000000 0.000000 1.613000 
# 
# From -- ./inp_files/11178.got.cif
#   From: 2010.05.17/outbox.cif.g08.bks.cpg/sg51_6_cif.got.tgz:11178.got - 2010.06.03 11:52:47.
