data_PCOD9403929
_publ_section_title
;
Structure prediction by ZEFSAII (Michael W. Deem and Ramdas Pophale) SiO2 
 PCOD9403929
Probable space group: P M M A
;
_chemical_formula_sum "Si O2"
_cell_formula_units_Z 48
_cell_length_a 9.361892
_cell_length_b 7.783591
_cell_length_c 31.977899
_cell_angle_alpha 90.000000
_cell_angle_beta 90.000000
_cell_angle_gamma 90.000000
_cell_volume 2330.201945
_symmetry_space_group_name_H-M "P M M A"
_symmetry_group_IT_number 51
_symmetry_cell_setting 'orthorhombic'
loop_
_space_group_symop_operation_xyz
x,y,z
1/2-x,-y,z
1/2+x,-y,-z
-x,y,-z
-x,-y,-z
1/2+x,y,-z
1/2-x,y,z
x,-y,z
loop_
_atom_site_type_symbol
_atom_site_label
_atom_site_fract_x
_atom_site_fract_y
_atom_site_fract_z
Si Si1 0.912595 0.706842 0.460186
Si Si2 0.588611 0.295093 0.713581
Si Si3 0.414666 0.710606 0.794286
Si Si4 0.086827 0.793163 0.959600
Si Si5 0.413202 0.293037 0.123774
Si Si6 0.586695 0.795629 0.368098
O O1 0.750000 0.772259 0.461744
O O2 0.908335 0.500000 0.463014
O O3 0.970297 0.749838 0.414196
O O4 0.000000 0.771520 0.500000
O O5 0.750000 0.225374 0.713904
O O6 0.598580 0.500000 0.719541
O O7 0.493033 0.229991 0.752076
O O8 0.510639 0.266123 0.669681
O O9 0.250000 0.765879 0.795870
O O10 0.413753 0.500000 0.794233
O O11 0.503083 0.766944 0.834946
O O12 0.250000 0.728399 0.958405
O O13 0.001278 0.751653 0.917583
O O14 0.093783 0.000000 0.962927
O O15 0.000000 0.728615 0.000000
O O16 0.250000 0.228824 0.121978
O O17 0.406808 0.500000 0.126355
O O18 0.750000 0.726365 0.364636
O O19 0.594231 0.000000 0.365401
#
# Coordination Sequence:
#
# PCOD9403929 Si02
#       6
#     8   8   8   8   8   8
#     4   9  18  33  53  76 102 133 171 214 257 304
#     4  10  20  34  54  79 105 135 173 215 258 307
#     4   9  17  31  53  79 106 137 172 212 259 309
#     4  10  21  37  56  77 103 138 179 220 263 313
#     4  10  20  34  54  81 111 140 172 214 263 313
#     4  10  21  36  53  75 105 140 176 214 258 308
#
# _framework density 20.599074000000002
#
# number of rings (size 3 to 8) (size 9 to 14) (size 15 to 20)
#    0.000    2.333    0.000    2.500    0.000    7.333 
#    0.000    2.500    0.000    5.000    0.000    0.000 
#    0.000    0.000    0.000    0.000    0.000    0.000 
#
# Total GULP energy -268078.934281 kJ/mol
# GULP energy per Si atom -5584.977798 kJ/mol
# Density = 2.055219 g / cm^3
# Si number density = 20.599074 Si / 1000 Ang^3
#
#
#
# Elastic Constant Matrix: (Units=GPa)
#
#
# Indices 1 2 3 4 5 6 
#
# 1 194.4322 7.6970 136.0113 0.0000 0.0000 0.0000
# 2 7.6970 26.1417 -2.2805 0.0000 0.0000 0.0000
# 3 136.0113 -2.2805 227.2792 0.0000 0.0000 0.0000
# 4 0.0000 0.0000 0.0000 73.5540 0.0000 0.0000
# 5 0.0000 0.0000 0.0000 0.0000 42.7177 0.0000
# 6 0.0000 0.0000 0.0000 0.0000 0.0000 10.5558
#
#
#
# Elastic Compliance Matrix: (Units=1/GPa)
#
#
# Indices 1 2 3 4 5 6 
#
# 1 0.009100 -0.003157 -0.005477 0.000000 0.000000 0.000000
# 2 -0.003157 0.039382 0.002284 0.000000 0.000000 0.000000
# 3 -0.005477 0.002284 0.007701 0.000000 0.000000 0.000000
# 4 0.000000 0.000000 0.000000 0.013595 0.000000 0.000000
# 5 0.000000 0.000000 0.000000 0.000000 0.023410 0.000000
# 6 0.000000 0.000000 0.000000 0.000000 0.000000 0.094735
#
#
# Mechanical properties :
#
#
# Convention : Reuss Voigt Hill
#
# Bulk Modulus (GPa) = 22.99782 81.18985 52.09383
# Shear Modulus (GPa) = 23.24336 45.79385 34.51861
#
# Velocity S-wave (km/s) = 3.36276 4.72009 4.09802
# Velocity P-wave (km/s) = 5.12507 8.31899 6.90912
#
# Compressibility (1/GPa) = 0.04348239
#
# Stress axis : x y z
#
# Youngs Moduli (GPa) = 109.89472 25.39242 129.86134
#
# Poissons Ratio (x) = 0.08016 0.71127
# Poissons Ratio (y) = 0.34694 -0.29666
# Poissons Ratio (z) = 0.60191 -0.05801
#
# Static dielectric constant tensor:
#      x y z
#    x 1.730490 0.000000 0.000000 
#    y 0.000000 1.757290 0.000000 
#    z 0.000000 0.000000 1.694460 
# 
# From -- ./inp_files/36929.got.cif
#   From: 2010.05.17/outbox.cif.g08.bks.cpg/sg51_19_cif.got.tgz:36929.got - 2010.06.03 11:52:47.
