data_PCOD9403314
_publ_section_title
;
Structure prediction by ZEFSAII (Michael W. Deem and Ramdas Pophale) SiO2 
 PCOD9403314
Probable space group: P M M A
;
_chemical_formula_sum "Si O2"
_cell_formula_units_Z 64
_cell_length_a 7.530578
_cell_length_b 9.460502
_cell_length_c 42.717773
_cell_angle_alpha 90.000000
_cell_angle_beta 90.000000
_cell_angle_gamma 90.000000
_cell_volume 3043.344362
_symmetry_space_group_name_H-M "P M M A"
_symmetry_group_IT_number 51
_symmetry_cell_setting 'orthorhombic'
loop_
_space_group_symop_operation_xyz
x,y,z
1/2-x,-y,z
1/2+x,-y,-z
-x,y,-z
-x,-y,-z
1/2+x,y,-z
1/2-x,y,z
x,-y,z
loop_
_atom_site_type_symbol
_atom_site_label
_atom_site_fract_x
_atom_site_fract_y
_atom_site_fract_z
Si Si1 0.962675 0.161298 0.035289
Si Si2 0.036764 0.339289 0.593037
Si Si3 0.967249 0.662445 0.094781
Si Si4 0.963296 0.160361 0.721603
Si Si5 0.462489 0.661745 0.337237
Si Si6 0.962852 0.338944 0.216291
Si Si7 0.532825 0.836871 0.156026
Si Si8 0.462921 0.839244 0.534453
O O1 0.750000 0.154203 0.038557
O O2 0.031109 0.000000 0.038404
O O3 0.027421 0.262892 0.062758
O O4 0.000000 0.210547 0.000000
O O5 0.250000 0.345192 0.590287
O O6 0.968285 0.500000 0.591759
O O7 0.968896 0.248841 0.563911
O O8 0.997924 0.283139 0.627780
O O9 0.750000 0.661267 0.094682
O O10 0.024652 0.500000 0.097178
O O11 0.021583 0.755311 0.124616
O O12 0.750000 0.151698 0.718820
O O13 0.031010 0.239446 0.690505
O O14 0.000788 0.254716 0.751928
O O15 0.030908 0.000000 0.724852
O O16 0.250000 0.653743 0.333740
O O17 0.531540 0.500000 0.335056
O O18 0.750000 0.347624 0.213014
O O19 0.031081 0.500000 0.217181
O O20 0.027676 0.249548 0.186503
O O21 0.750000 0.838204 0.156295
O O22 0.475463 0.000000 0.156514
O O23 0.500000 0.778041 0.500000
O O24 0.250000 0.846174 0.537382
O O25 0.532384 0.000000 0.534995
#
# Coordination Sequence:
#
# PCOD9403314 Si02
#       8
#     8   8   8   8   8   8   8   8
#     4   9  17  29  45  65  89 118 152 189 231 279
#     4   9  18  32  49  70  96 124 155 194 239 284
#     4   9  16  26  42  65  92 121 154 192 234 281
#     4  10  21  36  53  74 101 133 168 204 243 290
#     4   9  18  33  51  70  94 125 160 197 238 284
#     4  10  20  33  51  76 103 130 162 201 245 291
#     4   9  16  27  45  69  97 126 156 195 241 285
#     4   9  18  32  48  67  93 124 156 190 231 279
#
# _framework density 21.029496000000002
#
# number of rings (size 3 to 8) (size 9 to 14) (size 15 to 20)
#    0.000    2.750    0.000    1.500    0.000    6.500 
#    0.000    1.250    0.000    0.750    0.000    1.750 
#    0.000    0.000    0.000    0.000    0.000    0.000 
#
# Total GULP energy -357306.710923 kJ/mol
# GULP energy per Si atom -5582.917358 kJ/mol
# Density = 2.098163 g / cm^3
# Si number density = 21.029496 Si / 1000 Ang^3
#
#
#
# Elastic Constant Matrix: (Units=GPa)
#
#
# Indices 1 2 3 4 5 6 
#
# 1 52.9754 5.6975 -1.7654 0.0000 0.0000 0.0000
# 2 5.6975 170.9112 141.7680 0.0000 0.0000 0.0000
# 3 -1.7654 141.7680 241.0733 0.0000 0.0000 0.0000
# 4 0.0000 0.0000 0.0000 40.6818 0.0000 0.0000
# 5 0.0000 0.0000 0.0000 0.0000 17.7685 0.0000
# 6 0.0000 0.0000 0.0000 0.0000 0.0000 8.1965
#
#
#
# Elastic Compliance Matrix: (Units=1/GPa)
#
#
# Indices 1 2 3 4 5 6 
#
# 1 0.019068 -0.001467 0.001002 0.000000 0.000000 0.000000
# 2 -0.001467 0.011536 -0.006795 0.000000 0.000000 0.000000
# 3 0.001002 -0.006795 0.008151 0.000000 0.000000 0.000000
# 4 0.000000 0.000000 0.000000 0.024581 0.000000 0.000000
# 5 0.000000 0.000000 0.000000 0.000000 0.056279 0.000000
# 6 0.000000 0.000000 0.000000 0.000000 0.000000 0.122003
#
#
# Mechanical properties :
#
#
# Convention : Reuss Voigt Hill
#
# Bulk Modulus (GPa) = 41.26056 84.04003 62.65030
# Shear Modulus (GPa) = 18.92390 34.61336 26.76863
#
# Velocity S-wave (km/s) = 3.00304 4.06142 3.57166
# Velocity P-wave (km/s) = 5.62915 7.87675 6.84582
#
# Compressibility (1/GPa) = 0.02423622
#
# Stress axis : x y z
#
# Youngs Moduli (GPa) = 52.44424 86.68499 122.68074
#
# Poissons Ratio (x) = 0.12718 -0.12298
# Poissons Ratio (y) = 0.07694 0.83358
# Poissons Ratio (z) = -0.05257 0.58900
#
# Static dielectric constant tensor:
#      x y z
#    x 1.815700 0.000000 0.000000 
#    y 0.000000 1.741090 0.000000 
#    z 0.000000 0.000000 1.722050 
# 
# From -- ./inp_files/37769.got.cif
#   From: 2010.05.17/outbox.cif.g08.bks.cpg/sg51_19_cif.got.tgz:37769.got - 2010.06.03 11:52:47.
