data_PCOD9403448
_publ_section_title
;
Structure prediction by ZEFSAII (Michael W. Deem and Ramdas Pophale) SiO2 
 PCOD9403448
Probable space group: P M M A
;
_chemical_formula_sum "Si O2"
_cell_formula_units_Z 56
_cell_length_a 14.547805
_cell_length_b 8.727466
_cell_length_c 21.891822
_cell_angle_alpha 90.000000
_cell_angle_beta 90.000000
_cell_angle_gamma 90.000000
_cell_volume 2779.505546
_symmetry_space_group_name_H-M "P M M A"
_symmetry_group_IT_number 51
_symmetry_cell_setting 'orthorhombic'
loop_
_space_group_symop_operation_xyz
x,y,z
1/2-x,-y,z
1/2+x,-y,-z
-x,y,-z
-x,-y,-z
1/2+x,y,-z
1/2-x,y,z
x,-y,z
loop_
_atom_site_type_symbol
_atom_site_label
_atom_site_fract_x
_atom_site_fract_y
_atom_site_fract_z
Si Si1 0.358089 0.184738 0.027222
Si Si2 0.532121 0.316743 0.088721
Si Si3 0.419443 0.176483 0.552294
Si Si4 0.142794 0.177474 0.323330
Si Si5 0.142926 0.816677 0.799266
Si Si6 0.646211 0.664982 0.555221
Si Si7 0.955963 0.318783 0.315019
O O1 0.250000 0.226181 0.034676
O O2 0.430022 0.248548 0.077348
O O3 0.363665 0.000000 0.025874
O O4 0.400915 0.250782 0.964403
O O5 0.528241 0.500000 0.083889
O O6 0.577107 0.264152 0.151829
O O7 0.500000 0.180886 0.500000
O O8 0.352217 0.284068 0.514380
O O9 0.438587 0.248151 0.617883
O O10 0.391542 0.000000 0.558895
O O11 0.250000 0.213578 0.309077
O O12 0.124199 0.201995 0.396143
O O13 0.061627 0.279654 0.295731
O O14 0.127867 0.000000 0.308225
O O15 0.250000 0.778574 0.810625
O O16 0.111751 0.760768 0.732781
O O17 0.132940 0.000000 0.804129
O O18 0.750000 0.639726 0.573425
O O19 0.595894 0.500000 0.563425
O O20 0.942883 0.500000 0.315790
#
# Coordination Sequence:
#
# PCOD9403448 Si02
#       7
#     8   8   8   8   8   8   8
#     4  10  20  36  62  97 137 180 225 270 315 367
#     4  11  22  37  62  96 135 176 218 268 322 374
#     4  11  22  36  56  80 109 147 189 236 297 366
#     4  10  20  36  58  83 112 146 185 231 287 357
#     4  11  25  46  69  90 120 165 213 258 307 372
#     4  10  20  33  52  79 107 136 175 227 289 354
#     4  12  25  40  62  88 118 153 196 252 308 366
#
# _framework density 20.147466999999999
#
# number of rings (size 3 to 8) (size 9 to 14) (size 15 to 20)
#    0.000    1.286    1.429    6.000    0.000    6.857 
#    0.000    0.714    0.000    4.286    0.000    0.000 
#    0.000    0.000    0.000    0.000    0.000    0.000 
#
# Total GULP energy -312139.239644 kJ/mol
# GULP energy per Si atom -5573.914994 kJ/mol
# Density = 2.010161 g / cm^3
# Si number density = 20.147467 Si / 1000 Ang^3
#
#
#
# Elastic Constant Matrix: (Units=GPa)
#
#
# Indices 1 2 3 4 5 6 
#
# 1 104.2794 39.1790 28.2303 0.0000 0.0000 0.0000
# 2 39.1790 112.6590 16.6909 0.0000 0.0000 0.0000
# 3 28.2303 16.6909 59.4317 0.0000 0.0000 0.0000
# 4 0.0000 0.0000 0.0000 40.4957 0.0000 0.0000
# 5 0.0000 0.0000 0.0000 0.0000 26.6445 0.0000
# 6 0.0000 0.0000 0.0000 0.0000 0.0000 10.5469
#
#
#
# Elastic Compliance Matrix: (Units=1/GPa)
#
#
# Indices 1 2 3 4 5 6 
#
# 1 0.012221 -0.003537 -0.004812 0.000000 0.000000 0.000000
# 2 -0.003537 0.010286 -0.001208 0.000000 0.000000 0.000000
# 3 -0.004812 -0.001208 0.019451 0.000000 0.000000 0.000000
# 4 0.000000 0.000000 0.000000 0.024694 0.000000 0.000000
# 5 0.000000 0.000000 0.000000 0.000000 0.037531 0.000000
# 6 0.000000 0.000000 0.000000 0.000000 0.000000 0.094815
#
#
# Mechanical properties :
#
#
# Convention : Reuss Voigt Hill
#
# Bulk Modulus (GPa) = 43.77711 49.39672 46.58692
# Shear Modulus (GPa) = 22.15068 28.35541 25.25305
#
# Velocity S-wave (km/s) = 3.31936 3.75559 3.54419
# Velocity P-wave (km/s) = 6.03874 6.58611 6.31835
#
# Compressibility (1/GPa) = 0.02284299
#
# Stress axis : x y z
#
# Youngs Moduli (GPa) = 81.82489 97.22421 51.41129
#
# Poissons Ratio (x) = 0.34391 0.24738
# Poissons Ratio (y) = 0.28943 0.06213
# Poissons Ratio (z) = 0.39372 0.11749
#
# Static dielectric constant tensor:
#      x y z
#    x 1.841780 0.000000 0.000000 
#    y 0.000000 1.750560 0.000000 
#    z 0.000000 0.000000 1.703660 
# 
# From -- ./inp_files/33476.got.cif
#   From: 2010.05.17/outbox.cif.g08.bks.cpg/sg51_17_cif.got.tgz:33476.got - 2010.06.03 11:52:47.
