data_PCOD9403597
_publ_section_title
;
Structure prediction by ZEFSAII (Michael W. Deem and Ramdas Pophale) SiO2 
 PCOD9403597
Probable space group: P M M A
;
_chemical_formula_sum "Si O2"
_cell_formula_units_Z 52
_cell_length_a 8.487524
_cell_length_b 22.936484
_cell_length_c 16.226414
_cell_angle_alpha 90.000000
_cell_angle_beta 90.000000
_cell_angle_gamma 90.000000
_cell_volume 3158.860244
_symmetry_space_group_name_H-M "P M M A"
_symmetry_group_IT_number 51
_symmetry_cell_setting 'orthorhombic'
loop_
_space_group_symop_operation_xyz
x,y,z
1/2-x,-y,z
1/2+x,-y,-z
-x,y,-z
-x,-y,-z
1/2+x,y,-z
1/2-x,y,z
x,-y,z
loop_
_atom_site_type_symbol
_atom_site_label
_atom_site_fract_x
_atom_site_fract_y
_atom_site_fract_z
Si Si1 0.563001 0.812049 0.905384
Si Si2 0.437856 0.500000 0.090975
Si Si3 0.564688 0.273564 0.236005
Si Si4 0.939444 0.694493 0.586637
Si Si5 0.064734 0.436760 0.386155
Si Si6 0.560936 0.063212 0.093899
Si Si7 0.065585 0.409642 0.785852
O O1 0.750000 0.810661 0.911659
O O2 0.507430 0.766795 0.835406
O O3 0.508741 0.876248 0.874649
O O4 0.500000 0.802599 0.000000
O O5 0.250000 0.500000 0.096696
O O6 0.510204 0.556380 0.134866
O O7 0.500000 0.500000 0.000000
O O8 0.750000 0.260553 0.242195
O O9 0.494440 0.273778 0.329252
O O10 0.544969 0.340622 0.208010
O O11 0.750000 0.692781 0.587190
O O12 0.001607 0.626683 0.588228
O O13 0.000000 0.719996 0.500000
O O14 0.250000 0.437063 0.407104
O O15 0.996312 0.500000 0.412193
O O16 0.040137 0.433373 0.288435
O O17 0.750000 0.067304 0.093971
O O18 0.516974 0.000000 0.131777
O O19 0.500000 0.061183 0.000000
O O20 0.250000 0.421355 0.767744
#
# Coordination Sequence:
#
# PCOD9403597 Si02
#       7
#     8   4   8   8   8   8   8
#     4  11  21  33  51  75 105 140 177 214 251 296
#     4  12  24  36  50  66  87 114 149 196 246 298
#     4  10  21  37  55  74  99 131 167 210 257 303
#     4  10  20  34  51  73 100 129 165 204 251 307
#     4   9  17  30  49  70  92 120 149 184 234 294
#     4   9  16  27  45  70 102 139 175 210 248 289
#     4  10  20  34  51  69  88 114 151 195 244 297
#
# _framework density 16.461632999999999
#
# number of rings (size 3 to 8) (size 9 to 14) (size 15 to 20)
#    0.000    2.000    0.769    4.846    0.000    4.308 
#    0.000    0.000    0.000    0.000    0.000    0.000 
#    0.000    0.615    0.000    2.308    0.000    3.846 
#
# Total GULP energy -289681.501507 kJ/mol
# GULP energy per Si atom -5570.798106 kJ/mol
# Density = 1.642417 g / cm^3
# Si number density = 16.461633 Si / 1000 Ang^3
#
#
#
# Elastic Constant Matrix: (Units=GPa)
#
#
# Indices 1 2 3 4 5 6 
#
# 1 78.2805 41.0908 30.3618 0.0000 0.0000 0.0000
# 2 41.0908 87.0838 47.0240 0.0000 0.0000 0.0000
# 3 30.3618 47.0240 115.9022 0.0000 0.0000 0.0000
# 4 0.0000 0.0000 0.0000 -224.3184 0.0000 0.0000
# 5 0.0000 0.0000 0.0000 0.0000 22.2142 0.0000
# 6 0.0000 0.0000 0.0000 0.0000 0.0000 15.8144
#
#
#
# Elastic Compliance Matrix: (Units=1/GPa)
#
#
# Indices 1 2 3 4 5 6 
#
# 1 0.017196 -0.007275 -0.001553 0.000000 0.000000 0.000000
# 2 -0.007275 0.017783 -0.005309 0.000000 0.000000 0.000000
# 3 -0.001553 -0.005309 0.011189 0.000000 0.000000 0.000000
# 4 0.000000 0.000000 0.000000 -0.004458 0.000000 0.000000
# 5 0.000000 0.000000 0.000000 0.000000 0.045016 0.000000
# 6 0.000000 0.000000 0.000000 0.000000 0.000000 0.063233
#
#
# Mechanical properties :
#
#
# Convention : Reuss Voigt Hill
#
# Bulk Modulus (GPa) = 55.88799 57.57994 56.73397
# Shear Modulus (GPa) = 27.14468 -26.40529 0.36969
#
# Velocity S-wave (km/s) = 4.06515 -4.00941 0.47441
# Velocity P-wave (km/s) = 7.48720 3.69059 5.90248
#
# Compressibility (1/GPa) = 0.01789293
#
# Stress axis : x y z
#
# Youngs Moduli (GPa) = 58.15359 56.23370 89.37551
#
# Poissons Ratio (x) = 0.40912 0.13879
# Poissons Ratio (y) = 0.42309 0.47450
# Poissons Ratio (z) = 0.09030 0.29855
#
# Static dielectric constant tensor:
#      x y z
#    x 1.566190 0.000000 0.000000 
#    y 0.000000 1.588370 0.000000 
#    z 0.000000 0.000000 1.538720 
# 
# From -- ./inp_files/21579.got.cif
#   From: 2010.05.17/outbox.cif.g08.bks.cpg/sg51_11_cif.got.tgz:21579.got - 2010.06.03 11:52:47.
