data_PCOD9403295
_publ_section_title
;
Structure prediction by ZEFSAII (Michael W. Deem and Ramdas Pophale) SiO2 
 PCOD9403295
Probable space group: P M M A
;
_chemical_formula_sum "Si O2"
_cell_formula_units_Z 32
_cell_length_a 9.364364
_cell_length_b 9.037496
_cell_length_c 21.554052
_cell_angle_alpha 90.000000
_cell_angle_beta 90.000000
_cell_angle_gamma 90.000000
_cell_volume 1824.128090
_symmetry_space_group_name_H-M "P M M A"
_symmetry_group_IT_number 51
_symmetry_cell_setting 'orthorhombic'
loop_
_space_group_symop_operation_xyz
x,y,z
1/2-x,-y,z
1/2+x,-y,-z
-x,y,-z
-x,-y,-z
1/2+x,y,-z
1/2-x,y,z
x,-y,z
loop_
_atom_site_type_symbol
_atom_site_label
_atom_site_fract_x
_atom_site_fract_y
_atom_site_fract_z
Si Si1 0.583214 0.821747 0.062559
Si Si2 0.418330 0.676320 0.176304
Si Si3 0.076200 0.828901 0.303658
Si Si4 0.585145 0.180650 0.560440
O O1 0.750000 0.781763 0.058366
O O2 0.508958 0.749732 0.121922
O O3 0.573513 0.000000 0.067858
O O4 0.500000 0.777654 0.000000
O O5 0.250000 0.715602 0.168599
O O6 0.430444 0.500000 0.173931
O O7 0.465148 0.735239 0.243839
O O8 0.250000 0.827925 0.306718
O O9 0.027943 0.774346 0.371623
O O10 0.032332 0.000000 0.295193
O O11 0.500000 0.230220 0.500000
O O12 0.750000 0.225935 0.554926
O O13 0.582700 0.000000 0.561425
#
# Coordination Sequence:
#
# PCOD9403295 Si02
#       4
#     8   8   8   8
#     4  10  21  37  57  79 101 127 160 198 241 288
#     4  10  20  33  51  75 101 131 166 202 242 288
#     4   8  14  26  45  67  92 124 160 198 241 288
#     4   8  13  22  38  61  87 115 150 194 242 286
#
# _framework density 17.542629000000002
#
# number of rings (size 3 to 8) (size 9 to 14) (size 15 to 20)
#    0.000    3.000    0.000    3.000    0.000    3.500 
#    0.000    1.250    0.000    5.250    0.000    0.000 
#    0.000    0.000    0.000    0.000    0.000    0.000 
#
# Total GULP energy -178300.432764 kJ/mol
# GULP energy per Si atom -5571.888524 kJ/mol
# Density = 1.750270 g / cm^3
# Si number density = 17.542629 Si / 1000 Ang^3
#
#
#
# Elastic Constant Matrix: (Units=GPa)
#
#
# Indices 1 2 3 4 5 6 
#
# 1 76.0082 32.8557 87.8621 0.0000 0.0000 0.0000
# 2 32.8557 19.0311 46.8133 0.0000 0.0000 0.0000
# 3 87.8621 46.8133 214.1700 0.0000 0.0000 0.0000
# 4 0.0000 0.0000 0.0000 -8.8257 0.0000 0.0000
# 5 0.0000 0.0000 0.0000 0.0000 32.6520 0.0000
# 6 0.0000 0.0000 0.0000 0.0000 0.0000 15.4852
#
#
#
# Elastic Compliance Matrix: (Units=1/GPa)
#
#
# Indices 1 2 3 4 5 6 
#
# 1 0.053235 -0.082592 -0.003786 0.000000 0.000000 0.000000
# 2 -0.082592 0.241791 -0.018968 0.000000 0.000000 0.000000
# 3 -0.003786 -0.018968 0.010369 0.000000 0.000000 0.000000
# 4 0.000000 0.000000 0.000000 -0.113306 0.000000 0.000000
# 5 0.000000 0.000000 0.000000 0.000000 0.030626 0.000000
# 6 0.000000 0.000000 0.000000 0.000000 0.000000 0.064578
#
#
# Mechanical properties :
#
#
# Convention : Reuss Voigt Hill
#
# Bulk Modulus (GPa) = 10.55938 71.58570 41.07254
# Shear Modulus (GPa) = 9.44194 17.30755 13.37474
#
# Velocity S-wave (km/s) = 2.32249 3.14443 2.76418
# Velocity P-wave (km/s) = 3.63652 7.35381 5.80098
#
# Compressibility (1/GPa) = 0.09470257
#
# Stress axis : x y z
#
# Youngs Moduli (GPa) = 18.78466 4.13580 96.44550
#
# Poissons Ratio (x) = 0.34158 0.36518
# Poissons Ratio (y) = 1.55146 1.82937
# Poissons Ratio (z) = 0.07113 0.07845
#
# Static dielectric constant tensor:
#      x y z
#    x 1.590300 0.000000 0.000000 
#    y 0.000000 1.578270 0.000000 
#    z 0.000000 0.000000 1.605160 
# 
# From -- ./inp_files/28738.got.cif
#   From: 2010.05.17/outbox.cif.g08.bks.cpg/sg51_15_cif.got.tgz:28738.got - 2010.06.03 11:52:47.
