data_PCOD9403649
_publ_section_title
;
Structure prediction by ZEFSAII (Michael W. Deem and Ramdas Pophale) SiO2 
 PCOD9403649
Probable space group: P M M A
;
_chemical_formula_sum "Si O2"
_cell_formula_units_Z 64
_cell_length_a 9.045598
_cell_length_b 18.740053
_cell_length_c 21.415907
_cell_angle_alpha 90.000000
_cell_angle_beta 90.000000
_cell_angle_gamma 90.000000
_cell_volume 3630.317174
_symmetry_space_group_name_H-M "P M M A"
_symmetry_group_IT_number 51
_symmetry_cell_setting 'orthorhombic'
loop_
_space_group_symop_operation_xyz
x,y,z
1/2-x,-y,z
1/2+x,-y,-z
-x,y,-z
-x,-y,-z
1/2+x,y,-z
1/2-x,y,z
x,-y,z
loop_
_atom_site_type_symbol
_atom_site_label
_atom_site_fract_x
_atom_site_fract_y
_atom_site_fract_z
Si Si1 0.072740 0.583327 0.564063
Si Si2 0.569678 0.082070 0.801257
Si Si3 0.927865 0.666021 0.309683
Si Si4 0.920090 0.087014 0.937603
Si Si5 0.425154 0.585630 0.193509
Si Si6 0.579155 0.413090 0.063749
Si Si7 0.570961 0.179080 0.684115
Si Si8 0.072419 0.082572 0.434049
O O1 0.250000 0.586945 0.557779
O O2 0.030987 0.500000 0.571524
O O3 0.030229 0.625716 0.626099
O O4 0.000000 0.610148 0.500000
O O5 0.750000 0.080908 0.804033
O O6 0.517720 0.107460 0.869688
O O7 0.528293 0.132411 0.744478
O O8 0.523025 0.000000 0.790937
O O9 0.750000 0.666473 0.305141
O O10 0.995462 0.625041 0.250433
O O11 0.992677 0.745183 0.313037
O O12 0.750000 0.109211 0.940919
O O13 0.923060 0.000000 0.937380
O O14 0.000000 0.111779 0.000000
O O15 0.250000 0.599974 0.194198
O O16 0.446193 0.500000 0.199847
O O17 0.493984 0.607790 0.126815
O O18 0.750000 0.390572 0.065491
O O19 0.577562 0.500000 0.062595
O O20 0.500000 0.389066 0.000000
O O21 0.750000 0.187573 0.684625
O O22 0.530491 0.134828 0.622066
O O23 0.250000 0.084966 0.440111
O O24 0.000000 0.101972 0.500000
O O25 0.031963 0.000000 0.419702
#
# Coordination Sequence:
#
# PCOD9403649 Si02
#       8
#     8   8   8   8   8   8   8   8
#     4   9  19  36  57  78  99 126 161 201 245 295
#     4   8  14  27  49  73  95 124 164 207 248 291
#     4  11  23  37  52  73 105 140 171 206 254 309
#     4   8  13  22  39  65  94 121 151 191 240 290
#     4  10  20  34  54  79 104 133 173 218 261 307
#     4   9  16  27  46  74 107 139 171 211 259 308
#     4  10  20  34  52  73  98 130 171 213 249 292
#     4   9  18  33  54  78 102 130 165 207 255 306
#
# _framework density 17.629313
#
# number of rings (size 3 to 8) (size 9 to 14) (size 15 to 20)
#    0.000    2.750    0.000    2.625    0.000    6.250 
#    0.000    4.375    0.000    2.625    0.000    3.500 
#    0.000    0.000    0.000    0.000    0.000    0.000 
#
# Total GULP energy -356812.468613 kJ/mol
# GULP energy per Si atom -5575.194822 kJ/mol
# Density = 1.758919 g / cm^3
# Si number density = 17.629313 Si / 1000 Ang^3
#
#
#
# Elastic Constant Matrix: (Units=GPa)
#
#
# Indices 1 2 3 4 5 6 
#
# 1 57.9739 42.0589 75.6275 0.0000 0.0000 0.0000
# 2 42.0589 65.6870 86.9710 0.0000 0.0000 0.0000
# 3 75.6275 86.9710 217.3289 0.0000 0.0000 0.0000
# 4 0.0000 0.0000 0.0000 -5.0296 0.0000 0.0000
# 5 0.0000 0.0000 0.0000 0.0000 34.2399 0.0000
# 6 0.0000 0.0000 0.0000 0.0000 0.0000 19.9697
#
#
#
# Elastic Compliance Matrix: (Units=1/GPa)
#
#
# Indices 1 2 3 4 5 6 
#
# 1 0.036829 -0.014065 -0.007187 0.000000 0.000000 0.000000
# 2 -0.014065 0.037752 -0.010213 0.000000 0.000000 0.000000
# 3 -0.007187 -0.010213 0.011190 0.000000 0.000000 0.000000
# 4 0.000000 0.000000 0.000000 -0.198823 0.000000 0.000000
# 5 0.000000 0.000000 0.000000 0.000000 0.029206 0.000000
# 6 0.000000 0.000000 0.000000 0.000000 0.000000 0.050076
#
#
# Mechanical properties :
#
#
# Convention : Reuss Voigt Hill
#
# Bulk Modulus (GPa) = 43.78426 83.36717 63.57571
# Shear Modulus (GPa) = 135.96537 18.92483 77.44510
#
# Velocity S-wave (km/s) = 8.79159 3.27996 6.63514
# Velocity P-wave (km/s) = 11.31132 7.85722 9.73863
#
# Compressibility (1/GPa) = 0.02283926
#
# Stress axis : x y z
#
# Youngs Moduli (GPa) = 27.15234 26.48872 89.36891
#
# Poissons Ratio (x) = 0.37257 0.64234
# Poissons Ratio (y) = 0.38190 0.91274
# Poissons Ratio (z) = 0.19516 0.27053
#
# Static dielectric constant tensor:
#      x y z
#    x 1.594090 0.000000 0.000000 
#    y 0.000000 1.578300 0.000000 
#    z 0.000000 0.000000 1.598430 
# 
# From -- ./inp_files/32305.got.cif
#   From: 2010.05.17/outbox.cif.g08.bks.cpg/sg51_17_cif.got.tgz:32305.got - 2010.06.03 11:52:47.
