data_PCOD9403367
_publ_section_title
;
Structure prediction by ZEFSAII (Michael W. Deem and Ramdas Pophale) SiO2 
 PCOD9403367
Probable space group: P M M A
;
_chemical_formula_sum "Si O2"
_cell_formula_units_Z 48
_cell_length_a 17.558504
_cell_length_b 7.484712
_cell_length_c 16.863931
_cell_angle_alpha 90.000000
_cell_angle_beta 90.000000
_cell_angle_gamma 90.000000
_cell_volume 2216.263640
_symmetry_space_group_name_H-M "P M M A"
_symmetry_group_IT_number 51
_symmetry_cell_setting 'orthorhombic'
loop_
_space_group_symop_operation_xyz
x,y,z
1/2-x,-y,z
1/2+x,-y,-z
-x,y,-z
-x,-y,-z
1/2+x,y,-z
1/2-x,y,z
x,-y,z
loop_
_atom_site_type_symbol
_atom_site_label
_atom_site_fract_x
_atom_site_fract_y
_atom_site_fract_z
Si Si1 0.250000 0.782378 0.519688
Si Si2 0.545280 0.208636 0.720870
Si Si3 0.914788 0.286490 0.014127
Si Si4 0.835010 0.716578 0.855753
Si Si5 0.080159 0.781892 0.455600
Si Si6 0.893726 0.785341 0.196656
Si Si7 0.250000 0.781636 0.703158
O O1 0.165939 0.726429 0.485029
O O2 0.250000 0.728295 0.611880
O O3 0.250000 0.000000 0.514231
O O4 0.610720 0.222748 0.785769
O O5 0.569306 0.279616 0.635320
O O6 0.470700 0.286197 0.763375
O O7 0.528826 0.000000 0.705789
O O8 0.918058 0.500000 0.005678
O O9 0.888663 0.252913 0.103435
O O10 0.862991 0.220984 0.942113
O O11 0.000000 0.215795 0.000000
O O12 0.750000 0.777410 0.840995
O O13 0.836173 0.500000 0.856006
O O14 0.000000 0.729915 0.500000
O O15 0.081846 0.000000 0.460306
O O16 0.823284 0.721203 0.248225
O O17 0.895229 0.000000 0.202027
O O18 0.250000 0.000000 0.702899
#
# Coordination Sequence:
#
# PCOD9403367 Si02
#       7
#     4   8   8   8   8   8   4
#     4   9  16  28  48  70  99 138 170 203 251 305
#     4  10  20  33  53  80 108 135 172 219 261 303
#     4  10  20  36  55  73  97 134 177 216 253 304
#     4  10  22  38  54  74 103 139 176 213 258 312
#     4   9  17  29  47  74 106 137 170 209 255 306
#     4  10  20  33  51  77 107 138 169 211 262 307
#     4   9  18  32  49  74 109 140 170 207 257 313
#
# _framework density 21.658073999999999
#
# number of rings (size 3 to 8) (size 9 to 14) (size 15 to 20)
#    0.000    2.333    1.667    1.000    2.333    5.333 
#    0.000    0.000    0.000    0.500    0.000    2.333 
#    0.000    0.000    0.000    0.000    0.000    0.000 
#
# Total GULP energy -267846.073671 kJ/mol
# GULP energy per Si atom -5580.126535 kJ/mol
# Density = 2.160878 g / cm^3
# Si number density = 21.658074 Si / 1000 Ang^3
#
#
#
# Elastic Constant Matrix: (Units=GPa)
#
#
# Indices 1 2 3 4 5 6 
#
# 1 187.7762 -6.4071 113.7527 0.0000 0.0000 0.0000
# 2 -6.4071 55.3366 -8.7084 0.0000 0.0000 0.0000
# 3 113.7527 -8.7084 220.6519 0.0000 0.0000 0.0000
# 4 0.0000 0.0000 0.0000 43.2821 0.0000 0.0000
# 5 0.0000 0.0000 0.0000 0.0000 -30.0358 0.0000
# 6 0.0000 0.0000 0.0000 0.0000 0.0000 113.2067
#
#
#
# Elastic Compliance Matrix: (Units=1/GPa)
#
#
# Indices 1 2 3 4 5 6 
#
# 1 0.007748 0.000270 -0.003984 0.000000 0.000000 0.000000
# 2 0.000270 0.018194 0.000579 0.000000 0.000000 0.000000
# 3 -0.003984 0.000579 0.006609 0.000000 0.000000 0.000000
# 4 0.000000 0.000000 0.000000 0.023104 0.000000 0.000000
# 5 0.000000 0.000000 0.000000 0.000000 -0.033294 0.000000
# 6 0.000000 0.000000 0.000000 0.000000 0.000000 0.008833
#
#
# Mechanical properties :
#
#
# Convention : Reuss Voigt Hill
#
# Bulk Modulus (GPa) = 38.05075 73.44879 55.74977
# Shear Modulus (GPa) = 108.16937 49.63242 78.90090
#
# Velocity S-wave (km/s) = 7.07478 4.79230 6.04230
# Velocity P-wave (km/s) = 9.18388 8.03791 8.62994
#
# Compressibility (1/GPa) = 0.02628069
#
# Stress axis : x y z
#
# Youngs Moduli (GPa) = 129.06632 54.96439 151.31904
#
# Poissons Ratio (x) = -0.01485 0.60280
# Poissons Ratio (y) = -0.03487 -0.08758
# Poissons Ratio (z) = 0.51415 -0.03181
#
# Static dielectric constant tensor:
#      x y z
#    x 1.752060 0.000000 0.000000 
#    y 0.000000 1.852490 0.000000 
#    z 0.000000 0.000000 1.745960 
# 
# From -- ./inp_files/24839.got.cif
#   From: 2010.05.17/outbox.cif.g08.bks.cpg/sg51_13_cif.got.tgz:24839.got - 2010.06.03 11:52:47.
