data_PCOD9403653
_publ_section_title
;
Structure prediction by ZEFSAII (Michael W. Deem and Ramdas Pophale) SiO2 
 PCOD9403653
Probable space group: P M M A
;
_chemical_formula_sum "Si O2"
_cell_formula_units_Z 64
_cell_length_a 17.988703
_cell_length_b 16.323444
_cell_length_c 12.227490
_cell_angle_alpha 90.000000
_cell_angle_beta 90.000000
_cell_angle_gamma 90.000000
_cell_volume 3590.450647
_symmetry_space_group_name_H-M "P M M A"
_symmetry_group_IT_number 51
_symmetry_cell_setting 'orthorhombic'
loop_
_space_group_symop_operation_xyz
x,y,z
1/2-x,-y,z
1/2+x,-y,-z
-x,y,-z
-x,-y,-z
1/2+x,y,-z
1/2-x,y,z
x,-y,z
loop_
_atom_site_type_symbol
_atom_site_label
_atom_site_fract_x
_atom_site_fract_y
_atom_site_fract_z
Si Si1 0.163205 0.907258 0.588375
Si Si2 0.836760 0.407776 0.889715
Si Si3 0.336912 0.637191 0.862046
Si Si4 0.920895 0.592663 0.350357
Si Si5 0.667678 0.904448 0.148623
Si Si6 0.089202 0.255709 0.493844
Si Si7 0.953333 0.781974 0.109092
Si Si8 0.558968 0.305113 0.736024
O O1 0.250000 0.905846 0.556923
O O2 0.160897 0.897007 0.719850
O O3 0.124117 0.828559 0.536169
O O4 0.134578 0.000000 0.563149
O O5 0.750000 0.388720 0.869073
O O6 0.852104 0.500000 0.850517
O O7 0.890277 0.345008 0.829017
O O8 0.846679 0.406092 0.020818
O O9 0.250000 0.654550 0.847685
O O10 0.368267 0.591776 0.756037
O O11 0.387643 0.717054 0.871957
O O12 0.925914 0.500000 0.395189
O O13 0.892812 0.663629 0.433230
O O14 0.001000 0.626301 0.308859
O O15 0.750000 0.870252 0.117368
O O16 0.593667 0.864578 0.100711
O O17 0.669037 0.000000 0.121945
O O18 0.105599 0.273842 0.367126
O O19 0.000000 0.246932 0.500000
O O20 0.009108 0.766988 0.210421
O O21 0.000000 0.766152 0.000000
#
# Coordination Sequence:
#
# PCOD9403653 Si02
#       8
#     8   8   8   8   8   8   8   8
#     4   9  18  35  59  84 107 137 180 228 277 327
#     4  10  20  34  52  73  99 137 183 227 271 317
#     4  10  20  35  54  78 107 137 180 237 280 314
#     4  10  21  34  53  79 109 146 184 224 276 331
#     4   9  18  33  55  82 109 138 175 222 277 332
#     4  10  21  35  53  80 114 144 178 220 270 332
#     4  11  20  34  54  79 107 141 185 225 274 327
#     4  10  21  36  51  76 108 144 183 222 270 324
#
# _framework density 17.825061000000002
#
# number of rings (size 3 to 8) (size 9 to 14) (size 15 to 20)
#    0.000    2.125    1.250    4.125    0.000    6.000 
#    0.000    2.500    0.000    0.000    0.000    1.750 
#    0.000    0.000    0.000    0.000    0.000    0.000 
#
# Total GULP energy -356644.513657 kJ/mol
# GULP energy per Si atom -5572.570526 kJ/mol
# Density = 1.778449 g / cm^3
# Si number density = 17.825061 Si / 1000 Ang^3
#
#
#
# Elastic Constant Matrix: (Units=GPa)
#
#
# Indices 1 2 3 4 5 6 
#
# 1 38.7347 9.1457 6.1022 0.0000 0.0000 0.0000
# 2 9.1457 54.7936 2.5867 0.0000 0.0000 0.0000
# 3 6.1022 2.5867 45.0804 0.0000 0.0000 0.0000
# 4 0.0000 0.0000 0.0000 10.7942 0.0000 0.0000
# 5 0.0000 0.0000 0.0000 0.0000 17.8361 0.0000
# 6 0.0000 0.0000 0.0000 0.0000 0.0000 18.0438
#
#
#
# Elastic Compliance Matrix: (Units=1/GPa)
#
#
# Indices 1 2 3 4 5 6 
#
# 1 0.027403 -0.004411 -0.003456 0.000000 0.000000 0.000000
# 2 -0.004411 0.019010 -0.000494 0.000000 0.000000 0.000000
# 3 -0.003456 -0.000494 0.022679 0.000000 0.000000 0.000000
# 4 0.000000 0.000000 0.000000 0.092643 0.000000 0.000000
# 5 0.000000 0.000000 0.000000 0.000000 0.056066 0.000000
# 6 0.000000 0.000000 0.000000 0.000000 0.000000 0.055421
#
#
# Mechanical properties :
#
#
# Convention : Reuss Voigt Hill
#
# Bulk Modulus (GPa) = 19.09493 19.36422 19.22957
# Shear Modulus (GPa) = 16.26552 17.38640 16.82596
#
# Velocity S-wave (km/s) = 3.02405 3.12651 3.07571
# Velocity P-wave (km/s) = 4.78841 4.89086 4.83990
#
# Compressibility (1/GPa) = 0.05236992
#
# Stress axis : x y z
#
# Youngs Moduli (GPa) = 36.49293 52.60443 44.09407
#
# Poissons Ratio (x) = 0.23202 0.15240
# Poissons Ratio (y) = 0.16096 0.02177
# Poissons Ratio (z) = 0.12613 0.02597
#
# Static dielectric constant tensor:
#      x y z
#    x 1.602860 0.000000 0.000000 
#    y 0.000000 1.648190 0.000000 
#    z 0.000000 0.000000 1.617620 
# 
# From -- ./inp_files/17525.got.cif
#   From: 2010.05.17/outbox.cif.g08.bks.cpg/sg51_9_cif.got.tgz:17525.got - 2010.06.03 11:52:47.
