data_PCOD9403430
_publ_section_title
;
Structure prediction by ZEFSAII (Michael W. Deem and Ramdas Pophale) SiO2 
 PCOD9403430
Probable space group: P M M A
;
_chemical_formula_sum "Si O2"
_cell_formula_units_Z 64
_cell_length_a 15.069925
_cell_length_b 9.648848
_cell_length_c 20.799258
_cell_angle_alpha 90.000000
_cell_angle_beta 90.000000
_cell_angle_gamma 90.000000
_cell_volume 3024.366354
_symmetry_space_group_name_H-M "P M M A"
_symmetry_group_IT_number 51
_symmetry_cell_setting 'orthorhombic'
loop_
_space_group_symop_operation_xyz
x,y,z
1/2-x,-y,z
1/2+x,-y,-z
-x,y,-z
-x,-y,-z
1/2+x,y,-z
1/2-x,y,z
x,-y,z
loop_
_atom_site_type_symbol
_atom_site_label
_atom_site_fract_x
_atom_site_fract_y
_atom_site_fract_z
Si Si1 0.853461 0.654419 0.714543
Si Si2 0.401330 0.157002 0.788705
Si Si3 0.857764 0.158454 0.977645
Si Si4 0.895319 0.156365 0.831049
Si Si5 0.140970 0.841205 0.402406
Si Si6 0.858185 0.658131 0.477824
Si Si7 0.642400 0.660476 0.331488
Si Si8 0.145864 0.345423 0.906903
O O1 0.750000 0.639347 0.697695
O O2 0.893065 0.500000 0.716720
O O3 0.856180 0.732138 0.782402
O O4 0.891137 0.752777 0.658807
O O5 0.502780 0.148584 0.810760
O O6 0.393404 0.232945 0.720623
O O7 0.358902 0.255140 0.842547
O O8 0.365044 0.000000 0.787303
O O9 0.750000 0.158892 0.978617
O O10 0.885529 0.195962 0.905422
O O11 0.886189 0.000000 0.990762
O O12 0.892362 0.259492 0.033107
O O13 0.857110 0.000000 0.823574
O O14 0.250000 0.843422 0.401835
O O15 0.112806 0.764317 0.467606
O O16 0.111512 0.000000 0.398827
O O17 0.750000 0.659041 0.477853
O O18 0.884921 0.500000 0.493437
O O19 0.885591 0.690725 0.404876
O O20 0.750000 0.667951 0.329238
O O21 0.618810 0.500000 0.316838
O O22 0.250000 0.360636 0.921160
O O23 0.107560 0.500000 0.898932
#
# Coordination Sequence:
#
# PCOD9403430 Si02
#       8
#     8   8   8   8   8   8   8   8
#     4  10  20  33  52  78 105 135 173 215 257 304
#     4  11  23  36  52  76 106 139 175 215 256 302
#     4   9  18  35  59  81 101 130 168 209 253 303
#     4  10  22  38  54  75 105 140 175 212 257 306
#     4   9  16  26  44  72 104 135 167 207 256 307
#     4   8  14  26  45  70 100 131 165 209 258 306
#     4   9  18  33  53  76 103 137 175 215 261 311
#     4  10  21  37  57  80 106 135 168 209 256 306
#
# _framework density 21.161456999999999
#
# number of rings (size 3 to 8) (size 9 to 14) (size 15 to 20)
#    0.000    2.500    0.000    3.000    0.000    7.750 
#    0.000    5.000    0.000    0.750    0.000    5.250 
#    0.000    0.000    0.000    0.000    0.000    0.000 
#
# Total GULP energy -357367.660596 kJ/mol
# GULP energy per Si atom -5583.869697 kJ/mol
# Density = 2.111329 g / cm^3
# Si number density = 21.161457 Si / 1000 Ang^3
#
#
#
# Elastic Constant Matrix: (Units=GPa)
#
#
# Indices 1 2 3 4 5 6 
#
# 1 28.5639 2.4892 -3.0121 0.0000 0.0000 0.0000
# 2 2.4892 191.3099 130.8533 0.0000 0.0000 0.0000
# 3 -3.0121 130.8533 140.1763 0.0000 0.0000 0.0000
# 4 0.0000 0.0000 0.0000 -20.8678 0.0000 0.0000
# 5 0.0000 0.0000 0.0000 0.0000 2.5350 0.0000
# 6 0.0000 0.0000 0.0000 0.0000 0.0000 -3.4644
#
#
#
# Elastic Compliance Matrix: (Units=1/GPa)
#
#
# Indices 1 2 3 4 5 6 
#
# 1 0.035596 -0.002728 0.003312 0.000000 0.000000 0.000000
# 2 -0.002728 0.014668 -0.013751 0.000000 0.000000 0.000000
# 3 0.003312 -0.013751 0.020042 0.000000 0.000000 0.000000
# 4 0.000000 0.000000 0.000000 -0.047921 0.000000 0.000000
# 5 0.000000 0.000000 0.000000 0.000000 0.394480 0.000000
# 6 0.000000 0.000000 0.000000 0.000000 0.000000 -0.288650
#
#
# Mechanical properties :
#
#
# Convention : Reuss Voigt Hill
#
# Bulk Modulus (GPa) = 22.74257 68.96788 45.85522
# Shear Modulus (GPa) = 29.54920 10.95519 20.25220
#
# Velocity S-wave (km/s) = 3.74086 2.27776 3.09695
# Velocity P-wave (km/s) = 5.42487 6.29123 5.87404
#
# Compressibility (1/GPa) = 0.04397041
#
# Stress axis : x y z
#
# Youngs Moduli (GPa) = 28.09290 68.17353 49.89540
#
# Poissons Ratio (x) = 0.18600 -0.16524
# Poissons Ratio (y) = 0.07665 0.68614
# Poissons Ratio (z) = -0.09304 0.93749
#
# Static dielectric constant tensor:
#      x y z
#    x 1.692810 0.000000 0.000000 
#    y 0.000000 1.765680 0.000000 
#    z 0.000000 0.000000 1.722110 
# 
# From -- ./inp_files/33801.got.cif
#   From: 2010.05.17/outbox.cif.g08.bks.cpg/sg51_17_cif.got.tgz:33801.got - 2010.06.03 11:52:47.
