data_PCOD9403049
_publ_section_title
;
Structure prediction by ZEFSAII (Michael W. Deem and Ramdas Pophale) SiO2 
 PCOD9403049
Probable space group: P M M A
;
_chemical_formula_sum "Si O2"
_cell_formula_units_Z 32
_cell_length_a 7.694299
_cell_length_b 7.689064
_cell_length_c 25.561021
_cell_angle_alpha 90.000000
_cell_angle_beta 90.000000
_cell_angle_gamma 90.000000
_cell_volume 1512.240037
_symmetry_space_group_name_H-M "P M M A"
_symmetry_group_IT_number 51
_symmetry_cell_setting 'orthorhombic'
loop_
_space_group_symop_operation_xyz
x,y,z
1/2-x,-y,z
1/2+x,-y,-z
-x,y,-z
-x,-y,-z
1/2+x,y,-z
1/2-x,y,z
x,-y,z
loop_
_atom_site_type_symbol
_atom_site_label
_atom_site_fract_x
_atom_site_fract_y
_atom_site_fract_z
Si Si1 0.045578 0.304566 0.866740
Si Si2 0.459888 0.000000 0.939029
Si Si3 0.036707 0.299462 0.362417
Si Si4 0.451409 0.288709 0.248087
Si Si5 0.958574 0.000000 0.560920
O O1 0.250000 0.320269 0.877558
O O2 0.969630 0.500000 0.869048
O O3 0.972209 0.169593 0.908421
O O4 0.030856 0.236314 0.807156
O O5 0.250000 0.000000 0.933644
O O6 0.500000 0.000000 0.000000
O O7 0.250000 0.300062 0.360760
O O8 0.983366 0.500000 0.370249
O O9 0.978425 0.234848 0.304803
O O10 0.979142 0.170650 0.407975
O O11 0.250000 0.237696 0.245812
O O12 0.461185 0.500000 0.249666
O O13 0.000000 0.000000 0.500000
O O14 0.750000 0.000000 0.565535
#
# Coordination Sequence:
#
# PCOD9403049 Si02
#       5
#     8   4   8   8   4
#     4   9  18  33  51  71  98 127 150 183 236 284
#     4  10  22  37  50  68  94 125 163 198 227 268
#     4   8  15  29  48  69  94 122 151 188 233 276
#     4   8  14  27  49  75  97 118 151 190 226 275
#     4  10  20  33  48  66  90 123 161 196 231 272
#
# _framework density 21.160661999999999
#
# number of rings (size 3 to 8) (size 9 to 14) (size 15 to 20)
#    0.000    3.250    0.000    1.500    0.000    3.000 
#    0.000    2.500    0.000    1.500    0.000    0.000 
#    0.000    0.000    0.000    0.000    0.000    0.000 
#
# Total GULP energy -178408.283912 kJ/mol
# GULP energy per Si atom -5575.258872 kJ/mol
# Density = 2.111250 g / cm^3
# Si number density = 21.160662 Si / 1000 Ang^3
#
#
#
# Elastic Constant Matrix: (Units=GPa)
#
#
# Indices 1 2 3 4 5 6 
#
# 1 28.2737 6.6496 0.3476 0.0000 0.0000 0.0000
# 2 6.6496 120.7598 112.0551 0.0000 0.0000 0.0000
# 3 0.3476 112.0551 217.0570 0.0000 0.0000 0.0000
# 4 0.0000 0.0000 0.0000 39.2362 0.0000 0.0000
# 5 0.0000 0.0000 0.0000 0.0000 29.1231 0.0000
# 6 0.0000 0.0000 0.0000 0.0000 0.0000 -3.8683
#
#
#
# Elastic Compliance Matrix: (Units=1/GPa)
#
#
# Indices 1 2 3 4 5 6 
#
# 1 0.036222 -0.003725 0.001865 0.000000 0.000000 0.000000
# 2 -0.003725 0.016278 -0.008398 0.000000 0.000000 0.000000
# 3 0.001865 -0.008398 0.008939 0.000000 0.000000 0.000000
# 4 0.000000 0.000000 0.000000 0.025487 0.000000 0.000000
# 5 0.000000 0.000000 0.000000 0.000000 0.034337 0.000000
# 6 0.000000 0.000000 0.000000 0.000000 0.000000 -0.258510
#
#
# Mechanical properties :
#
#
# Convention : Reuss Voigt Hill
#
# Bulk Modulus (GPa) = 24.43561 67.13279 45.78420
# Shear Modulus (GPa) = -48.50124 29.36742 -9.56691
#
# Velocity S-wave (km/s) = -4.79273 3.72940 -2.12859
# Velocity P-wave (km/s) = 4.36512 7.09498 3.95503
#
# Compressibility (1/GPa) = 0.04092389
#
# Stress axis : x y z
#
# Youngs Moduli (GPa) = 27.60777 61.43105 111.86436
#
# Poissons Ratio (x) = 0.22884 -0.20864
# Poissons Ratio (y) = 0.10284 0.93941
# Poissons Ratio (z) = -0.05149 0.51588
#
# Static dielectric constant tensor:
#      x y z
#    x 1.791790 0.000000 0.000000 
#    y 0.000000 1.794170 0.000000 
#    z 0.000000 0.000000 1.740610 
# 
# From -- ./inp_files/28769.got.cif
#   From: 2010.05.17/outbox.cif.g08.bks.cpg/sg51_15_cif.got.tgz:28769.got - 2010.06.03 11:52:47.
