data_PCOD9403615
_publ_section_title
;
Structure prediction by ZEFSAII (Michael W. Deem and Ramdas Pophale) SiO2 
 PCOD9403615
Probable space group: P M M A
;
_chemical_formula_sum "Si O2"
_cell_formula_units_Z 64
_cell_length_a 9.239615
_cell_length_b 14.487414
_cell_length_c 25.007084
_cell_angle_alpha 90.000000
_cell_angle_beta 90.000000
_cell_angle_gamma 90.000000
_cell_volume 3347.401444
_symmetry_space_group_name_H-M "P M M A"
_symmetry_group_IT_number 51
_symmetry_cell_setting 'orthorhombic'
loop_
_space_group_symop_operation_xyz
x,y,z
1/2-x,-y,z
1/2+x,-y,-z
-x,y,-z
-x,-y,-z
1/2+x,y,-z
1/2-x,y,z
x,-y,z
loop_
_atom_site_type_symbol
_atom_site_label
_atom_site_fract_x
_atom_site_fract_y
_atom_site_fract_z
Si Si1 0.425187 0.104943 0.942308
Si Si2 0.586909 0.140610 0.549562
Si Si3 0.417542 0.251593 0.854912
Si Si4 0.910388 0.890068 0.663001
Si Si5 0.584453 0.389324 0.334910
Si Si6 0.584671 0.359896 0.552993
Si Si7 0.922250 0.388945 0.776240
Si Si8 0.587013 0.894588 0.238976
O O1 0.250000 0.108849 0.946280
O O2 0.469705 0.194367 0.907080
O O3 0.458440 0.000000 0.920791
O O4 0.500000 0.110335 0.000000
O O5 0.500000 0.103241 0.500000
O O6 0.750000 0.103019 0.551208
O O7 0.513705 0.124035 0.606615
O O8 0.596589 0.250327 0.544215
O O9 0.250000 0.282257 0.863021
O O10 0.509185 0.332250 0.826116
O O11 0.415738 0.169327 0.811794
O O12 0.750000 0.848856 0.659181
O O13 0.988509 0.854398 0.714733
O O14 0.899967 0.000000 0.670037
O O15 0.750000 0.352115 0.336137
O O16 0.594276 0.500000 0.332185
O O17 0.499733 0.370947 0.390648
O O18 0.501111 0.362764 0.280043
O O19 0.500000 0.395451 0.500000
O O20 0.750000 0.395319 0.556610
O O21 0.750000 0.370889 0.772273
O O22 0.941588 0.500000 0.783456
O O23 0.750000 0.897677 0.260185
O O24 0.545278 0.000000 0.225582
#
# Coordination Sequence:
#
# PCOD9403615 Si02
#       8
#     8   8   8   8   8   8   8   8
#     4   9  18  34  57  87 126 166 200 236 276 322
#     4   9  19  33  47  65  88 118 157 203 252 305
#     4  10  20  34  56  85 113 150 191 230 277 325
#     4   9  18  32  47  65  93 126 159 203 258 309
#     4  10  21  37  56  77 101 130 167 215 273 337
#     4  10  20  34  51  72  98 129 166 213 268 330
#     4  10  22  39  57  80 111 146 186 235 286 336
#     4   9  18  32  49  74 107 139 174 214 259 318
#
# _framework density 19.119308
#
# number of rings (size 3 to 8) (size 9 to 14) (size 15 to 20)
#    0.000    2.500    0.000    1.500    1.750    5.500 
#    0.000    0.000    0.000    4.125    0.000    0.000 
#    0.000    0.000    0.000    0.000    0.000    0.000 
#
# Total GULP energy -356538.727945 kJ/mol
# GULP energy per Si atom -5570.917624 kJ/mol
# Density = 1.907579 g / cm^3
# Si number density = 19.119308 Si / 1000 Ang^3
#
#
#
# Elastic Constant Matrix: (Units=GPa)
#
#
# Indices 1 2 3 4 5 6 
#
# 1 85.4042 35.5487 52.2422 0.0000 0.0000 0.0000
# 2 35.5487 86.6429 29.3384 0.0000 0.0000 0.0000
# 3 52.2422 29.3384 106.5264 0.0000 0.0000 0.0000
# 4 0.0000 0.0000 0.0000 31.2144 0.0000 0.0000
# 5 0.0000 0.0000 0.0000 0.0000 25.2596 0.0000
# 6 0.0000 0.0000 0.0000 0.0000 0.0000 23.1990
#
#
#
# Elastic Compliance Matrix: (Units=1/GPa)
#
#
# Indices 1 2 3 4 5 6 
#
# 1 0.018490 -0.004980 -0.007696 0.000000 0.000000 0.000000
# 2 -0.004980 0.014070 -0.001433 0.000000 0.000000 0.000000
# 3 -0.007696 -0.001433 0.013556 0.000000 0.000000 0.000000
# 4 0.000000 0.000000 0.000000 0.032036 0.000000 0.000000
# 5 0.000000 0.000000 0.000000 0.000000 0.039589 0.000000
# 6 0.000000 0.000000 0.000000 0.000000 0.000000 0.043105
#
#
# Mechanical properties :
#
#
# Convention : Reuss Voigt Hill
#
# Bulk Modulus (GPa) = 55.87167 56.98133 56.42650
# Shear Modulus (GPa) = 25.63703 26.69755 26.16729
#
# Velocity S-wave (km/s) = 3.66580 3.74085 3.70352
# Velocity P-wave (km/s) = 6.87048 6.96609 6.91845
#
# Compressibility (1/GPa) = 0.01789816
#
# Stress axis : x y z
#
# Youngs Moduli (GPa) = 54.08432 71.07299 73.76710
#
# Poissons Ratio (x) = 0.35395 0.56771
# Poissons Ratio (y) = 0.26935 0.10569
# Poissons Ratio (z) = 0.41623 0.10183
#
# Static dielectric constant tensor:
#      x y z
#    x 1.697900 0.000000 0.000000 
#    y 0.000000 1.705840 0.000000 
#    z 0.000000 0.000000 1.658090 
# 
# From -- ./inp_files/34866.got.cif
#   From: 2010.05.17/outbox.cif.g08.bks.cpg/sg51_18_cif.got.tgz:34866.got - 2010.06.03 11:52:47.
