data_PCOD9403494
_publ_section_title
;
Structure prediction by ZEFSAII (Michael W. Deem and Ramdas Pophale) SiO2 
 PCOD9403494
Probable space group: P M M A
;
_chemical_formula_sum "Si O2"
_cell_formula_units_Z 64
_cell_length_a 14.039234
_cell_length_b 8.922022
_cell_length_c 26.485761
_cell_angle_alpha 90.000000
_cell_angle_beta 90.000000
_cell_angle_gamma 90.000000
_cell_volume 3317.562843
_symmetry_space_group_name_H-M "P M M A"
_symmetry_group_IT_number 51
_symmetry_cell_setting 'orthorhombic'
loop_
_space_group_symop_operation_xyz
x,y,z
1/2-x,-y,z
1/2+x,-y,-z
-x,y,-z
-x,-y,-z
1/2+x,y,-z
1/2-x,y,z
x,-y,z
loop_
_atom_site_type_symbol
_atom_site_label
_atom_site_fract_x
_atom_site_fract_y
_atom_site_fract_z
Si Si1 0.635148 0.827658 0.467399
Si Si2 0.134634 0.825314 0.922283
Si Si3 0.137580 0.821195 0.726886
Si Si4 0.960308 0.678566 0.175619
Si Si5 0.634154 0.671455 0.973489
Si Si6 0.043851 0.322408 0.629183
Si Si7 0.859929 0.678697 0.573478
Si Si8 0.361655 0.178320 0.132546
O O1 0.750000 0.824278 0.464509
O O2 0.595134 0.726931 0.422508
O O3 0.610292 0.765042 0.522686
O O4 0.603948 0.000000 0.461404
O O5 0.250000 0.819354 0.920502
O O6 0.093891 0.744132 0.873255
O O7 0.106714 0.000000 0.922582
O O8 0.102992 0.744951 0.973960
O O9 0.250000 0.785724 0.724851
O O10 0.089762 0.741190 0.774530
O O11 0.087931 0.766002 0.675746
O O12 0.127761 0.000000 0.732169
O O13 0.958059 0.500000 0.174794
O O14 0.068105 0.738378 0.170543
O O15 0.750000 0.668492 0.975562
O O16 0.601295 0.500000 0.968077
O O17 0.611164 0.766838 0.923847
O O18 0.055212 0.500000 0.637307
O O19 0.932775 0.288602 0.618453
O O20 0.750000 0.715360 0.584757
O O21 0.865780 0.500000 0.563186
O O22 0.250000 0.213974 0.140263
O O23 0.373506 0.000000 0.136108
#
# Coordination Sequence:
#
# PCOD9403494 Si02
#       8
#     8   8   8   8   8   8   8   8
#     4  10  20  33  52  82 119 157 195 236 285 340
#     4  10  20  35  56  83 117 155 193 234 284 344
#     4  11  25  45  66  87 114 148 187 234 287 342
#     4  12  25  40  61  87 114 147 189 237 289 343
#     4   9  17  31  53  83 118 152 188 233 284 338
#     4  11  22  36  58  86 114 150 195 240 289 342
#     4   9  19  36  56  81 117 157 194 234 281 334
#     4  10  21  39  62  86 115 151 190 233 282 338
#
# _framework density 19.291270999999998
#
# number of rings (size 3 to 8) (size 9 to 14) (size 15 to 20)
#    0.000    1.750    0.000    4.500    0.000   10.750 
#    0.000    3.125    0.000    2.250    0.000    0.000 
#    0.000    0.000    0.000    0.000    0.000    0.000 
#
# Total GULP energy -357896.705810 kJ/mol
# GULP energy per Si atom -5592.136028 kJ/mol
# Density = 1.924736 g / cm^3
# Si number density = 19.291271 Si / 1000 Ang^3
#
#
#
# Elastic Constant Matrix: (Units=GPa)
#
#
# Indices 1 2 3 4 5 6 
#
# 1 89.8606 55.5501 58.3393 0.0000 0.0000 0.0000
# 2 55.5501 111.6911 57.9184 0.0000 0.0000 0.0000
# 3 58.3393 57.9184 104.0520 0.0000 0.0000 0.0000
# 4 0.0000 0.0000 0.0000 37.1202 0.0000 0.0000
# 5 0.0000 0.0000 0.0000 0.0000 33.2733 0.0000
# 6 0.0000 0.0000 0.0000 0.0000 0.0000 27.2936
#
#
#
# Elastic Compliance Matrix: (Units=1/GPa)
#
#
# Indices 1 2 3 4 5 6 
#
# 1 0.019822 -0.005757 -0.007909 0.000000 0.000000 0.000000
# 2 -0.005757 0.014258 -0.004709 0.000000 0.000000 0.000000
# 3 -0.007909 -0.004709 0.016666 0.000000 0.000000 0.000000
# 4 0.000000 0.000000 0.000000 0.026940 0.000000 0.000000
# 5 0.000000 0.000000 0.000000 0.000000 0.030054 0.000000
# 6 0.000000 0.000000 0.000000 0.000000 0.000000 0.036639
#
#
# Mechanical properties :
#
#
# Convention : Reuss Voigt Hill
#
# Bulk Modulus (GPa) = 71.44688 72.13546 71.79117
# Shear Modulus (GPa) = 26.91148 28.45716 27.68432
#
# Velocity S-wave (km/s) = 3.73903 3.84491 3.79234
# Velocity P-wave (km/s) = 7.46704 7.56208 7.51471
#
# Compressibility (1/GPa) = 0.01399641
#
# Stress axis : x y z
#
# Youngs Moduli (GPa) = 50.44866 70.13400 60.00249
#
# Poissons Ratio (x) = 0.40378 0.47456
# Poissons Ratio (y) = 0.29045 0.28253
# Poissons Ratio (z) = 0.39900 0.33024
#
# Static dielectric constant tensor:
#      x y z
#    x 1.722590 0.000000 0.000000 
#    y 0.000000 1.645470 0.000000 
#    z 0.000000 0.000000 1.618060 
# 
# From -- ./inp_files/35610.got.cif
#   From: 2010.05.17/outbox.cif.g08.bks.cpg/sg51_18_cif.got.tgz:35610.got - 2010.06.03 11:52:47.
