data_PCOD9403429
_publ_section_title
;
Structure prediction by ZEFSAII (Michael W. Deem and Ramdas Pophale) SiO2 
 PCOD9403429
Probable space group: P M M A
;
_chemical_formula_sum "Si O2"
_cell_formula_units_Z 48
_cell_length_a 20.834441
_cell_length_b 9.172977
_cell_length_c 14.544986
_cell_angle_alpha 90.000000
_cell_angle_beta 90.000000
_cell_angle_gamma 90.000000
_cell_volume 2779.748245
_symmetry_space_group_name_H-M "P M M A"
_symmetry_group_IT_number 51
_symmetry_cell_setting 'orthorhombic'
loop_
_space_group_symop_operation_xyz
x,y,z
1/2-x,-y,z
1/2+x,-y,-z
-x,y,-z
-x,-y,-z
1/2+x,y,-z
1/2-x,y,z
x,-y,z
loop_
_atom_site_type_symbol
_atom_site_label
_atom_site_fract_x
_atom_site_fract_y
_atom_site_fract_z
Si Si1 0.674214 0.174394 0.482914
Si Si2 0.609220 0.172293 0.141095
Si Si3 0.983157 0.326693 0.782578
Si Si4 0.056332 0.325939 0.427848
Si Si5 0.174194 0.662720 0.702530
Si Si6 0.074805 0.334387 0.032848
O O1 0.750000 0.211057 0.499775
O O2 0.622820 0.243611 0.551969
O O3 0.653671 0.240675 0.384120
O O4 0.669535 0.000000 0.481475
O O5 0.542582 0.228010 0.186419
O O6 0.660157 0.256916 0.202840
O O7 0.615413 0.000000 0.147688
O O8 0.609855 0.225665 0.035847
O O9 0.999120 0.500000 0.792983
O O10 0.965166 0.300574 0.677248
O O11 0.927981 0.299191 0.859004
O O12 0.066358 0.500000 0.439732
O O13 0.000000 0.282690 0.500000
O O14 0.250000 0.648706 0.692971
O O15 0.144987 0.500000 0.699462
O O16 0.098181 0.500000 0.019534
O O17 0.000000 0.332761 0.000000
#
# Coordination Sequence:
#
# PCOD9403429 Si02
#       6
#     8   8   8   8   8   8
#     4  10  21  36  53  75 104 136 169 206 251 304
#     4  11  20  29  47  74 102 128 156 198 251 302
#     4   9  18  32  49  71 100 133 169 206 242 286
#     4  10  20  33  52  78 105 134 171 214 255 296
#     4  10  20  34  52  71  93 126 165 201 240 292
#     4   8  15  29  47  66  93 129 164 197 235 285
#
# _framework density 17.267749999999999
#
# number of rings (size 3 to 8) (size 9 to 14) (size 15 to 20)
#    0.000    2.333    0.000    4.500    0.000    7.333 
#    0.000    0.000    0.000    1.000    0.000    2.333 
#    0.000    0.000    0.000    0.000    0.000    0.000 
#
# Total GULP energy -267527.950977 kJ/mol
# GULP energy per Si atom -5573.498979 kJ/mol
# Density = 1.722845 g / cm^3
# Si number density = 17.267750 Si / 1000 Ang^3
#
#
#
# Elastic Constant Matrix: (Units=GPa)
#
#
# Indices 1 2 3 4 5 6 
#
# 1 38.1075 25.6483 25.4580 0.0000 0.0000 0.0000
# 2 25.6483 78.1889 39.7458 0.0000 0.0000 0.0000
# 3 25.4580 39.7458 117.8497 0.0000 0.0000 0.0000
# 4 0.0000 0.0000 0.0000 22.7689 0.0000 0.0000
# 5 0.0000 0.0000 0.0000 0.0000 23.9561 0.0000
# 6 0.0000 0.0000 0.0000 0.0000 0.0000 23.7253
#
#
#
# Elastic Compliance Matrix: (Units=1/GPa)
#
#
# Indices 1 2 3 4 5 6 
#
# 1 0.035569 -0.009368 -0.004524 0.000000 0.000000 0.000000
# 2 -0.009368 0.017903 -0.004014 0.000000 0.000000 0.000000
# 3 -0.004524 -0.004014 0.010817 0.000000 0.000000 0.000000
# 4 0.000000 0.000000 0.000000 0.043919 0.000000 0.000000
# 5 0.000000 0.000000 0.000000 0.000000 0.041743 0.000000
# 6 0.000000 0.000000 0.000000 0.000000 0.000000 0.042149
#
#
# Mechanical properties :
#
#
# Convention : Reuss Voigt Hill
#
# Bulk Modulus (GPa) = 35.11751 46.20558 40.66154
# Shear Modulus (GPa) = 21.06104 23.64300 22.35202
#
# Velocity S-wave (km/s) = 3.49617 3.70428 3.60173
# Velocity P-wave (km/s) = 6.05631 6.71655 6.39495
#
# Compressibility (1/GPa) = 0.02847582
#
# Stress axis : x y z
#
# Youngs Moduli (GPa) = 28.11431 55.85630 92.45070
#
# Poissons Ratio (x) = 0.52326 0.41827
# Poissons Ratio (y) = 0.26337 0.37113
# Poissons Ratio (z) = 0.12720 0.22422
#
# Static dielectric constant tensor:
#      x y z
#    x 1.613260 0.000000 0.000000 
#    y 0.000000 1.583120 0.000000 
#    z 0.000000 0.000000 1.612690 
# 
# From -- ./inp_files/24798.got.cif
#   From: 2010.05.17/outbox.cif.g08.bks.cpg/sg51_13_cif.got.tgz:24798.got - 2010.06.03 11:52:47.
