data_PCOD9403025
_publ_section_title
;
Structure prediction by ZEFSAII (Michael W. Deem and Ramdas Pophale) SiO2 
 PCOD9403025
Probable space group: P M M A
;
_chemical_formula_sum "Si O2"
_cell_formula_units_Z 40
_cell_length_a 8.924527
_cell_length_b 15.628573
_cell_length_c 20.807654
_cell_angle_alpha 90.000000
_cell_angle_beta 90.000000
_cell_angle_gamma 90.000000
_cell_volume 2902.202093
_symmetry_space_group_name_H-M "P M M A"
_symmetry_group_IT_number 51
_symmetry_cell_setting 'orthorhombic'
loop_
_space_group_symop_operation_xyz
x,y,z
1/2-x,-y,z
1/2+x,-y,-z
-x,y,-z
-x,-y,-z
1/2+x,y,-z
1/2-x,y,z
x,-y,z
loop_
_atom_site_type_symbol
_atom_site_label
_atom_site_fract_x
_atom_site_fract_y
_atom_site_fract_z
Si Si1 0.923197 0.395713 0.566355
Si Si2 0.570387 0.094104 0.928460
Si Si3 0.427005 0.397940 0.168060
Si Si4 0.428938 0.732637 0.928822
Si Si5 0.421745 0.396033 0.698149
O O1 0.750000 0.370220 0.568224
O O2 0.927102 0.500000 0.566446
O O3 0.000000 0.367911 0.500000
O O4 0.008217 0.367088 0.630658
O O5 0.750000 0.105261 0.932609
O O6 0.494573 0.178534 0.899793
O O7 0.541237 0.000000 0.898932
O O8 0.500000 0.090700 0.000000
O O9 0.250000 0.381786 0.161018
O O10 0.451967 0.500000 0.160812
O O11 0.518378 0.344964 0.115665
O O12 0.482149 0.372786 0.239377
O O13 0.250000 0.737267 0.933863
O O14 0.500000 0.722807 0.000000
O O15 0.250000 0.367892 0.705054
O O16 0.421290 0.500000 0.696127
#
# Coordination Sequence:
#
# PCOD9403025 Si02
#       5
#     8   8   8   8   8
#     4   9  15  22  33  50  71  94 121 155 194 232
#     4   9  16  27  44  64  84 103 123 151 190 237
#     4  10  20  33  46  58  75 102 136 172 207 242
#     4  11  21  32  46  62  81 103 130 166 204 243
#     4   9  16  26  39  54  72  95 125 160 197 237
#
# _framework density 13.782638
#
# number of rings (size 3 to 8) (size 9 to 14) (size 15 to 20)
#    0.000    2.400    0.000    5.400    0.000    7.600 
#    0.000    0.000    0.000    0.000    0.000    0.000 
#    0.000    0.000    0.000    0.000    0.000    1.000 
#
# Total GULP energy -222785.987572 kJ/mol
# GULP energy per Si atom -5569.649689 kJ/mol
# Density = 1.375127 g / cm^3
# Si number density = 13.782638 Si / 1000 Ang^3
#
#
#
# Elastic Constant Matrix: (Units=GPa)
#
#
# Indices 1 2 3 4 5 6 
#
# 1 112.3725 37.0351 39.7977 0.0000 0.0000 0.0000
# 2 37.0351 39.5646 28.3755 0.0000 0.0000 0.0000
# 3 39.7977 28.3755 71.9716 0.0000 0.0000 0.0000
# 4 0.0000 0.0000 0.0000 -0.7036 0.0000 0.0000
# 5 0.0000 0.0000 0.0000 0.0000 25.2797 0.0000
# 6 0.0000 0.0000 0.0000 0.0000 0.0000 17.4309
#
#
#
# Elastic Compliance Matrix: (Units=1/GPa)
#
#
# Indices 1 2 3 4 5 6 
#
# 1 0.013457 -0.010122 -0.003451 0.000000 0.000000 0.000000
# 2 -0.010122 0.042853 -0.011298 0.000000 0.000000 0.000000
# 3 -0.003451 -0.011298 0.020257 0.000000 0.000000 0.000000
# 4 0.000000 0.000000 0.000000 -1.421177 0.000000 0.000000
# 5 0.000000 0.000000 0.000000 0.000000 0.039557 0.000000
# 6 0.000000 0.000000 0.000000 0.000000 0.000000 0.057369
#
#
# Mechanical properties :
#
#
# Convention : Reuss Voigt Hill
#
# Bulk Modulus (GPa) = 37.27801 48.25835 42.76818
# Shear Modulus (GPa) = -4.20521 16.31477 6.05478
#
# Velocity S-wave (km/s) = -1.74863 3.44425 2.09823
# Velocity P-wave (km/s) = 4.79884 7.13492 6.08013
#
# Compressibility (1/GPa) = 0.02682547
#
# Stress axis : x y z
#
# Youngs Moduli (GPa) = 74.31118 23.33577 49.36625
#
# Poissons Ratio (x) = 0.23620 0.17034
# Poissons Ratio (y) = 0.75217 0.55774
# Poissons Ratio (z) = 0.25642 0.26365
#
# Static dielectric constant tensor:
#      x y z
#    x 1.461220 0.000000 0.000000 
#    y 0.000000 1.460960 0.000000 
#    z 0.000000 0.000000 1.441730 
# 
# From -- ./inp_files/27234.got.cif
#   From: 2010.05.17/outbox.cif.g08.bks.cpg/sg51_14_cif.got.tgz:27234.got - 2010.06.03 11:52:47.
