data_PCOD9403482
_publ_section_title
;
Structure prediction by ZEFSAII (Michael W. Deem and Ramdas Pophale) SiO2 
 PCOD9403482
Probable space group: P M M A
;
_chemical_formula_sum "Si O2"
_cell_formula_units_Z 56
_cell_length_a 20.172919
_cell_length_b 8.714601
_cell_length_c 16.220354
_cell_angle_alpha 90.000000
_cell_angle_beta 90.000000
_cell_angle_gamma 90.000000
_cell_volume 2851.521041
_symmetry_space_group_name_H-M "P M M A"
_symmetry_group_IT_number 51
_symmetry_cell_setting 'orthorhombic'
loop_
_space_group_symop_operation_xyz
x,y,z
1/2-x,-y,z
1/2+x,-y,-z
-x,y,-z
-x,-y,-z
1/2+x,y,-z
1/2-x,y,z
x,-y,z
loop_
_atom_site_type_symbol
_atom_site_label
_atom_site_fract_x
_atom_site_fract_y
_atom_site_fract_z
Si Si1 0.825288 0.685002 0.992331
Si Si2 0.176162 0.185100 0.669122
Si Si3 0.539989 0.183203 0.254880
Si Si4 0.674381 0.315416 0.513412
Si Si5 0.456563 0.315541 0.920424
Si Si6 0.584553 0.683474 0.665007
Si Si7 0.328546 0.181524 0.188191
O O1 0.750000 0.731150 0.013620
O O2 0.827099 0.500000 0.984745
O O3 0.842287 0.754497 0.903138
O O4 0.880967 0.729220 0.057997
O O5 0.250000 0.238658 0.694519
O O6 0.114455 0.237643 0.724013
O O7 0.164870 0.240005 0.575537
O O8 0.176574 0.000000 0.670340
O O9 0.520741 0.240449 0.164143
O O10 0.487782 0.247279 0.320548
O O11 0.538293 0.000000 0.256750
O O12 0.750000 0.280296 0.540965
O O13 0.669739 0.500000 0.504652
O O14 0.621758 0.265020 0.581853
O O15 0.460599 0.500000 0.911612
O O16 0.500000 0.272744 0.000000
O O17 0.580201 0.500000 0.663587
O O18 0.629119 0.734858 0.742427
O O19 0.250000 0.205914 0.203152
O O20 0.342024 0.000000 0.190750
#
# Coordination Sequence:
#
# PCOD9403482 Si02
#       7
#     8   8   8   8   8   8   8
#     4   9  18  33  53  77 106 141 181 226 277 332
#     4   9  20  40  62  83 111 147 184 225 277 333
#     4  11  24  39  57  83 112 144 185 231 280 334
#     4   9  19  36  59  86 112 143 185 227 267 317
#     4  10  21  37  56  78 106 142 184 227 274 329
#     4  11  22  36  55  80 114 151 187 228 274 328
#     4  10  20  33  52  81 115 149 186 228 275 328
#
# _framework density 19.638642000000001
#
# number of rings (size 3 to 8) (size 9 to 14) (size 15 to 20)
#    0.000    2.143    0.000    2.571    0.000    6.857 
#    0.000    4.286    0.000    0.000    0.000    0.000 
#    0.000    0.000    0.000    0.000    0.000    0.000 
#
# Total GULP energy -312789.933721 kJ/mol
# GULP energy per Si atom -5585.534531 kJ/mol
# Density = 1.959394 g / cm^3
# Si number density = 19.638642 Si / 1000 Ang^3
#
#
#
# Elastic Constant Matrix: (Units=GPa)
#
#
# Indices 1 2 3 4 5 6 
#
# 1 83.2934 22.6885 36.5331 0.0000 0.0000 0.0000
# 2 22.6885 14.5074 8.1204 0.0000 0.0000 0.0000
# 3 36.5331 8.1204 47.5021 0.0000 0.0000 0.0000
# 4 0.0000 0.0000 0.0000 30.9923 0.0000 0.0000
# 5 0.0000 0.0000 0.0000 0.0000 37.8734 0.0000
# 6 0.0000 0.0000 0.0000 0.0000 0.0000 23.5190
#
#
#
# Elastic Compliance Matrix: (Units=1/GPa)
#
#
# Indices 1 2 3 4 5 6 
#
# 1 0.028913 -0.036238 -0.016041 0.000000 0.000000 0.000000
# 2 -0.036238 0.121644 0.007075 0.000000 0.000000 0.000000
# 3 -0.016041 0.007075 0.032179 0.000000 0.000000 0.000000
# 4 0.000000 0.000000 0.000000 0.032266 0.000000 0.000000
# 5 0.000000 0.000000 0.000000 0.000000 0.026404 0.000000
# 6 0.000000 0.000000 0.000000 0.000000 0.000000 0.042519
#
#
# Mechanical properties :
#
#
# Convention : Reuss Voigt Hill
#
# Bulk Modulus (GPa) = 10.83104 31.10968 20.97036
# Shear Modulus (GPa) = 12.34237 23.67433 18.00835
#
# Velocity S-wave (km/s) = 2.50966 3.47579 3.03146
# Velocity P-wave (km/s) = 3.73162 5.65541 4.79107
#
# Compressibility (1/GPa) = 0.09232720
#
# Stress axis : x y z
#
# Youngs Moduli (GPa) = 34.58691 8.22073 31.07584
#
# Poissons Ratio (x) = 0.29790 0.49850
# Poissons Ratio (y) = 1.25337 -0.21987
# Poissons Ratio (z) = 0.55482 -0.05816
#
# Static dielectric constant tensor:
#      x y z
#    x 1.728320 0.000000 0.000000 
#    y 0.000000 1.660980 0.000000 
#    z 0.000000 0.000000 1.641160 
# 
# From -- ./inp_files/25724.got.cif
#   From: 2010.05.17/outbox.cif.g08.bks.cpg/sg51_13_cif.got.tgz:25724.got - 2010.06.03 11:52:47.
