data_PCOD9403394
_publ_section_title
;
Structure prediction by ZEFSAII (Michael W. Deem and Ramdas Pophale) SiO2 
 PCOD9403394
Probable space group: P M M A
;
_chemical_formula_sum "Si O2"
_cell_formula_units_Z 56
_cell_length_a 8.835295
_cell_length_b 14.487130
_cell_length_c 24.029049
_cell_angle_alpha 90.000000
_cell_angle_beta 90.000000
_cell_angle_gamma 90.000000
_cell_volume 3075.671830
_symmetry_space_group_name_H-M "P M M A"
_symmetry_group_IT_number 51
_symmetry_cell_setting 'orthorhombic'
loop_
_space_group_symop_operation_xyz
x,y,z
1/2-x,-y,z
1/2+x,-y,-z
-x,y,-z
-x,-y,-z
1/2+x,y,-z
1/2-x,y,z
x,-y,z
loop_
_atom_site_type_symbol
_atom_site_label
_atom_site_fract_x
_atom_site_fract_y
_atom_site_fract_z
Si Si1 0.067797 0.606789 0.059512
Si Si2 0.931724 0.720221 0.831885
Si Si3 0.926925 0.610231 0.271106
Si Si4 0.929803 0.782442 0.442013
Si Si5 0.573368 0.889264 0.661361
Si Si6 0.930228 0.392204 0.608716
Si Si7 0.069299 0.107767 0.781065
O O1 0.250000 0.609030 0.055935
O O2 0.022804 0.500000 0.070580
O O3 0.021547 0.671658 0.110527
O O4 0.000000 0.633870 0.000000
O O5 0.750000 0.718881 0.828361
O O6 0.000357 0.662740 0.780535
O O7 0.993076 0.823520 0.824617
O O8 0.750000 0.635320 0.277415
O O9 0.935993 0.500000 0.261538
O O10 0.014592 0.629240 0.328504
O O11 0.750000 0.787805 0.443747
O O12 0.000000 0.815853 0.500000
O O13 0.994166 0.840063 0.390177
O O14 0.984002 0.677629 0.431431
O O15 0.750000 0.862671 0.664032
O O16 0.493264 0.866925 0.719792
O O17 0.564511 0.000000 0.654450
O O18 0.750000 0.378875 0.604463
O O19 0.964496 0.500000 0.597997
O O20 0.250000 0.118317 0.781669
O O21 0.032636 0.000000 0.790675
#
# Coordination Sequence:
#
# PCOD9403394 Si02
#       7
#     8   8   8   8   8   8   8
#     4   9  19  35  54  78 110 148 187 225 266 313
#     4  11  21  33  53  80 111 145 181 223 270 321
#     4  10  20  33  51  78 110 142 177 217 263 317
#     4  12  25  40  58  79 106 138 176 221 265 317
#     4  10  21  39  62  85 110 140 174 215 267 325
#     4  10  21  38  58  78 104 139 177 219 268 320
#     4  10  21  37  57  82 111 142 178 221 268 319
#
# _framework density 18.207402999999999
#
# number of rings (size 3 to 8) (size 9 to 14) (size 15 to 20)
#    0.000    1.714    0.000    4.714    0.000    5.714 
#    0.000    1.429    0.000    0.429    0.000    0.000 
#    0.000    0.000    0.000    0.000    0.000    0.000 
#
# Total GULP energy -313059.772016 kJ/mol
# GULP energy per Si atom -5590.353072 kJ/mol
# Density = 1.816596 g / cm^3
# Si number density = 18.207403 Si / 1000 Ang^3
#
#
#
# Elastic Constant Matrix: (Units=GPa)
#
#
# Indices 1 2 3 4 5 6 
#
# 1 83.9786 32.6080 33.1008 0.0000 0.0000 0.0000
# 2 32.6080 62.5683 52.9345 0.0000 0.0000 0.0000
# 3 33.1008 52.9345 93.7867 0.0000 0.0000 0.0000
# 4 0.0000 0.0000 0.0000 21.1917 0.0000 0.0000
# 5 0.0000 0.0000 0.0000 0.0000 32.2955 0.0000
# 6 0.0000 0.0000 0.0000 0.0000 0.0000 30.2762
#
#
#
# Elastic Compliance Matrix: (Units=1/GPa)
#
#
# Indices 1 2 3 4 5 6 
#
# 1 0.015068 -0.006419 -0.001695 0.000000 0.000000 0.000000
# 2 -0.006419 0.033323 -0.016543 0.000000 0.000000 0.000000
# 3 -0.001695 -0.016543 0.020598 0.000000 0.000000 0.000000
# 4 0.000000 0.000000 0.000000 0.047188 0.000000 0.000000
# 5 0.000000 0.000000 0.000000 0.000000 0.030964 0.000000
# 6 0.000000 0.000000 0.000000 0.000000 0.000000 0.033029
#
#
# Mechanical properties :
#
#
# Convention : Reuss Voigt Hill
#
# Bulk Modulus (GPa) = 50.82369 53.06892 51.94630
# Shear Modulus (GPa) = 21.18254 24.86535 23.02394
#
# Velocity S-wave (km/s) = 3.41457 3.69951 3.55989
# Velocity P-wave (km/s) = 6.59697 6.88902 6.74458
#
# Compressibility (1/GPa) = 0.01967586
#
# Stress axis : x y z
#
# Youngs Moduli (GPa) = 66.36432 30.00899 48.54877
#
# Poissons Ratio (x) = 0.19262 0.08231
# Poissons Ratio (y) = 0.42597 0.80313
# Poissons Ratio (z) = 0.11251 0.49643
#
# Static dielectric constant tensor:
#      x y z
#    x 1.605170 0.000000 0.000000 
#    y 0.000000 1.648470 0.000000 
#    z 0.000000 0.000000 1.588360 
# 
# From -- ./inp_files/31867.got.cif
#   From: 2010.05.17/outbox.cif.g08.bks.cpg/sg51_16_cif.got.tgz:31867.got - 2010.06.03 11:52:47.
