data_PCOD9403337
_publ_section_title
;
Structure prediction by ZEFSAII (Michael W. Deem and Ramdas Pophale) SiO2 
 PCOD9403337
Probable space group: P M M A
;
_chemical_formula_sum "Si O2"
_cell_formula_units_Z 44
_cell_length_a 9.325265
_cell_length_b 7.503407
_cell_length_c 31.384563
_cell_angle_alpha 90.000000
_cell_angle_beta 90.000000
_cell_angle_gamma 90.000000
_cell_volume 2196.017376
_symmetry_space_group_name_H-M "P M M A"
_symmetry_group_IT_number 51
_symmetry_cell_setting 'orthorhombic'
loop_
_space_group_symop_operation_xyz
x,y,z
1/2-x,-y,z
1/2+x,-y,-z
-x,y,-z
-x,-y,-z
1/2+x,y,-z
1/2-x,y,z
x,-y,z
loop_
_atom_site_type_symbol
_atom_site_label
_atom_site_fract_x
_atom_site_fract_y
_atom_site_fract_z
Si Si1 0.076485 0.000000 0.545231
Si Si2 0.914748 0.281926 0.790443
Si Si3 0.424428 0.296455 0.612732
Si Si4 0.412698 0.286120 0.873424
Si Si5 0.915393 0.717516 0.293099
Si Si6 0.912672 0.213519 0.959170
O O1 0.034928 0.169987 0.574045
O O2 0.000000 0.000000 0.500000
O O3 0.250000 0.000000 0.540217
O O4 0.750000 0.225781 0.793464
O O5 0.916022 0.500000 0.790537
O O6 0.005417 0.221497 0.831292
O O7 0.988363 0.225149 0.746384
O O8 0.250000 0.298231 0.614364
O O9 0.472845 0.500000 0.606851
O O10 0.467796 0.229543 0.659791
O O11 0.250000 0.217958 0.876421
O O12 0.404660 0.500000 0.869565
O O13 0.502207 0.247950 0.915801
O O14 0.750000 0.773901 0.287151
O O15 0.914286 0.500000 0.293729
O O16 0.750000 0.282800 0.957408
O O17 0.903589 0.000000 0.963891
O O18 0.000000 0.282702 0.000000
#
# Coordination Sequence:
#
# PCOD9403337 Si02
#       6
#     4   8   8   8   8   8
#     4  10  20  34  52  74 102 136 172 214 263 312
#     4   9  16  26  43  70 102 132 162 199 246 299
#     4   8  15  29  50  74  99 131 172 215 258 308
#     4  10  20  33  51  76 104 134 169 209 251 298
#     4   8  13  24  44  67  90 121 162 202 239 287
#     4  10  21  37  56  75  96 127 166 208 256 310
#
# _framework density 20.036272
#
# number of rings (size 3 to 8) (size 9 to 14) (size 15 to 20)
#    0.000    2.909    0.000    2.727    0.000    5.091 
#    0.000    0.909    2.000    1.091    0.000    0.000 
#    0.000    0.000    0.000    0.000    0.000    0.000 
#
# Total GULP energy -245598.938177 kJ/mol
# GULP energy per Si atom -5581.794049 kJ/mol
# Density = 1.999067 g / cm^3
# Si number density = 20.036272 Si / 1000 Ang^3
#
#
#
# Elastic Constant Matrix: (Units=GPa)
#
#
# Indices 1 2 3 4 5 6 
#
# 1 145.2885 23.3457 111.6536 0.0000 0.0000 0.0000
# 2 23.3457 65.2282 38.9896 0.0000 0.0000 0.0000
# 3 111.6536 38.9896 236.4790 0.0000 0.0000 0.0000
# 4 0.0000 0.0000 0.0000 36.4894 0.0000 0.0000
# 5 0.0000 0.0000 0.0000 0.0000 38.5464 0.0000
# 6 0.0000 0.0000 0.0000 0.0000 0.0000 7.3478
#
#
#
# Elastic Compliance Matrix: (Units=1/GPa)
#
#
# Indices 1 2 3 4 5 6 
#
# 1 0.010851 -0.000911 -0.004973 0.000000 0.000000 0.000000
# 2 -0.000911 0.017083 -0.002386 0.000000 0.000000 0.000000
# 3 -0.004973 -0.002386 0.006970 0.000000 0.000000 0.000000
# 4 0.000000 0.000000 0.000000 0.027405 0.000000 0.000000
# 5 0.000000 0.000000 0.000000 0.000000 0.025943 0.000000
# 6 0.000000 0.000000 0.000000 0.000000 0.000000 0.136095
#
#
# Mechanical properties :
#
#
# Convention : Reuss Voigt Hill
#
# Bulk Modulus (GPa) = 54.45619 88.33040 71.39329
# Shear Modulus (GPa) = 20.24205 34.67716 27.45960
#
# Velocity S-wave (km/s) = 3.18192 4.16470 3.70604
# Velocity P-wave (km/s) = 6.38258 8.20410 7.34999
#
# Compressibility (1/GPa) = 0.01836338
#
# Stress axis : x y z
#
# Youngs Moduli (GPa) = 92.15675 58.53645 143.46696
#
# Poissons Ratio (x) = 0.05333 0.71348
# Poissons Ratio (y) = 0.08396 0.34238
# Poissons Ratio (z) = 0.45831 0.13970
#
# Static dielectric constant tensor:
#      x y z
#    x 1.682760 0.000000 0.000000 
#    y 0.000000 1.773960 0.000000 
#    z 0.000000 0.000000 1.670920 
# 
# From -- ./inp_files/36731.got.cif
#   From: 2010.05.17/outbox.cif.g08.bks.cpg/sg51_19_cif.got.tgz:36731.got - 2010.06.03 11:52:47.
