data_PCOD9403652
_publ_section_title
;
Structure prediction by ZEFSAII (Michael W. Deem and Ramdas Pophale) SiO2 
 PCOD9403652
Probable space group: P M M A
;
_chemical_formula_sum "Si O2"
_cell_formula_units_Z 56
_cell_length_a 14.175802
_cell_length_b 7.716739
_cell_length_c 24.708204
_cell_angle_alpha 90.000000
_cell_angle_beta 90.000000
_cell_angle_gamma 90.000000
_cell_volume 2702.854258
_symmetry_space_group_name_H-M "P M M A"
_symmetry_group_IT_number 51
_symmetry_cell_setting 'orthorhombic'
loop_
_space_group_symop_operation_xyz
x,y,z
1/2-x,-y,z
1/2+x,-y,-z
-x,y,-z
-x,-y,-z
1/2+x,y,-z
1/2-x,y,z
x,-y,z
loop_
_atom_site_type_symbol
_atom_site_label
_atom_site_fract_x
_atom_site_fract_y
_atom_site_fract_z
Si Si1 0.858366 0.790563 0.354100
Si Si2 0.360870 0.207525 0.527162
Si Si3 0.855803 0.788579 0.027798
Si Si4 0.542655 0.703569 0.698190
Si Si5 0.044268 0.788262 0.083490
Si Si6 0.858188 0.292400 0.590157
Si Si7 0.856465 0.205304 0.808437
O O1 0.750000 0.734959 0.346425
O O2 0.892605 0.727437 0.413845
O O3 0.931483 0.732309 0.309052
O O4 0.858249 0.000000 0.354946
O O5 0.250000 0.260210 0.524679
O O6 0.402215 0.255254 0.468837
O O7 0.364756 0.000000 0.529491
O O8 0.750000 0.728206 0.039102
O O9 0.938053 0.732122 0.068797
O O10 0.854658 0.000000 0.028821
O O11 0.889964 0.739697 0.967440
O O12 0.561672 0.500000 0.698985
O O13 0.589194 0.777364 0.643035
O O14 0.588046 0.774319 0.752513
O O15 0.086354 0.724531 0.139977
O O16 0.042464 0.000000 0.084439
O O17 0.750000 0.226584 0.590582
O O18 0.854870 0.500000 0.594214
O O19 0.750000 0.276652 0.804447
O O20 0.847925 0.000000 0.818005
#
# Coordination Sequence:
#
# PCOD9403652 Si02
#       7
#     8   8   8   8   8   8   8
#     4   9  19  37  57  75  97 125 160 205 254 305
#     4   8  15  29  50  74  97 122 154 195 246 302
#     4   8  12  20  38  66 100 133 162 200 253 305
#     4  11  23  36  51  72  99 132 171 212 252 298
#     4   8  14  24  40  66  99 132 167 206 250 303
#     4   9  18  32  48  68  97 130 162 200 247 298
#     4  10  20  34  52  73  99 133 172 212 253 299
#
# _framework density 20.718837000000001
#
# number of rings (size 3 to 8) (size 9 to 14) (size 15 to 20)
#    0.000    3.000    0.000    3.000    0.000    5.143 
#    0.000    6.429    0.000    2.571    0.000    2.000 
#    0.000    1.143    0.000    0.000    0.000    0.000 
#
# Total GULP energy -312355.803316 kJ/mol
# GULP energy per Si atom -5577.782202 kJ/mol
# Density = 2.067168 g / cm^3
# Si number density = 20.718837 Si / 1000 Ang^3
#
#
#
# Elastic Constant Matrix: (Units=GPa)
#
#
# Indices 1 2 3 4 5 6 
#
# 1 147.9144 -1.9194 99.6252 0.0000 0.0000 0.0000
# 2 -1.9194 27.8789 2.6670 0.0000 0.0000 0.0000
# 3 99.6252 2.6670 161.9622 0.0000 0.0000 0.0000
# 4 0.0000 0.0000 0.0000 49.9651 0.0000 0.0000
# 5 0.0000 0.0000 0.0000 0.0000 25.7477 0.0000
# 6 0.0000 0.0000 0.0000 0.0000 0.0000 2.4515
#
#
#
# Elastic Compliance Matrix: (Units=1/GPa)
#
#
# Indices 1 2 3 4 5 6 
#
# 1 0.011604 0.001484 -0.007162 0.000000 0.000000 0.000000
# 2 0.001484 0.036116 -0.001508 0.000000 0.000000 0.000000
# 3 -0.007162 -0.001508 0.010605 0.000000 0.000000 0.000000
# 4 0.000000 0.000000 0.000000 0.020014 0.000000 0.000000
# 5 0.000000 0.000000 0.000000 0.000000 0.038838 0.000000
# 6 0.000000 0.000000 0.000000 0.000000 0.000000 0.407912
#
#
# Mechanical properties :
#
#
# Convention : Reuss Voigt Hill
#
# Bulk Modulus (GPa) = 22.75156 59.83344 41.29250
# Shear Modulus (GPa) = 9.02347 31.45839 20.24093
#
# Velocity S-wave (km/s) = 2.08918 3.90082 3.12898
# Velocity P-wave (km/s) = 4.10177 7.01641 5.74693
#
# Compressibility (1/GPa) = 0.04395303
#
# Stress axis : x y z
#
# Youngs Moduli (GPa) = 86.17833 27.68869 94.29847
#
# Poissons Ratio (x) = -0.04109 0.67538
# Poissons Ratio (y) = -0.12790 0.14216
# Poissons Ratio (z) = 0.61722 0.04174
#
# Static dielectric constant tensor:
#      x y z
#    x 1.775050 0.000000 0.000000 
#    y 0.000000 1.756920 0.000000 
#    z 0.000000 0.000000 1.729200 
# 
# From -- ./inp_files/33402.got.cif
#   From: 2010.05.17/outbox.cif.g08.bks.cpg/sg51_17_cif.got.tgz:33402.got - 2010.06.03 11:52:47.
