data_PCOD9403396
_publ_section_title
;
Structure prediction by ZEFSAII (Michael W. Deem and Ramdas Pophale) SiO2 
 PCOD9403396
Probable space group: P M M A
;
_chemical_formula_sum "Si O2"
_cell_formula_units_Z 38
_cell_length_a 9.493494
_cell_length_b 7.432833
_cell_length_c 26.921699
_cell_angle_alpha 90.000000
_cell_angle_beta 90.000000
_cell_angle_gamma 90.000000
_cell_volume 1899.690801
_symmetry_space_group_name_H-M "P M M A"
_symmetry_group_IT_number 51
_symmetry_cell_setting 'orthorhombic'
loop_
_space_group_symop_operation_xyz
x,y,z
1/2-x,-y,z
1/2+x,-y,-z
-x,y,-z
-x,-y,-z
1/2+x,y,-z
1/2-x,y,z
x,-y,z
loop_
_atom_site_type_symbol
_atom_site_label
_atom_site_fract_x
_atom_site_fract_y
_atom_site_fract_z
Si Si1 0.026007 0.500000 0.422000
Si Si2 0.087033 0.280136 0.951237
Si Si3 0.914155 0.785682 0.662074
Si Si4 0.410253 0.784082 0.757894
Si Si5 0.910275 0.714151 0.856294
Si Si6 0.750000 0.500000 0.487469
O O1 0.052944 0.672561 0.386943
O O2 0.130784 0.500000 0.468147
O O3 0.872119 0.500000 0.444613
O O4 0.250000 0.222051 0.952071
O O5 0.089407 0.500000 0.950759
O O6 0.003727 0.217984 0.902281
O O7 0.000000 0.226224 0.000000
O O8 0.750000 0.757492 0.675581
O O9 0.013170 0.724867 0.707380
O O10 0.933801 0.000000 0.653872
O O11 0.250000 0.716286 0.762934
O O12 0.506269 0.741997 0.805246
O O13 0.403196 0.000000 0.754941
O O14 0.750000 0.785133 0.854838
O O15 0.899267 0.500000 0.863599
#
# Coordination Sequence:
#
# PCOD9403396 Si02
#       6
#     4   8   8   8   8   2
#     4  11  22  44  64  92 128 162 197 252 288 350
#     4   9  16  27  45  70 103 142 184 233 285 339
#     4  10  21  39  63  89 119 160 202 242 297 355
#     4  10  22  38  56  81 112 145 187 236 286 344
#     4  10  20  33  51  78 110 143 186 232 285 346
#     4  10  24  42  66  94 128 160 204 242 300 338
#
# _framework density 20.003254999999999
#
# number of rings (size 3 to 8) (size 9 to 14) (size 15 to 20)
#    0.000    2.105    1.053    1.895    2.947    5.053 
#    0.000    3.158    0.000    0.632    0.000    0.000 
#    0.000    0.000    0.000    0.000    0.000    0.000 
#
# Total GULP energy -211721.565943 kJ/mol
# GULP energy per Si atom -5571.620156 kJ/mol
# Density = 1.995773 g / cm^3
# Si number density = 20.003255 Si / 1000 Ang^3
#
#
#
# Elastic Constant Matrix: (Units=GPa)
#
#
# Indices 1 2 3 4 5 6 
#
# 1 236.3746 29.0483 94.1058 0.0000 0.0000 0.0000
# 2 29.0483 64.1091 23.9919 0.0000 0.0000 0.0000
# 3 94.1058 23.9919 131.4273 0.0000 0.0000 0.0000
# 4 0.0000 0.0000 0.0000 -71.5149 0.0000 0.0000
# 5 0.0000 0.0000 0.0000 0.0000 45.1721 0.0000
# 6 0.0000 0.0000 0.0000 0.0000 0.0000 -24.5891
#
#
#
# Elastic Compliance Matrix: (Units=1/GPa)
#
#
# Indices 1 2 3 4 5 6 
#
# 1 0.006001 -0.001193 -0.004079 0.000000 0.000000 0.000000
# 2 -0.001193 0.016979 -0.002246 0.000000 0.000000 0.000000
# 3 -0.004079 -0.002246 0.010940 0.000000 0.000000 0.000000
# 4 0.000000 0.000000 0.000000 -0.013983 0.000000 0.000000
# 5 0.000000 0.000000 0.000000 0.000000 0.022138 0.000000
# 6 0.000000 0.000000 0.000000 0.000000 0.000000 -0.040668
#
#
# Mechanical properties :
#
#
# Convention : Reuss Voigt Hill
#
# Bulk Modulus (GPa) = 52.95217 80.68922 66.82069
# Shear Modulus (GPa) = 219.91500 8.79794 114.35647
#
# Velocity S-wave (km/s) = 10.49658 2.09948 7.56922
# Velocity P-wave (km/s) = 13.16942 6.80461 10.48180
#
# Compressibility (1/GPa) = 0.01888497
#
# Stress axis : x y z
#
# Youngs Moduli (GPa) = 166.63340 58.89571 91.41079
#
# Poissons Ratio (x) = 0.07024 0.37290
# Poissons Ratio (y) = 0.19872 0.20527
# Poissons Ratio (z) = 0.67975 0.13226
#
# Static dielectric constant tensor:
#      x y z
#    x 1.697450 0.000000 0.000000 
#    y 0.000000 1.767020 0.000000 
#    z 0.000000 0.000000 1.649910 
# 
# From -- ./inp_files/34351.got.cif
#   From: 2010.05.17/outbox.cif.g08.bks.cpg/sg51_18_cif.got.tgz:34351.got - 2010.06.03 11:52:47.
