data_PCOD9403288
_publ_section_title
;
Structure prediction by ZEFSAII (Michael W. Deem and Ramdas Pophale) SiO2 
 PCOD9403288
Probable space group: P M M A
;
_chemical_formula_sum "Si O2"
_cell_formula_units_Z 48
_cell_length_a 9.774908
_cell_length_b 7.584366
_cell_length_c 35.698636
_cell_angle_alpha 90.000000
_cell_angle_beta 90.000000
_cell_angle_gamma 90.000000
_cell_volume 2646.571210
_symmetry_space_group_name_H-M "P M M A"
_symmetry_group_IT_number 51
_symmetry_cell_setting 'orthorhombic'
loop_
_space_group_symop_operation_xyz
x,y,z
1/2-x,-y,z
1/2+x,-y,-z
-x,y,-z
-x,-y,-z
1/2+x,y,-z
1/2-x,y,z
x,-y,z
loop_
_atom_site_type_symbol
_atom_site_label
_atom_site_fract_x
_atom_site_fract_y
_atom_site_fract_z
Si Si1 0.087062 0.000000 0.097552
Si Si2 0.911309 0.293163 0.963727
Si Si3 0.407282 0.284412 0.685047
Si Si4 0.083793 0.701306 0.768007
Si Si5 0.094221 0.211544 0.466481
Si Si6 0.584559 0.000000 0.173188
Si Si7 0.594052 0.288386 0.617019
O O1 0.057694 0.830384 0.071487
O O2 0.250000 0.000000 0.106290
O O3 0.995820 0.000000 0.134455
O O4 0.750000 0.271271 0.972308
O O5 0.935933 0.500000 0.955594
O O6 0.000000 0.244365 0.000000
O O7 0.250000 0.227300 0.680416
O O8 0.406125 0.500000 0.685159
O O9 0.458705 0.234766 0.726551
O O10 0.500324 0.223081 0.650823
O O11 0.250000 0.698406 0.766303
O O12 0.037441 0.500000 0.773847
O O13 0.046987 0.830891 0.801448
O O14 0.250000 0.280067 0.468740
O O15 0.041010 0.249047 0.424697
O O16 0.000000 0.279539 0.500000
O O17 0.100778 0.000000 0.470190
O O18 0.750000 0.000000 0.167667
O O19 0.750000 0.220697 0.619345
O O20 0.599497 0.500000 0.620452
#
# Coordination Sequence:
#
# PCOD9403288 Si02
#       7
#     4   8   8   8   8   4   8
#     4  10  21  35  49  70 106 140 164 203 257 300
#     4   9  18  33  53  76 102 134 171 210 253 299
#     4   8  14  27  47  67  88 115 143 176 224 275
#     4   8  15  30  50  70  95 125 157 200 249 287
#     4   9  18  32  46  59  82 115 145 173 210 257
#     4  10  20  33  51  74  97 128 173 211 240 288
#     4   9  17  29  45  66  90 112 138 176 220 265
#
# _framework density 18.136675
#
# number of rings (size 3 to 8) (size 9 to 14) (size 15 to 20)
#    0.000    3.167    0.000    1.250    0.000    2.333 
#    1.500    0.833    0.000    1.000    0.000    0.000 
#    0.000    0.000    0.000    0.000    0.000    0.000 
#
# Total GULP energy -267544.057812 kJ/mol
# GULP energy per Si atom -5573.834538 kJ/mol
# Density = 1.809539 g / cm^3
# Si number density = 18.136675 Si / 1000 Ang^3
#
#
#
# Elastic Constant Matrix: (Units=GPa)
#
#
# Indices 1 2 3 4 5 6 
#
# 1 53.3117 29.8879 88.1793 0.0000 0.0000 0.0000
# 2 29.8879 65.8526 61.3759 0.0000 0.0000 0.0000
# 3 88.1793 61.3759 209.8470 0.0000 0.0000 0.0000
# 4 0.0000 0.0000 0.0000 12.7862 0.0000 0.0000
# 5 0.0000 0.0000 0.0000 0.0000 37.1757 0.0000
# 6 0.0000 0.0000 0.0000 0.0000 0.0000 6.6088
#
#
#
# Elastic Compliance Matrix: (Units=1/GPa)
#
#
# Indices 1 2 3 4 5 6 
#
# 1 0.062863 -0.005377 -0.024843 0.000000 0.000000 0.000000
# 2 -0.005377 0.021336 -0.003981 0.000000 0.000000 0.000000
# 3 -0.024843 -0.003981 0.016369 0.000000 0.000000 0.000000
# 4 0.000000 0.000000 0.000000 0.078209 0.000000 0.000000
# 5 0.000000 0.000000 0.000000 0.000000 0.026899 0.000000
# 6 0.000000 0.000000 0.000000 0.000000 0.000000 0.151314
#
#
# Mechanical properties :
#
#
# Convention : Reuss Voigt Hill
#
# Bulk Modulus (GPa) = 31.08833 76.43304 53.76069
# Shear Modulus (GPa) = 11.46490 21.28536 16.37513
#
# Velocity S-wave (km/s) = 2.51696 3.42951 3.00805
# Velocity P-wave (km/s) = 5.06213 7.61028 6.46303
#
# Compressibility (1/GPa) = 0.03216641
#
# Stress axis : x y z
#
# Youngs Moduli (GPa) = 15.90763 46.86891 61.09170
#
# Poissons Ratio (x) = 0.25202 1.51769
# Poissons Ratio (y) = 0.08554 0.24320
# Poissons Ratio (z) = 0.39519 0.18658
#
# Static dielectric constant tensor:
#      x y z
#    x 1.612550 0.000000 0.000000 
#    y 0.000000 1.660790 0.000000 
#    z 0.000000 0.000000 1.599390 
# 
# From -- ./inp_files/37217.got.cif
#   From: 2010.05.17/outbox.cif.g08.bks.cpg/sg51_19_cif.got.tgz:37217.got - 2010.06.03 11:52:47.
