data_PCOD9403538
_publ_section_title
;
Structure prediction by ZEFSAII (Michael W. Deem and Ramdas Pophale) SiO2 
 PCOD9403538
Probable space group: P M M A
;
_chemical_formula_sum "Si O2"
_cell_formula_units_Z 48
_cell_length_a 23.350173
_cell_length_b 9.261403
_cell_length_c 10.789477
_cell_angle_alpha 90.000000
_cell_angle_beta 90.000000
_cell_angle_gamma 90.000000
_cell_volume 2333.282257
_symmetry_space_group_name_H-M "P M M A"
_symmetry_group_IT_number 51
_symmetry_cell_setting 'orthorhombic'
loop_
_space_group_symop_operation_xyz
x,y,z
1/2-x,-y,z
1/2+x,-y,-z
-x,y,-z
-x,-y,-z
1/2+x,y,-z
1/2-x,y,z
x,-y,z
loop_
_atom_site_type_symbol
_atom_site_label
_atom_site_fract_x
_atom_site_fract_y
_atom_site_fract_z
Si Si1 0.370037 0.830181 0.071425
Si Si2 0.587121 0.166666 0.559632
Si Si3 0.486281 0.165098 0.185694
Si Si4 0.317806 0.330872 0.302889
Si Si5 0.919012 0.329401 0.316033
Si Si6 0.682520 0.831065 0.201517
O O1 0.438142 0.799656 0.083151
O O2 0.337346 0.730815 0.169772
O O3 0.364078 0.000000 0.108112
O O4 0.342332 0.813639 0.937355
O O5 0.549569 0.170490 0.684928
O O6 0.647329 0.237300 0.598095
O O7 0.563037 0.257378 0.445698
O O8 0.592134 0.000000 0.522005
O O9 0.538870 0.270125 0.209268
O O10 0.506655 0.000000 0.167193
O O11 0.250000 0.316280 0.316901
O O12 0.333306 0.500000 0.313490
O O13 0.920900 0.500000 0.323031
O O14 0.855761 0.270134 0.287077
O O15 0.750000 0.799350 0.204243
O O16 0.674528 0.000000 0.235467
#
# Coordination Sequence:
#
# PCOD9403538 Si02
#       6
#     8   8   8   8   8   8
#     4   9  19  37  62  88 112 144 189 239 284 329
#     4  10  21  38  60  83 110 149 194 238 283 333
#     4   9  19  37  61  88 115 143 181 232 285 336
#     4  10  20  33  53  84 119 151 184 230 288 343
#     4  12  25  38  56  83 117 154 188 229 282 340
#     4  10  22  41  63  84 110 150 197 238 277 328
#
# _framework density 20.57188
#
# number of rings (size 3 to 8) (size 9 to 14) (size 15 to 20)
#    0.000    2.000    0.000    4.500    0.000    9.667 
#    0.000    3.333    0.000    0.000    0.000    0.000 
#    0.000    0.000    0.000    0.000    0.000    0.000 
#
# Total GULP energy -268338.887163 kJ/mol
# GULP energy per Si atom -5590.393483 kJ/mol
# Density = 2.052506 g / cm^3
# Si number density = 20.571880 Si / 1000 Ang^3
#
#
#
# Elastic Constant Matrix: (Units=GPa)
#
#
# Indices 1 2 3 4 5 6 
#
# 1 94.5132 60.3191 19.2055 0.0000 0.0000 0.0000
# 2 60.3191 123.2331 36.5232 0.0000 0.0000 0.0000
# 3 19.2055 36.5232 60.6582 0.0000 0.0000 0.0000
# 4 0.0000 0.0000 0.0000 -6.6840 0.0000 0.0000
# 5 0.0000 0.0000 0.0000 0.0000 25.0375 0.0000
# 6 0.0000 0.0000 0.0000 0.0000 0.0000 12.4995
#
#
#
# Elastic Compliance Matrix: (Units=1/GPa)
#
#
# Indices 1 2 3 4 5 6 
#
# 1 0.015396 -0.007414 -0.000410 0.000000 0.000000 0.000000
# 2 -0.007414 0.013448 -0.005750 0.000000 0.000000 0.000000
# 3 -0.000410 -0.005750 0.020078 0.000000 0.000000 0.000000
# 4 0.000000 0.000000 0.000000 -0.149612 0.000000 0.000000
# 5 0.000000 0.000000 0.000000 0.000000 0.039940 0.000000
# 6 0.000000 0.000000 0.000000 0.000000 0.000000 0.080003
#
#
# Mechanical properties :
#
#
# Convention : Reuss Voigt Hill
#
# Bulk Modulus (GPa) = 45.92886 56.72223 51.32555
# Shear Modulus (GPa) = 93.18158 16.99439 55.08798
#
# Velocity S-wave (km/s) = 6.73750 2.87731 5.18039
# Velocity P-wave (km/s) = 9.10493 6.21861 7.79650
#
# Compressibility (1/GPa) = 0.02177280
#
# Stress axis : x y z
#
# Youngs Moduli (GPa) = 64.95327 74.36186 49.80649
#
# Poissons Ratio (x) = 0.55133 0.02044
# Poissons Ratio (y) = 0.48157 0.28637
# Poissons Ratio (z) = 0.02666 0.42755
#
# Static dielectric constant tensor:
#      x y z
#    x 1.742930 0.000000 0.000000 
#    y 0.000000 1.683430 0.000000 
#    z 0.000000 0.000000 1.770690 
# 
# From -- ./inp_files/18613.got.cif
#   From: 2010.05.17/outbox.cif.g08.bks.cpg/sg51_10_cif.got.tgz:18613.got - 2010.06.03 11:52:47.
