data_PCOD9403548
_publ_section_title
;
Structure prediction by ZEFSAII (Michael W. Deem and Ramdas Pophale) SiO2 
 PCOD9403548
Probable space group: P M M A
;
_chemical_formula_sum "Si O2"
_cell_formula_units_Z 64
_cell_length_a 15.527773
_cell_length_b 14.629857
_cell_length_c 13.154005
_cell_angle_alpha 90.000000
_cell_angle_beta 90.000000
_cell_angle_gamma 90.000000
_cell_volume 2988.183458
_symmetry_space_group_name_H-M "P M M A"
_symmetry_group_IT_number 51
_symmetry_cell_setting 'orthorhombic'
loop_
_space_group_symop_operation_xyz
x,y,z
1/2-x,-y,z
1/2+x,-y,-z
-x,y,-z
-x,-y,-z
1/2+x,y,-z
1/2-x,y,z
x,-y,z
loop_
_atom_site_type_symbol
_atom_site_label
_atom_site_fract_x
_atom_site_fract_y
_atom_site_fract_z
Si Si1 0.644093 0.396968 0.065189
Si Si2 0.347422 0.784114 0.479130
Si Si3 0.115880 0.895142 0.282297
Si Si4 0.583662 0.103575 0.337936
Si Si5 0.146728 0.212047 0.856144
Si Si6 0.652052 0.611077 0.841364
Si Si7 0.645940 0.105197 0.945036
Si Si8 0.855774 0.604672 0.619264
O O1 0.750000 0.400246 0.061171
O O2 0.614826 0.500000 0.088196
O O3 0.617256 0.317372 0.141250
O O4 0.614112 0.368241 0.951625
O O5 0.250000 0.778185 0.519845
O O6 0.343728 0.833086 0.369428
O O7 0.400609 0.843976 0.557484
O O8 0.381570 0.681933 0.460215
O O9 0.123839 0.858621 0.167290
O O10 0.016583 0.900329 0.312646
O O11 0.150006 0.000000 0.282263
O O12 0.624714 0.157858 0.244652
O O13 0.617764 0.000000 0.344970
O O14 0.250000 0.214218 0.864809
O O15 0.113786 0.160761 0.957514
O O16 0.750000 0.648272 0.842167
O O17 0.658049 0.500000 0.840419
O O18 0.612606 0.633363 0.732228
O O19 0.750000 0.104089 0.949953
O O20 0.615369 0.000000 0.951268
O O21 0.750000 0.605820 0.623766
O O22 0.880777 0.500000 0.597640
#
# Coordination Sequence:
#
# PCOD9403548 Si02
#       8
#     8   8   8   8   8   8   8   8
#     4   8  14  25  44  74 110 143 176 217 268 323
#     4  11  22  35  59  88 111 138 181 234 282 321
#     4  10  22  39  58  80 109 144 181 228 285 339
#     4  11  24  41  57  74 105 153 197 225 265 337
#     4  10  20  33  54  82 112 145 185 229 273 318
#     4   7  10  19  38  66 102 138 165 199 254 316
#     4   9  18  33  55  85 114 135 167 225 286 327
#     4   8  15  28  48  79 115 143 171 214 272 331
#
# _framework density 21.417694999999998
#
# number of rings (size 3 to 8) (size 9 to 14) (size 15 to 20)
#    0.000    2.750    0.000    3.375    1.750    4.250 
#    0.000    2.500    0.000    5.250    0.000    0.875 
#    0.000    0.000    0.000    0.000    0.000    0.000 
#
# Total GULP energy -357175.675306 kJ/mol
# GULP energy per Si atom -5580.869927 kJ/mol
# Density = 2.136895 g / cm^3
# Si number density = 21.417695 Si / 1000 Ang^3
#
#
#
# Elastic Constant Matrix: (Units=GPa)
#
#
# Indices 1 2 3 4 5 6 
#
# 1 11.5484 12.4288 2.9191 0.0000 0.0000 0.0000
# 2 12.4288 144.2935 79.6273 0.0000 0.0000 0.0000
# 3 2.9191 79.6273 111.3424 0.0000 0.0000 0.0000
# 4 0.0000 0.0000 0.0000 33.4762 0.0000 0.0000
# 5 0.0000 0.0000 0.0000 0.0000 -5.2130 0.0000
# 6 0.0000 0.0000 0.0000 0.0000 0.0000 -88.9814
#
#
#
# Elastic Compliance Matrix: (Units=1/GPa)
#
#
# Indices 1 2 3 4 5 6 
#
# 1 0.097584 -0.011553 0.005704 0.000000 0.000000 0.000000
# 2 -0.011553 0.012816 -0.008863 0.000000 0.000000 0.000000
# 3 0.005704 -0.008863 0.015170 0.000000 0.000000 0.000000
# 4 0.000000 0.000000 0.000000 0.029872 0.000000 0.000000
# 5 0.000000 0.000000 0.000000 0.000000 -0.191830 0.000000
# 6 0.000000 0.000000 0.000000 0.000000 0.000000 -0.011238
#
#
# Mechanical properties :
#
#
# Convention : Reuss Voigt Hill
#
# Bulk Modulus (GPa) = 10.40080 50.79275 30.59677
# Shear Modulus (GPa) = 361.08672 -0.66302 180.21185
#
# Velocity S-wave (km/s) = 12.99841 -0.55699 9.18282
# Velocity P-wave (km/s) = 15.17053 4.83251 11.25829
#
# Compressibility (1/GPa) = 0.09614647
#
# Stress axis : x y z
#
# Youngs Moduli (GPa) = 10.24758 78.02544 65.91928
#
# Poissons Ratio (x) = 0.90144 -0.37600
# Poissons Ratio (y) = 0.11839 0.58423
# Poissons Ratio (z) = -0.05845 0.69152
#
# Static dielectric constant tensor:
#      x y z
#    x 1.802850 0.000000 0.000000 
#    y 0.000000 1.811500 0.000000 
#    z 0.000000 0.000000 1.759360 
# 
# From -- ./inp_files/17514.got.cif
#   From: 2010.05.17/outbox.cif.g08.bks.cpg/sg51_9_cif.got.tgz:17514.got - 2010.06.03 11:52:47.
