data_PCOD9403751
_publ_section_title
;
Structure prediction by ZEFSAII (Michael W. Deem and Ramdas Pophale) SiO2 
 PCOD9403751
Probable space group: P M M A
;
_chemical_formula_sum "Si O2"
_cell_formula_units_Z 40
_cell_length_a 8.077042
_cell_length_b 7.559417
_cell_length_c 30.163450
_cell_angle_alpha 90.000000
_cell_angle_beta 90.000000
_cell_angle_gamma 90.000000
_cell_volume 1841.711744
_symmetry_space_group_name_H-M "P M M A"
_symmetry_group_IT_number 51
_symmetry_cell_setting 'orthorhombic'
loop_
_space_group_symop_operation_xyz
x,y,z
1/2-x,-y,z
1/2+x,-y,-z
-x,y,-z
-x,-y,-z
1/2+x,y,-z
1/2-x,y,z
x,-y,z
loop_
_atom_site_type_symbol
_atom_site_label
_atom_site_fract_x
_atom_site_fract_y
_atom_site_fract_z
Si Si1 0.750000 0.282653 0.711113
Si Si2 0.939887 0.715820 0.450780
Si Si3 0.940642 0.790817 0.856699
Si Si4 0.750000 0.284060 0.608709
Si Si5 0.437241 0.287068 0.047473
Si Si6 0.570870 0.293448 0.237464
O O1 0.750000 0.500000 0.712955
O O2 0.750000 0.230999 0.659894
O O3 0.586791 0.218990 0.736798
O O4 0.750000 0.773546 0.442490
O O5 0.937379 0.500000 0.449900
O O6 0.000000 0.767187 0.500000
O O7 0.082416 0.772918 0.416515
O O8 0.750000 0.720758 0.855887
O O9 0.017394 0.758018 0.905361
O O10 0.037250 0.715493 0.815048
O O11 0.933326 0.000000 0.850411
O O12 0.750000 0.500000 0.607412
O O13 0.250000 0.221042 0.051438
O O14 0.436999 0.500000 0.045088
O O15 0.500000 0.221992 0.000000
O O16 0.750000 0.213616 0.247547
O O17 0.577937 0.500000 0.249752
#
# Coordination Sequence:
#
# PCOD9403751 Si02
#       6
#     4   8   8   4   8   8
#     4   9  18  32  47  65  93 123 163 221 266 299
#     4   9  14  20  31  48  74 110 153 198 245 298
#     4  10  20  34  53  76 101 132 170 211 259 308
#     4   9  16  24  36  55  79 113 155 205 256 293
#     4   9  18  32  50  72 101 136 171 207 248 299
#     4  10  20  34  54  75  96 129 171 211 258 314
#
# _framework density 21.718924999999999
#
# number of rings (size 3 to 8) (size 9 to 14) (size 15 to 20)
#    0.000    2.600    2.000    0.600    0.000    3.200 
#    0.000    6.000    0.000    0.000    0.000    0.000 
#    0.000    0.000    0.000    0.000    0.000    4.000 
#
# Total GULP energy -223181.096237 kJ/mol
# GULP energy per Si atom -5579.527406 kJ/mol
# Density = 2.166949 g / cm^3
# Si number density = 21.718925 Si / 1000 Ang^3
#
#
#
# Elastic Constant Matrix: (Units=GPa)
#
#
# Indices 1 2 3 4 5 6 
#
# 1 191.0037 5.6154 107.4439 0.0000 0.0000 0.0000
# 2 5.6154 52.4296 -5.2936 0.0000 0.0000 0.0000
# 3 107.4439 -5.2936 174.5884 0.0000 0.0000 0.0000
# 4 0.0000 0.0000 0.0000 -54.4335 0.0000 0.0000
# 5 0.0000 0.0000 0.0000 0.0000 20.8474 0.0000
# 6 0.0000 0.0000 0.0000 0.0000 0.0000 -6.4459
#
#
#
# Elastic Compliance Matrix: (Units=1/GPa)
#
#
# Indices 1 2 3 4 5 6 
#
# 1 0.008105 -0.001376 -0.005030 0.000000 0.000000 0.000000
# 2 -0.001376 0.019365 0.001434 0.000000 0.000000 0.000000
# 3 -0.005030 0.001434 0.008867 0.000000 0.000000 0.000000
# 4 0.000000 0.000000 0.000000 -0.018371 0.000000 0.000000
# 5 0.000000 0.000000 0.000000 0.000000 0.047968 0.000000
# 6 0.000000 0.000000 0.000000 0.000000 0.000000 -0.155137
#
#
# Mechanical properties :
#
#
# Convention : Reuss Voigt Hill
#
# Bulk Modulus (GPa) = 37.88793 70.39479 54.14136
# Shear Modulus (GPa) = -70.96071 12.67732 -29.14169
#
# Velocity S-wave (km/s) = -5.72217 2.41861 -3.66698
# Velocity P-wave (km/s) = 5.11616 6.34678 2.65580
#
# Compressibility (1/GPa) = 0.02639363
#
# Stress axis : x y z
#
# Youngs Moduli (GPa) = 123.37502 51.63865 112.78179
#
# Poissons Ratio (x) = 0.07105 0.56728
# Poissons Ratio (y) = 0.16976 -0.16172
# Poissons Ratio (z) = 0.62056 -0.07405
#
# Static dielectric constant tensor:
#      x y z
#    x 1.806370 0.000000 0.000000 
#    y 0.000000 1.794230 0.000000 
#    z 0.000000 0.000000 1.773170 
# 
# From -- ./inp_files/36070.got.cif
#   From: 2010.05.17/outbox.cif.g08.bks.cpg/sg51_19_cif.got.tgz:36070.got - 2010.06.03 11:52:47.
