data_PCOD9403576
_publ_section_title
;
Structure prediction by ZEFSAII (Michael W. Deem and Ramdas Pophale) SiO2 
 PCOD9403576
Probable space group: P M M A
;
_chemical_formula_sum "Si O2"
_cell_formula_units_Z 56
_cell_length_a 15.531359
_cell_length_b 7.455807
_cell_length_c 22.509488
_cell_angle_alpha 90.000000
_cell_angle_beta 90.000000
_cell_angle_gamma 90.000000
_cell_volume 2606.572040
_symmetry_space_group_name_H-M "P M M A"
_symmetry_group_IT_number 51
_symmetry_cell_setting 'orthorhombic'
loop_
_space_group_symop_operation_xyz
x,y,z
1/2-x,-y,z
1/2+x,-y,-z
-x,y,-z
-x,-y,-z
1/2+x,y,-z
1/2-x,y,z
x,-y,z
loop_
_atom_site_type_symbol
_atom_site_label
_atom_site_fract_x
_atom_site_fract_y
_atom_site_fract_z
Si Si1 0.501249 0.218942 0.590398
Si Si2 0.398864 0.284461 0.936559
Si Si3 0.842187 0.787925 0.194850
Si Si4 0.656535 0.283377 0.805645
Si Si5 0.100806 0.718194 0.065346
Si Si6 0.850835 0.218257 0.499389
Si Si7 0.505032 0.211080 0.275413
O O1 0.413137 0.270835 0.555905
O O2 0.588448 0.273051 0.555259
O O3 0.500632 0.283958 0.658065
O O4 0.502483 0.000000 0.589196
O O5 0.395155 0.500000 0.937682
O O6 0.355402 0.228760 0.875720
O O7 0.499674 0.234513 0.932565
O O8 0.365172 0.221437 0.000885
O O9 0.750000 0.710308 0.211417
O O10 0.920334 0.711848 0.233170
O O11 0.840148 0.000000 0.206439
O O12 0.750000 0.224916 0.784632
O O13 0.654654 0.500000 0.807882
O O14 0.642109 0.219707 0.873402
O O15 0.582128 0.227074 0.761602
O O16 0.106466 0.500000 0.065308
O O17 0.750000 0.277989 0.498900
O O18 0.847373 0.000000 0.499445
O O19 0.522306 0.000000 0.283137
#
# Coordination Sequence:
#
# PCOD9403576 Si02
#       7
#     8   8   8   8   8   8   8
#     4   8  15  26  41  65  94 124 157 189 230 279
#     4   9  16  30  53  74  90 116 158 205 250 295
#     4  10  21  34  46  66  98 132 164 199 242 289
#     4  10  20  34  52  72  96 127 161 200 246 293
#     4   8  15  29  50  74  94 114 150 203 252 291
#     4   8  13  23  41  66  95 122 151 193 237 273
#     4  10  20  34  50  69  99 135 165 197 235 282
#
# _framework density 21.484157
#
# number of rings (size 3 to 8) (size 9 to 14) (size 15 to 20)
#    0.000    3.000    1.429    1.714    0.000    2.286 
#    0.000    7.857    0.000    0.000    0.000    2.000 
#    0.000    1.143    0.000    0.000    0.000    0.000 
#
# Total GULP energy -312279.077549 kJ/mol
# GULP energy per Si atom -5576.412099 kJ/mol
# Density = 2.143526 g / cm^3
# Si number density = 21.484157 Si / 1000 Ang^3
#
#
#
# Elastic Constant Matrix: (Units=GPa)
#
#
# Indices 1 2 3 4 5 6 
#
# 1 185.1395 1.4172 109.3472 0.0000 0.0000 0.0000
# 2 1.4172 59.7410 2.0217 0.0000 0.0000 0.0000
# 3 109.3472 2.0217 193.4324 0.0000 0.0000 0.0000
# 4 0.0000 0.0000 0.0000 17.3665 0.0000 0.0000
# 5 0.0000 0.0000 0.0000 0.0000 -216.6660 0.0000
# 6 0.0000 0.0000 0.0000 0.0000 0.0000 8.4557
#
#
#
# Elastic Compliance Matrix: (Units=1/GPa)
#
#
# Indices 1 2 3 4 5 6 
#
# 1 0.008109 -0.000037 -0.004583 0.000000 0.000000 0.000000
# 2 -0.000037 0.016745 -0.000154 0.000000 0.000000 0.000000
# 3 -0.004583 -0.000154 0.007762 0.000000 0.000000 0.000000
# 4 0.000000 0.000000 0.000000 0.057582 0.000000 0.000000
# 5 0.000000 0.000000 0.000000 0.000000 -0.004615 0.000000
# 6 0.000000 0.000000 0.000000 0.000000 0.000000 0.118264
#
#
# Mechanical properties :
#
#
# Convention : Reuss Voigt Hill
#
# Bulk Modulus (GPa) = 43.35235 73.76501 58.55868
# Shear Modulus (GPa) = 22.61576 -16.46698 3.07439
#
# Velocity S-wave (km/s) = 3.24801 -2.77152 1.19754
# Velocity P-wave (km/s) = 5.85565 4.91603 5.40629
#
# Compressibility (1/GPa) = 0.02306680
#
# Stress axis : x y z
#
# Youngs Moduli (GPa) = 123.32435 59.71922 128.82616
#
# Poissons Ratio (x) = 0.00222 0.59047
# Poissons Ratio (y) = 0.00459 0.01983
# Poissons Ratio (z) = 0.56525 0.00919
#
# Static dielectric constant tensor:
#      x y z
#    x 1.771500 0.000000 0.000000 
#    y 0.000000 1.844960 0.000000 
#    z 0.000000 0.000000 1.764870 
# 
# From -- ./inp_files/33337.got.cif
#   From: 2010.05.17/outbox.cif.g08.bks.cpg/sg51_17_cif.got.tgz:33337.got - 2010.06.03 11:52:47.
