data_PCOD9403345
_publ_section_title
;
Structure prediction by ZEFSAII (Michael W. Deem and Ramdas Pophale) SiO2 
 PCOD9403345
Probable space group: P M M A
;
_chemical_formula_sum "Si O2"
_cell_formula_units_Z 48
_cell_length_a 32.824852
_cell_length_b 7.956430
_cell_length_c 9.378864
_cell_angle_alpha 90.000000
_cell_angle_beta 90.000000
_cell_angle_gamma 90.000000
_cell_volume 2449.465129
_symmetry_space_group_name_H-M "P M M A"
_symmetry_group_IT_number 51
_symmetry_cell_setting 'orthorhombic'
loop_
_space_group_symop_operation_xyz
x,y,z
1/2-x,-y,z
1/2+x,-y,-z
-x,y,-z
-x,-y,-z
1/2+x,y,-z
1/2-x,y,z
x,-y,z
loop_
_atom_site_type_symbol
_atom_site_label
_atom_site_fract_x
_atom_site_fract_y
_atom_site_fract_z
Si Si1 0.794158 0.200525 0.102462
Si Si2 0.618169 0.700415 0.084128
Si Si3 0.039104 0.202678 0.412390
Si Si4 0.538652 0.798530 0.910794
Si Si5 0.793691 0.302440 0.431205
Si Si6 0.381368 0.296668 0.587404
O O1 0.750000 0.244505 0.035764
O O2 0.836655 0.249948 0.030579
O O3 0.794652 0.285646 0.258776
O O4 0.794760 0.000000 0.123501
O O5 0.616256 0.500000 0.087405
O O6 0.614005 0.762841 0.248349
O O7 0.580949 0.763663 0.990057
O O8 0.038889 0.267227 0.250598
O O9 0.080384 0.246800 0.493857
O O10 0.000000 0.265337 0.500000
O O11 0.036438 0.000000 0.407336
O O12 0.534036 0.000000 0.902477
O O13 0.500000 0.732390 0.000000
O O14 0.750000 0.227985 0.477989
O O15 0.792942 0.500000 0.467533
O O16 0.837879 0.233409 0.474171
O O17 0.379140 0.500000 0.592100
#
# Coordination Sequence:
#
# PCOD9403345 Si02
#       6
#     8   8   8   8   8   8
#     4   9  16  26  44  72 103 134 169 209 251 293
#     4  10  20  33  51  76 105 137 172 208 249 299
#     4  10  21  36  54  75  98 128 165 204 252 306
#     4  10  21  37  56  76  99 129 167 212 259 305
#     4   8  14  26  44  68 100 134 167 204 244 288
#     4   9  18  31  49  75 103 132 166 204 247 292
#
# _framework density 19.596115000000001
#
# number of rings (size 3 to 8) (size 9 to 14) (size 15 to 20)
#    0.000    2.667    0.000    3.000    0.000    7.000 
#    0.000    0.000    0.000    1.000    0.000    4.667 
#    0.000    0.000    0.000    0.000    0.000    0.000 
#
# Total GULP energy -267474.378571 kJ/mol
# GULP energy per Si atom -5572.382887 kJ/mol
# Density = 1.955151 g / cm^3
# Si number density = 19.596115 Si / 1000 Ang^3
#
#
#
# Elastic Constant Matrix: (Units=GPa)
#
#
# Indices 1 2 3 4 5 6 
#
# 1 237.5133 -1.3248 90.1794 0.0000 0.0000 0.0000
# 2 -1.3248 15.7573 7.9207 0.0000 0.0000 0.0000
# 3 90.1794 7.9207 91.1144 0.0000 0.0000 0.0000
# 4 0.0000 0.0000 0.0000 -5.8275 0.0000 0.0000
# 5 0.0000 0.0000 0.0000 0.0000 23.2591 0.0000
# 6 0.0000 0.0000 0.0000 0.0000 0.0000 32.0131
#
#
#
# Elastic Compliance Matrix: (Units=1/GPa)
#
#
# Indices 1 2 3 4 5 6 
#
# 1 0.007008 0.004262 -0.007307 0.000000 0.000000 0.000000
# 2 0.004262 0.068955 -0.010213 0.000000 0.000000 0.000000
# 3 -0.007307 -0.010213 0.019095 0.000000 0.000000 0.000000
# 4 0.000000 0.000000 0.000000 -0.171599 0.000000 0.000000
# 5 0.000000 0.000000 0.000000 0.000000 0.042994 0.000000
# 6 0.000000 0.000000 0.000000 0.000000 0.000000 0.031237
#
#
# Mechanical properties :
#
#
# Convention : Reuss Voigt Hill
#
# Bulk Modulus (GPa) = 14.58941 59.77061 37.18001
# Shear Modulus (GPa) = 106.26327 26.39625 66.32976
#
# Velocity S-wave (km/s) = 7.37187 3.67415 5.82425
# Velocity P-wave (km/s) = 8.93982 6.96898 8.01521
#
# Compressibility (1/GPa) = 0.06854285
#
# Stress axis : x y z
#
# Youngs Moduli (GPa) = 142.68606 14.50231 52.36968
#
# Poissons Ratio (x) = -0.06181 0.38266
# Poissons Ratio (y) = -0.60816 0.53484
# Poissons Ratio (z) = 1.04261 0.14811
#
# Static dielectric constant tensor:
#      x y z
#    x 1.731990 0.000000 0.000000 
#    y 0.000000 1.706240 0.000000 
#    z 0.000000 0.000000 1.667770 
# 
# From -- ./inp_files/12809.got.cif
#   From: 2010.05.17/outbox.cif.g08.bks.cpg/sg51_7_cif.got.tgz:12809.got - 2010.06.03 11:52:47.
