data_PCOD9403991
_publ_section_title
;
Structure prediction by ZEFSAII (Michael W. Deem and Ramdas Pophale) SiO2 
 PCOD9403991
Probable space group: P M M A
;
_chemical_formula_sum "Si O2"
_cell_formula_units_Z 48
_cell_length_a 7.662434
_cell_length_b 9.625273
_cell_length_c 35.221966
_cell_angle_alpha 90.000000
_cell_angle_beta 90.000000
_cell_angle_gamma 90.000000
_cell_volume 2597.726331
_symmetry_space_group_name_H-M "P M M A"
_symmetry_group_IT_number 51
_symmetry_cell_setting 'orthorhombic'
loop_
_space_group_symop_operation_xyz
x,y,z
1/2-x,-y,z
1/2+x,-y,-z
-x,y,-z
-x,-y,-z
1/2+x,y,-z
1/2-x,y,z
x,-y,z
loop_
_atom_site_type_symbol
_atom_site_label
_atom_site_fract_x
_atom_site_fract_y
_atom_site_fract_z
Si Si1 0.250000 0.665625 0.746977
Si Si2 0.038087 0.159692 0.613454
Si Si3 0.540970 0.341755 0.957887
Si Si4 0.040537 0.341594 0.542724
Si Si5 0.750000 0.166128 0.175401
Si Si6 0.950545 0.338474 0.687093
Si Si7 0.044301 0.834820 0.114586
O O1 0.250000 0.500000 0.754669
O O2 0.250000 0.750837 0.785586
O O3 0.417627 0.697901 0.720817
O O4 0.250000 0.160007 0.613260
O O5 0.976682 0.241117 0.575895
O O6 0.980052 0.242257 0.650732
O O7 0.980148 0.000000 0.613823
O O8 0.750000 0.348278 0.955244
O O9 0.472049 0.500000 0.955313
O O10 0.483607 0.247858 0.922796
O O11 0.500000 0.287351 0.000000
O O12 0.250000 0.347474 0.546038
O O13 0.973557 0.500000 0.547017
O O14 0.000000 0.294216 0.500000
O O15 0.579850 0.199501 0.149908
O O16 0.750000 0.000000 0.182380
O O17 0.750000 0.328418 0.699422
O O18 0.986098 0.500000 0.676396
O O19 0.250000 0.804671 0.121744
O O20 0.029244 0.000000 0.107651
#
# Coordination Sequence:
#
# PCOD9403991 Si02
#       7
#     4   8   8   8   4   8   8
#     4  10  22  40  60  86 116 142 178 230 280 330
#     4  10  20  34  54  80 111 147 185 228 280 333
#     4   9  18  31  48  74 106 139 177 224 274 320
#     4   9  18  32  50  72 102 143 189 233 275 323
#     4  10  22  38  58  82 108 144 184 222 272 332
#     4  10  21  38  61  86 112 145 184 226 275 333
#     4   9  19  36  54  75 106 142 182 225 267 318
#
# _framework density 18.477698
#
# number of rings (size 3 to 8) (size 9 to 14) (size 15 to 20)
#    0.000    2.500    0.833    0.500    1.167    4.333 
#    0.000    1.667    0.000    0.000    0.000    0.000 
#    0.000    0.000    0.000    0.000    0.000    0.000 
#
# Total GULP energy -267855.803014 kJ/mol
# GULP energy per Si atom -5580.329229 kJ/mol
# Density = 1.843564 g / cm^3
# Si number density = 18.477698 Si / 1000 Ang^3
#
#
#
# Elastic Constant Matrix: (Units=GPa)
#
#
# Indices 1 2 3 4 5 6 
#
# 1 73.0671 44.8676 61.7701 0.0000 0.0000 0.0000
# 2 44.8676 84.4739 107.4451 0.0000 0.0000 0.0000
# 3 61.7701 107.4451 202.5550 0.0000 0.0000 0.0000
# 4 0.0000 0.0000 0.0000 96.5032 0.0000 0.0000
# 5 0.0000 0.0000 0.0000 0.0000 20.9835 0.0000
# 6 0.0000 0.0000 0.0000 0.0000 0.0000 14.5475
#
#
#
# Elastic Compliance Matrix: (Units=1/GPa)
#
#
# Indices 1 2 3 4 5 6 
#
# 1 0.020450 -0.009006 -0.001459 0.000000 0.000000 0.000000
# 2 -0.009006 0.040356 -0.018661 0.000000 0.000000 0.000000
# 3 -0.001459 -0.018661 0.015280 0.000000 0.000000 0.000000
# 4 0.000000 0.000000 0.000000 0.010362 0.000000 0.000000
# 5 0.000000 0.000000 0.000000 0.000000 0.047657 0.000000
# 6 0.000000 0.000000 0.000000 0.000000 0.000000 0.068740
#
#
# Mechanical properties :
#
#
# Convention : Reuss Voigt Hill
#
# Bulk Modulus (GPa) = 56.06827 87.58461 71.82644
# Shear Modulus (GPa) = 18.72363 36.14105 27.43234
#
# Velocity S-wave (km/s) = 3.18671 4.42739 3.85726
# Velocity P-wave (km/s) = 6.62946 8.58130 7.66774
#
# Compressibility (1/GPa) = 0.01783540
#
# Stress axis : x y z
#
# Youngs Moduli (GPa) = 48.90050 24.77918 65.44320
#
# Poissons Ratio (x) = 0.22316 0.09549
# Poissons Ratio (y) = 0.44039 1.22121
# Poissons Ratio (z) = 0.07135 0.46240
#
# Static dielectric constant tensor:
#      x y z
#    x 1.660850 0.000000 0.000000 
#    y 0.000000 1.632070 0.000000 
#    z 0.000000 0.000000 1.591640 
# 
# From -- ./inp_files/37100.got.cif
#   From: 2010.05.17/outbox.cif.g08.bks.cpg/sg51_19_cif.got.tgz:37100.got - 2010.06.03 11:52:47.
