data_PCOD9403845
_publ_section_title
;
Structure prediction by ZEFSAII (Michael W. Deem and Ramdas Pophale) SiO2 
 PCOD9403845
Probable space group: P M M A
;
_chemical_formula_sum "Si O2"
_cell_formula_units_Z 56
_cell_length_a 8.823984
_cell_length_b 14.435095
_cell_length_c 23.857985
_cell_angle_alpha 90.000000
_cell_angle_beta 90.000000
_cell_angle_gamma 90.000000
_cell_volume 3038.911968
_symmetry_space_group_name_H-M "P M M A"
_symmetry_group_IT_number 51
_symmetry_cell_setting 'orthorhombic'
loop_
_space_group_symop_operation_xyz
x,y,z
1/2-x,-y,z
1/2+x,-y,-z
-x,y,-z
-x,-y,-z
1/2+x,y,-z
1/2-x,y,z
x,-y,z
loop_
_atom_site_type_symbol
_atom_site_label
_atom_site_fract_x
_atom_site_fract_y
_atom_site_fract_z
Si Si1 0.427250 0.110721 0.731024
Si Si2 0.069342 0.391389 0.783740
Si Si3 0.430677 0.780978 0.164279
Si Si4 0.569975 0.716755 0.441537
Si Si5 0.426528 0.611148 0.336748
Si Si6 0.430446 0.108221 0.390298
Si Si7 0.068859 0.891424 0.938791
O O1 0.250000 0.136518 0.725696
O O2 0.502077 0.162801 0.782828
O O3 0.513212 0.129473 0.672838
O O4 0.434822 0.000000 0.740686
O O5 0.250000 0.378895 0.785816
O O6 0.035119 0.500000 0.792926
O O7 0.988662 0.323605 0.827167
O O8 0.009351 0.366470 0.721587
O O9 0.250000 0.784934 0.164991
O O10 0.495133 0.827678 0.108355
O O11 0.500000 0.683306 0.500000
O O12 0.750000 0.710832 0.443036
O O13 0.504488 0.659570 0.389260
O O14 0.516384 0.822101 0.430969
O O15 0.250000 0.638574 0.333243
O O16 0.433827 0.500000 0.343552
O O17 0.250000 0.122124 0.394261
O O18 0.463765 0.000000 0.401185
O O19 0.250000 0.879168 0.939639
O O20 0.037912 0.000000 0.925746
O O21 0.000000 0.872537 0.000000
#
# Coordination Sequence:
#
# PCOD9403845 Si02
#       7
#     8   8   8   8   8   8   8
#     4  10  20  34  53  79 111 145 182 225 273 326
#     4  10  21  38  60  85 113 146 185 229 277 330
#     4  12  23  34  54  83 116 152 189 231 278 329
#     4  12  25  40  58  79 106 139 179 225 270 324
#     4  10  21  39  62  86 113 143 176 219 274 334
#     4  10  21  38  58  79 106 140 178 222 273 329
#     4  10  21  38  59  84 117 156 197 238 278 324
#
# _framework density 18.427647
#
# number of rings (size 3 to 8) (size 9 to 14) (size 15 to 20)
#    0.000    1.429    0.000    6.000    0.000    6.571 
#    0.000    0.000    0.000    0.429    0.000    0.000 
#    0.000    0.000    0.000    0.000    0.000    0.000 
#
# Total GULP energy -313252.443057 kJ/mol
# GULP energy per Si atom -5593.793626 kJ/mol
# Density = 1.838571 g / cm^3
# Si number density = 18.427647 Si / 1000 Ang^3
#
#
#
# Elastic Constant Matrix: (Units=GPa)
#
#
# Indices 1 2 3 4 5 6 
#
# 1 119.5283 40.3534 44.2506 0.0000 0.0000 0.0000
# 2 40.3534 60.2489 49.9901 0.0000 0.0000 0.0000
# 3 44.2506 49.9901 88.4458 0.0000 0.0000 0.0000
# 4 0.0000 0.0000 0.0000 20.9229 0.0000 0.0000
# 5 0.0000 0.0000 0.0000 0.0000 35.6054 0.0000
# 6 0.0000 0.0000 0.0000 0.0000 0.0000 30.0119
#
#
#
# Elastic Compliance Matrix: (Units=1/GPa)
#
#
# Indices 1 2 3 4 5 6 
#
# 1 0.011107 -0.005326 -0.002547 0.000000 0.000000 0.000000
# 2 -0.005326 0.033810 -0.016445 0.000000 0.000000 0.000000
# 3 -0.002547 -0.016445 0.021875 0.000000 0.000000 0.000000
# 4 0.000000 0.000000 0.000000 0.047794 0.000000 0.000000
# 5 0.000000 0.000000 0.000000 0.000000 0.028086 0.000000
# 6 0.000000 0.000000 0.000000 0.000000 0.000000 0.033320
#
#
# Mechanical properties :
#
#
# Convention : Reuss Voigt Hill
#
# Bulk Modulus (GPa) = 55.07562 59.71238 57.39400
# Shear Modulus (GPa) = 21.67505 26.21664 23.94585
#
# Velocity S-wave (km/s) = 3.43333 3.77593 3.60870
# Velocity P-wave (km/s) = 6.75792 7.17525 6.96971
#
# Compressibility (1/GPa) = 0.01815686
#
# Stress axis : x y z
#
# Youngs Moduli (GPa) = 90.03164 29.57714 45.71418
#
# Poissons Ratio (x) = 0.15754 0.11641
# Poissons Ratio (y) = 0.47955 0.75175
# Poissons Ratio (z) = 0.22927 0.48639
#
# Static dielectric constant tensor:
#      x y z
#    x 1.607850 0.000000 0.000000 
#    y 0.000000 1.657080 0.000000 
#    z 0.000000 0.000000 1.596460 
# 
# From -- ./inp_files/31916.got.cif
#   From: 2010.05.17/outbox.cif.g08.bks.cpg/sg51_16_cif.got.tgz:31916.got - 2010.06.03 11:52:47.
