data_PCOD9403594
_publ_section_title
;
Structure prediction by ZEFSAII (Michael W. Deem and Ramdas Pophale) SiO2 
 PCOD9403594
Probable space group: P M M A
;
_chemical_formula_sum "Si O2"
_cell_formula_units_Z 64
_cell_length_a 8.643733
_cell_length_b 14.901405
_cell_length_c 25.806662
_cell_angle_alpha 90.000000
_cell_angle_beta 90.000000
_cell_angle_gamma 90.000000
_cell_volume 3323.995257
_symmetry_space_group_name_H-M "P M M A"
_symmetry_group_IT_number 51
_symmetry_cell_setting 'orthorhombic'
loop_
_space_group_symop_operation_xyz
x,y,z
1/2-x,-y,z
1/2+x,-y,-z
-x,y,-z
-x,-y,-z
1/2+x,y,-z
1/2-x,y,z
x,-y,z
loop_
_atom_site_type_symbol
_atom_site_label
_atom_site_fract_x
_atom_site_fract_y
_atom_site_fract_z
Si Si1 0.563095 0.099933 0.103311
Si Si2 0.935509 0.282759 0.257286
Si Si3 0.933927 0.716526 0.441878
Si Si4 0.064832 0.396934 0.351876
Si Si5 0.435595 0.902198 0.441143
Si Si6 0.436621 0.286436 0.944513
Si Si7 0.438502 0.603173 0.843547
Si Si8 0.564743 0.899125 0.780037
O O1 0.750000 0.103073 0.107329
O O2 0.513832 0.184215 0.068777
O O3 0.495769 0.110915 0.160994
O O4 0.519153 0.000000 0.084364
O O5 0.750000 0.283377 0.258950
O O6 0.986153 0.336742 0.205460
O O7 0.001327 0.334268 0.306511
O O8 0.994250 0.181259 0.252887
O O9 0.750000 0.717140 0.444093
O O10 0.000000 0.708858 0.500000
O O11 0.995960 0.638001 0.405730
O O12 0.992370 0.811878 0.418500
O O13 0.250000 0.391020 0.353854
O O14 0.020429 0.500000 0.341991
O O15 0.500000 0.904707 0.500000
O O16 0.250000 0.893573 0.442633
O O17 0.473561 0.000000 0.417560
O O18 0.250000 0.288051 0.945946
O O19 0.487256 0.349779 0.897048
O O20 0.500000 0.314470 0.000000
O O21 0.250000 0.602683 0.843502
O O22 0.490198 0.500000 0.839389
O O23 0.750000 0.892735 0.779848
O O24 0.521177 0.000000 0.762822
#
# Coordination Sequence:
#
# PCOD9403594 Si02
#       8
#     8   8   8   8   8   8   8   8
#     4   9  17  32  53  76 105 143 188 234 283 345
#     4  11  21  38  64  90 116 150 192 238 288 347
#     4  11  22  38  62  90 123 163 205 248 294 350
#     4  11  25  44  64  89 122 156 193 244 300 350
#     4   9  16  28  50  81 117 156 197 241 288 339
#     4  10  20  34  50  75 108 146 188 234 288 344
#     4   9  18  34  56  80 107 142 185 232 286 345
#     4  10  20  34  56  87 120 152 187 231 286 347
#
# _framework density 19.253938999999999
#
# number of rings (size 3 to 8) (size 9 to 14) (size 15 to 20)
#    0.000    2.000    1.250    3.750    0.000    4.250 
#    0.000    0.625    0.000    5.250    0.000    0.000 
#    0.000    0.000    0.000    0.000    0.000    0.000 
#
# Total GULP energy -357315.079579 kJ/mol
# GULP energy per Si atom -5583.048118 kJ/mol
# Density = 1.921012 g / cm^3
# Si number density = 19.253939 Si / 1000 Ang^3
#
#
#
# Elastic Constant Matrix: (Units=GPa)
#
#
# Indices 1 2 3 4 5 6 
#
# 1 39.4231 31.4826 24.8491 0.0000 0.0000 0.0000
# 2 31.4826 123.6674 57.9595 0.0000 0.0000 0.0000
# 3 24.8491 57.9595 91.1846 0.0000 0.0000 0.0000
# 4 0.0000 0.0000 0.0000 28.5650 0.0000 0.0000
# 5 0.0000 0.0000 0.0000 0.0000 27.8541 0.0000
# 6 0.0000 0.0000 0.0000 0.0000 0.0000 22.5579
#
#
#
# Elastic Compliance Matrix: (Units=1/GPa)
#
#
# Indices 1 2 3 4 5 6 
#
# 1 0.033538 -0.006060 -0.005288 0.000000 0.000000 0.000000
# 2 -0.006060 0.012612 -0.006365 0.000000 0.000000 0.000000
# 3 -0.005288 -0.006365 0.016454 0.000000 0.000000 0.000000
# 4 0.000000 0.000000 0.000000 0.035008 0.000000 0.000000
# 5 0.000000 0.000000 0.000000 0.000000 0.035901 0.000000
# 6 0.000000 0.000000 0.000000 0.000000 0.000000 0.044330
#
#
# Mechanical properties :
#
#
# Convention : Reuss Voigt Hill
#
# Bulk Modulus (GPa) = 36.79418 53.65084 45.22251
# Shear Modulus (GPa) = 22.48926 25.12765 23.80846
#
# Velocity S-wave (km/s) = 3.42136 3.61649 3.52028
# Velocity P-wave (km/s) = 5.89568 6.73528 6.32942
#
# Compressibility (1/GPa) = 0.02717821
#
# Stress axis : x y z
#
# Youngs Moduli (GPa) = 29.81695 79.28929 60.77659
#
# Poissons Ratio (x) = 0.48047 0.32138
# Poissons Ratio (y) = 0.18068 0.38686
# Poissons Ratio (z) = 0.15767 0.50469
#
# Static dielectric constant tensor:
#      x y z
#    x 1.646970 0.000000 0.000000 
#    y 0.000000 1.699120 0.000000 
#    z 0.000000 0.000000 1.649710 
# 
# From -- ./inp_files/34826.got.cif
#   From: 2010.05.17/outbox.cif.g08.bks.cpg/sg51_18_cif.got.tgz:34826.got - 2010.06.03 11:52:47.
