data_PCOD9403121
_publ_section_title
;
Structure prediction by ZEFSAII (Michael W. Deem and Ramdas Pophale) SiO2 
 PCOD9403121
Probable space group: P M M A
;
_chemical_formula_sum "Si O2"
_cell_formula_units_Z 48
_cell_length_a 30.993764
_cell_length_b 7.728784
_cell_length_c 10.376973
_cell_angle_alpha 90.000000
_cell_angle_beta 90.000000
_cell_angle_gamma 90.000000
_cell_volume 2485.742734
_symmetry_space_group_name_H-M "P M M A"
_symmetry_group_IT_number 51
_symmetry_cell_setting 'orthorhombic'
loop_
_space_group_symop_operation_xyz
x,y,z
1/2-x,-y,z
1/2+x,-y,-z
-x,y,-z
-x,-y,-z
1/2+x,y,-z
1/2-x,y,z
x,-y,z
loop_
_atom_site_type_symbol
_atom_site_label
_atom_site_fract_x
_atom_site_fract_y
_atom_site_fract_z
Si Si1 0.631283 0.796348 0.410539
Si Si2 0.201071 0.791293 0.092594
Si Si3 0.368143 0.295485 0.876892
Si Si4 0.534946 0.293752 0.100308
Si Si5 0.299193 0.211742 0.386094
Si Si6 0.533740 0.209738 0.392709
O O1 0.645247 0.778447 0.261892
O O2 0.666007 0.724492 0.510801
O O3 0.582497 0.725627 0.418966
O O4 0.627897 0.000000 0.439425
O O5 0.250000 0.732549 0.062518
O O6 0.190655 0.735832 0.239033
O O7 0.201664 0.000000 0.093034
O O8 0.166300 0.735851 0.988141
O O9 0.372465 0.500000 0.857261
O O10 0.415955 0.225385 0.911996
O O11 0.537305 0.500000 0.078355
O O12 0.521554 0.262812 0.247981
O O13 0.500000 0.222230 0.000000
O O14 0.250000 0.265124 0.415548
O O15 0.299193 0.000000 0.388371
O O16 0.500000 0.269102 0.500000
O O17 0.534553 0.000000 0.395028
#
# Coordination Sequence:
#
# PCOD9403121 Si02
#       6
#     8   8   8   8   8   8
#     4   9  17  31  50  70  95 126 157 193 239 288
#     4   9  18  33  52  73  97 126 160 196 236 285
#     4  10  20  33  49  71  99 128 160 200 241 282
#     4   9  19  35  51  68  94 129 166 200 237 286
#     4   8  15  29  49  71  92 117 154 195 230 272
#     4   9  18  31  47  71  99 123 153 196 243 287
#
# _framework density 19.310123000000001
#
# number of rings (size 3 to 8) (size 9 to 14) (size 15 to 20)
#    0.000    3.000    0.000    1.500    0.000    3.667 
#    0.000    4.167    0.000    1.000    0.000    0.000 
#    0.000    0.000    0.000    0.000    0.000    0.000 
#
# Total GULP energy -267621.335902 kJ/mol
# GULP energy per Si atom -5575.444498 kJ/mol
# Density = 1.926617 g / cm^3
# Si number density = 19.310123 Si / 1000 Ang^3
#
#
#
# Elastic Constant Matrix: (Units=GPa)
#
#
# Indices 1 2 3 4 5 6 
#
# 1 121.1018 -6.5760 116.9018 0.0000 0.0000 0.0000
# 2 -6.5760 21.4804 -17.0942 0.0000 0.0000 0.0000
# 3 116.9018 -17.0942 139.5586 0.0000 0.0000 0.0000
# 4 0.0000 0.0000 0.0000 116.0293 0.0000 0.0000
# 5 0.0000 0.0000 0.0000 0.0000 44.0430 0.0000
# 6 0.0000 0.0000 0.0000 0.0000 0.0000 3.9740
#
#
#
# Elastic Compliance Matrix: (Units=1/GPa)
#
#
# Indices 1 2 3 4 5 6 
#
# 1 0.049786 -0.019885 -0.044139 0.000000 0.000000 0.000000
# 2 -0.019885 0.059524 0.023947 0.000000 0.000000 0.000000
# 3 -0.044139 0.023947 0.047072 0.000000 0.000000 0.000000
# 4 0.000000 0.000000 0.000000 0.008619 0.000000 0.000000
# 5 0.000000 0.000000 0.000000 0.000000 0.022705 0.000000
# 6 0.000000 0.000000 0.000000 0.000000 0.000000 0.251636
#
#
# Mechanical properties :
#
#
# Convention : Reuss Voigt Hill
#
# Bulk Modulus (GPa) = 13.11830 52.06710 32.59270
# Shear Modulus (GPa) = 9.17594 45.40321 27.28958
#
# Velocity S-wave (km/s) = 2.18225 4.85424 3.76337
# Velocity P-wave (km/s) = 3.62737 7.64463 5.98324
#
# Compressibility (1/GPa) = 0.07622940
#
# Stress axis : x y z
#
# Youngs Moduli (GPa) = 20.08601 16.79995 21.24413
#
# Poissons Ratio (x) = 0.33406 0.93769
# Poissons Ratio (y) = 0.39940 -0.50874
# Poissons Ratio (z) = 0.88658 -0.40231
#
# Static dielectric constant tensor:
#      x y z
#    x 1.684490 0.000000 0.000000 
#    y 0.000000 1.707740 0.000000 
#    z 0.000000 0.000000 1.637100 
# 
# From -- ./inp_files/12754.got.cif
#   From: 2010.05.17/outbox.cif.g08.bks.cpg/sg51_7_cif.got.tgz:12754.got - 2010.06.03 11:52:47.
