data_PCOD9403099
_publ_section_title
;
Structure prediction by ZEFSAII (Michael W. Deem and Ramdas Pophale) SiO2 
 PCOD9403099
Probable space group: P M M A
;
_chemical_formula_sum "Si O2"
_cell_formula_units_Z 48
_cell_length_a 14.722334
_cell_length_b 7.847330
_cell_length_c 21.875376
_cell_angle_alpha 90.000000
_cell_angle_beta 90.000000
_cell_angle_gamma 90.000000
_cell_volume 2527.284355
_symmetry_space_group_name_H-M "P M M A"
_symmetry_group_IT_number 51
_symmetry_cell_setting 'orthorhombic'
loop_
_space_group_symop_operation_xyz
x,y,z
1/2-x,-y,z
1/2+x,-y,-z
-x,y,-z
-x,-y,-z
1/2+x,y,-z
1/2-x,y,z
x,-y,z
loop_
_atom_site_type_symbol
_atom_site_label
_atom_site_fract_x
_atom_site_fract_y
_atom_site_fract_z
Si Si1 0.506023 0.797879 0.239167
Si Si2 0.853530 0.708376 0.999847
Si Si3 0.000042 0.705319 0.097986
Si Si4 0.852086 0.702942 0.336426
Si Si5 0.147225 0.204974 0.331540
Si Si6 0.003935 0.705975 0.430434
O O1 0.500863 0.759171 0.167874
O O2 0.596018 0.730100 0.272554
O O3 0.418837 0.730664 0.277261
O O4 0.507396 0.000000 0.247168
O O5 0.750000 0.767695 0.000004
O O6 0.852119 0.500000 0.999870
O O7 0.912074 0.761642 0.058981
O O8 0.911476 0.761711 0.940432
O O9 0.999974 0.500000 0.096659
O O10 0.750000 0.773020 0.337510
O O11 0.845954 0.500000 0.345773
O O12 0.919688 0.770272 0.389116
O O13 0.250000 0.271163 0.328947
O O14 0.095329 0.246565 0.394357
O O15 0.151654 0.000000 0.326354
O O16 0.999284 0.500000 0.431545
O O17 0.000000 0.767447 0.500000
#
# Coordination Sequence:
#
# PCOD9403099 Si02
#       6
#     8   8   8   8   8   8
#     4  10  20  33  49  70  98 128 159 200 244 282
#     4   8  15  29  48  69  93 121 154 193 234 278
#     4   9  17  30  49  71  93 120 157 195 232 281
#     4   9  18  33  51  70  95 128 163 196 233 283
#     4   9  19  35  51  68  95 132 169 200 234 282
#     4   9  18  32  51  76 102 125 154 197 246 290
#
# _framework density 18.992716999999999
#
# number of rings (size 3 to 8) (size 9 to 14) (size 15 to 20)
#    0.000    3.000    0.000    1.500    0.000    3.667 
#    0.000    5.000    0.000    1.000    0.000    0.000 
#    0.000    0.000    0.000    0.000    0.000    0.000 
#
# Total GULP energy -267610.340606 kJ/mol
# GULP energy per Si atom -5575.215429 kJ/mol
# Density = 1.894949 g / cm^3
# Si number density = 18.992717 Si / 1000 Ang^3
#
#
#
# Elastic Constant Matrix: (Units=GPa)
#
#
# Indices 1 2 3 4 5 6 
#
# 1 186.2152 6.6297 76.2068 0.0000 0.0000 0.0000
# 2 6.6297 19.0227 -4.5200 0.0000 0.0000 0.0000
# 3 76.2068 -4.5200 146.2536 0.0000 0.0000 0.0000
# 4 0.0000 0.0000 0.0000 3.1650 0.0000 0.0000
# 5 0.0000 0.0000 0.0000 0.0000 7.1411 0.0000
# 6 0.0000 0.0000 0.0000 0.0000 0.0000 11.3771
#
#
#
# Elastic Compliance Matrix: (Units=1/GPa)
#
#
# Indices 1 2 3 4 5 6 
#
# 1 0.007031 -0.003345 -0.003767 0.000000 0.000000 0.000000
# 2 -0.003345 0.054550 0.003429 0.000000 0.000000 0.000000
# 3 -0.003767 0.003429 0.008906 0.000000 0.000000 0.000000
# 4 0.000000 0.000000 0.000000 0.315954 0.000000 0.000000
# 5 0.000000 0.000000 0.000000 0.000000 0.140035 0.000000
# 6 0.000000 0.000000 0.000000 0.000000 0.000000 0.087896
#
#
# Mechanical properties :
#
#
# Convention : Reuss Voigt Hill
#
# Bulk Modulus (GPa) = 15.84284 56.45828 36.15056
# Shear Modulus (GPa) = 7.77873 22.54829 15.16351
#
# Velocity S-wave (km/s) = 2.02596 3.44933 2.82864
# Velocity P-wave (km/s) = 3.71919 6.75682 5.45376
#
# Compressibility (1/GPa) = 0.06312001
#
# Stress axis : x y z
#
# Youngs Moduli (GPa) = 142.23177 18.33197 112.28183
#
# Poissons Ratio (x) = 0.06133 0.42295
# Poissons Ratio (y) = 0.47582 -0.38501
# Poissons Ratio (z) = 0.53576 -0.06286
#
# Static dielectric constant tensor:
#      x y z
#    x 1.663450 0.000000 0.000000 
#    y 0.000000 1.688750 0.000000 
#    z 0.000000 0.000000 1.636150 
# 
# From -- ./inp_files/29468.got.cif
#   From: 2010.05.17/outbox.cif.g08.bks.cpg/sg51_15_cif.got.tgz:29468.got - 2010.06.03 11:52:47.
