data_PCOD9403557
_publ_section_title
;
Structure prediction by ZEFSAII (Michael W. Deem and Ramdas Pophale) SiO2 
 PCOD9403557
Probable space group: P M M A
;
_chemical_formula_sum "Si O2"
_cell_formula_units_Z 64
_cell_length_a 18.452666
_cell_length_b 20.242929
_cell_length_c 8.706036
_cell_angle_alpha 90.000000
_cell_angle_beta 90.000000
_cell_angle_gamma 90.000000
_cell_volume 3252.017930
_symmetry_space_group_name_H-M "P M M A"
_symmetry_group_IT_number 51
_symmetry_cell_setting 'orthorhombic'
loop_
_space_group_symop_operation_xyz
x,y,z
1/2-x,-y,z
1/2+x,-y,-z
-x,y,-z
-x,-y,-z
1/2+x,y,-z
1/2-x,y,z
x,-y,z
loop_
_atom_site_type_symbol
_atom_site_label
_atom_site_fract_x
_atom_site_fract_y
_atom_site_fract_z
Si Si1 0.565509 0.139839 0.897269
Si Si2 0.964867 0.921965 0.347553
Si Si3 0.168091 0.620814 0.092189
Si Si4 0.568763 0.574624 0.657725
Si Si5 0.420230 0.297301 0.546423
Si Si6 0.333436 0.080143 0.843147
Si Si7 0.333026 0.240744 0.277371
Si Si8 0.950595 0.347771 0.140119
O O1 0.521924 0.089341 0.788910
O O2 0.608998 0.191036 0.793709
O O3 0.500000 0.169217 0.000000
O O4 0.624682 0.105459 0.006336
O O5 0.886053 0.896527 0.295403
O O6 0.000000 0.892358 0.500000
O O7 0.955204 0.000000 0.371906
O O8 0.250000 0.605800 0.051629
O O9 0.137207 0.576596 0.228808
O O10 0.164332 0.694277 0.168217
O O11 0.115646 0.617717 0.946307
O O12 0.556591 0.500000 0.608753
O O13 0.581355 0.627323 0.521660
O O14 0.503689 0.603867 0.763691
O O15 0.500000 0.271678 0.500000
O O16 0.359542 0.260414 0.448021
O O17 0.419265 0.298564 0.730639
O O18 0.250000 0.102238 0.834283
O O19 0.333383 0.000000 0.844749
O O20 0.250000 0.216651 0.277726
O O21 0.000000 0.320640 0.000000
#
# Coordination Sequence:
#
# PCOD9403557 Si02
#       8
#     8   8   8   8   8   8   8   8
#     4  10  20  33  55  82 108 142 182 225 267 316
#     4   9  18  34  54  78 110 146 182 220 265 318
#     4   9  19  34  51  71  97 132 170 210 259 311
#     4   9  18  33  52  74 101 132 166 207 257 312
#     4   9  19  34  54  76  99 134 174 213 258 317
#     4   9  17  32  55  81 109 142 181 225 272 320
#     4  10  21  37  54  75 107 142 177 220 269 317
#     4   9  18  32  52  77 100 126 166 212 258 305
#
# _framework density 19.680087
#
# number of rings (size 3 to 8) (size 9 to 14) (size 15 to 20)
#    0.000    2.750    0.000    1.500    0.000   10.750 
#    0.000    2.500    0.000    3.000    0.000    3.500 
#    0.000    0.000    0.000    0.000    0.000    0.125 
#
# Total GULP energy -356754.516051 kJ/mol
# GULP energy per Si atom -5574.289313 kJ/mol
# Density = 1.963529 g / cm^3
# Si number density = 19.680087 Si / 1000 Ang^3
#
#
#
# Elastic Constant Matrix: (Units=GPa)
#
#
# Indices 1 2 3 4 5 6 
#
# 1 142.0509 12.2609 53.9958 0.0000 0.0000 0.0000
# 2 12.2609 22.0525 7.7163 0.0000 0.0000 0.0000
# 3 53.9958 7.7163 117.8210 0.0000 0.0000 0.0000
# 4 0.0000 0.0000 0.0000 1.7212 0.0000 0.0000
# 5 0.0000 0.0000 0.0000 0.0000 25.4601 0.0000
# 6 0.0000 0.0000 0.0000 0.0000 0.0000 7.5254
#
#
#
# Elastic Compliance Matrix: (Units=1/GPa)
#
#
# Indices 1 2 3 4 5 6 
#
# 1 0.008789 -0.003559 -0.003795 0.000000 0.000000 0.000000
# 2 -0.003559 0.047851 -0.001503 0.000000 0.000000 0.000000
# 3 -0.003795 -0.001503 0.010325 0.000000 0.000000 0.000000
# 4 0.000000 0.000000 0.000000 0.580992 0.000000 0.000000
# 5 0.000000 0.000000 0.000000 0.000000 0.039277 0.000000
# 6 0.000000 0.000000 0.000000 0.000000 0.000000 0.132884
#
#
# Mechanical properties :
#
#
# Convention : Reuss Voigt Hill
#
# Bulk Modulus (GPa) = 20.30376 47.76339 34.03358
# Shear Modulus (GPa) = 5.85309 20.80474 13.32892
#
# Velocity S-wave (km/s) = 1.72643 3.25491 2.60528
# Velocity P-wave (km/s) = 3.78331 6.20068 5.13624
#
# Compressibility (1/GPa) = 0.04925195
#
# Stress axis : x y z
#
# Youngs Moduli (GPa) = 113.77261 20.89821 96.85152
#
# Poissons Ratio (x) = 0.07438 0.36755
# Poissons Ratio (y) = 0.40491 0.14555
# Poissons Ratio (z) = 0.43177 0.03141
#
# Static dielectric constant tensor:
#      x y z
#    x 1.692420 0.000000 0.000000 
#    y 0.000000 1.710110 0.000000 
#    z 0.000000 0.000000 1.715890 
# 
# From -- ./inp_files/10046.got.cif
#   From: 2010.05.17/outbox.cif.g08.bks.cpg/sg51_6_cif.got.tgz:10046.got - 2010.06.03 11:52:47.
