data_PCOD9403936
_publ_section_title
;
Structure prediction by ZEFSAII (Michael W. Deem and Ramdas Pophale) SiO2 
 PCOD9403936
Probable space group: P M M A
;
_chemical_formula_sum "Si O2"
_cell_formula_units_Z 44
_cell_length_a 9.534600
_cell_length_b 7.667986
_cell_length_c 30.897116
_cell_angle_alpha 90.000000
_cell_angle_beta 90.000000
_cell_angle_gamma 90.000000
_cell_volume 2258.924588
_symmetry_space_group_name_H-M "P M M A"
_symmetry_group_IT_number 51
_symmetry_cell_setting 'orthorhombic'
loop_
_space_group_symop_operation_xyz
x,y,z
1/2-x,-y,z
1/2+x,-y,-z
-x,y,-z
-x,-y,-z
1/2+x,y,-z
1/2-x,y,z
x,-y,z
loop_
_atom_site_type_symbol
_atom_site_label
_atom_site_fract_x
_atom_site_fract_y
_atom_site_fract_z
Si Si1 0.083112 0.000000 0.544537
Si Si2 0.408293 0.293021 0.780651
Si Si3 0.416012 0.294286 0.614113
Si Si4 0.589807 0.207117 0.863489
Si Si5 0.410945 0.712875 0.300394
Si Si6 0.909374 0.290222 0.959859
O O1 0.051218 0.169820 0.573827
O O2 0.000000 0.000000 0.500000
O O3 0.250000 0.000000 0.536100
O O4 0.250000 0.221423 0.781684
O O5 0.396691 0.500000 0.773083
O O6 0.489154 0.270604 0.825698
O O7 0.502588 0.223346 0.741259
O O8 0.250000 0.273646 0.624256
O O9 0.439855 0.500000 0.604977
O O10 0.507738 0.242445 0.655629
O O11 0.750000 0.277732 0.859329
O O12 0.537015 0.249293 0.911775
O O13 0.597728 0.000000 0.859654
O O14 0.250000 0.772506 0.299936
O O15 0.408010 0.500000 0.298793
O O16 0.750000 0.223263 0.962261
O O17 0.904480 0.500000 0.963264
O O18 0.000000 0.224022 0.000000
#
# Coordination Sequence:
#
# PCOD9403936 Si02
#       6
#     4   8   8   8   8   8
#     4  10  22  38  56  82 114 148 188 232 279 330
#     4  10  20  34  54  79 106 139 178 219 265 319
#     4   9  18  35  57  80 110 147 186 230 280 332
#     4  10  21  36  52  73 104 139 175 215 261 314
#     4   9  17  31  54  82 108 137 177 222 267 318
#     4   9  18  33  53  75  98 127 166 212 260 311
#
# _framework density 19.478294999999999
#
# number of rings (size 3 to 8) (size 9 to 14) (size 15 to 20)
#    0.000    2.545    0.000    1.636    0.000    6.545 
#    1.636    1.818    0.000    0.000    0.000    0.000 
#    0.000    0.000    0.000    0.000    0.000    0.000 
#
# Total GULP energy -245576.962011 kJ/mol
# GULP energy per Si atom -5581.294591 kJ/mol
# Density = 1.943396 g / cm^3
# Si number density = 19.478295 Si / 1000 Ang^3
#
#
#
# Elastic Constant Matrix: (Units=GPa)
#
#
# Indices 1 2 3 4 5 6 
#
# 1 127.2065 30.0057 124.4785 0.0000 0.0000 0.0000
# 2 30.0057 49.8093 32.1221 0.0000 0.0000 0.0000
# 3 124.4785 32.1221 206.7538 0.0000 0.0000 0.0000
# 4 0.0000 0.0000 0.0000 58.2087 0.0000 0.0000
# 5 0.0000 0.0000 0.0000 0.0000 41.1650 0.0000
# 6 0.0000 0.0000 0.0000 0.0000 0.0000 4.5572
#
#
#
# Elastic Compliance Matrix: (Units=1/GPa)
#
#
# Indices 1 2 3 4 5 6 
#
# 1 0.020111 -0.004786 -0.011364 0.000000 0.000000 0.000000
# 2 -0.004786 0.023451 -0.000762 0.000000 0.000000 0.000000
# 3 -0.011364 -0.000762 0.011797 0.000000 0.000000 0.000000
# 4 0.000000 0.000000 0.000000 0.017180 0.000000 0.000000
# 5 0.000000 0.000000 0.000000 0.000000 0.024292 0.000000
# 6 0.000000 0.000000 0.000000 0.000000 0.000000 0.219433
#
#
# Mechanical properties :
#
#
# Convention : Reuss Voigt Hill
#
# Bulk Modulus (GPa) = 46.43764 84.10911 65.27338
# Shear Modulus (GPa) = 13.99513 33.93040 23.96277
#
# Velocity S-wave (km/s) = 2.68339 4.17821 3.51127
# Velocity P-wave (km/s) = 5.78734 8.15789 7.07264
#
# Compressibility (1/GPa) = 0.02153426
#
# Stress axis : x y z
#
# Youngs Moduli (GPa) = 49.72439 42.64189 84.76656
#
# Poissons Ratio (x) = 0.20409 0.96332
# Poissons Ratio (y) = 0.23799 0.06459
# Poissons Ratio (z) = 0.56509 0.03249
#
# Static dielectric constant tensor:
#      x y z
#    x 1.679910 0.000000 0.000000 
#    y 0.000000 1.707740 0.000000 
#    z 0.000000 0.000000 1.641170 
# 
# From -- ./inp_files/36730.got.cif
#   From: 2010.05.17/outbox.cif.g08.bks.cpg/sg51_19_cif.got.tgz:36730.got - 2010.06.03 11:52:47.
