data_PCOD9403512
_publ_section_title
;
Structure prediction by ZEFSAII (Michael W. Deem and Ramdas Pophale) SiO2 
 PCOD9403512
Probable space group: P M M A
;
_chemical_formula_sum "Si O2"
_cell_formula_units_Z 64
_cell_length_a 14.844095
_cell_length_b 7.549223
_cell_length_c 25.343804
_cell_angle_alpha 90.000000
_cell_angle_beta 90.000000
_cell_angle_gamma 90.000000
_cell_volume 2840.061737
_symmetry_space_group_name_H-M "P M M A"
_symmetry_group_IT_number 51
_symmetry_cell_setting 'orthorhombic'
loop_
_space_group_symop_operation_xyz
x,y,z
1/2-x,-y,z
1/2+x,-y,-z
-x,y,-z
-x,-y,-z
1/2+x,y,-z
1/2-x,y,z
x,-y,z
loop_
_atom_site_type_symbol
_atom_site_label
_atom_site_fract_x
_atom_site_fract_y
_atom_site_fract_z
Si Si1 0.551887 0.703773 0.257546
Si Si2 0.025180 0.298246 0.943861
Si Si3 0.852170 0.210765 0.471319
Si Si4 0.649566 0.293381 0.590017
Si Si5 0.144983 0.716818 0.849184
Si Si6 0.032774 0.286867 0.631706
Si Si7 0.152044 0.787399 0.115595
Si Si8 0.848453 0.787434 0.759129
O O1 0.582636 0.500000 0.256807
O O2 0.590784 0.780043 0.203001
O O3 0.577922 0.782120 0.314476
O O4 0.442960 0.708866 0.259164
O O5 0.055679 0.500000 0.955442
O O6 0.932346 0.300431 0.911544
O O7 0.097822 0.219454 0.903204
O O8 0.000000 0.213236 0.000000
O O9 0.750000 0.272096 0.461147
O O10 0.878581 0.284982 0.528415
O O11 0.912896 0.253766 0.421545
O O12 0.852194 0.000000 0.477817
O O13 0.750000 0.215209 0.594932
O O14 0.656141 0.500000 0.604064
O O15 0.568297 0.214049 0.623375
O O16 0.250000 0.763405 0.845897
O O17 0.138512 0.500000 0.850555
O O18 0.026659 0.500000 0.637173
O O19 0.250000 0.732675 0.094396
O O20 0.151930 0.752134 0.178037
O O21 0.144040 0.000000 0.109277
O O22 0.750000 0.727027 0.737921
O O23 0.852428 0.000000 0.751935
#
# Coordination Sequence:
#
# PCOD9403512 Si02
#       8
#     8   8   8   8   8   8   8   8
#     4  10  20  34  54  79 104 137 182 224 263 313
#     4  10  20  33  53  81 108 137 177 224 272 321
#     4  10  21  36  54  77 105 138 178 222 266 314
#     4   9  18  34  54  75 104 140 172 210 265 322
#     4   9  18  34  53  73 103 141 177 217 266 316
#     4  10  21  34  52  80 108 136 176 222 266 317
#     4   9  18  33  53  76 104 138 172 210 260 317
#     4   9  18  33  53  76 103 137 173 210 261 319
#
# _framework density 22.534723
#
# number of rings (size 3 to 8) (size 9 to 14) (size 15 to 20)
#    0.000    2.500    1.250    1.500    0.000    5.500 
#    0.000    5.000    0.000    3.000    0.000    0.000 
#    0.000    0.000    0.000    0.000    0.000    0.000 
#
# Total GULP energy -357142.238600 kJ/mol
# GULP energy per Si atom -5580.347478 kJ/mol
# Density = 2.248343 g / cm^3
# Si number density = 22.534723 Si / 1000 Ang^3
#
#
#
# Elastic Constant Matrix: (Units=GPa)
#
#
# Indices 1 2 3 4 5 6 
#
# 1 98.2998 -3.2963 59.8553 0.0000 0.0000 0.0000
# 2 -3.2963 54.1594 3.2377 0.0000 0.0000 0.0000
# 3 59.8553 3.2377 122.4618 0.0000 0.0000 0.0000
# 4 0.0000 0.0000 0.0000 -16.3781 0.0000 0.0000
# 5 0.0000 0.0000 0.0000 0.0000 -2.9297 0.0000
# 6 0.0000 0.0000 0.0000 0.0000 0.0000 119.9400
#
#
#
# Elastic Compliance Matrix: (Units=1/GPa)
#
#
# Indices 1 2 3 4 5 6 
#
# 1 0.014576 0.001315 -0.007159 0.000000 0.000000 0.000000
# 2 0.001315 0.018612 -0.001135 0.000000 0.000000 0.000000
# 3 -0.007159 -0.001135 0.011695 0.000000 0.000000 0.000000
# 4 0.000000 0.000000 0.000000 -0.061057 0.000000 0.000000
# 5 0.000000 0.000000 0.000000 0.000000 -0.341326 0.000000
# 6 0.000000 0.000000 0.000000 0.000000 0.000000 0.008338
#
#
# Mechanical properties :
#
#
# Convention : Reuss Voigt Hill
#
# Bulk Modulus (GPa) = 32.33589 43.83492 38.08541
# Shear Modulus (GPa) = -15.38953 34.46805 9.53926
#
# Velocity S-wave (km/s) = -2.61612 3.91519 2.05969
# Velocity P-wave (km/s) = 2.29239 6.31923 4.75330
#
# Compressibility (1/GPa) = 0.03092539
#
# Stress axis : x y z
#
# Youngs Moduli (GPa) = 68.60433 53.72905 85.50660
#
# Poissons Ratio (x) = -0.07066 0.61216
# Poissons Ratio (y) = -0.09022 0.09704
# Poissons Ratio (z) = 0.49115 0.06098
#
# Static dielectric constant tensor:
#      x y z
#    x 1.836070 0.000000 0.000000 
#    y 0.000000 1.833430 0.000000 
#    z 0.000000 0.000000 1.850990 
# 
# From -- ./inp_files/35657.got.cif
#   From: 2010.05.17/outbox.cif.g08.bks.cpg/sg51_18_cif.got.tgz:35657.got - 2010.06.03 11:52:47.
