data_PCOD9403302
_publ_section_title
;
Structure prediction by ZEFSAII (Michael W. Deem and Ramdas Pophale) SiO2 
 PCOD9403302
Probable space group: P M M A
;
_chemical_formula_sum "Si O2"
_cell_formula_units_Z 64
_cell_length_a 8.867765
_cell_length_b 20.354045
_cell_length_c 18.177362
_cell_angle_alpha 90.000000
_cell_angle_beta 90.000000
_cell_angle_gamma 90.000000
_cell_volume 3280.920916
_symmetry_space_group_name_H-M "P M M A"
_symmetry_group_IT_number 51
_symmetry_cell_setting 'orthorhombic'
loop_
_space_group_symop_operation_xyz
x,y,z
1/2-x,-y,z
1/2+x,-y,-z
-x,y,-z
-x,-y,-z
1/2+x,y,-z
1/2-x,y,z
x,-y,z
loop_
_atom_site_type_symbol
_atom_site_label
_atom_site_fract_x
_atom_site_fract_y
_atom_site_fract_z
Si Si1 0.071222 0.576176 0.624272
Si Si2 0.069467 0.207557 0.281850
Si Si3 0.069806 0.072211 0.766329
Si Si4 0.081644 0.421865 0.223274
Si Si5 0.574209 0.624033 0.074750
Si Si6 0.569654 0.708786 0.575181
Si Si7 0.425115 0.098104 0.076674
Si Si8 0.424159 0.250010 0.116616
O O1 0.250000 0.580936 0.612424
O O2 0.025386 0.500000 0.608687
O O3 0.028885 0.591300 0.709044
O O4 0.985156 0.633444 0.581987
O O5 0.250000 0.199403 0.285259
O O6 0.021226 0.250165 0.352334
O O7 0.040234 0.243886 0.203859
O O8 0.997400 0.135308 0.275299
O O9 0.250000 0.077998 0.767504
O O10 0.009151 0.074403 0.850110
O O11 0.029263 0.000000 0.735544
O O12 0.250000 0.393493 0.236433
O O13 0.095924 0.500000 0.221137
O O14 0.013050 0.400714 0.146338
O O15 0.750000 0.608734 0.077639
O O16 0.542389 0.701951 0.079020
O O17 0.500000 0.598210 0.000000
O O18 0.500000 0.736430 0.500000
O O19 0.750000 0.710034 0.571838
O O20 0.250000 0.078754 0.079050
O O21 0.430827 0.177294 0.083821
O O22 0.500000 0.078140 0.000000
O O23 0.250000 0.273901 0.107905
#
# Coordination Sequence:
#
# PCOD9403302 Si02
#       8
#     8   8   8   8   8   8   8   8
#     4  10  21  38  61  89 119 152 191 231 273 327
#     4   9  20  38  60  84 111 147 187 229 277 332
#     4  10  21  36  56  83 112 145 188 236 285 338
#     4  10  21  38  58  77 100 134 176 223 275 330
#     4  12  24  35  50  72 100 136 178 228 284 335
#     4  11  23  39  61  90 123 156 190 228 275 330
#     4  10  20  33  51  75 107 147 186 229 279 329
#     4   9  18  34  54  76 102 134 178 226 273 328
#
# _framework density 19.506717999999999
#
# number of rings (size 3 to 8) (size 9 to 14) (size 15 to 20)
#    0.000    1.875    0.000    4.875    0.000    8.750 
#    0.000    0.000    0.000    0.375    0.000    0.000 
#    0.000    0.000    0.000    0.000    0.000    0.000 
#
# Total GULP energy -357531.163742 kJ/mol
# GULP energy per Si atom -5586.424433 kJ/mol
# Density = 1.946232 g / cm^3
# Si number density = 19.506718 Si / 1000 Ang^3
#
#
#
# Elastic Constant Matrix: (Units=GPa)
#
#
# Indices 1 2 3 4 5 6 
#
# 1 58.1335 17.6438 24.6567 0.0000 0.0000 0.0000
# 2 17.6438 58.3113 40.4009 0.0000 0.0000 0.0000
# 3 24.6567 40.4009 103.6865 0.0000 0.0000 0.0000
# 4 0.0000 0.0000 0.0000 -3.8457 0.0000 0.0000
# 5 0.0000 0.0000 0.0000 0.0000 29.8623 0.0000
# 6 0.0000 0.0000 0.0000 0.0000 0.0000 21.2754
#
#
#
# Elastic Compliance Matrix: (Units=1/GPa)
#
#
# Indices 1 2 3 4 5 6 
#
# 1 0.019703 -0.003720 -0.003236 0.000000 0.000000 0.000000
# 2 -0.003720 0.024193 -0.008542 0.000000 0.000000 0.000000
# 3 -0.003236 -0.008542 0.013742 0.000000 0.000000 0.000000
# 4 0.000000 0.000000 0.000000 -0.260030 0.000000 0.000000
# 5 0.000000 0.000000 0.000000 0.000000 0.033487 0.000000
# 6 0.000000 0.000000 0.000000 0.000000 0.000000 0.047003
#
#
# Mechanical properties :
#
#
# Convention : Reuss Voigt Hill
#
# Bulk Modulus (GPa) = 37.53334 42.83713 40.18524
# Shear Modulus (GPa) = -60.95738 18.62039 -21.16849
#
# Velocity S-wave (km/s) = -5.59618 3.09295 -3.29780
# Velocity P-wave (km/s) = 4.74061 5.89602 2.47888
#
# Compressibility (1/GPa) = 0.02664298
#
# Stress axis : x y z
#
# Youngs Moduli (GPa) = 50.75297 41.33367 72.76728
#
# Poissons Ratio (x) = 0.15375 0.23548
# Poissons Ratio (y) = 0.18879 0.62160
# Poissons Ratio (z) = 0.16424 0.35308
#
# Static dielectric constant tensor:
#      x y z
#    x 1.661500 0.000000 0.000000 
#    y 0.000000 1.727870 0.000000 
#    z 0.000000 0.000000 1.692820 
# 
# From -- ./inp_files/28426.got.cif
#   From: 2010.05.17/outbox.cif.g08.bks.cpg/sg51_15_cif.got.tgz:28426.got - 2010.06.03 11:52:47.
