data_PCOD9403565
_publ_section_title
;
Structure prediction by ZEFSAII (Michael W. Deem and Ramdas Pophale) SiO2 
 PCOD9403565
Probable space group: P M M A
;
_chemical_formula_sum "Si O2"
_cell_formula_units_Z 64
_cell_length_a 20.154568
_cell_length_b 9.650661
_cell_length_c 19.302649
_cell_angle_alpha 90.000000
_cell_angle_beta 90.000000
_cell_angle_gamma 90.000000
_cell_volume 3754.459879
_symmetry_space_group_name_H-M "P M M A"
_symmetry_group_IT_number 51
_symmetry_cell_setting 'orthorhombic'
loop_
_space_group_symop_operation_xyz
x,y,z
1/2-x,-y,z
1/2+x,-y,-z
-x,y,-z
-x,-y,-z
1/2+x,y,-z
1/2-x,y,z
x,-y,z
loop_
_atom_site_type_symbol
_atom_site_label
_atom_site_fract_x
_atom_site_fract_y
_atom_site_fract_z
Si Si1 0.953818 0.162235 0.935849
Si Si2 0.325643 0.662912 0.040474
Si Si3 0.056316 0.161513 0.809131
Si Si4 0.939080 0.658046 0.551677
Si Si5 0.321705 0.335037 0.281910
Si Si6 0.677221 0.161958 0.575588
Si Si7 0.032313 0.338562 0.284937
Si Si8 0.826586 0.338731 0.126788
O O1 0.886144 0.248318 0.930004
O O2 0.000489 0.171555 0.869095
O O3 0.937577 0.000000 0.948553
O O4 0.000000 0.211165 0.000000
O O5 0.250000 0.704595 0.059662
O O6 0.332959 0.500000 0.058353
O O7 0.330759 0.675199 0.956745
O O8 0.121607 0.238581 0.836591
O O9 0.023887 0.240355 0.744661
O O10 0.068978 0.000000 0.795622
O O11 0.913800 0.500000 0.546231
O O12 0.881631 0.766150 0.534656
O O13 0.960395 0.676936 0.631983
O O14 0.000000 0.673442 0.500000
O O15 0.250000 0.310687 0.245588
O O16 0.323606 0.500000 0.298292
O O17 0.320078 0.244544 0.351690
O O18 0.394717 0.305481 0.251831
O O19 0.750000 0.175985 0.542937
O O20 0.664802 0.000000 0.588268
O O21 0.017787 0.500000 0.270076
O O22 0.750000 0.310778 0.145947
O O23 0.841314 0.500000 0.142879
#
# Coordination Sequence:
#
# PCOD9403565 Si02
#       8
#     8   8   8   8   8   8   8   8
#     4  10  20  34  49  70 100 133 167 201 242 291
#     4   9  18  32  51  76 101 126 163 210 255 297
#     4  11  22  34  50  73 102 134 168 205 244 294
#     4   9  18  33  53  75  98 127 165 206 247 295
#     4   8  14  27  47  68  91 124 165 203 237 279
#     4   9  16  25  41  69 101 128 156 193 238 286
#     4   9  18  32  50  73 101 131 163 203 251 297
#     4   9  18  33  53  76  99 124 160 207 255 299
#
# _framework density 17.046392999999998
#
# number of rings (size 3 to 8) (size 9 to 14) (size 15 to 20)
#    0.000    2.750    1.250    2.250    0.000    4.750 
#    0.000    1.875    0.000    3.000    0.000    1.750 
#    0.000    0.000    0.000    0.000    0.000    0.000 
#
# Total GULP energy -356443.730062 kJ/mol
# GULP energy per Si atom -5569.433282 kJ/mol
# Density = 1.700759 g / cm^3
# Si number density = 17.046393 Si / 1000 Ang^3
#
#
#
# Elastic Constant Matrix: (Units=GPa)
#
#
# Indices 1 2 3 4 5 6 
#
# 1 113.2749 76.4623 18.4711 0.0000 0.0000 0.0000
# 2 76.4623 83.6912 22.8038 0.0000 0.0000 0.0000
# 3 18.4711 22.8038 24.3112 0.0000 0.0000 0.0000
# 4 0.0000 0.0000 0.0000 11.4989 0.0000 0.0000
# 5 0.0000 0.0000 0.0000 0.0000 15.7085 0.0000
# 6 0.0000 0.0000 0.0000 0.0000 0.0000 23.0778
#
#
#
# Elastic Compliance Matrix: (Units=1/GPa)
#
#
# Indices 1 2 3 4 5 6 
#
# 1 0.023197 -0.022019 0.003029 0.000000 0.000000 0.000000
# 2 -0.022019 0.036951 -0.017931 0.000000 0.000000 0.000000
# 3 0.003029 -0.017931 0.055651 0.000000 0.000000 0.000000
# 4 0.000000 0.000000 0.000000 0.086964 0.000000 0.000000
# 5 0.000000 0.000000 0.000000 0.000000 0.063660 0.000000
# 6 0.000000 0.000000 0.000000 0.000000 0.000000 0.043332
#
#
# Mechanical properties :
#
#
# Convention : Reuss Voigt Hill
#
# Bulk Modulus (GPa) = 23.83330 50.75019 37.29175
# Shear Modulus (GPa) = 12.57597 16.95971 14.76784
#
# Velocity S-wave (km/s) = 2.71910 3.15765 2.94655
# Velocity P-wave (km/s) = 4.88567 6.56740 5.78794
#
# Compressibility (1/GPa) = 0.04195810
#
# Stress axis : x y z
#
# Youngs Moduli (GPa) = 43.10844 27.06254 17.96910
#
# Poissons Ratio (x) = 0.59589 -0.05443
# Poissons Ratio (y) = 0.94920 0.32220
# Poissons Ratio (z) = -0.13057 0.48525
#
# Static dielectric constant tensor:
#      x y z
#    x 1.603050 0.000000 0.000000 
#    y 0.000000 1.568150 0.000000 
#    z 0.000000 0.000000 1.577780 
# 
# From -- ./inp_files/30578.got.cif
#   From: 2010.05.17/outbox.cif.g08.bks.cpg/sg51_16_cif.got.tgz:30578.got - 2010.06.03 11:52:47.
