data_PCOD9403020
_publ_section_title
;
Structure prediction by ZEFSAII (Michael W. Deem and Ramdas Pophale) SiO2 
 PCOD9403020
Probable space group: P M M A
;
_chemical_formula_sum "Si O2"
_cell_formula_units_Z 48
_cell_length_a 16.764785
_cell_length_b 15.908483
_cell_length_c 9.066406
_cell_angle_alpha 90.000000
_cell_angle_beta 90.000000
_cell_angle_gamma 90.000000
_cell_volume 2418.031307
_symmetry_space_group_name_H-M "P M M A"
_symmetry_group_IT_number 51
_symmetry_cell_setting 'orthorhombic'
loop_
_space_group_symop_operation_xyz
x,y,z
1/2-x,-y,z
1/2+x,-y,-z
-x,y,-z
-x,-y,-z
1/2+x,y,-z
1/2-x,y,z
x,-y,z
loop_
_atom_site_type_symbol
_atom_site_label
_atom_site_fract_x
_atom_site_fract_y
_atom_site_fract_z
Si Si1 0.153390 0.674570 0.629185
Si Si2 0.088495 0.500000 0.575548
Si Si3 0.400468 0.836602 0.133958
Si Si4 0.843744 0.323976 0.709145
Si Si5 0.581928 0.000000 0.403468
Si Si6 0.341196 0.000000 0.296980
Si Si7 0.914808 0.165340 0.199897
Si Si8 0.658336 0.500000 0.741834
O O1 0.250000 0.665675 0.639292
O O2 0.109134 0.585869 0.661841
O O3 0.128341 0.692509 0.458150
O O4 0.125637 0.753527 0.726266
O O5 0.150995 0.500000 0.437320
O O6 0.000000 0.500000 0.500000
O O7 0.354023 0.756073 0.190793
O O8 0.381213 0.917839 0.229929
O O9 0.492656 0.816181 0.166181
O O10 0.381621 0.853658 0.963244
O O11 0.750000 0.341117 0.692881
O O12 0.879615 0.409744 0.777899
O O13 0.500000 0.000000 0.500000
O O14 0.649602 0.000000 0.527631
O O15 0.588238 0.916576 0.303995
O O16 0.250000 0.000000 0.252686
O O17 0.750000 0.500000 0.794837
#
# Coordination Sequence:
#
# PCOD9403020 Si02
#       8
#     8   4   8   8   4   4   8   4
#     4  10  22  39  61  93 127 161 208 259 307 363
#     4  10  20  32  61  93 122 161 203 252 309 361
#     4  11  23  41  59  89 126 158 209 248 300 378
#     4   9  18  34  59  85 117 158 200 250 300 357
#     4  12  23  43  68  89 120 155 203 256 305 355
#     4  12  25  41  67  95 119 156 204 254 307 371
#     4  11  25  40  63  89 122 169 200 251 314 364
#     4   8  16  32  53  83 119 152 198 250 291 343
#
# _framework density 19.850860000000001
#
# number of rings (size 3 to 8) (size 9 to 14) (size 15 to 20)
#    0.000    1.667    1.667    3.750    4.667    4.667 
#    0.000    1.667    0.000    4.000    0.000    0.000 
#    0.000    0.000    0.000    0.000    0.000    0.000 
#
# Total GULP energy -267689.650859 kJ/mol
# GULP energy per Si atom -5576.867726 kJ/mol
# Density = 1.980568 g / cm^3
# Si number density = 19.850860 Si / 1000 Ang^3
#
#
#
# Elastic Constant Matrix: (Units=GPa)
#
#
# Indices 1 2 3 4 5 6 
#
# 1 63.9713 30.6855 17.6707 0.0000 0.0000 0.0000
# 2 30.6855 174.1305 68.5312 0.0000 0.0000 0.0000
# 3 17.6707 68.5312 101.4061 0.0000 0.0000 0.0000
# 4 0.0000 0.0000 0.0000 -24.6052 0.0000 0.0000
# 5 0.0000 0.0000 0.0000 0.0000 19.5843 0.0000
# 6 0.0000 0.0000 0.0000 0.0000 0.0000 30.5572
#
#
#
# Elastic Compliance Matrix: (Units=1/GPa)
#
#
# Indices 1 2 3 4 5 6 
#
# 1 0.017199 -0.002522 -0.001293 0.000000 0.000000 0.000000
# 2 -0.002522 0.008194 -0.005098 0.000000 0.000000 0.000000
# 3 -0.001293 -0.005098 0.013532 0.000000 0.000000 0.000000
# 4 0.000000 0.000000 0.000000 -0.040642 0.000000 0.000000
# 5 0.000000 0.000000 0.000000 0.000000 0.051061 0.000000
# 6 0.000000 0.000000 0.000000 0.000000 0.000000 0.032725
#
#
# Mechanical properties :
#
#
# Convention : Reuss Voigt Hill
#
# Bulk Modulus (GPa) = 47.39511 63.69808 55.54660
# Shear Modulus (GPa) = 46.76088 19.94864 33.35476
#
# Velocity S-wave (km/s) = 4.85873 3.17350 4.10355
# Velocity P-wave (km/s) = 7.44337 6.75175 7.10598
#
# Compressibility (1/GPa) = 0.02109922
#
# Stress axis : x y z
#
# Youngs Moduli (GPa) = 58.14344 122.04693 73.90049
#
# Poissons Ratio (x) = 0.30782 0.09552
# Poissons Ratio (y) = 0.14664 0.37673
# Poissons Ratio (z) = 0.07515 0.62217
#
# Static dielectric constant tensor:
#      x y z
#    x 1.742070 0.000000 0.000000 
#    y 0.000000 1.729120 0.000000 
#    z 0.000000 0.000000 1.700980 
# 
# From -- ./inp_files/9736.got.cif
#   From: 2010.05.17/outbox.cif.g08.bks.cpg/sg51_5_cif.got.tgz:9736.got - 2010.06.03 11:52:47.
