data_PCOD9403083
_publ_section_title
;
Structure prediction by ZEFSAII (Michael W. Deem and Ramdas Pophale) SiO2 
 PCOD9403083
Probable space group: P M M A
;
_chemical_formula_sum "Si O2"
_cell_formula_units_Z 48
_cell_length_a 9.275405
_cell_length_b 7.330062
_cell_length_c 31.940151
_cell_angle_alpha 90.000000
_cell_angle_beta 90.000000
_cell_angle_gamma 90.000000
_cell_volume 2171.588308
_symmetry_space_group_name_H-M "P M M A"
_symmetry_group_IT_number 51
_symmetry_cell_setting 'orthorhombic'
loop_
_space_group_symop_operation_xyz
x,y,z
1/2-x,-y,z
1/2+x,-y,-z
-x,y,-z
-x,-y,-z
1/2+x,y,-z
1/2-x,y,z
x,-y,z
loop_
_atom_site_type_symbol
_atom_site_label
_atom_site_fract_x
_atom_site_fract_y
_atom_site_fract_z
Si Si1 0.083686 0.222829 0.708861
Si Si2 0.413593 0.782236 0.209089
Si Si3 0.583628 0.222564 0.458234
Si Si4 0.083761 0.277245 0.041832
Si Si5 0.083692 0.222487 0.374737
Si Si6 0.586422 0.282230 0.123850
O O1 0.250000 0.280388 0.708564
O O2 0.001138 0.284888 0.750545
O O3 0.999513 0.279444 0.667126
O O4 0.084077 0.000000 0.709058
O O5 0.250000 0.711662 0.206950
O O6 0.499878 0.750002 0.166448
O O7 0.403955 0.000000 0.214096
O O8 0.500000 0.280057 0.500000
O O9 0.750000 0.280252 0.458268
O O10 0.500183 0.280172 0.416446
O O11 0.583808 0.000000 0.458227
O O12 0.250000 0.219418 0.041609
O O13 0.084287 0.500000 0.042102
O O14 0.000850 0.215036 0.083441
O O15 0.000000 0.221193 0.000000
O O16 0.250000 0.280446 0.374795
O O17 0.084026 0.000000 0.374810
O O18 0.750000 0.211671 0.126070
O O19 0.596065 0.500000 0.118850
#
# Coordination Sequence:
#
# PCOD9403083 Si02
#       6
#     8   8   8   8   8   8
#     4   9  16  26  40  57  77 103 137 177 219 262
#     4  10  20  33  49  69  93 122 156 193 233 277
#     4   9  15  21  28  39  57  83 117 158 205 255
#     4   9  16  27  45  69  96 124 154 189 227 267
#     4   9  15  22  32  46  65  90 123 165 210 255
#     4  10  20  33  50  73  99 126 157 192 230 273
#
# _framework density 22.103636000000002
#
# number of rings (size 3 to 8) (size 9 to 14) (size 15 to 20)
#    0.000    2.667    0.000    3.000    0.000   10.000 
#    0.000    0.000    0.000    0.500    0.000    0.000 
#    0.000    0.000    0.000    0.000    0.000    0.833 
#
# Total GULP energy -268387.991477 kJ/mol
# GULP energy per Si atom -5591.416489 kJ/mol
# Density = 2.205333 g / cm^3
# Si number density = 22.103636 Si / 1000 Ang^3
#
#
#
# Elastic Constant Matrix: (Units=GPa)
#
#
# Indices 1 2 3 4 5 6 
#
# 1 294.7582 8.6928 184.4226 0.0000 0.0000 0.0000
# 2 8.6928 87.1327 3.0198 0.0000 0.0000 0.0000
# 3 184.4226 3.0198 281.2942 0.0000 0.0000 0.0000
# 4 0.0000 0.0000 0.0000 9.7189 0.0000 0.0000
# 5 0.0000 0.0000 0.0000 0.0000 49.9289 0.0000
# 6 0.0000 0.0000 0.0000 0.0000 0.0000 -4.6581
#
#
#
# Elastic Compliance Matrix: (Units=1/GPa)
#
#
# Indices 1 2 3 4 5 6 
#
# 1 0.005769 -0.000445 -0.003778 0.000000 0.000000 0.000000
# 2 -0.000445 0.011515 0.000168 0.000000 0.000000 0.000000
# 3 -0.003778 0.000168 0.006030 0.000000 0.000000 0.000000
# 4 0.000000 0.000000 0.000000 0.102892 0.000000 0.000000
# 5 0.000000 0.000000 0.000000 0.000000 0.020028 0.000000
# 6 0.000000 0.000000 0.000000 0.000000 0.000000 -0.214680
#
#
# Mechanical properties :
#
#
# Convention : Reuss Voigt Hill
#
# Bulk Modulus (GPa) = 65.76510 117.27282 91.51896
# Shear Modulus (GPa) = -90.47024 42.13460 -24.16782
#
# Velocity S-wave (km/s) = -6.40460 4.37078 -3.31023
# Velocity P-wave (km/s) = 4.98740 8.86807 5.18500
#
# Compressibility (1/GPa) = 0.01520563
#
# Stress axis : x y z
#
# Youngs Moduli (GPa) = 173.32937 86.84103 165.83841
#
# Poissons Ratio (x) = 0.03861 0.62650
# Poissons Ratio (y) = 0.07707 -0.02785
# Poissons Ratio (z) = 0.65479 -0.01458
#
# Static dielectric constant tensor:
#      x y z
#    x 1.752480 0.000000 0.000000 
#    y 0.000000 1.966500 0.000000 
#    z 0.000000 0.000000 1.736000 
# 
# From -- ./inp_files/36134.got.cif
#   From: 2010.05.17/outbox.cif.g08.bks.cpg/sg51_19_cif.got.tgz:36134.got - 2010.06.03 11:52:47.
