data_PCOD9403260
_publ_section_title
;
Structure prediction by ZEFSAII (Michael W. Deem and Ramdas Pophale) SiO2 
 PCOD9403260
Probable space group: P M M A
;
_chemical_formula_sum "Si O2"
_cell_formula_units_Z 64
_cell_length_a 18.845709
_cell_length_b 9.264363
_cell_length_c 20.869198
_cell_angle_alpha 90.000000
_cell_angle_beta 90.000000
_cell_angle_gamma 90.000000
_cell_volume 3643.626095
_symmetry_space_group_name_H-M "P M M A"
_symmetry_group_IT_number 51
_symmetry_cell_setting 'orthorhombic'
loop_
_space_group_symop_operation_xyz
x,y,z
1/2-x,-y,z
1/2+x,-y,-z
-x,y,-z
-x,-y,-z
1/2+x,y,-z
1/2-x,y,z
x,-y,z
loop_
_atom_site_type_symbol
_atom_site_label
_atom_site_fract_x
_atom_site_fract_y
_atom_site_fract_z
Si Si1 0.336423 0.334551 0.048365
Si Si2 0.920601 0.671200 0.472565
Si Si3 0.402809 0.672056 0.299122
Si Si4 0.664430 0.169903 0.822222
Si Si5 0.332788 0.825893 0.779196
Si Si6 0.069132 0.328632 0.676844
Si Si7 0.334769 0.168877 0.420487
Si Si8 0.836444 0.166703 0.077499
O O1 0.250000 0.334520 0.046886
O O2 0.359637 0.500000 0.054959
O O3 0.356626 0.239711 0.109829
O O4 0.360484 0.264055 0.981593
O O5 0.904598 0.500000 0.478992
O O6 0.919104 0.709763 0.397663
O O7 0.867774 0.763941 0.515409
O O8 0.000000 0.692156 0.500000
O O9 0.390216 0.500000 0.298146
O O10 0.372325 0.746078 0.235618
O O11 0.486933 0.696797 0.305990
O O12 0.365451 0.742889 0.360545
O O13 0.750000 0.184188 0.815831
O O14 0.647653 0.000000 0.820437
O O15 0.250000 0.784803 0.771652
O O16 0.380307 0.756671 0.724622
O O17 0.357165 0.783792 0.851186
O O18 0.336183 0.000000 0.776707
O O19 0.082369 0.500000 0.683051
O O20 0.250000 0.180322 0.421152
O O21 0.353849 0.000000 0.414440
O O22 0.750000 0.166840 0.077636
O O23 0.858194 0.000000 0.068100
#
# Coordination Sequence:
#
# PCOD9403260 Si02
#       8
#     8   8   8   8   8   8   8   8
#     4   9  16  26  44  73 105 139 180 222 268 321
#     4  10  20  40  62  80 107 143 184 225 269 325
#     4  11  22  38  57  78 108 146 186 226 270 323
#     4  10  20  33  50  76 110 144 181 227 274 322
#     4   9  19  35  55  81 112 144 179 221 271 327
#     4  10  22  38  58  82 108 141 181 224 269 322
#     4  11  24  39  57  86 117 143 179 226 274 325
#     4   8  14  27  47  71 102 139 176 217 266 318
#
# _framework density 17.564920000000001
#
# number of rings (size 3 to 8) (size 9 to 14) (size 15 to 20)
#    0.000    2.250    1.250    2.625    0.000    7.750 
#    0.000    3.750    0.000    0.750    0.000    5.250 
#    0.000    0.000    0.000    0.000    0.000    0.000 
#
# Total GULP energy -357161.366181 kJ/mol
# GULP energy per Si atom -5580.646347 kJ/mol
# Density = 1.752494 g / cm^3
# Si number density = 17.564920 Si / 1000 Ang^3
#
#
#
# Elastic Constant Matrix: (Units=GPa)
#
#
# Indices 1 2 3 4 5 6 
#
# 1 51.5003 60.7093 65.1869 0.0000 0.0000 0.0000
# 2 60.7093 111.0767 101.7935 0.0000 0.0000 0.0000
# 3 65.1869 101.7935 194.4515 0.0000 0.0000 0.0000
# 4 0.0000 0.0000 0.0000 39.3814 0.0000 0.0000
# 5 0.0000 0.0000 0.0000 0.0000 64.1752 0.0000
# 6 0.0000 0.0000 0.0000 0.0000 0.0000 23.8330
#
#
#
# Elastic Compliance Matrix: (Units=1/GPa)
#
#
# Indices 1 2 3 4 5 6 
#
# 1 0.057413 -0.026412 -0.005421 0.000000 0.000000 0.000000
# 2 -0.026412 0.029455 -0.006565 0.000000 0.000000 0.000000
# 3 -0.005421 -0.006565 0.010397 0.000000 0.000000 0.000000
# 4 0.000000 0.000000 0.000000 0.025393 0.000000 0.000000
# 5 0.000000 0.000000 0.000000 0.000000 0.015582 0.000000
# 6 0.000000 0.000000 0.000000 0.000000 0.000000 0.041959
#
#
# Mechanical properties :
#
#
# Convention : Reuss Voigt Hill
#
# Bulk Modulus (GPa) = 48.85325 90.26757 69.56041
# Shear Modulus (GPa) = 18.95263 34.10049 26.52656
#
# Velocity S-wave (km/s) = 3.28838 4.41091 3.89035
# Velocity P-wave (km/s) = 6.50318 8.80022 7.73742
#
# Compressibility (1/GPa) = 0.02046947
#
# Stress axis : x y z
#
# Youngs Moduli (GPa) = 17.41768 33.95058 96.18545
#
# Poissons Ratio (x) = 0.89669 0.52138
# Poissons Ratio (y) = 0.46003 0.63146
# Poissons Ratio (z) = 0.09441 0.22289
#
# Static dielectric constant tensor:
#      x y z
#    x 1.577680 0.000000 0.000000 
#    y 0.000000 1.586270 0.000000 
#    z 0.000000 0.000000 1.584870 
# 
# From -- ./inp_files/33753.got.cif
#   From: 2010.05.17/outbox.cif.g08.bks.cpg/sg51_17_cif.got.tgz:33753.got - 2010.06.03 11:52:47.
