data_PCOD9403140
_publ_section_title
;
Structure prediction by ZEFSAII (Michael W. Deem and Ramdas Pophale) SiO2 
 PCOD9403140
Probable space group: P M M A
;
_chemical_formula_sum "Si O2"
_cell_formula_units_Z 64
_cell_length_a 29.478819
_cell_length_b 9.085746
_cell_length_c 13.280513
_cell_angle_alpha 90.000000
_cell_angle_beta 90.000000
_cell_angle_gamma 90.000000
_cell_volume 3557.013581
_symmetry_space_group_name_H-M "P M M A"
_symmetry_group_IT_number 51
_symmetry_cell_setting 'orthorhombic'
loop_
_space_group_symop_operation_xyz
x,y,z
1/2-x,-y,z
1/2+x,-y,-z
-x,y,-z
-x,-y,-z
1/2+x,y,-z
1/2-x,y,z
x,-y,z
loop_
_atom_site_type_symbol
_atom_site_label
_atom_site_fract_x
_atom_site_fract_y
_atom_site_fract_z
Si Si1 0.001331 0.172127 0.251541
Si Si2 0.195718 0.675974 0.625240
Si Si3 0.459420 0.338103 0.921903
Si Si4 0.302824 0.678926 0.851013
Si Si5 0.135286 0.674101 0.035272
Si Si6 0.129914 0.823484 0.466040
Si Si7 0.545161 0.665697 0.433703
Si Si8 0.107576 0.822691 0.239734
O O1 0.054032 0.222434 0.242740
O O2 0.974287 0.208050 0.150497
O O3 0.972742 0.258967 0.333607
O O4 0.002422 0.000000 0.275742
O O5 0.250000 0.700427 0.619312
O O6 0.188254 0.500000 0.617409
O O7 0.180650 0.723893 0.738763
O O8 0.169270 0.756534 0.535995
O O9 0.455471 0.500000 0.869992
O O10 0.500000 0.349823 0.000000
O O11 0.413442 0.311737 0.981657
O O12 0.250000 0.719143 0.858688
O O13 0.305521 0.500000 0.850760
O O14 0.329695 0.729639 0.949920
O O15 0.143836 0.500000 0.052425
O O16 0.131979 0.753543 0.142724
O O17 0.083145 0.761400 0.511560
O O18 0.129938 0.782502 0.347313
O O19 0.130670 0.000000 0.471899
O O20 0.500000 0.657600 0.500000
O O21 0.562664 0.500000 0.416944
O O22 0.108319 0.000000 0.230685
#
# Coordination Sequence:
#
# PCOD9403140 Si02
#       8
#     8   8   8   8   8   8   8   8
#     4  11  22  36  53  74 108 151 190 230 278 335
#     4   9  19  38  63  89 116 146 185 235 289 344
#     4  10  20  33  49  76 111 144 183 229 274 323
#     4   8  16  34  59  85 112 140 173 223 283 331
#     4  10  20  34  56  82 109 144 187 231 274 331
#     4  11  23  39  58  83 116 153 193 235 284 343
#     4  11  23  37  56  81 110 147 191 237 284 335
#     4  10  22  38  54  75 112 154 188 228 278 333
#
# _framework density 17.992622000000001
#
# number of rings (size 3 to 8) (size 9 to 14) (size 15 to 20)
#    0.000    2.000    2.500    1.875    1.750    3.000 
#    0.000    1.250    0.000    3.375    0.000    0.000 
#    0.000    0.000    0.000    0.000    0.000    0.000 
#
# Total GULP energy -356824.628183 kJ/mol
# GULP energy per Si atom -5575.384815 kJ/mol
# Density = 1.795167 g / cm^3
# Si number density = 17.992622 Si / 1000 Ang^3
#
#
#
# Elastic Constant Matrix: (Units=GPa)
#
#
# Indices 1 2 3 4 5 6 
#
# 1 68.6839 26.7345 57.9089 0.0000 0.0000 0.0000
# 2 26.7345 42.8998 51.1021 0.0000 0.0000 0.0000
# 3 57.9089 51.1021 150.7989 0.0000 0.0000 0.0000
# 4 0.0000 0.0000 0.0000 54.1422 0.0000 0.0000
# 5 0.0000 0.0000 0.0000 0.0000 30.8656 0.0000
# 6 0.0000 0.0000 0.0000 0.0000 0.0000 25.1230
#
#
#
# Elastic Compliance Matrix: (Units=1/GPa)
#
#
# Indices 1 2 3 4 5 6 
#
# 1 0.022487 -0.006250 -0.006517 0.000000 0.000000 0.000000
# 2 -0.006250 0.040826 -0.011435 0.000000 0.000000 0.000000
# 3 -0.006517 -0.011435 0.013009 0.000000 0.000000 0.000000
# 4 0.000000 0.000000 0.000000 0.018470 0.000000 0.000000
# 5 0.000000 0.000000 0.000000 0.000000 0.032399 0.000000
# 6 0.000000 0.000000 0.000000 0.000000 0.000000 0.039804
#
#
# Mechanical properties :
#
#
# Convention : Reuss Voigt Hill
#
# Bulk Modulus (GPa) = 35.81949 59.31930 47.56939
# Shear Modulus (GPa) = 22.25127 30.46864 26.35995
#
# Velocity S-wave (km/s) = 3.52047 4.11955 3.83174
# Velocity P-wave (km/s) = 6.03954 7.46109 6.78763
#
# Compressibility (1/GPa) = 0.02791776
#
# Stress axis : x y z
#
# Youngs Moduli (GPa) = 44.46976 24.49392 76.86912
#
# Poissons Ratio (x) = 0.15309 0.50098
# Poissons Ratio (y) = 0.27795 0.87899
# Poissons Ratio (z) = 0.28982 0.28009
#
# Static dielectric constant tensor:
#      x y z
#    x 1.599270 0.000000 0.000000 
#    y 0.000000 1.625660 0.000000 
#    z 0.000000 0.000000 1.620780 
# 
# From -- ./inp_files/19488.got.cif
#   From: 2010.05.17/outbox.cif.g08.bks.cpg/sg51_10_cif.got.tgz:19488.got - 2010.06.03 11:52:47.
