data_PCOD9403854
_publ_section_title
;
Structure prediction by ZEFSAII (Michael W. Deem and Ramdas Pophale) SiO2 
 PCOD9403854
Probable space group: P M M A
;
_chemical_formula_sum "Si O2"
_cell_formula_units_Z 40
_cell_length_a 8.614741
_cell_length_b 19.063415
_cell_length_c 13.894706
_cell_angle_alpha 90.000000
_cell_angle_beta 90.000000
_cell_angle_gamma 90.000000
_cell_volume 2281.877306
_symmetry_space_group_name_H-M "P M M A"
_symmetry_group_IT_number 51
_symmetry_cell_setting 'orthorhombic'
loop_
_space_group_symop_operation_xyz
x,y,z
1/2-x,-y,z
1/2+x,-y,-z
-x,y,-z
-x,-y,-z
1/2+x,y,-z
1/2-x,y,z
x,-y,z
loop_
_atom_site_type_symbol
_atom_site_label
_atom_site_fract_x
_atom_site_fract_y
_atom_site_fract_z
Si Si1 0.434765 0.284496 0.294297
Si Si2 0.064187 0.080482 0.204157
Si Si3 0.935827 0.419501 0.392148
Si Si4 0.065089 0.784566 0.895085
Si Si5 0.935458 0.148522 0.394769
O O1 0.250000 0.277275 0.301252
O O2 0.488250 0.361508 0.324557
O O3 0.490974 0.263657 0.187862
O O4 0.512858 0.227229 0.365083
O O5 0.250000 0.090238 0.199571
O O6 0.983837 0.136356 0.134218
O O7 0.007097 0.099637 0.311577
O O8 0.027400 0.000000 0.181353
O O9 0.750000 0.411025 0.392826
O O10 0.971657 0.500000 0.364280
O O11 0.000000 0.409056 0.500000
O O12 0.250000 0.778347 0.892468
O O13 0.000000 0.767928 0.000000
O O14 0.750000 0.143711 0.393012
O O15 0.000000 0.131562 0.500000
#
# Coordination Sequence:
#
# PCOD9403854 Si02
#       5
#     8   8   8   8   8
#     4  11  21  35  55  79 108 139 176 219 263 311
#     4  10  21  37  55  77 105 135 171 216 265 316
#     4  10  20  34  53  80 114 149 183 217 256 304
#     4  11  22  38  59  81 105 134 173 217 265 316
#     4  11  21  34  52  74 103 139 179 218 260 311
#
# _framework density 17.529425
#
# number of rings (size 3 to 8) (size 9 to 14) (size 15 to 20)
#    0.000    1.400    0.000    9.600    0.000    3.600 
#    0.000    0.000    0.000    0.600    0.000    0.000 
#    0.000    0.000    0.000    0.000    0.000    0.000 
#
# Total GULP energy -223597.089756 kJ/mol
# GULP energy per Si atom -5589.927244 kJ/mol
# Density = 1.748953 g / cm^3
# Si number density = 17.529425 Si / 1000 Ang^3
#
#
#
# Elastic Constant Matrix: (Units=GPa)
#
#
# Indices 1 2 3 4 5 6 
#
# 1 78.7755 19.2584 -2.3122 0.0000 0.0000 0.0000
# 2 19.2584 88.8535 14.2679 0.0000 0.0000 0.0000
# 3 -2.3122 14.2679 48.8632 0.0000 0.0000 0.0000
# 4 0.0000 0.0000 0.0000 3.8448 0.0000 0.0000
# 5 0.0000 0.0000 0.0000 0.0000 32.2945 0.0000
# 6 0.0000 0.0000 0.0000 0.0000 0.0000 29.6008
#
#
#
# Elastic Compliance Matrix: (Units=1/GPa)
#
#
# Indices 1 2 3 4 5 6 
#
# 1 0.013518 -0.003182 0.001569 0.000000 0.000000 0.000000
# 2 -0.003182 0.012557 -0.003817 0.000000 0.000000 0.000000
# 3 0.001569 -0.003817 0.021654 0.000000 0.000000 0.000000
# 4 0.000000 0.000000 0.000000 0.260094 0.000000 0.000000
# 5 0.000000 0.000000 0.000000 0.000000 0.030965 0.000000
# 6 0.000000 0.000000 0.000000 0.000000 0.000000 0.033783
#
#
# Mechanical properties :
#
#
# Convention : Reuss Voigt Hill
#
# Bulk Modulus (GPa) = 27.12318 30.99116 29.05717
# Shear Modulus (GPa) = 12.63516 25.49990 19.06753
#
# Velocity S-wave (km/s) = 2.68768 3.81818 3.30167
# Velocity P-wave (km/s) = 5.01378 6.09556 5.58095
#
# Compressibility (1/GPa) = 0.03686883
#
# Stress axis : x y z
#
# Youngs Moduli (GPa) = 73.97419 79.63630 46.18058
#
# Poissons Ratio (x) = 0.25339 -0.07245
# Poissons Ratio (y) = 0.23538 0.17628
# Poissons Ratio (z) = -0.11605 0.30399
#
# Static dielectric constant tensor:
#      x y z
#    x 1.582400 0.000000 0.000000 
#    y 0.000000 1.592910 0.000000 
#    z 0.000000 0.000000 1.572760 
# 
# From -- ./inp_files/14001.got.cif
#   From: 2010.05.17/outbox.cif.g08.bks.cpg/sg51_8_cif.got.tgz:14001.got - 2010.06.03 11:52:47.
