data_PCOD9403339
_publ_section_title
;
Structure prediction by ZEFSAII (Michael W. Deem and Ramdas Pophale) SiO2 
 PCOD9403339
Probable space group: P M M A
;
_chemical_formula_sum "Si O2"
_cell_formula_units_Z 64
_cell_length_a 25.014100
_cell_length_b 8.895497
_cell_length_c 16.356367
_cell_angle_alpha 90.000000
_cell_angle_beta 90.000000
_cell_angle_gamma 90.000000
_cell_volume 3639.501861
_symmetry_space_group_name_H-M "P M M A"
_symmetry_group_IT_number 51
_symmetry_cell_setting 'orthorhombic'
loop_
_space_group_symop_operation_xyz
x,y,z
1/2-x,-y,z
1/2+x,-y,-z
-x,y,-z
-x,-y,-z
1/2+x,y,-z
1/2-x,y,z
x,-y,z
loop_
_atom_site_type_symbol
_atom_site_label
_atom_site_fract_x
_atom_site_fract_y
_atom_site_fract_z
Si Si1 0.557182 0.329188 0.459456
Si Si2 0.690704 0.818576 0.343071
Si Si3 0.813984 0.828043 0.699511
Si Si4 0.584660 0.677221 0.275947
Si Si5 0.157084 0.822940 0.478315
Si Si6 0.585191 0.818689 0.954354
Si Si7 0.474154 0.180880 0.877134
Si Si8 0.687507 0.320159 0.871893
O O1 0.500000 0.324688 0.500000
O O2 0.579309 0.500000 0.469423
O O3 0.555369 0.299521 0.362943
O O4 0.595816 0.210718 0.501875
O O5 0.750000 0.781265 0.313250
O O6 0.643199 0.747873 0.290785
O O7 0.685542 0.767793 0.438404
O O8 0.684644 0.000000 0.342905
O O9 0.750000 0.836813 0.697299
O O10 0.830185 0.761234 0.611506
O O11 0.827438 0.735049 0.780348
O O12 0.835009 0.000000 0.707625
O O13 0.589743 0.500000 0.261590
O O14 0.551681 0.750911 0.203319
O O15 0.169649 0.000000 0.472874
O O16 0.535665 0.773352 0.895001
O O17 0.641897 0.747302 0.930696
O O18 0.590207 0.000000 0.950258
O O19 0.562686 0.779548 0.044426
O O20 0.474209 0.000000 0.871951
O O21 0.750000 0.273191 0.887694
O O22 0.686163 0.500000 0.875825
#
# Coordination Sequence:
#
# PCOD9403339 Si02
#       8
#     8   8   8   8   8   8   8   8
#     4   9  19  34  47  63  95 135 168 200 243 295
#     4   9  17  31  51  72  97 132 172 214 260 305
#     4   9  17  30  48  70  98 131 166 204 245 291
#     4  10  20  33  51  76 104 135 170 209 255 304
#     4   9  17  29  47  71  94 121 165 215 254 289
#     4   9  19  37  60  82 102 129 166 208 255 305
#     4   9  19  37  59  81 104 129 164 211 257 304
#     4  10  21  35  51  76 110 142 171 206 250 302
#
# _framework density 17.584823
#
# number of rings (size 3 to 8) (size 9 to 14) (size 15 to 20)
#    0.000    2.750    0.000    1.875    0.000    5.750 
#    0.000    4.375    0.000    3.000    0.000    0.000 
#    0.000    0.000    0.000    0.000    0.000    0.000 
#
# Total GULP energy -356484.632390 kJ/mol
# GULP energy per Si atom -5570.072381 kJ/mol
# Density = 1.754480 g / cm^3
# Si number density = 17.584823 Si / 1000 Ang^3
#
#
#
# Elastic Constant Matrix: (Units=GPa)
#
#
# Indices 1 2 3 4 5 6 
#
# 1 103.2927 32.4531 54.8658 0.0000 0.0000 0.0000
# 2 32.4531 24.3237 28.3082 0.0000 0.0000 0.0000
# 3 54.8658 28.3082 66.3978 0.0000 0.0000 0.0000
# 4 0.0000 0.0000 0.0000 12.5355 0.0000 0.0000
# 5 0.0000 0.0000 0.0000 0.0000 19.0129 0.0000
# 6 0.0000 0.0000 0.0000 0.0000 0.0000 17.5831
#
#
#
# Elastic Compliance Matrix: (Units=1/GPa)
#
#
# Indices 1 2 3 4 5 6 
#
# 1 0.019510 -0.014426 -0.009971 0.000000 0.000000 0.000000
# 2 -0.014426 0.092268 -0.027417 0.000000 0.000000 0.000000
# 3 -0.009971 -0.027417 0.034989 0.000000 0.000000 0.000000
# 4 0.000000 0.000000 0.000000 0.079773 0.000000 0.000000
# 5 0.000000 0.000000 0.000000 0.000000 0.052596 0.000000
# 6 0.000000 0.000000 0.000000 0.000000 0.000000 0.056873
#
#
# Mechanical properties :
#
#
# Convention : Reuss Voigt Hill
#
# Bulk Modulus (GPa) = 23.18116 47.25204 35.21660
# Shear Modulus (GPa) = 11.01280 15.05212 13.03246
#
# Velocity S-wave (km/s) = 2.50525 2.92887 2.72531
# Velocity P-wave (km/s) = 4.64537 6.19411 5.47478
#
# Compressibility (1/GPa) = 0.04313849
#
# Stress axis : x y z
#
# Youngs Moduli (GPa) = 51.25572 10.83799 28.58036
#
# Poissons Ratio (x) = 0.15635 0.28498
# Poissons Ratio (y) = 0.73943 0.78359
# Poissons Ratio (z) = 0.51107 0.29715
#
# Static dielectric constant tensor:
#      x y z
#    x 1.594040 0.000000 0.000000 
#    y 0.000000 1.610900 0.000000 
#    z 0.000000 0.000000 1.596530 
# 
# From -- ./inp_files/26273.got.cif
#   From: 2010.05.17/outbox.cif.g08.bks.cpg/sg51_14_cif.got.tgz:26273.got - 2010.06.03 11:52:47.
