data_PCOD9403760
_publ_section_title
;
Structure prediction by ZEFSAII (Michael W. Deem and Ramdas Pophale) SiO2 
 PCOD9403760
Probable space group: P M M A
;
_chemical_formula_sum "Si O2"
_cell_formula_units_Z 64
_cell_length_a 19.439064
_cell_length_b 9.231856
_cell_length_c 20.632854
_cell_angle_alpha 90.000000
_cell_angle_beta 90.000000
_cell_angle_gamma 90.000000
_cell_volume 3702.743910
_symmetry_space_group_name_H-M "P M M A"
_symmetry_group_IT_number 51
_symmetry_cell_setting 'orthorhombic'
loop_
_space_group_symop_operation_xyz
x,y,z
1/2-x,-y,z
1/2+x,-y,-z
-x,y,-z
-x,-y,-z
1/2+x,y,-z
1/2-x,y,z
x,-y,z
loop_
_atom_site_type_symbol
_atom_site_label
_atom_site_fract_x
_atom_site_fract_y
_atom_site_fract_z
Si Si1 0.576350 0.827963 0.244590
Si Si2 0.067209 0.327633 0.237293
Si Si3 0.582395 0.327817 0.612351
Si Si4 0.669371 0.327248 0.879205
Si Si5 0.170480 0.826263 0.493295
Si Si6 0.938296 0.827673 0.395441
Si Si7 0.667241 0.669338 0.140741
Si Si8 0.166278 0.166649 0.989894
O O1 0.501932 0.762972 0.226879
O O2 0.585261 0.800745 0.321515
O O3 0.632519 0.749397 0.200841
O O4 0.578308 0.000000 0.234061
O O5 0.051794 0.500000 0.233060
O O6 0.091814 0.299744 0.310866
O O7 0.123973 0.292769 0.183489
O O8 0.581369 0.500000 0.602219
O O9 0.640558 0.253835 0.569248
O O10 0.508638 0.259293 0.593406
O O11 0.750000 0.293791 0.867864
O O12 0.664604 0.500000 0.891268
O O13 0.645380 0.242682 0.943177
O O14 0.250000 0.789186 0.505522
O O15 0.120817 0.789533 0.553538
O O16 0.166230 0.000000 0.483979
O O17 0.952941 0.000000 0.401448
O O18 0.750000 0.680765 0.144751
O O19 0.649022 0.500000 0.140125
O O20 0.644635 0.745148 0.073710
O O21 0.250000 0.168288 0.989854
O O22 0.143898 0.000000 0.986716
#
# Coordination Sequence:
#
# PCOD9403760 Si02
#       8
#     8   8   8   8   8   8   8   8
#     4  10  20  34  54  78 103 132 169 215 259 299
#     4   9  19  35  53  74 104 139 171 206 251 306
#     4  10  20  34  54  78 103 134 172 212 254 302
#     4   9  17  31  52  75  99 132 172 209 249 301
#     4  10  21  36  53  75 104 136 170 210 255 303
#     4   9  19  36  56  75  99 136 176 209 249 306
#     4  10  20  34  53  76 103 136 171 207 251 306
#     4   9  17  30  49  74 103 133 167 209 254 299
#
# _framework density 17.284479000000001
#
# number of rings (size 3 to 8) (size 9 to 14) (size 15 to 20)
#    0.000    2.500    0.000    1.875    0.000    7.000 
#    0.000    3.125    0.000    5.250    0.000    0.000 
#    0.000    0.000    0.000    0.000    0.000    0.000 
#
# Total GULP energy -357062.429248 kJ/mol
# GULP energy per Si atom -5579.100457 kJ/mol
# Density = 1.724514 g / cm^3
# Si number density = 17.284479 Si / 1000 Ang^3
#
#
#
# Elastic Constant Matrix: (Units=GPa)
#
#
# Indices 1 2 3 4 5 6 
#
# 1 40.6092 32.4092 32.5266 0.0000 0.0000 0.0000
# 2 32.4092 59.0107 43.4599 0.0000 0.0000 0.0000
# 3 32.5266 43.4599 63.9559 0.0000 0.0000 0.0000
# 4 0.0000 0.0000 0.0000 32.8791 0.0000 0.0000
# 5 0.0000 0.0000 0.0000 0.0000 43.9264 0.0000
# 6 0.0000 0.0000 0.0000 0.0000 0.0000 26.3471
#
#
#
# Elastic Compliance Matrix: (Units=1/GPa)
#
#
# Indices 1 2 3 4 5 6 
#
# 1 0.048868 -0.017085 -0.013243 0.000000 0.000000 0.000000
# 2 -0.017085 0.039897 -0.018422 0.000000 0.000000 0.000000
# 3 -0.013243 -0.018422 0.034889 0.000000 0.000000 0.000000
# 4 0.000000 0.000000 0.000000 0.030414 0.000000 0.000000
# 5 0.000000 0.000000 0.000000 0.000000 0.022765 0.000000
# 6 0.000000 0.000000 0.000000 0.000000 0.000000 0.037955
#
#
# Mechanical properties :
#
#
# Convention : Reuss Voigt Hill
#
# Bulk Modulus (GPa) = 38.23642 42.26302 40.24972
# Shear Modulus (GPa) = 15.57606 24.30918 19.94262
#
# Velocity S-wave (km/s) = 3.00519 3.75429 3.40043
# Velocity P-wave (km/s) = 5.84905 6.58008 6.22530
#
# Compressibility (1/GPa) = 0.02615308
#
# Stress axis : x y z
#
# Youngs Moduli (GPa) = 20.46343 25.06482 28.66244
#
# Poissons Ratio (x) = 0.42824 0.37958
# Poissons Ratio (y) = 0.34963 0.52801
# Poissons Ratio (z) = 0.27100 0.46173
#
# Static dielectric constant tensor:
#      x y z
#    x 1.561300 0.000000 0.000000 
#    y 0.000000 1.576610 0.000000 
#    z 0.000000 0.000000 1.575080 
# 
# From -- ./inp_files/33902.got.cif
#   From: 2010.05.17/outbox.cif.g08.bks.cpg/sg51_17_cif.got.tgz:33902.got - 2010.06.03 11:52:47.
