data_PCOD9403211
_publ_section_title
;
Structure prediction by ZEFSAII (Michael W. Deem and Ramdas Pophale) SiO2 
 PCOD9403211
Probable space group: P M M A
;
_chemical_formula_sum "Si O2"
_cell_formula_units_Z 48
_cell_length_a 16.824014
_cell_length_b 9.108406
_cell_length_c 18.909805
_cell_angle_alpha 90.000000
_cell_angle_beta 90.000000
_cell_angle_gamma 90.000000
_cell_volume 2897.737574
_symmetry_space_group_name_H-M "P M M A"
_symmetry_group_IT_number 51
_symmetry_cell_setting 'orthorhombic'
loop_
_space_group_symop_operation_xyz
x,y,z
1/2-x,-y,z
1/2+x,-y,-z
-x,y,-z
-x,-y,-z
1/2+x,y,-z
1/2-x,y,z
x,-y,z
loop_
_atom_site_type_symbol
_atom_site_label
_atom_site_fract_x
_atom_site_fract_y
_atom_site_fract_z
Si Si1 0.982801 0.822648 0.081163
Si Si2 0.341355 0.674912 0.833503
Si Si3 0.916576 0.831504 0.295674
Si Si4 0.504424 0.676947 0.582395
Si Si5 0.162196 0.676196 0.333843
Si Si6 0.916410 0.832545 0.790608
O O1 0.904220 0.747392 0.112748
O O2 0.056908 0.780896 0.131873
O O3 0.973951 0.000000 0.087758
O O4 0.000000 0.786647 0.000000
O O5 0.250000 0.703533 0.853596
O O6 0.354277 0.500000 0.830896
O O7 0.358484 0.743085 0.756052
O O8 0.937648 0.753234 0.369283
O O9 0.000246 0.833137 0.252635
O O10 0.891228 0.000000 0.305121
O O11 0.500000 0.714959 0.500000
O O12 0.496874 0.500000 0.589205
O O13 0.590373 0.721133 0.614460
O O14 0.250000 0.726118 0.356036
O O15 0.161669 0.500000 0.332354
O O16 0.142008 0.735322 0.255823
O O17 0.887143 0.000000 0.794308
#
# Coordination Sequence:
#
# PCOD9403211 Si02
#       6
#     8   8   8   8   8   8
#     4   9  18  33  52  73  97 126 160 195 236 289
#     4  10  20  33  50  73  99 127 162 203 245 290
#     4   9  17  30  49  70  92 121 158 197 236 283
#     4   9  17  30  48  69  95 127 161 197 241 292
#     4   9  17  29  45  65  89 119 155 193 233 278
#     4   8  15  28  46  67  88 114 150 188 225 270
#
# _framework density 16.564647999999998
#
# number of rings (size 3 to 8) (size 9 to 14) (size 15 to 20)
#    0.000    3.000    0.000    2.000    0.000    6.333 
#    0.000    1.667    0.000    8.000    0.000    0.000 
#    0.000    0.000    0.000    0.000    0.000    0.000 
#
# Total GULP energy -267270.868164 kJ/mol
# GULP energy per Si atom -5568.143087 kJ/mol
# Density = 1.652695 g / cm^3
# Si number density = 16.564648 Si / 1000 Ang^3
#
#
#
# Elastic Constant Matrix: (Units=GPa)
#
#
# Indices 1 2 3 4 5 6 
#
# 1 75.9377 33.7507 44.2301 0.0000 0.0000 0.0000
# 2 33.7507 38.9460 40.0554 0.0000 0.0000 0.0000
# 3 44.2301 40.0554 143.7778 0.0000 0.0000 0.0000
# 4 0.0000 0.0000 0.0000 25.5907 0.0000 0.0000
# 5 0.0000 0.0000 0.0000 0.0000 15.0380 0.0000
# 6 0.0000 0.0000 0.0000 0.0000 0.0000 14.0378
#
#
#
# Elastic Compliance Matrix: (Units=1/GPa)
#
#
# Indices 1 2 3 4 5 6 
#
# 1 0.021831 -0.016836 -0.002026 0.000000 0.000000 0.000000
# 2 -0.016836 0.048971 -0.008464 0.000000 0.000000 0.000000
# 3 -0.002026 -0.008464 0.009936 0.000000 0.000000 0.000000
# 4 0.000000 0.000000 0.000000 0.039077 0.000000 0.000000
# 5 0.000000 0.000000 0.000000 0.000000 0.066498 0.000000
# 6 0.000000 0.000000 0.000000 0.000000 0.000000 0.071236
#
#
# Mechanical properties :
#
#
# Convention : Reuss Voigt Hill
#
# Bulk Modulus (GPa) = 38.33102 54.97043 46.65072
# Shear Modulus (GPa) = 15.58136 20.30832 17.94484
#
# Velocity S-wave (km/s) = 3.07031 3.50523 3.29496
# Velocity P-wave (km/s) = 5.97993 7.04554 6.53449
#
# Compressibility (1/GPa) = 0.02608853
#
# Stress axis : x y z
#
# Youngs Moduli (GPa) = 45.80619 20.42008 100.64094
#
# Poissons Ratio (x) = 0.34378 0.20386
# Poissons Ratio (y) = 0.77117 0.85182
# Poissons Ratio (z) = 0.09279 0.17284
#
# Static dielectric constant tensor:
#      x y z
#    x 1.561080 0.000000 0.000000 
#    y 0.000000 1.562840 0.000000 
#    z 0.000000 0.000000 1.554970 
# 
# From -- ./inp_files/30023.got.cif
#   From: 2010.05.17/outbox.cif.g08.bks.cpg/sg51_16_cif.got.tgz:30023.got - 2010.06.03 11:52:47.
