data_PCOD9403785
_publ_section_title
;
Structure prediction by ZEFSAII (Michael W. Deem and Ramdas Pophale) SiO2 
 PCOD9403785
Probable space group: P M M A
;
_chemical_formula_sum "Si O2"
_cell_formula_units_Z 56
_cell_length_a 21.248962
_cell_length_b 9.827217
_cell_length_c 15.297644
_cell_angle_alpha 90.000000
_cell_angle_beta 90.000000
_cell_angle_gamma 90.000000
_cell_volume 3194.425882
_symmetry_space_group_name_H-M "P M M A"
_symmetry_group_IT_number 51
_symmetry_cell_setting 'orthorhombic'
loop_
_space_group_symop_operation_xyz
x,y,z
1/2-x,-y,z
1/2+x,-y,-z
-x,y,-z
-x,-y,-z
1/2+x,y,-z
1/2-x,y,z
x,-y,z
loop_
_atom_site_type_symbol
_atom_site_label
_atom_site_fract_x
_atom_site_fract_y
_atom_site_fract_z
Si Si1 0.566476 0.340463 0.548628
Si Si2 0.680538 0.660673 0.943094
Si Si3 0.959121 0.665153 0.915220
Si Si4 0.619415 0.841495 0.290252
Si Si5 0.177092 0.650060 0.847567
Si Si6 0.321262 0.839566 0.526140
Si Si7 0.996905 0.659498 0.280235
O O1 0.500000 0.308126 0.500000
O O2 0.579160 0.500000 0.529927
O O3 0.624058 0.248564 0.517659
O O4 0.554412 0.324517 0.652452
O O5 0.750000 0.717011 0.917975
O O6 0.681868 0.500000 0.919289
O O7 0.613179 0.716999 0.912579
O O8 0.675889 0.666359 0.048400
O O9 0.955751 0.500000 0.923156
O O10 0.989583 0.693332 0.820968
O O11 0.000000 0.711166 0.000000
O O12 0.644063 0.769997 0.203118
O O13 0.668516 0.826973 0.369377
O O14 0.557668 0.756927 0.314237
O O15 0.606113 0.000000 0.277896
O O16 0.250000 0.648376 0.821246
O O17 0.149477 0.500000 0.827502
O O18 0.250000 0.798665 0.503032
O O19 0.329125 0.000000 0.505294
O O20 0.978983 0.500000 0.285713
#
# Coordination Sequence:
#
# PCOD9403785 Si02
#       7
#     8   8   8   8   8   8   8
#     4  10  20  36  56  79 108 140 174 216 265 315
#     4   8  14  26  45  70  98 129 169 215 261 309
#     4   9  16  27  47  75 104 134 169 214 261 302
#     4  11  21  32  49  74 105 137 172 215 264 315
#     4   9  17  29  47  71  99 133 171 210 258 317
#     4  10  22  38  55  77 106 140 179 222 266 315
#     4  10  20  34  53  77 104 135 175 216 262 319
#
# _framework density 17.530536000000001
#
# number of rings (size 3 to 8) (size 9 to 14) (size 15 to 20)
#    0.000    2.429    1.429    2.571    0.000    4.857 
#    0.000    0.714    0.000    6.429    0.000    0.000 
#    0.000    0.000    0.000    0.000    0.000    0.000 
#
# Total GULP energy -311892.137470 kJ/mol
# GULP energy per Si atom -5569.502455 kJ/mol
# Density = 1.749064 g / cm^3
# Si number density = 17.530536 Si / 1000 Ang^3
#
#
#
# Elastic Constant Matrix: (Units=GPa)
#
#
# Indices 1 2 3 4 5 6 
#
# 1 120.7539 47.4537 27.7326 0.0000 0.0000 0.0000
# 2 47.4537 58.9722 27.0327 0.0000 0.0000 0.0000
# 3 27.7326 27.0327 56.6476 0.0000 0.0000 0.0000
# 4 0.0000 0.0000 0.0000 6.0476 0.0000 0.0000
# 5 0.0000 0.0000 0.0000 0.0000 25.6058 0.0000
# 6 0.0000 0.0000 0.0000 0.0000 0.0000 14.6492
#
#
#
# Elastic Compliance Matrix: (Units=1/GPa)
#
#
# Indices 1 2 3 4 5 6 
#
# 1 0.012231 -0.009084 -0.001653 0.000000 0.000000 0.000000
# 2 -0.009084 0.028452 -0.009130 0.000000 0.000000 0.000000
# 3 -0.001653 -0.009130 0.022819 0.000000 0.000000 0.000000
# 4 0.000000 0.000000 0.000000 0.165355 0.000000 0.000000
# 5 0.000000 0.000000 0.000000 0.000000 0.039054 0.000000
# 6 0.000000 0.000000 0.000000 0.000000 0.000000 0.068263
#
#
# Mechanical properties :
#
#
# Convention : Reuss Voigt Hill
#
# Bulk Modulus (GPa) = 42.07385 48.97907 45.52646
# Shear Modulus (GPa) = 13.02657 18.20418 15.61538
#
# Velocity S-wave (km/s) = 2.72891 3.22596 2.98779
# Velocity P-wave (km/s) = 5.82938 6.47114 6.15863
#
# Compressibility (1/GPa) = 0.02376773
#
# Stress axis : x y z
#
# Youngs Moduli (GPa) = 81.76093 35.14645 43.82279
#
# Poissons Ratio (x) = 0.31928 0.07242
# Poissons Ratio (y) = 0.74274 0.40012
# Poissons Ratio (z) = 0.13512 0.32090
#
# Static dielectric constant tensor:
#      x y z
#    x 1.649060 0.000000 0.000000 
#    y 0.000000 1.573040 0.000000 
#    z 0.000000 0.000000 1.603330 
# 
# From -- ./inp_files/25758.got.cif
#   From: 2010.05.17/outbox.cif.g08.bks.cpg/sg51_13_cif.got.tgz:25758.got - 2010.06.03 11:52:47.
