data_PCOD9403934
_publ_section_title
;
Structure prediction by ZEFSAII (Michael W. Deem and Ramdas Pophale) SiO2 
 PCOD9403934
Probable space group: P M M A
;
_chemical_formula_sum "Si O2"
_cell_formula_units_Z 40
_cell_length_a 8.710736
_cell_length_b 25.912851
_cell_length_c 9.812588
_cell_angle_alpha 90.000000
_cell_angle_beta 90.000000
_cell_angle_gamma 90.000000
_cell_volume 2214.897403
_symmetry_space_group_name_H-M "P M M A"
_symmetry_group_IT_number 51
_symmetry_cell_setting 'orthorhombic'
loop_
_space_group_symop_operation_xyz
x,y,z
1/2-x,-y,z
1/2+x,-y,-z
-x,y,-z
-x,-y,-z
1/2+x,y,-z
1/2-x,y,z
x,-y,z
loop_
_atom_site_type_symbol
_atom_site_label
_atom_site_fract_x
_atom_site_fract_y
_atom_site_fract_z
Si Si1 0.564931 0.442118 0.650931
Si Si2 0.934883 0.350099 0.849350
Si Si3 0.933540 0.060566 0.852716
Si Si4 0.565640 0.238857 0.150919
Si Si5 0.066062 0.855610 0.651745
O O1 0.500000 0.434284 0.500000
O O2 0.750000 0.441100 0.644630
O O3 0.518754 0.500000 0.696559
O O4 0.516064 0.396402 0.750651
O O5 0.750000 0.347874 0.854009
O O6 0.999068 0.294344 0.805872
O O7 0.000000 0.359477 0.000000
O O8 0.750000 0.065884 0.855251
O O9 0.002799 0.095210 0.733727
O O10 0.971506 0.000000 0.833825
O O11 0.000000 0.076648 0.000000
O O12 0.750000 0.241971 0.141455
O O13 0.523658 0.194488 0.257939
O O14 0.500000 0.227435 0.000000
O O15 0.250000 0.858308 0.645385
O O16 0.000000 0.852792 0.500000
#
# Coordination Sequence:
#
# PCOD9403934 Si02
#       5
#     8   8   8   8   8
#     4   9  19  35  53  75 104 138 176 216 260 313
#     4  10  20  34  54  79 106 137 174 218 266 315
#     4  10  21  38  61  87 114 146 184 225 269 320
#     4  10  21  37  57  80 106 139 179 221 267 319
#     4  11  24  39  57  82 112 147 184 225 273 323
#
# _framework density 18.059529000000001
#
# number of rings (size 3 to 8) (size 9 to 14) (size 15 to 20)
#    0.000    2.000    0.000    4.200    0.000    9.200 
#    0.000    4.000    0.000    0.000    0.000    0.000 
#    0.000    0.000    0.000    0.000    0.000    0.000 
#
# Total GULP energy -223399.301882 kJ/mol
# GULP energy per Si atom -5584.982547 kJ/mol
# Density = 1.801842 g / cm^3
# Si number density = 18.059529 Si / 1000 Ang^3
#
#
#
# Elastic Constant Matrix: (Units=GPa)
#
#
# Indices 1 2 3 4 5 6 
#
# 1 46.8552 51.9717 45.1358 0.0000 0.0000 0.0000
# 2 51.9717 144.9214 111.7688 0.0000 0.0000 0.0000
# 3 45.1358 111.7688 129.6897 0.0000 0.0000 0.0000
# 4 0.0000 0.0000 0.0000 -169.5555 0.0000 0.0000
# 5 0.0000 0.0000 0.0000 0.0000 34.1537 0.0000
# 6 0.0000 0.0000 0.0000 0.0000 0.0000 23.6952
#
#
#
# Elastic Compliance Matrix: (Units=1/GPa)
#
#
# Indices 1 2 3 4 5 6 
#
# 1 0.036193 -0.009736 -0.004205 0.000000 0.000000 0.000000
# 2 -0.009736 0.023196 -0.016603 0.000000 0.000000 0.000000
# 3 -0.004205 -0.016603 0.023483 0.000000 0.000000 0.000000
# 4 0.000000 0.000000 0.000000 -0.005898 0.000000 0.000000
# 5 0.000000 0.000000 0.000000 0.000000 0.029279 0.000000
# 6 0.000000 0.000000 0.000000 0.000000 0.000000 0.042203
#
#
# Mechanical properties :
#
#
# Convention : Reuss Voigt Hill
#
# Bulk Modulus (GPa) = 45.90603 82.13543 64.02073
# Shear Modulus (GPa) = 23.06216 -14.83533 4.11342
#
# Velocity S-wave (km/s) = 3.57740 -2.86924 1.51084
# Velocity P-wave (km/s) = 6.52213 5.88238 6.21050
#
# Compressibility (1/GPa) = 0.02178363
#
# Stress axis : x y z
#
# Youngs Moduli (GPa) = 27.62991 43.11024 42.58452
#
# Poissons Ratio (x) = 0.41972 0.17909
# Poissons Ratio (y) = 0.26900 0.70701
# Poissons Ratio (z) = 0.11620 0.71574
#
# Static dielectric constant tensor:
#      x y z
#    x 1.607670 0.000000 0.000000 
#    y 0.000000 1.625210 0.000000 
#    z 0.000000 0.000000 1.577110 
# 
# From -- ./inp_files/5492.got.cif
#   From: 2010.05.17/outbox.cif.g08.bks.cpg/sg51_3_cif.got.tgz:5492.got - 2010.06.03 11:52:47.
