data_PCOD9403087
_publ_section_title
;
Structure prediction by ZEFSAII (Michael W. Deem and Ramdas Pophale) SiO2 
 PCOD9403087
Probable space group: P M M A
;
_chemical_formula_sum "Si O2"
_cell_formula_units_Z 52
_cell_length_a 9.146955
_cell_length_b 8.235152
_cell_length_c 36.978420
_cell_angle_alpha 90.000000
_cell_angle_beta 90.000000
_cell_angle_gamma 90.000000
_cell_volume 2785.457349
_symmetry_space_group_name_H-M "P M M A"
_symmetry_group_IT_number 51
_symmetry_cell_setting 'orthorhombic'
loop_
_space_group_symop_operation_xyz
x,y,z
1/2-x,-y,z
1/2+x,-y,-z
-x,y,-z
-x,-y,-z
1/2+x,y,-z
1/2-x,y,z
x,-y,z
loop_
_atom_site_type_symbol
_atom_site_label
_atom_site_fract_x
_atom_site_fract_y
_atom_site_fract_z
Si Si1 0.572079 0.680163 0.915523
Si Si2 0.916964 0.693654 0.311335
Si Si3 0.082516 0.196067 0.240139
Si Si4 0.071813 0.189534 0.161267
Si Si5 0.919122 0.806611 0.387630
Si Si6 0.081995 0.304240 0.535847
Si Si7 0.927593 0.000000 0.960829
O O1 0.750000 0.680449 0.915723
O O2 0.524333 0.500000 0.927639
O O3 0.526158 0.711750 0.873990
O O4 0.528419 0.835833 0.939336
O O5 0.750000 0.757129 0.310145
O O6 0.913678 0.500000 0.311751
O O7 0.984800 0.750544 0.349504
O O8 0.996867 0.750651 0.275385
O O9 0.250000 0.252943 0.243281
O O10 0.022401 0.249164 0.200817
O O11 0.084172 0.000000 0.238647
O O12 0.250000 0.192673 0.162543
O O13 0.030838 0.000000 0.156419
O O14 0.750000 0.743584 0.387509
O O15 0.984276 0.747373 0.425569
O O16 0.916019 0.000000 0.387992
O O17 0.250000 0.246023 0.534639
O O18 0.083168 0.500000 0.535086
O O19 0.000000 0.246194 0.500000
O O20 0.750000 0.000000 0.963337
O O21 0.000000 0.000000 0.000000
#
# Coordination Sequence:
#
# PCOD9403087 Si02
#       7
#     8   8   8   8   8   8   4
#     4   9  16  27  47  74 100 129 167 208 249 295
#     4  10  20  33  49  69  95 129 168 205 239 283
#     4   9  18  31  49  74 102 129 158 199 250 296
#     4   8  13  25  45  69  98 127 157 200 248 290
#     4   9  17  30  49  69  88 117 158 198 232 273
#     4   9  17  30  48  69  92 116 144 181 227 279
#     4  10  20  34  52  74 102 132 166 210 252 298
#
# _framework density 18.668389000000001
#
# number of rings (size 3 to 8) (size 9 to 14) (size 15 to 20)
#    0.000    2.923    0.769    1.846    0.000    4.308 
#    0.000    2.308    0.000    3.692    0.000    0.000 
#    0.000    0.000    0.000    0.000    0.000    0.000 
#
# Total GULP energy -289616.288082 kJ/mol
# GULP energy per Si atom -5569.544002 kJ/mol
# Density = 1.862590 g / cm^3
# Si number density = 18.668389 Si / 1000 Ang^3
#
#
#
# Elastic Constant Matrix: (Units=GPa)
#
#
# Indices 1 2 3 4 5 6 
#
# 1 12.4281 11.6835 32.5545 0.0000 0.0000 0.0000
# 2 11.6835 70.9774 62.0625 0.0000 0.0000 0.0000
# 3 32.5545 62.0625 193.8647 0.0000 0.0000 0.0000
# 4 0.0000 0.0000 0.0000 -15.3267 0.0000 0.0000
# 5 0.0000 0.0000 0.0000 0.0000 26.2901 0.0000
# 6 0.0000 0.0000 0.0000 0.0000 0.0000 10.8999
#
#
#
# Elastic Compliance Matrix: (Units=1/GPa)
#
#
# Indices 1 2 3 4 5 6 
#
# 1 0.144294 -0.003562 -0.023090 0.000000 0.000000 0.000000
# 2 -0.003562 0.019654 -0.005694 0.000000 0.000000 0.000000
# 3 -0.023090 -0.005694 0.010858 0.000000 0.000000 0.000000
# 4 0.000000 0.000000 0.000000 -0.065246 0.000000 0.000000
# 5 0.000000 0.000000 0.000000 0.000000 0.038037 0.000000
# 6 0.000000 0.000000 0.000000 0.000000 0.000000 0.091744
#
#
# Mechanical properties :
#
#
# Convention : Reuss Voigt Hill
#
# Bulk Modulus (GPa) = 9.08148 54.43015 31.75581
# Shear Modulus (GPa) = 14.67402 15.77064 15.22233
#
# Velocity S-wave (km/s) = 2.80667 2.90966 2.85863
# Velocity P-wave (km/s) = 3.92153 6.36457 5.28612
#
# Compressibility (1/GPa) = 0.11011426
#
# Stress axis : x y z
#
# Youngs Moduli (GPa) = 6.93030 50.88043 92.09510
#
# Poissons Ratio (x) = 0.18125 2.12648
# Poissons Ratio (y) = 0.02469 0.52436
# Poissons Ratio (z) = 0.16002 0.28970
#
# Static dielectric constant tensor:
#      x y z
#    x 1.647950 0.000000 0.000000 
#    y 0.000000 1.652810 0.000000 
#    z 0.000000 0.000000 1.670200 
# 
# From -- ./inp_files/36560.got.cif
#   From: 2010.05.17/outbox.cif.g08.bks.cpg/sg51_19_cif.got.tgz:36560.got - 2010.06.03 11:52:47.
