data_PCOD9403065
_publ_section_title
;
Structure prediction by ZEFSAII (Michael W. Deem and Ramdas Pophale) SiO2 
 PCOD9403065
Probable space group: P M M A
;
_chemical_formula_sum "Si O2"
_cell_formula_units_Z 56
_cell_length_a 14.153414
_cell_length_b 8.703936
_cell_length_c 24.303739
_cell_angle_alpha 90.000000
_cell_angle_beta 90.000000
_cell_angle_gamma 90.000000
_cell_volume 2993.987563
_symmetry_space_group_name_H-M "P M M A"
_symmetry_group_IT_number 51
_symmetry_cell_setting 'orthorhombic'
loop_
_space_group_symop_operation_xyz
x,y,z
1/2-x,-y,z
1/2+x,-y,-z
-x,y,-z
-x,-y,-z
1/2+x,y,-z
1/2-x,y,z
x,-y,z
loop_
_atom_site_type_symbol
_atom_site_label
_atom_site_fract_x
_atom_site_fract_y
_atom_site_fract_z
Si Si1 0.955106 0.814410 0.585932
Si Si2 0.357624 0.812411 0.856040
Si Si3 0.141236 0.683559 0.305985
Si Si4 0.135655 0.676821 0.092269
Si Si5 0.956079 0.817803 0.801393
Si Si6 0.855982 0.186994 0.472166
Si Si7 0.135066 0.177759 0.977888
O O1 0.915712 0.747293 0.641992
O O2 0.889950 0.770284 0.533625
O O3 0.061611 0.765348 0.569830
O O4 0.953972 0.000000 0.589299
O O5 0.250000 0.762716 0.845519
O O6 0.435456 0.767617 0.811627
O O7 0.389417 0.760934 0.917242
O O8 0.356699 0.000000 0.858573
O O9 0.250000 0.738575 0.308112
O O10 0.141752 0.500000 0.308115
O O11 0.093757 0.736380 0.249323
O O12 0.250000 0.685673 0.092995
O O13 0.108646 0.500000 0.101424
O O14 0.096483 0.779217 0.141588
O O15 0.103662 0.732708 0.031967
O O16 0.954353 0.000000 0.791990
O O17 0.750000 0.241381 0.460656
O O18 0.855018 0.000000 0.471120
O O19 0.250000 0.178630 0.977985
O O20 0.105737 0.000000 0.982355
#
# Coordination Sequence:
#
# PCOD9403065 Si02
#       7
#     8   8   8   8   8   8   8
#     4   9  17  31  55  84 110 142 183 218 250 295
#     4   8  16  33  55  77  99 123 158 208 260 306
#     4  11  24  40  55  73 103 140 173 211 260 307
#     4  10  20  33  48  70 104 138 164 200 253 307
#     4  11  22  35  55  78  97 126 171 216 255 301
#     4   8  14  27  51  85 120 146 172 214 261 297
#     4   8  14  28  51  74  96 125 161 201 247 304
#
# _framework density 18.704152000000001
#
# number of rings (size 3 to 8) (size 9 to 14) (size 15 to 20)
#    0.000    2.714    0.000    3.857    0.000    4.857 
#    0.000    6.429    0.000    9.000    0.000    0.000 
#    0.000    0.000    0.000    0.000    0.000    0.000 
#
# Total GULP energy -312453.935062 kJ/mol
# GULP energy per Si atom -5579.534555 kJ/mol
# Density = 1.866158 g / cm^3
# Si number density = 18.704152 Si / 1000 Ang^3
#
#
#
# Elastic Constant Matrix: (Units=GPa)
#
#
# Indices 1 2 3 4 5 6 
#
# 1 134.5364 18.6545 72.0745 0.0000 0.0000 0.0000
# 2 18.6545 18.6770 16.3173 0.0000 0.0000 0.0000
# 3 72.0745 16.3173 117.5240 0.0000 0.0000 0.0000
# 4 0.0000 0.0000 0.0000 -171.6892 0.0000 0.0000
# 5 0.0000 0.0000 0.0000 0.0000 25.3707 0.0000
# 6 0.0000 0.0000 0.0000 0.0000 0.0000 9.7569
#
#
#
# Elastic Compliance Matrix: (Units=1/GPa)
#
#
# Indices 1 2 3 4 5 6 
#
# 1 0.011658 -0.006143 -0.006297 0.000000 0.000000 0.000000
# 2 -0.006143 0.064170 -0.005142 0.000000 0.000000 0.000000
# 3 -0.006297 -0.005142 0.013084 0.000000 0.000000 0.000000
# 4 0.000000 0.000000 0.000000 -0.005824 0.000000 0.000000
# 5 0.000000 0.000000 0.000000 0.000000 0.039416 0.000000
# 6 0.000000 0.000000 0.000000 0.000000 0.000000 0.102492
#
#
# Mechanical properties :
#
#
# Convention : Reuss Voigt Hill
#
# Bulk Modulus (GPa) = 18.60506 53.86999 36.23752
# Shear Modulus (GPa) = 17.98075 -16.39960 0.79058
#
# Velocity S-wave (km/s) = 3.10389 -2.96427 0.65084
# Velocity P-wave (km/s) = 4.77641 4.14098 4.47000
#
# Compressibility (1/GPa) = 0.05374883
#
# Stress axis : x y z
#
# Youngs Moduli (GPa) = 85.77833 15.58364 76.42675
#
# Poissons Ratio (x) = 0.09573 0.48123
# Poissons Ratio (y) = 0.52692 0.39300
# Poissons Ratio (z) = 0.54012 0.08013
#
# Static dielectric constant tensor:
#      x y z
#    x 1.692030 0.000000 0.000000 
#    y 0.000000 1.628810 0.000000 
#    z 0.000000 0.000000 1.610180 
# 
# From -- ./inp_files/33410.got.cif
#   From: 2010.05.17/outbox.cif.g08.bks.cpg/sg51_17_cif.got.tgz:33410.got - 2010.06.03 11:52:47.
