data_PCOD9403081
_publ_section_title
;
Structure prediction by ZEFSAII (Michael W. Deem and Ramdas Pophale) SiO2 
 PCOD9403081
Probable space group: P M M A
;
_chemical_formula_sum "Si O2"
_cell_formula_units_Z 48
_cell_length_a 19.020112
_cell_length_b 7.765350
_cell_length_c 16.961845
_cell_angle_alpha 90.000000
_cell_angle_beta 90.000000
_cell_angle_gamma 90.000000
_cell_volume 2505.227644
_symmetry_space_group_name_H-M "P M M A"
_symmetry_group_IT_number 51
_symmetry_cell_setting 'orthorhombic'
loop_
_space_group_symop_operation_xyz
x,y,z
1/2-x,-y,z
1/2+x,-y,-z
-x,y,-z
-x,-y,-z
1/2+x,y,-z
1/2-x,y,z
x,-y,z
loop_
_atom_site_type_symbol
_atom_site_label
_atom_site_fract_x
_atom_site_fract_y
_atom_site_fract_z
Si Si1 0.329489 0.291681 0.835920
Si Si2 0.830137 0.708003 0.662897
Si Si3 0.167474 0.291028 0.512930
Si Si4 0.029034 0.793744 0.917229
Si Si5 0.965177 0.796358 0.754474
Si Si6 0.897184 0.702514 0.327057
O O1 0.250000 0.233253 0.852132
O O2 0.328947 0.500000 0.833324
O O3 0.389206 0.241065 0.898461
O O4 0.355793 0.227705 0.749690
O O5 0.750000 0.765580 0.677556
O O6 0.829178 0.500000 0.661184
O O7 0.851902 0.769319 0.574957
O O8 0.886488 0.762551 0.727113
O O9 0.250000 0.253560 0.524770
O O10 0.160570 0.500000 0.510809
O O11 0.124939 0.224785 0.588317
O O12 0.986116 0.727595 0.840909
O O13 0.019923 0.000000 0.918980
O O14 0.000000 0.724887 0.000000
O O15 0.020845 0.720195 0.692542
O O16 0.977544 0.000000 0.755056
O O17 0.879479 0.500000 0.329799
#
# Coordination Sequence:
#
# PCOD9403081 Si02
#       6
#     8   8   8   8   8   8
#     4   9  17  29  48  76 104 125 149 187 236 284
#     4   9  18  33  51  69  91 122 161 199 230 266
#     4   8  14  26  46  70  93 122 162 199 225 257
#     4   9  19  36  54  70  91 123 161 195 229 277
#     4  10  20  33  49  69  93 120 152 192 237 282
#     4   9  16  28  48  71  96 126 157 189 226 271
#
# _framework density 19.159934
#
# number of rings (size 3 to 8) (size 9 to 14) (size 15 to 20)
#    0.000    3.000    0.000    2.000    0.000    4.333 
#    0.000    5.000    0.000    7.500    0.000    0.000 
#    0.000    0.000    0.000    0.000    0.000    0.000 
#
# Total GULP energy -267538.937446 kJ/mol
# GULP energy per Si atom -5573.727863 kJ/mol
# Density = 1.911633 g / cm^3
# Si number density = 19.159934 Si / 1000 Ang^3
#
#
#
# Elastic Constant Matrix: (Units=GPa)
#
#
# Indices 1 2 3 4 5 6 
#
# 1 115.9771 -9.3660 86.7382 0.0000 0.0000 0.0000
# 2 -9.3660 20.3635 5.9747 0.0000 0.0000 0.0000
# 3 86.7382 5.9747 109.5883 0.0000 0.0000 0.0000
# 4 0.0000 0.0000 0.0000 19.4099 0.0000 0.0000
# 5 0.0000 0.0000 0.0000 0.0000 26.6278 0.0000
# 6 0.0000 0.0000 0.0000 0.0000 0.0000 1185.8357
#
#
#
# Elastic Compliance Matrix: (Units=1/GPa)
#
#
# Indices 1 2 3 4 5 6 
#
# 1 0.026731 0.018803 -0.022182 0.000000 0.000000 0.000000
# 2 0.018803 0.063132 -0.018324 0.000000 0.000000 0.000000
# 3 -0.022182 -0.018324 0.027681 0.000000 0.000000 0.000000
# 4 0.000000 0.000000 0.000000 0.051520 0.000000 0.000000
# 5 0.000000 0.000000 0.000000 0.000000 0.037555 0.000000
# 6 0.000000 0.000000 0.000000 0.000000 0.000000 0.000843
#
#
# Mechanical properties :
#
#
# Convention : Reuss Voigt Hill
#
# Bulk Modulus (GPa) = 13.48860 45.84696 29.66778
# Shear Modulus (GPa) = 18.14344 257.21348 137.67846
#
# Velocity S-wave (km/s) = 3.08059 11.59901 8.48608
# Velocity P-wave (km/s) = 4.43944 14.26054 10.56105
#
# Compressibility (1/GPa) = 0.07413665
#
# Stress axis : x y z
#
# Youngs Moduli (GPa) = 37.41004 15.83984 36.12564
#
# Poissons Ratio (x) = -0.29783 0.80135
# Poissons Ratio (y) = -0.70342 0.66197
# Poissons Ratio (z) = 0.82984 0.29025
#
# Static dielectric constant tensor:
#      x y z
#    x 1.641050 0.000000 0.000000 
#    y 0.000000 1.718010 0.000000 
#    z 0.000000 0.000000 1.682700 
# 
# From -- ./inp_files/30066.got.cif
#   From: 2010.05.17/outbox.cif.g08.bks.cpg/sg51_16_cif.got.tgz:30066.got - 2010.06.03 11:52:47.
