data_PCOD9403859
_publ_section_title
;
Structure prediction by ZEFSAII (Michael W. Deem and Ramdas Pophale) SiO2 
 PCOD9403859
Probable space group: P M M A
;
_chemical_formula_sum "Si O2"
_cell_formula_units_Z 64
_cell_length_a 14.388859
_cell_length_b 10.751025
_cell_length_c 19.833531
_cell_angle_alpha 90.000000
_cell_angle_beta 90.000000
_cell_angle_gamma 90.000000
_cell_volume 3068.147738
_symmetry_space_group_name_H-M "P M M A"
_symmetry_group_IT_number 51
_symmetry_cell_setting 'orthorhombic'
loop_
_space_group_symop_operation_xyz
x,y,z
1/2-x,-y,z
1/2+x,-y,-z
-x,y,-z
-x,-y,-z
1/2+x,y,-z
1/2-x,y,z
x,-y,z
loop_
_atom_site_type_symbol
_atom_site_label
_atom_site_fract_x
_atom_site_fract_y
_atom_site_fract_z
Si Si1 0.447562 0.133435 0.092545
Si Si2 0.641672 0.639432 0.986400
Si Si3 0.104758 0.359171 0.475896
Si Si4 0.148622 0.649512 0.621679
Si Si5 0.643174 0.232408 0.125774
Si Si6 0.641739 0.223115 0.772558
Si Si7 0.640219 0.134728 0.621647
Si Si8 0.955926 0.354049 0.250996
O O1 0.415510 0.252025 0.049520
O O2 0.557842 0.141984 0.106547
O O3 0.391662 0.145699 0.162792
O O4 0.424646 0.000000 0.060868
O O5 0.750000 0.649827 0.965295
O O6 0.608945 0.500000 0.970341
O O7 0.640002 0.664352 0.066433
O O8 0.138803 0.500000 0.458056
O O9 0.149246 0.306278 0.544710
O O10 0.108806 0.258690 0.417000
O O11 0.000000 0.373307 0.500000
O O12 0.250000 0.673208 0.652284
O O13 0.137284 0.500000 0.614230
O O14 0.071259 0.693247 0.674161
O O15 0.750000 0.185534 0.127719
O O16 0.610335 0.289124 0.196571
O O17 0.750000 0.260759 0.779326
O O18 0.631560 0.150662 0.702095
O O19 0.563309 0.329796 0.766973
O O20 0.750000 0.130119 0.607429
O O21 0.598973 0.000000 0.601344
O O22 0.937166 0.500000 0.249593
#
# Coordination Sequence:
#
# PCOD9403859 Si02
#       8
#     8   8   8   8   8   8   8   8
#     4  11  24  41  63  90 119 156 202 248 295 351
#     4  10  22  40  62  90 125 162 198 241 296 354
#     4  10  20  34  53  80 115 151 187 232 288 347
#     4   9  17  30  51  79 111 149 191 235 286 345
#     4  10  22  39  60  87 120 158 199 244 295 350
#     4  10  22  39  58  81 112 151 194 242 298 356
#     4  10  21  37  57  80 107 144 191 238 285 343
#     4  10  20  35  57  86 118 152 195 244 291 348
#
# _framework density 20.859491999999999
#
# number of rings (size 3 to 8) (size 9 to 14) (size 15 to 20)
#    0.000    2.000    0.000    3.000    0.000    9.750 
#    0.000    2.500    0.000    0.750    0.000    0.000 
#    0.000    0.000    0.000    0.000    0.000    0.000 
#
# Total GULP energy -356870.900831 kJ/mol
# GULP energy per Si atom -5576.107825 kJ/mol
# Density = 2.081201 g / cm^3
# Si number density = 20.859492 Si / 1000 Ang^3
#
#
#
# Elastic Constant Matrix: (Units=GPa)
#
#
# Indices 1 2 3 4 5 6 
#
# 1 127.2356 20.5745 37.2011 0.0000 0.0000 0.0000
# 2 20.5745 107.4630 54.7721 0.0000 0.0000 0.0000
# 3 37.2011 54.7721 114.7342 0.0000 0.0000 0.0000
# 4 0.0000 0.0000 0.0000 -211.6907 0.0000 0.0000
# 5 0.0000 0.0000 0.0000 0.0000 35.9813 0.0000
# 6 0.0000 0.0000 0.0000 0.0000 0.0000 17.0088
#
#
#
# Elastic Compliance Matrix: (Units=1/GPa)
#
#
# Indices 1 2 3 4 5 6 
#
# 1 0.008690 -0.000301 -0.002674 0.000000 0.000000 0.000000
# 2 -0.000301 0.012308 -0.005778 0.000000 0.000000 0.000000
# 3 -0.002674 -0.005778 0.012341 0.000000 0.000000 0.000000
# 4 0.000000 0.000000 0.000000 -0.004724 0.000000 0.000000
# 5 0.000000 0.000000 0.000000 0.000000 0.027792 0.000000
# 6 0.000000 0.000000 0.000000 0.000000 0.000000 0.058793
#
#
# Mechanical properties :
#
#
# Convention : Reuss Voigt Hill
#
# Bulk Modulus (GPa) = 63.15808 63.83648 63.49728
# Shear Modulus (GPa) = 36.23598 -15.94780 10.14409
#
# Velocity S-wave (km/s) = 4.17243 -2.76802 2.20763
# Velocity P-wave (km/s) = 7.31818 4.52257 6.08315
#
# Compressibility (1/GPa) = 0.01583329
#
# Stress axis : x y z
#
# Youngs Moduli (GPa) = 115.07609 81.24685 81.02942
#
# Poissons Ratio (x) = 0.02444 0.21667
# Poissons Ratio (y) = 0.03462 0.46820
# Poissons Ratio (z) = 0.30771 0.46946
#
# Static dielectric constant tensor:
#      x y z
#    x 1.617350 0.000000 0.000000 
#    y 0.000000 1.749370 0.000000 
#    z 0.000000 0.000000 1.774850 
# 
# From -- ./inp_files/29878.got.cif
#   From: 2010.05.17/outbox.cif.g08.bks.cpg/sg51_15_cif.got.tgz:29878.got - 2010.06.03 11:52:47.
