data_PCOD9403740
_publ_section_title
;
Structure prediction by ZEFSAII (Michael W. Deem and Ramdas Pophale) SiO2 
 PCOD9403740
Probable space group: P M M A
;
_chemical_formula_sum "Si O2"
_cell_formula_units_Z 48
_cell_length_a 18.614971
_cell_length_b 9.046626
_cell_length_c 16.864312
_cell_angle_alpha 90.000000
_cell_angle_beta 90.000000
_cell_angle_gamma 90.000000
_cell_volume 2839.995348
_symmetry_space_group_name_H-M "P M M A"
_symmetry_group_IT_number 51
_symmetry_cell_setting 'orthorhombic'
loop_
_space_group_symop_operation_xyz
x,y,z
1/2-x,-y,z
1/2+x,-y,-z
-x,y,-z
-x,-y,-z
1/2+x,y,-z
1/2-x,y,z
x,-y,z
loop_
_atom_site_type_symbol
_atom_site_label
_atom_site_fract_x
_atom_site_fract_y
_atom_site_fract_z
Si Si1 0.165377 0.324182 0.845100
Si Si2 0.477688 0.678347 0.411331
Si Si3 0.396938 0.176799 0.179025
Si Si4 0.047759 0.824023 0.739288
Si Si5 0.335621 0.825069 0.011087
Si Si6 0.169934 0.677848 0.331124
O O1 0.250000 0.291217 0.834139
O O2 0.155696 0.500000 0.842548
O O3 0.117194 0.246921 0.779041
O O4 0.144817 0.262251 0.931803
O O5 0.500000 0.720641 0.500000
O O6 0.483602 0.500000 0.404683
O O7 0.527333 0.752858 0.344890
O O8 0.395482 0.720154 0.389285
O O9 0.479115 0.206081 0.203592
O O10 0.348473 0.254713 0.245403
O O11 0.384951 0.000000 0.183706
O O12 0.376862 0.223338 0.090238
O O13 0.055264 0.000000 0.731888
O O14 0.250000 0.807125 0.024768
O O15 0.349190 0.000000 0.998253
O O16 0.250000 0.723250 0.356503
O O17 0.168802 0.500000 0.325019
#
# Coordination Sequence:
#
# PCOD9403740 Si02
#       6
#     8   8   8   8   8   8
#     4  10  21  36  52  70  95 129 169 209 247 290
#     4   9  18  34  54  74 100 133 166 202 247 298
#     4   9  18  31  48  72 100 131 164 198 241 293
#     4  10  20  34  53  75  99 127 161 203 250 299
#     4   9  17  30  48  69  96 131 168 204 241 282
#     4   9  17  29  47  72 100 129 162 201 244 290
#
# _framework density 16.901436
#
# number of rings (size 3 to 8) (size 9 to 14) (size 15 to 20)
#    0.000    2.667    0.000    1.500    0.000    4.333 
#    0.000    5.833    0.000    3.000    0.000    0.000 
#    0.000    0.000    0.000    0.000    0.000    0.000 
#
# Total GULP energy -267680.933807 kJ/mol
# GULP energy per Si atom -5576.686121 kJ/mol
# Density = 1.686297 g / cm^3
# Si number density = 16.901436 Si / 1000 Ang^3
#
#
#
# Elastic Constant Matrix: (Units=GPa)
#
#
# Indices 1 2 3 4 5 6 
#
# 1 91.3947 46.1870 92.9104 0.0000 0.0000 0.0000
# 2 46.1870 32.5653 54.9967 0.0000 0.0000 0.0000
# 3 92.9104 54.9967 157.8004 0.0000 0.0000 0.0000
# 4 0.0000 0.0000 0.0000 19.8138 0.0000 0.0000
# 5 0.0000 0.0000 0.0000 0.0000 17.7331 0.0000
# 6 0.0000 0.0000 0.0000 0.0000 0.0000 18.2829
#
#
#
# Elastic Compliance Matrix: (Units=1/GPa)
#
#
# Indices 1 2 3 4 5 6 
#
# 1 0.044515 -0.045870 -0.010223 0.000000 0.000000 0.000000
# 2 -0.045870 0.121906 -0.015479 0.000000 0.000000 0.000000
# 3 -0.010223 -0.015479 0.017751 0.000000 0.000000 0.000000
# 4 0.000000 0.000000 0.000000 0.050470 0.000000 0.000000
# 5 0.000000 0.000000 0.000000 0.000000 0.056392 0.000000
# 6 0.000000 0.000000 0.000000 0.000000 0.000000 0.054696
#
#
# Mechanical properties :
#
#
# Convention : Reuss Voigt Hill
#
# Bulk Modulus (GPa) = 24.37399 74.43872 49.40635
# Shear Modulus (GPa) = 9.94926 17.01038 13.47982
#
# Velocity S-wave (km/s) = 2.42887 3.17589 2.82716
# Velocity P-wave (km/s) = 4.72424 7.58860 6.32081
#
# Compressibility (1/GPa) = 0.04102734
#
# Stress axis : x y z
#
# Youngs Moduli (GPa) = 22.46432 8.20304 56.33491
#
# Poissons Ratio (x) = 0.37628 0.57591
# Poissons Ratio (y) = 1.03045 0.87200
# Poissons Ratio (z) = 0.22965 0.12697
#
# Static dielectric constant tensor:
#      x y z
#    x 1.578260 0.000000 0.000000 
#    y 0.000000 1.561280 0.000000 
#    z 0.000000 0.000000 1.537250 
# 
# From -- ./inp_files/24778.got.cif
#   From: 2010.05.17/outbox.cif.g08.bks.cpg/sg51_13_cif.got.tgz:24778.got - 2010.06.03 11:52:47.
