data_PCOD9403413
_publ_section_title
;
Structure prediction by ZEFSAII (Michael W. Deem and Ramdas Pophale) SiO2 
 PCOD9403413
Probable space group: P M M A
;
_chemical_formula_sum "Si O2"
_cell_formula_units_Z 58
_cell_length_a 7.642389
_cell_length_b 16.066804
_cell_length_c 23.318106
_cell_angle_alpha 90.000000
_cell_angle_beta 90.000000
_cell_angle_gamma 90.000000
_cell_volume 2863.201465
_symmetry_space_group_name_H-M "P M M A"
_symmetry_group_IT_number 51
_symmetry_cell_setting 'orthorhombic'
loop_
_space_group_symop_operation_xyz
x,y,z
1/2-x,-y,z
1/2+x,-y,-z
-x,y,-z
-x,-y,-z
1/2+x,y,-z
1/2-x,y,z
x,-y,z
loop_
_atom_site_type_symbol
_atom_site_label
_atom_site_fract_x
_atom_site_fract_y
_atom_site_fract_z
Si Si1 0.951360 0.092441 0.321522
Si Si2 0.546771 0.749288 0.134158
Si Si3 0.551160 0.260761 0.736947
Si Si4 0.956136 0.176407 0.565613
Si Si5 0.536727 0.353603 0.621650
Si Si6 0.539415 0.407788 0.066662
Si Si7 0.960450 0.906370 0.066138
Si Si8 0.750000 0.500000 0.396710
O O1 0.750000 0.093618 0.301973
O O2 0.044011 0.168450 0.289917
O O3 0.955195 0.115656 0.388709
O O4 0.022973 0.000000 0.311976
O O5 0.750000 0.750835 0.116494
O O6 0.541855 0.740887 0.202331
O O7 0.468643 0.667445 0.104623
O O8 0.471756 0.835351 0.109054
O O9 0.750000 0.283558 0.749340
O O10 0.491390 0.322944 0.686557
O O11 0.750000 0.166371 0.574747
O O12 0.997390 0.272075 0.582433
O O13 0.000000 0.160038 0.500000
O O14 0.750000 0.370937 0.619109
O O15 0.406653 0.427287 0.604807
O O16 0.750000 0.410854 0.073286
O O17 0.471744 0.500000 0.081625
O O18 0.500000 0.392500 0.000000
O O19 0.750000 0.911149 0.071909
O O20 0.029294 0.000000 0.076510
O O21 0.000000 0.883942 0.000000
#
# Coordination Sequence:
#
# PCOD9403413 Si02
#       8
#     8   8   8   8   8   8   8   2
#     4  10  21  37  60  88 116 151 196 238 280 340
#     4  10  20  33  52  76 105 138 183 226 276 343
#     4  10  22  39  57  80 115 151 185 241 289 345
#     4  10  21  37  62  87 122 162 192 238 287 340
#     4   9  22  41  59  90 121 150 204 246 295 357
#     4   9  18  33  51  74 102 134 172 222 277 336
#     4   9  18  32  49  72 102 136 175 223 275 332
#     4  12  22  36  74  86 108 168 192 250 306 352
#
# _framework density 20.257044
#
# number of rings (size 3 to 8) (size 9 to 14) (size 15 to 20)
#    0.000    2.345    0.000    2.690    5.793    3.034 
#    1.241    1.724    0.000    0.000    0.000    0.000 
#    0.000    0.000    0.000    0.000    0.000    0.000 
#
# Total GULP energy -322967.859909 kJ/mol
# GULP energy per Si atom -5568.411378 kJ/mol
# Density = 2.021094 g / cm^3
# Si number density = 20.257044 Si / 1000 Ang^3
#
#
#
# Elastic Constant Matrix: (Units=GPa)
#
#
# Indices 1 2 3 4 5 6 
#
# 1 51.5095 4.7575 -17.0516 0.0000 0.0000 0.0000
# 2 4.7575 40.5332 8.4381 0.0000 0.0000 0.0000
# 3 -17.0516 8.4381 54.6344 0.0000 0.0000 0.0000
# 4 0.0000 0.0000 0.0000 3.2736 0.0000 0.0000
# 5 0.0000 0.0000 0.0000 0.0000 24.6053 0.0000
# 6 0.0000 0.0000 0.0000 0.0000 0.0000 4.6966
#
#
#
# Elastic Compliance Matrix: (Units=1/GPa)
#
#
# Indices 1 2 3 4 5 6 
#
# 1 0.022324 -0.004206 0.007617 0.000000 0.000000 0.000000
# 2 -0.004206 0.026283 -0.005372 0.000000 0.000000 0.000000
# 3 0.007617 -0.005372 0.021510 0.000000 0.000000 0.000000
# 4 0.000000 0.000000 0.000000 0.305470 0.000000 0.000000
# 5 0.000000 0.000000 0.000000 0.000000 0.040642 0.000000
# 6 0.000000 0.000000 0.000000 0.000000 0.000000 0.212922
#
#
# Mechanical properties :
#
#
# Convention : Reuss Voigt Hill
#
# Bulk Modulus (GPa) = 15.10676 15.44056 15.27366
# Shear Modulus (GPa) = 7.63198 16.55064 12.09131
#
# Velocity S-wave (km/s) = 1.94313 2.86148 2.44579
# Velocity P-wave (km/s) = 3.53667 4.30770 3.94109
#
# Compressibility (1/GPa) = 0.06619554
#
# Stress axis : x y z
#
# Youngs Moduli (GPa) = 44.79514 38.04725 46.48901
#
# Poissons Ratio (x) = 0.16002 -0.35410
# Poissons Ratio (y) = 0.18840 0.24974
# Poissons Ratio (z) = -0.34120 0.20439
#
# Static dielectric constant tensor:
#      x y z
#    x 1.706390 0.000000 0.000000 
#    y 0.000000 1.733550 0.000000 
#    z 0.000000 0.000000 1.697300 
# 
# From -- ./inp_files/34781.got.cif
#   From: 2010.05.17/outbox.cif.g08.bks.cpg/sg51_18_cif.got.tgz:34781.got - 2010.06.03 11:52:47.
