data_PCOD9403513
_publ_section_title
;
Structure prediction by ZEFSAII (Michael W. Deem and Ramdas Pophale) SiO2 
 PCOD9403513
Probable space group: P M M A
;
_chemical_formula_sum "Si O2"
_cell_formula_units_Z 44
_cell_length_a 8.797925
_cell_length_b 17.509094
_cell_length_c 15.812973
_cell_angle_alpha 90.000000
_cell_angle_beta 90.000000
_cell_angle_gamma 90.000000
_cell_volume 2435.888803
_symmetry_space_group_name_H-M "P M M A"
_symmetry_group_IT_number 51
_symmetry_cell_setting 'orthorhombic'
loop_
_space_group_symop_operation_xyz
x,y,z
1/2-x,-y,z
1/2+x,-y,-z
-x,y,-z
-x,-y,-z
1/2+x,y,-z
1/2-x,y,z
x,-y,z
loop_
_atom_site_type_symbol
_atom_site_label
_atom_site_fract_x
_atom_site_fract_y
_atom_site_fract_z
Si Si1 0.069072 0.701618 0.771872
Si Si2 0.431179 0.120312 0.413883
Si Si3 0.066400 0.000000 0.093929
Si Si4 0.066187 0.871603 0.226869
Si Si5 0.931318 0.709022 0.416912
Si Si6 0.431690 0.588251 0.091570
O O1 0.250000 0.704289 0.783779
O O2 0.039838 0.674253 0.675293
O O3 0.004371 0.787474 0.780734
O O4 0.994579 0.645217 0.838482
O O5 0.500000 0.086427 0.500000
O O6 0.250000 0.116054 0.420896
O O7 0.474828 0.093489 0.319436
O O8 0.487271 0.208332 0.413068
O O9 0.020989 0.926484 0.150057
O O10 0.250000 0.000000 0.088679
O O11 0.000000 0.000000 0.000000
O O12 0.250000 0.864761 0.226473
O O13 0.750000 0.719442 0.426819
O O14 0.000000 0.669430 0.500000
O O15 0.250000 0.593150 0.087739
O O16 0.473966 0.500000 0.110184
O O17 0.500000 0.607492 0.000000
#
# Coordination Sequence:
#
# PCOD9403513 Si02
#       6
#     8   8   4   8   8   8
#     4  10  20  33  53  81 109 137 172 213 255 303
#     4   9  15  25  44  69  97 129 162 201 249 300
#     4  10  22  40  57  72  94 130 173 216 263 308
#     4   9  19  35  53  73 101 136 173 212 256 307
#     4   9  16  26  43  70 102 135 170 207 247 293
#     4  10  21  37  57  80 106 136 169 208 257 310
#
# _framework density 18.063222
#
# number of rings (size 3 to 8) (size 9 to 14) (size 15 to 20)
#    0.000    2.545    0.000    3.273    0.000    5.455 
#    0.000    2.273    0.000    0.545    0.000    0.000 
#    0.000    0.000    0.000    0.000    0.000    0.000 
#
# Total GULP energy -245250.468472 kJ/mol
# GULP energy per Si atom -5573.874283 kJ/mol
# Density = 1.802211 g / cm^3
# Si number density = 18.063222 Si / 1000 Ang^3
#
#
#
# Elastic Constant Matrix: (Units=GPa)
#
#
# Indices 1 2 3 4 5 6 
#
# 1 51.3831 33.5109 66.4757 0.0000 0.0000 0.0000
# 2 33.5109 69.6821 84.8544 0.0000 0.0000 0.0000
# 3 66.4757 84.8544 211.3819 0.0000 0.0000 0.0000
# 4 0.0000 0.0000 0.0000 294.2829 0.0000 0.0000
# 5 0.0000 0.0000 0.0000 0.0000 36.0242 0.0000
# 6 0.0000 0.0000 0.0000 0.0000 0.0000 -29.4512
#
#
#
# Elastic Compliance Matrix: (Units=1/GPa)
#
#
# Indices 1 2 3 4 5 6 
#
# 1 0.034282 -0.006570 -0.008144 0.000000 0.000000 0.000000
# 2 -0.006570 0.029334 -0.009709 0.000000 0.000000 0.000000
# 3 -0.008144 -0.009709 0.011189 0.000000 0.000000 0.000000
# 4 0.000000 0.000000 0.000000 0.003398 0.000000 0.000000
# 5 0.000000 0.000000 0.000000 0.000000 0.027759 0.000000
# 6 0.000000 0.000000 0.000000 0.000000 0.000000 -0.033954
#
#
# Mechanical properties :
#
#
# Convention : Reuss Voigt Hill
#
# Bulk Modulus (GPa) = 38.52120 78.01436 58.26778
# Shear Modulus (GPa) = 38.60800 70.01159 54.30980
#
# Velocity S-wave (km/s) = 4.62820 6.23244 5.48924
# Velocity P-wave (km/s) = 7.06628 9.75061 8.51489
#
# Compressibility (1/GPa) = 0.02595973
#
# Stress axis : x y z
#
# Youngs Moduli (GPa) = 29.16968 34.09052 89.36966
#
# Poissons Ratio (x) = 0.22396 0.72782
# Poissons Ratio (y) = 0.19163 0.86772
# Poissons Ratio (z) = 0.23756 0.33100
#
# Static dielectric constant tensor:
#      x y z
#    x 1.603800 0.000000 0.000000 
#    y 0.000000 1.600050 0.000000 
#    z 0.000000 0.000000 1.659210 
# 
# From -- ./inp_files/20917.got.cif
#   From: 2010.05.17/outbox.cif.g08.bks.cpg/sg51_11_cif.got.tgz:20917.got - 2010.06.03 11:52:47.
