data_PCOD9403900
_publ_section_title
;
Structure prediction by ZEFSAII (Michael W. Deem and Ramdas Pophale) SiO2 
 PCOD9403900
Probable space group: P M M A
;
_chemical_formula_sum "Si O2"
_cell_formula_units_Z 56
_cell_length_a 15.320087
_cell_length_b 20.627877
_cell_length_c 9.138581
_cell_angle_alpha 90.000000
_cell_angle_beta 90.000000
_cell_angle_gamma 90.000000
_cell_volume 2887.982321
_symmetry_space_group_name_H-M "P M M A"
_symmetry_group_IT_number 51
_symmetry_cell_setting 'orthorhombic'
loop_
_space_group_symop_operation_xyz
x,y,z
1/2-x,-y,z
1/2+x,-y,-z
-x,y,-z
-x,-y,-z
1/2+x,y,-z
1/2-x,y,z
x,-y,z
loop_
_atom_site_type_symbol
_atom_site_label
_atom_site_fract_x
_atom_site_fract_y
_atom_site_fract_z
Si Si1 0.148537 0.322958 0.143200
Si Si2 0.090617 0.926752 0.087918
Si Si3 0.651108 0.071579 0.223322
Si Si4 0.856623 0.200974 0.371832
Si Si5 0.505489 0.573676 0.822064
Si Si6 0.644454 0.188099 0.709242
Si Si7 0.147698 0.667471 0.791890
O O1 0.250000 0.333978 0.181725
O O2 0.121222 0.253338 0.204307
O O3 0.087246 0.379269 0.205603
O O4 0.142581 0.320864 0.966876
O O5 0.104613 0.873809 0.210698
O O6 0.098529 0.000000 0.145323
O O7 0.155559 0.918865 0.951062
O O8 0.000000 0.920319 0.000000
O O9 0.750000 0.068165 0.280869
O O10 0.610288 0.135604 0.293230
O O11 0.610344 0.000000 0.249112
O O12 0.750000 0.200982 0.362678
O O13 0.881512 0.197095 0.541051
O O14 0.882127 0.267541 0.292031
O O15 0.515591 0.500000 0.770012
O O16 0.418031 0.608284 0.763438
O O17 0.500000 0.571241 0.000000
O O18 0.750000 0.181199 0.714099
O O19 0.250000 0.654427 0.756922
#
# Coordination Sequence:
#
# PCOD9403900 Si02
#       7
#     8   8   8   8   8   8   8
#     4   9  18  32  51  76 105 138 175 216 266 322
#     4  10  21  35  50  72 103 137 173 215 262 311
#     4   9  17  31  51  72  96 130 170 210 254 305
#     4   9  18  32  51  76 104 133 169 215 263 310
#     4   9  18  32  52  80 107 131 169 218 263 313
#     4  10  20  34  54  78 102 132 173 218 260 306
#     4   9  17  31  52  76 105 140 174 214 266 323
#
# _framework density 19.390701
#
# number of rings (size 3 to 8) (size 9 to 14) (size 15 to 20)
#    0.000    2.714    0.000    1.286    0.000    7.143 
#    0.000    7.143    0.000    4.286    0.000    4.000 
#    0.000    0.000    0.000    0.000    0.000    0.000 
#
# Total GULP energy -312267.697379 kJ/mol
# GULP energy per Si atom -5576.208882 kJ/mol
# Density = 1.934657 g / cm^3
# Si number density = 19.390701 Si / 1000 Ang^3
#
#
#
# Elastic Constant Matrix: (Units=GPa)
#
#
# Indices 1 2 3 4 5 6 
#
# 1 60.8956 67.8112 27.2618 0.0000 0.0000 0.0000
# 2 67.8112 202.7079 64.9710 0.0000 0.0000 0.0000
# 3 27.2618 64.9710 43.0339 0.0000 0.0000 0.0000
# 4 0.0000 0.0000 0.0000 -8.5202 0.0000 0.0000
# 5 0.0000 0.0000 0.0000 0.0000 10.3805 0.0000
# 6 0.0000 0.0000 0.0000 0.0000 0.0000 22.8413
#
#
#
# Elastic Compliance Matrix: (Units=1/GPa)
#
#
# Indices 1 2 3 4 5 6 
#
# 1 0.027148 -0.006916 -0.006756 0.000000 0.000000 0.000000
# 2 -0.006916 0.011321 -0.012710 0.000000 0.000000 0.000000
# 3 -0.006756 -0.012710 0.046707 0.000000 0.000000 0.000000
# 4 0.000000 0.000000 0.000000 -0.117369 0.000000 0.000000
# 5 0.000000 0.000000 0.000000 0.000000 0.096335 0.000000
# 6 0.000000 0.000000 0.000000 0.000000 0.000000 0.043780
#
#
# Mechanical properties :
#
#
# Convention : Reuss Voigt Hill
#
# Bulk Modulus (GPa) = 30.85450 69.63617 50.24533
# Shear Modulus (GPa) = 29.15619 14.71321 21.93470
#
# Velocity S-wave (km/s) = 3.88186 2.75758 3.36698
# Velocity P-wave (km/s) = 6.00319 6.79184 6.40966
#
# Compressibility (1/GPa) = 0.03241019
#
# Stress axis : x y z
#
# Youngs Moduli (GPa) = 36.83538 88.33419 21.41019
#
# Poissons Ratio (x) = 0.61094 0.14465
# Poissons Ratio (y) = 0.25476 0.27213
# Poissons Ratio (z) = 0.24887 1.12274
#
# Static dielectric constant tensor:
#      x y z
#    x 1.784940 0.000000 0.000000 
#    y 0.000000 1.665360 0.000000 
#    z 0.000000 0.000000 1.643730 
# 
# From -- ./inp_files/8575.got.cif
#   From: 2010.05.17/outbox.cif.g08.bks.cpg/sg51_5_cif.got.tgz:8575.got - 2010.06.03 11:52:47.
