data_PCOD9403672
_publ_section_title
;
Structure prediction by ZEFSAII (Michael W. Deem and Ramdas Pophale) SiO2 
 PCOD9403672
Probable space group: P M M A
;
_chemical_formula_sum "Si O2"
_cell_formula_units_Z 44
_cell_length_a 9.245207
_cell_length_b 8.132167
_cell_length_c 31.008802
_cell_angle_alpha 90.000000
_cell_angle_beta 90.000000
_cell_angle_gamma 90.000000
_cell_volume 2331.352351
_symmetry_space_group_name_H-M "P M M A"
_symmetry_group_IT_number 51
_symmetry_cell_setting 'orthorhombic'
loop_
_space_group_symop_operation_xyz
x,y,z
1/2-x,-y,z
1/2+x,-y,-z
-x,y,-z
-x,-y,-z
1/2+x,y,-z
1/2-x,y,z
x,-y,z
loop_
_atom_site_type_symbol
_atom_site_label
_atom_site_fract_x
_atom_site_fract_y
_atom_site_fract_z
Si Si1 0.426013 0.818650 0.897988
Si Si2 0.573932 0.308473 0.193989
Si Si3 0.585754 0.803504 0.626695
Si Si4 0.425684 0.500000 0.953682
Si Si5 0.583402 0.301132 0.288586
Si Si6 0.085682 0.698219 0.542043
O O1 0.250000 0.817679 0.897765
O O2 0.472360 0.788161 0.848486
O O3 0.468804 0.663950 0.927212
O O4 0.473133 0.000000 0.912791
O O5 0.750000 0.305982 0.195016
O O6 0.531782 0.500000 0.188998
O O7 0.529143 0.246174 0.241257
O O8 0.750000 0.740128 0.624346
O O9 0.512000 0.752660 0.671425
O O10 0.494981 0.741535 0.586018
O O11 0.588889 0.000000 0.624788
O O12 0.250000 0.500000 0.957431
O O13 0.500000 0.500000 0.000000
O O14 0.750000 0.245707 0.294602
O O15 0.585884 0.500000 0.286949
O O16 0.250000 0.760339 0.542359
O O17 0.090950 0.500000 0.539232
O O18 0.000000 0.759413 0.500000
#
# Coordination Sequence:
#
# PCOD9403672 Si02
#       6
#     8   8   8   4   8   8
#     4   9  16  27  47  75 104 136 174 217 268 321
#     4   8  13  25  46  73 104 131 161 210 264 311
#     4  11  24  38  51  72 106 145 180 214 254 304
#     4  10  20  34  52  74 104 138 176 224 269 316
#     4   9  18  32  53  80 106 133 168 213 263 312
#     4  10  21  38  61  85 105 129 167 214 264 318
#
# _framework density 18.873166000000001
#
# number of rings (size 3 to 8) (size 9 to 14) (size 15 to 20)
#    0.000    2.545    0.909    2.727    0.000    6.545 
#    0.000    1.818    0.000    1.091    0.000    0.000 
#    0.000    0.000    0.000    0.000    0.000    0.000 
#
# Total GULP energy -245406.954541 kJ/mol
# GULP energy per Si atom -5577.430785 kJ/mol
# Density = 1.883021 g / cm^3
# Si number density = 18.873166 Si / 1000 Ang^3
#
#
#
# Elastic Constant Matrix: (Units=GPa)
#
#
# Indices 1 2 3 4 5 6 
#
# 1 76.9277 25.4862 62.2611 0.0000 0.0000 0.0000
# 2 25.4862 73.5366 56.5145 0.0000 0.0000 0.0000
# 3 62.2611 56.5145 176.9622 0.0000 0.0000 0.0000
# 4 0.0000 0.0000 0.0000 -13.0772 0.0000 0.0000
# 5 0.0000 0.0000 0.0000 0.0000 27.1112 0.0000
# 6 0.0000 0.0000 0.0000 0.0000 0.0000 13.4198
#
#
#
# Elastic Compliance Matrix: (Units=1/GPa)
#
#
# Indices 1 2 3 4 5 6 
#
# 1 0.018363 -0.001854 -0.005869 0.000000 0.000000 0.000000
# 2 -0.001854 0.018209 -0.005163 0.000000 0.000000 0.000000
# 3 -0.005869 -0.005163 0.009365 0.000000 0.000000 0.000000
# 4 0.000000 0.000000 0.000000 -0.076469 0.000000 0.000000
# 5 0.000000 0.000000 0.000000 0.000000 0.036885 0.000000
# 6 0.000000 0.000000 0.000000 0.000000 0.000000 0.074517
#
#
# Mechanical properties :
#
#
# Convention : Reuss Voigt Hill
#
# Bulk Modulus (GPa) = 49.58963 68.43892 59.01427
# Shear Modulus (GPa) = 44.10604 17.70174 30.90389
#
# Velocity S-wave (km/s) = 4.83947 3.06589 4.05093
# Velocity P-wave (km/s) = 7.58680 6.99101 7.29499
#
# Compressibility (1/GPa) = 0.02016551
#
# Stress axis : x y z
#
# Youngs Moduli (GPa) = 54.45650 54.91769 106.78590
#
# Poissons Ratio (x) = 0.10182 0.62669
# Poissons Ratio (y) = 0.10097 0.55132
# Poissons Ratio (z) = 0.31959 0.28353
#
# Static dielectric constant tensor:
#      x y z
#    x 1.642810 0.000000 0.000000 
#    y 0.000000 1.674300 0.000000 
#    z 0.000000 0.000000 1.640840 
# 
# From -- ./inp_files/36791.got.cif
#   From: 2010.05.17/outbox.cif.g08.bks.cpg/sg51_19_cif.got.tgz:36791.got - 2010.06.03 11:52:47.
