data_PCOD9403289
_publ_section_title
;
Structure prediction by ZEFSAII (Michael W. Deem and Ramdas Pophale) SiO2 
 PCOD9403289
Probable space group: P M M A
;
_chemical_formula_sum "Si O2"
_cell_formula_units_Z 56
_cell_length_a 18.337501
_cell_length_b 9.122725
_cell_length_c 19.760141
_cell_angle_alpha 90.000000
_cell_angle_beta 90.000000
_cell_angle_gamma 90.000000
_cell_volume 3305.634049
_symmetry_space_group_name_H-M "P M M A"
_symmetry_group_IT_number 51
_symmetry_cell_setting 'orthorhombic'
loop_
_space_group_symop_operation_xyz
x,y,z
1/2-x,-y,z
1/2+x,-y,-z
-x,y,-z
-x,-y,-z
1/2+x,y,-z
1/2-x,y,z
x,-y,z
loop_
_atom_site_type_symbol
_atom_site_label
_atom_site_fract_x
_atom_site_fract_y
_atom_site_fract_z
Si Si1 0.838798 0.831015 0.565055
Si Si2 0.400292 0.824410 0.724502
Si Si3 0.162679 0.671657 0.297633
Si Si4 0.980285 0.676623 0.076386
Si Si5 0.948053 0.825646 0.796966
Si Si6 0.834594 0.178495 0.416349
Si Si7 0.168657 0.676089 0.852407
O O1 0.750000 0.832576 0.562690
O O2 0.860632 0.736640 0.629576
O O3 0.861579 0.775113 0.490781
O O4 0.862672 0.000000 0.574280
O O5 0.482874 0.794651 0.747630
O O6 0.380808 0.775861 0.648678
O O7 0.349487 0.748052 0.780226
O O8 0.388931 0.000000 0.728056
O O9 0.250000 0.689720 0.292721
O O10 0.145661 0.500000 0.293770
O O11 0.122128 0.757574 0.238446
O O12 0.987252 0.500000 0.082105
O O13 0.031830 0.752268 0.131702
O O14 0.897229 0.716612 0.097160
O O15 0.000000 0.718501 0.000000
O O16 0.941510 0.000000 0.804286
O O17 0.750000 0.223301 0.407222
O O18 0.834813 0.000000 0.418809
O O19 0.250000 0.718223 0.874911
O O20 0.166659 0.500000 0.845202
#
# Coordination Sequence:
#
# PCOD9403289 Si02
#       7
#     8   8   8   8   8   8   8
#     4   8  14  26  45  67  90 119 156 198 242 281
#     4   9  17  29  46  69  96 127 161 194 232 281
#     4  10  20  34  52  71  91 120 160 203 244 289
#     4   9  18  34  54  73  98 133 166 196 236 285
#     4  10  20  33  51  74  98 124 155 194 241 291
#     4   8  13  23  42  67  93 122 158 198 235 273
#     4   9  17  29  46  70  98 127 160 197 236 278
#
# _framework density 16.940773
#
# number of rings (size 3 to 8) (size 9 to 14) (size 15 to 20)
#    0.000    3.000    0.000    2.143    0.000    2.571 
#    0.000    2.143    0.000    9.429    0.000    0.000 
#    0.000    0.000    0.000    0.000    0.000    0.000 
#
# Total GULP energy -311993.866785 kJ/mol
# GULP energy per Si atom -5571.319050 kJ/mol
# Density = 1.690222 g / cm^3
# Si number density = 16.940773 Si / 1000 Ang^3
#
#
#
# Elastic Constant Matrix: (Units=GPa)
#
#
# Indices 1 2 3 4 5 6 
#
# 1 35.6006 29.0564 49.8869 0.0000 0.0000 0.0000
# 2 29.0564 32.5930 47.6725 0.0000 0.0000 0.0000
# 3 49.8869 47.6725 148.2267 0.0000 0.0000 0.0000
# 4 0.0000 0.0000 0.0000 14.8889 0.0000 0.0000
# 5 0.0000 0.0000 0.0000 0.0000 18.7401 0.0000
# 6 0.0000 0.0000 0.0000 0.0000 0.0000 15.7209
#
#
#
# Elastic Compliance Matrix: (Units=1/GPa)
#
#
# Indices 1 2 3 4 5 6 
#
# 1 0.111089 -0.083744 -0.010454 0.000000 0.000000 0.000000
# 2 -0.083744 0.121065 -0.010752 0.000000 0.000000 0.000000
# 3 -0.010454 -0.010752 0.013723 0.000000 0.000000 0.000000
# 4 0.000000 0.000000 0.000000 0.067164 0.000000 0.000000
# 5 0.000000 0.000000 0.000000 0.000000 0.053362 0.000000
# 6 0.000000 0.000000 0.000000 0.000000 0.000000 0.063610
#
#
# Mechanical properties :
#
#
# Convention : Reuss Voigt Hill
#
# Bulk Modulus (GPa) = 27.79590 52.18353 39.98971
# Shear Modulus (GPa) = 7.66983 15.85694 11.76339
#
# Velocity S-wave (km/s) = 2.13009 3.06277 2.63797
# Velocity P-wave (km/s) = 4.74268 6.58618 5.73894
#
# Compressibility (1/GPa) = 0.03597653
#
# Stress axis : x y z
#
# Youngs Moduli (GPa) = 9.00180 8.26002 72.87034
#
# Poissons Ratio (x) = 0.69173 0.76181
# Poissons Ratio (y) = 0.75384 0.78351
# Poissons Ratio (z) = 0.09411 0.08881
#
# Static dielectric constant tensor:
#      x y z
#    x 1.579340 0.000000 0.000000 
#    y 0.000000 1.563620 0.000000 
#    z 0.000000 0.000000 1.562540 
# 
# From -- ./inp_files/33413.got.cif
#   From: 2010.05.17/outbox.cif.g08.bks.cpg/sg51_17_cif.got.tgz:33413.got - 2010.06.03 11:52:47.
