data_PCOD9403057
_publ_section_title
;
Structure prediction by ZEFSAII (Michael W. Deem and Ramdas Pophale) SiO2 
 PCOD9403057
Probable space group: P M M A
;
_chemical_formula_sum "Si O2"
_cell_formula_units_Z 48
_cell_length_a 9.065174
_cell_length_b 17.619304
_cell_length_c 15.549345
_cell_angle_alpha 90.000000
_cell_angle_beta 90.000000
_cell_angle_gamma 90.000000
_cell_volume 2483.573361
_symmetry_space_group_name_H-M "P M M A"
_symmetry_group_IT_number 51
_symmetry_cell_setting 'orthorhombic'
loop_
_space_group_symop_operation_xyz
x,y,z
1/2-x,-y,z
1/2+x,-y,-z
-x,y,-z
-x,-y,-z
1/2+x,y,-z
1/2-x,y,z
x,-y,z
loop_
_atom_site_type_symbol
_atom_site_label
_atom_site_fract_x
_atom_site_fract_y
_atom_site_fract_z
Si Si1 0.082428 0.387480 0.914621
Si Si2 0.070749 0.328665 0.412515
Si Si3 0.921024 0.205354 0.089328
Si Si4 0.572576 0.798841 0.725583
Si Si5 0.422768 0.909430 0.591312
Si Si6 0.585668 0.500000 0.606632
Si Si7 0.088337 0.500000 0.191416
O O1 0.250000 0.412404 0.914976
O O2 0.079605 0.296995 0.913503
O O3 0.997560 0.425522 0.836977
O O4 0.000000 0.413114 0.000000
O O5 0.250000 0.328646 0.418129
O O6 0.033442 0.279008 0.327503
O O7 0.017861 0.416847 0.409679
O O8 0.000000 0.295430 0.500000
O O9 0.750000 0.179596 0.091598
O O10 0.004178 0.190271 0.179338
O O11 0.000000 0.179842 0.000000
O O12 0.750000 0.801070 0.731766
O O13 0.508869 0.864564 0.664781
O O14 0.500000 0.894143 0.500000
O O15 0.250000 0.887432 0.589069
O O16 0.430358 0.000000 0.606013
O O17 0.750000 0.500000 0.565490
O O18 0.602749 0.500000 0.708083
O O19 0.250000 0.500000 0.150594
#
# Coordination Sequence:
#
# PCOD9403057 Si02
#       7
#     8   8   8   8   8   4   4
#     4  10  20  33  48  68  95 128 170 223 282 340
#     4  10  21  36  54  77 106 143 187 234 282 333
#     4  10  21  37  57  80 109 145 186 233 283 337
#     4  11  22  36  58  87 118 152 192 236 284 342
#     4  10  21  38  61  90 124 159 194 234 284 342
#     4   9  19  35  51  68  97 139 183 226 275 327
#     4  11  20  31  48  66  90 127 172 224 281 343
#
# _framework density 19.326991
#
# number of rings (size 3 to 8) (size 9 to 14) (size 15 to 20)
#    0.000    1.833    0.000    4.250    0.000    7.000 
#    0.000    1.667    0.000    0.500    0.000    0.000 
#    0.000    0.000    0.000    0.000    0.000    0.000 
#
# Total GULP energy -267709.549038 kJ/mol
# GULP energy per Si atom -5577.282272 kJ/mol
# Density = 1.928300 g / cm^3
# Si number density = 19.326991 Si / 1000 Ang^3
#
#
#
# Elastic Constant Matrix: (Units=GPa)
#
#
# Indices 1 2 3 4 5 6 
#
# 1 120.2130 31.2409 73.2912 0.0000 0.0000 0.0000
# 2 31.2409 52.8375 40.8835 0.0000 0.0000 0.0000
# 3 73.2912 40.8835 170.0617 0.0000 0.0000 0.0000
# 4 0.0000 0.0000 0.0000 19.9656 0.0000 0.0000
# 5 0.0000 0.0000 0.0000 0.0000 34.0200 0.0000
# 6 0.0000 0.0000 0.0000 0.0000 0.0000 24.9604
#
#
#
# Elastic Compliance Matrix: (Units=1/GPa)
#
#
# Indices 1 2 3 4 5 6 
#
# 1 0.011861 -0.003756 -0.004208 0.000000 0.000000 0.000000
# 2 -0.003756 0.024441 -0.004257 0.000000 0.000000 0.000000
# 3 -0.004208 -0.004257 0.008717 0.000000 0.000000 0.000000
# 4 0.000000 0.000000 0.000000 0.050086 0.000000 0.000000
# 5 0.000000 0.000000 0.000000 0.000000 0.029395 0.000000
# 6 0.000000 0.000000 0.000000 0.000000 0.000000 0.040063
#
#
# Mechanical properties :
#
#
# Convention : Reuss Voigt Hill
#
# Bulk Modulus (GPa) = 48.60194 70.43814 59.52004
# Shear Modulus (GPa) = 25.52788 28.96897 27.24843
#
# Velocity S-wave (km/s) = 3.63828 3.87575 3.75889
# Velocity P-wave (km/s) = 6.54608 7.52018 7.04998
#
# Compressibility (1/GPa) = 0.02057531
#
# Stress axis : x y z
#
# Youngs Moduli (GPa) = 84.31276 40.91541 114.71459
#
# Poissons Ratio (x) = 0.15369 0.48278
# Poissons Ratio (y) = 0.31671 0.48831
# Poissons Ratio (z) = 0.35483 0.17417
#
# Static dielectric constant tensor:
#      x y z
#    x 1.702950 0.000000 0.000000 
#    y 0.000000 1.686570 0.000000 
#    z 0.000000 0.000000 1.669660 
# 
# From -- ./inp_files/21220.got.cif
#   From: 2010.05.17/outbox.cif.g08.bks.cpg/sg51_11_cif.got.tgz:21220.got - 2010.06.03 11:52:47.
