data_PCOD9403411
_publ_section_title
;
Structure prediction by ZEFSAII (Michael W. Deem and Ramdas Pophale) SiO2 
 PCOD9403411
Probable space group: P M M A
;
_chemical_formula_sum "Si O2"
_cell_formula_units_Z 44
_cell_length_a 9.295793
_cell_length_b 13.653311
_cell_length_c 19.146234
_cell_angle_alpha 90.000000
_cell_angle_beta 90.000000
_cell_angle_gamma 90.000000
_cell_volume 2430.008482
_symmetry_space_group_name_H-M "P M M A"
_symmetry_group_IT_number 51
_symmetry_cell_setting 'orthorhombic'
loop_
_space_group_symop_operation_xyz
x,y,z
1/2-x,-y,z
1/2+x,-y,-z
-x,y,-z
-x,-y,-z
1/2+x,y,-z
1/2-x,y,z
x,-y,z
loop_
_atom_site_type_symbol
_atom_site_label
_atom_site_fract_x
_atom_site_fract_y
_atom_site_fract_z
Si Si1 0.075483 0.698614 0.840967
Si Si2 0.422956 0.891073 0.925505
Si Si3 0.925199 0.500000 0.076008
Si Si4 0.423073 0.715661 0.680050
Si Si5 0.578830 0.887140 0.426444
Si Si6 0.090027 0.384353 0.434681
O O1 0.250000 0.697986 0.840797
O O2 0.030083 0.797587 0.880632
O O3 0.033317 0.598437 0.880766
O O4 0.030663 0.707820 0.760300
O O5 0.250000 0.884879 0.934478
O O6 0.453212 0.000000 0.895160
O O7 0.500000 0.886103 0.000000
O O8 0.750000 0.500000 0.068229
O O9 0.000000 0.500000 0.000000
O O10 0.250000 0.704791 0.677578
O O11 0.460272 0.814504 0.636936
O O12 0.501352 0.633608 0.634977
O O13 0.500000 0.869299 0.500000
O O14 0.750000 0.876311 0.437846
O O15 0.549927 0.000000 0.406706
O O16 0.250000 0.341189 0.431778
O O17 0.103935 0.500000 0.445251
O O18 0.000000 0.344876 0.500000
#
# Coordination Sequence:
#
# PCOD9403411 Si02
#       6
#     8   8   4   8   8   8
#     4   9  19  33  51  77 104 135 171 209 260 313
#     4   9  17  31  52  76 102 132 169 212 256 308
#     4  10  20  36  56  76 101 134 173 214 253 308
#     4  10  20  33  52  76 102 135 171 211 259 308
#     4   9  18  32  50  73 101 134 173 213 252 299
#     4  10  21  36  53  74 100 132 170 212 256 303
#
# _framework density 18.106932
#
# number of rings (size 3 to 8) (size 9 to 14) (size 15 to 20)
#    0.000    2.545    0.000    1.636    1.273    4.000 
#    0.000    5.455    0.000    0.000    0.000    5.091 
#    0.000    0.000    0.000    0.000    0.000    0.000 
#
# Total GULP energy -245184.041968 kJ/mol
# GULP energy per Si atom -5572.364590 kJ/mol
# Density = 1.806572 g / cm^3
# Si number density = 18.106932 Si / 1000 Ang^3
#
#
#
# Elastic Constant Matrix: (Units=GPa)
#
#
# Indices 1 2 3 4 5 6 
#
# 1 25.1738 32.1684 37.9212 0.0000 0.0000 0.0000
# 2 32.1684 119.6871 70.4558 0.0000 0.0000 0.0000
# 3 37.9212 70.4558 150.6220 0.0000 0.0000 0.0000
# 4 0.0000 0.0000 0.0000 44.7546 0.0000 0.0000
# 5 0.0000 0.0000 0.0000 0.0000 23.7997 0.0000
# 6 0.0000 0.0000 0.0000 0.0000 0.0000 -0.8003
#
#
#
# Elastic Compliance Matrix: (Units=1/GPa)
#
#
# Indices 1 2 3 4 5 6 
#
# 1 0.075610 -0.012580 -0.013151 0.000000 0.000000 0.000000
# 2 -0.012580 0.013623 -0.003205 0.000000 0.000000 0.000000
# 3 -0.013151 -0.003205 0.011449 0.000000 0.000000 0.000000
# 4 0.000000 0.000000 0.000000 0.022344 0.000000 0.000000
# 5 0.000000 0.000000 0.000000 0.000000 0.042017 0.000000
# 6 0.000000 0.000000 0.000000 0.000000 0.000000 -1.249499
#
#
# Mechanical properties :
#
#
# Convention : Reuss Voigt Hill
#
# Bulk Modulus (GPa) = 23.35938 64.06375 43.71156
# Shear Modulus (GPa) = -4.93919 23.87998 9.47040
#
# Velocity S-wave (km/s) = -1.65339 3.63551 2.28946
# Velocity P-wave (km/s) = 3.04694 7.28561 5.58409
#
# Compressibility (1/GPa) = 0.04280936
#
# Stress axis : x y z
#
# Youngs Moduli (GPa) = 13.22577 73.40495 87.34033
#
# Poissons Ratio (x) = 0.92343 1.14864
# Poissons Ratio (y) = 0.16638 0.27994
# Poissons Ratio (z) = 0.17394 0.23528
#
# Static dielectric constant tensor:
#      x y z
#    x 1.616480 0.000000 0.000000 
#    y 0.000000 1.666240 0.000000 
#    z 0.000000 0.000000 1.632750 
# 
# From -- ./inp_files/27384.got.cif
#   From: 2010.05.17/outbox.cif.g08.bks.cpg/sg51_14_cif.got.tgz:27384.got - 2010.06.03 11:52:47.
