data_PCOD9403264
_publ_section_title
;
Structure prediction by ZEFSAII (Michael W. Deem and Ramdas Pophale) SiO2 
 PCOD9403264
Probable space group: P M M A
;
_chemical_formula_sum "Si O2"
_cell_formula_units_Z 56
_cell_length_a 21.103200
_cell_length_b 7.338175
_cell_length_c 14.973648
_cell_angle_alpha 90.000000
_cell_angle_beta 90.000000
_cell_angle_gamma 90.000000
_cell_volume 2318.803776
_symmetry_space_group_name_H-M "P M M A"
_symmetry_group_IT_number 51
_symmetry_cell_setting 'orthorhombic'
loop_
_space_group_symop_operation_xyz
x,y,z
1/2-x,-y,z
1/2+x,-y,-z
-x,y,-z
-x,-y,-z
1/2+x,y,-z
1/2-x,y,z
x,-y,z
loop_
_atom_site_type_symbol
_atom_site_label
_atom_site_fract_x
_atom_site_fract_y
_atom_site_fract_z
Si Si1 0.428308 0.287201 0.979054
Si Si2 0.320179 0.276908 0.847418
Si Si3 0.014867 0.778397 0.602334
Si Si4 0.598899 0.796424 0.705583
Si Si5 0.181871 0.281064 0.454359
Si Si6 0.822534 0.779685 0.870439
Si Si7 0.341993 0.290160 0.648466
O O1 0.438788 0.500000 0.957985
O O2 0.378376 0.273909 0.061067
O O3 0.500000 0.214419 0.000000
O O4 0.383041 0.212634 0.899613
O O5 0.250000 0.224641 0.884028
O O6 0.321742 0.500000 0.849850
O O7 0.323907 0.215416 0.744576
O O8 0.083413 0.718368 0.632980
O O9 0.000000 0.719676 0.500000
O O10 0.967150 0.708569 0.678936
O O11 0.012168 0.000000 0.601835
O O12 0.630214 0.804613 0.608155
O O13 0.649416 0.717832 0.774575
O O14 0.585363 0.000000 0.739719
O O15 0.250000 0.245816 0.412730
O O16 0.171351 0.500000 0.456581
O O17 0.182273 0.211867 0.555289
O O18 0.750000 0.714530 0.886665
O O19 0.818606 0.000000 0.871979
O O20 0.320788 0.500000 0.650489
#
# Coordination Sequence:
#
# PCOD9403264 Si02
#       7
#     8   8   8   8   8   8   8
#     4  10  22  39  61  90 119 147 186 234 284 342
#     4   9  18  35  58  82 111 149 187 226 281 341
#     4  10  20  35  53  76 109 148 188 229 275 328
#     4  10  21  37  56  78 109 150 190 227 275 336
#     4  10  20  33  50  77 110 141 180 231 277 322
#     4  10  22  40  61  85 113 149 193 236 284 343
#     4  10  20  33  54  80 107 142 185 229 275 329
#
# _framework density 24.150383999999999
#
# number of rings (size 3 to 8) (size 9 to 14) (size 15 to 20)
#    0.000    2.143    1.429    1.286    2.000    5.143 
#    0.000    0.714    0.000    2.143    0.000    0.000 
#    0.000    0.000    0.000    0.000    0.000    0.000 
#
# Total GULP energy -312430.911398 kJ/mol
# GULP energy per Si atom -5579.123418 kJ/mol
# Density = 2.409542 g / cm^3
# Si number density = 24.150384 Si / 1000 Ang^3
#
#
#
# Elastic Constant Matrix: (Units=GPa)
#
#
# Indices 1 2 3 4 5 6 
#
# 1 208.9860 -1.8412 44.8709 0.0000 0.0000 0.0000
# 2 -1.8412 93.3741 -14.3811 0.0000 0.0000 0.0000
# 3 44.8709 -14.3811 101.3530 0.0000 0.0000 0.0000
# 4 0.0000 0.0000 0.0000 8.3377 0.0000 0.0000
# 5 0.0000 0.0000 0.0000 0.0000 33.9333 0.0000
# 6 0.0000 0.0000 0.0000 0.0000 0.0000 -44.2684
#
#
#
# Elastic Compliance Matrix: (Units=1/GPa)
#
#
# Indices 1 2 3 4 5 6 
#
# 1 0.005294 -0.000262 -0.002381 0.000000 0.000000 0.000000
# 2 -0.000262 0.010962 0.001672 0.000000 0.000000 0.000000
# 3 -0.002381 0.001672 0.011158 0.000000 0.000000 0.000000
# 4 0.000000 0.000000 0.000000 0.119937 0.000000 0.000000
# 5 0.000000 0.000000 0.000000 0.000000 0.029470 0.000000
# 6 0.000000 0.000000 0.000000 0.000000 0.000000 -0.022589
#
#
# Mechanical properties :
#
#
# Convention : Reuss Voigt Hill
#
# Bulk Modulus (GPa) = 39.26170 51.22336 45.24253
# Shear Modulus (GPa) = 30.36490 24.60482 27.48486
#
# Velocity S-wave (km/s) = 3.54973 3.19535 3.37719
# Velocity P-wave (km/s) = 5.75267 5.90508 5.82937
#
# Compressibility (1/GPa) = 0.02547012
#
# Stress axis : x y z
#
# Youngs Moduli (GPa) = 188.89652 91.22522 89.62364
#
# Poissons Ratio (x) = 0.02393 0.21339
# Poissons Ratio (y) = 0.04955 -0.14981
# Poissons Ratio (z) = 0.44975 -0.15249
#
# Static dielectric constant tensor:
#      x y z
#    x 1.945350 0.000000 0.000000 
#    y 0.000000 1.906140 0.000000 
#    z 0.000000 0.000000 1.925360 
# 
# From -- ./inp_files/25743.got.cif
#   From: 2010.05.17/outbox.cif.g08.bks.cpg/sg51_13_cif.got.tgz:25743.got - 2010.06.03 11:52:47.
