data_PCOD9403171
_publ_section_title
;
Structure prediction by ZEFSAII (Michael W. Deem and Ramdas Pophale) SiO2 
 PCOD9403171
Probable space group: P M M A
;
_chemical_formula_sum "Si O2"
_cell_formula_units_Z 64
_cell_length_a 14.192887
_cell_length_b 9.143234
_cell_length_c 29.575138
_cell_angle_alpha 90.000000
_cell_angle_beta 90.000000
_cell_angle_gamma 90.000000
_cell_volume 3837.932740
_symmetry_space_group_name_H-M "P M M A"
_symmetry_group_IT_number 51
_symmetry_cell_setting 'orthorhombic'
loop_
_space_group_symop_operation_xyz
x,y,z
1/2-x,-y,z
1/2+x,-y,-z
-x,y,-z
-x,-y,-z
1/2+x,y,-z
1/2-x,y,z
x,-y,z
loop_
_atom_site_type_symbol
_atom_site_label
_atom_site_fract_x
_atom_site_fract_y
_atom_site_fract_z
Si Si1 0.364958 0.832779 0.020890
Si Si2 0.855743 0.822570 0.521634
Si Si3 0.361766 0.173555 0.751994
Si Si4 0.642338 0.324763 0.886727
Si Si5 0.460547 0.675791 0.836100
Si Si6 0.636400 0.670221 0.069500
Si Si7 0.042644 0.176870 0.571849
Si Si8 0.638262 0.325953 0.343100
O O1 0.250000 0.829840 0.019585
O O2 0.390120 0.743999 0.065841
O O3 0.395076 0.000000 0.024656
O O4 0.396400 0.761969 0.973765
O O5 0.750000 0.768959 0.530189
O O6 0.891675 0.784668 0.471289
O O7 0.936843 0.779238 0.556961
O O8 0.854030 0.000000 0.522780
O O9 0.250000 0.197959 0.760125
O O10 0.419082 0.241832 0.793329
O O11 0.385722 0.252134 0.704823
O O12 0.377275 0.000000 0.748399
O O13 0.750000 0.278747 0.877751
O O14 0.641153 0.500000 0.892111
O O15 0.569018 0.288355 0.847395
O O16 0.451102 0.500000 0.829910
O O17 0.404985 0.715303 0.882198
O O18 0.750000 0.679742 0.071845
O O19 0.611206 0.500000 0.062265
O O20 0.079875 0.254202 0.616439
O O21 0.045692 0.000000 0.577079
O O22 0.750000 0.299262 0.351099
O O23 0.623692 0.500000 0.341010
#
# Coordination Sequence:
#
# PCOD9403171 Si02
#       8
#     8   8   8   8   8   8   8   8
#     4   9  17  29  45  65  90 120 153 190 230 270
#     4   8  14  25  43  70 104 139 172 207 248 291
#     4  10  21  36  54  76 100 124 151 188 236 289
#     4   9  18  33  51  69  91 121 156 192 231 276
#     4  10  20  33  51  73  95 122 155 191 233 282
#     4   9  17  29  45  65  91 122 151 180 221 278
#     4   9  16  27  47  73  99 132 174 213 245 283
#     4  10  20  33  50  72  99 130 161 197 242 287
#
# _framework density 16.675643999999998
#
# number of rings (size 3 to 8) (size 9 to 14) (size 15 to 20)
#    0.000    2.750    0.000    2.625    0.000    5.500 
#    0.000    5.000    0.000    1.875    0.000    0.000 
#    0.000    0.000    0.000    0.000    0.000    0.000 
#
# Total GULP energy -356989.021575 kJ/mol
# GULP energy per Si atom -5577.953462 kJ/mol
# Density = 1.663769 g / cm^3
# Si number density = 16.675644 Si / 1000 Ang^3
#
#
#
# Elastic Constant Matrix: (Units=GPa)
#
#
# Indices 1 2 3 4 5 6 
#
# 1 95.5277 45.9091 81.6170 0.0000 0.0000 0.0000
# 2 45.9091 49.2187 68.3694 0.0000 0.0000 0.0000
# 3 81.6170 68.3694 159.7352 0.0000 0.0000 0.0000
# 4 0.0000 0.0000 0.0000 32.5387 0.0000 0.0000
# 5 0.0000 0.0000 0.0000 0.0000 30.2676 0.0000
# 6 0.0000 0.0000 0.0000 0.0000 0.0000 15.4976
#
#
#
# Elastic Compliance Matrix: (Units=1/GPa)
#
#
# Indices 1 2 3 4 5 6 
#
# 1 0.020925 -0.011509 -0.005766 0.000000 0.000000 0.000000
# 2 -0.011509 0.056442 -0.018277 0.000000 0.000000 0.000000
# 3 -0.005766 -0.018277 0.017029 0.000000 0.000000 0.000000
# 4 0.000000 0.000000 0.000000 0.030733 0.000000 0.000000
# 5 0.000000 0.000000 0.000000 0.000000 0.033039 0.000000
# 6 0.000000 0.000000 0.000000 0.000000 0.000000 0.064526
#
#
# Mechanical properties :
#
#
# Convention : Reuss Voigt Hill
#
# Bulk Modulus (GPa) = 42.93332 77.36363 60.14847
# Shear Modulus (GPa) = 16.58029 22.89983 19.74006
#
# Velocity S-wave (km/s) = 3.15664 3.70976 3.44432
# Velocity P-wave (km/s) = 6.25203 8.05256 7.20873
#
# Compressibility (1/GPa) = 0.02329193
#
# Stress axis : x y z
#
# Youngs Moduli (GPa) = 47.78861 17.71739 58.72186
#
# Poissons Ratio (x) = 0.20391 0.33858
# Poissons Ratio (y) = 0.55001 1.07328
# Poissons Ratio (z) = 0.27554 0.32383
#
# Static dielectric constant tensor:
#      x y z
#    x 1.600000 0.000000 0.000000 
#    y 0.000000 1.556390 0.000000 
#    z 0.000000 0.000000 1.519630 
# 
# From -- ./inp_files/35796.got.cif
#   From: 2010.05.17/outbox.cif.g08.bks.cpg/sg51_18_cif.got.tgz:35796.got - 2010.06.03 11:52:47.
