data_PCOD9403322
_publ_section_title
;
Structure prediction by ZEFSAII (Michael W. Deem and Ramdas Pophale) SiO2 
 PCOD9403322
Probable space group: P M M A
;
_chemical_formula_sum "Si O2"
_cell_formula_units_Z 48
_cell_length_a 25.110685
_cell_length_b 11.146002
_cell_length_c 7.321859
_cell_angle_alpha 90.000000
_cell_angle_beta 90.000000
_cell_angle_gamma 90.000000
_cell_volume 2049.269319
_symmetry_space_group_name_H-M "P M M A"
_symmetry_group_IT_number 51
_symmetry_cell_setting 'orthorhombic'
loop_
_space_group_symop_operation_xyz
x,y,z
1/2-x,-y,z
1/2+x,-y,-z
-x,y,-z
-x,-y,-z
1/2+x,y,-z
1/2-x,y,z
x,-y,z
loop_
_atom_site_type_symbol
_atom_site_label
_atom_site_fract_x
_atom_site_fract_y
_atom_site_fract_z
Si Si1 0.544402 0.372800 0.844139
Si Si2 0.189204 0.363467 0.684786
Si Si3 0.332762 0.626697 0.110067
Si Si4 0.499319 0.870234 0.283952
Si Si5 0.623647 0.864577 0.247086
Si Si6 0.688237 0.873573 0.868541
O O1 0.538209 0.500000 0.737354
O O2 0.536203 0.244861 0.753207
O O3 0.500000 0.375668 0.000000
O O4 0.603935 0.374406 0.919140
O O5 0.250000 0.343814 0.620905
O O6 0.171473 0.500000 0.632131
O O7 0.191400 0.366910 0.907733
O O8 0.150330 0.249434 0.650720
O O9 0.316807 0.500000 0.195236
O O10 0.319502 0.745034 0.223631
O O11 0.500000 0.880889 0.500000
O O12 0.560297 0.847496 0.223624
O O13 0.481074 0.000000 0.207979
O O14 0.651624 0.869921 0.048596
O O15 0.630761 0.000000 0.327737
O O16 0.750000 0.875915 0.925921
O O17 0.677379 0.000000 0.770232
#
# Coordination Sequence:
#
# PCOD9403322 Si02
#       6
#     8   8   8   8   8   8
#     4  10  20  33  51  76 103 131 168 213 257 304
#     4   9  16  26  43  70 102 131 158 196 250 306
#     4   9  16  25  39  62  92 123 153 187 235 293
#     4  10  22  38  53  72 101 139 182 222 261 309
#     4   9  16  27  44  64  89 123 161 201 244 289
#     4   9  16  25  40  67  99 126 156 198 249 304
#
# _framework density 23.422982999999999
#
# number of rings (size 3 to 8) (size 9 to 14) (size 15 to 20)
#    0.000    2.667    0.000    4.000    0.000    5.333 
#    0.000    0.000    0.000    0.000    0.000    4.667 
#    0.000   10.667    0.000    0.000    0.000    0.000 
#
# Total GULP energy -267540.300977 kJ/mol
# GULP energy per Si atom -5573.756270 kJ/mol
# Density = 2.336967 g / cm^3
# Si number density = 23.422983 Si / 1000 Ang^3
#
#
#
# Elastic Constant Matrix: (Units=GPa)
#
#
# Indices 1 2 3 4 5 6 
#
# 1 101.2635 37.3812 -2.8041 0.0000 0.0000 0.0000
# 2 37.3812 243.1931 -3.2117 0.0000 0.0000 0.0000
# 3 -2.8041 -3.2117 39.1731 0.0000 0.0000 0.0000
# 4 0.0000 0.0000 0.0000 183.9384 0.0000 0.0000
# 5 0.0000 0.0000 0.0000 0.0000 0.8580 0.0000
# 6 0.0000 0.0000 0.0000 0.0000 0.0000 38.7416
#
#
#
# Elastic Compliance Matrix: (Units=1/GPa)
#
#
# Indices 1 2 3 4 5 6 
#
# 1 0.010484 -0.001603 0.000619 0.000000 0.000000 0.000000
# 2 -0.001603 0.004362 0.000243 0.000000 0.000000 0.000000
# 3 0.000619 0.000243 0.025592 0.000000 0.000000 0.000000
# 4 0.000000 0.000000 0.000000 0.005437 0.000000 0.000000
# 5 0.000000 0.000000 0.000000 0.000000 1.165435 0.000000
# 6 0.000000 0.000000 0.000000 0.000000 0.000000 0.025812
#
#
# Mechanical properties :
#
#
# Convention : Reuss Voigt Hill
#
# Bulk Modulus (GPa) = 25.67078 49.59562 37.63320
# Shear Modulus (GPa) = 3.99492 68.19188 36.09340
#
# Velocity S-wave (km/s) = 1.30739 5.40152 3.92974
# Velocity P-wave (km/s) = 3.64177 7.75382 6.05740
#
# Compressibility (1/GPa) = 0.03895479
#
# Stress axis : x y z
#
# Youngs Moduli (GPa) = 95.38122 229.27267 39.07480
#
# Poissons Ratio (x) = 0.36761 -0.02419
# Poissons Ratio (y) = 0.15293 -0.00949
# Poissons Ratio (z) = -0.05904 -0.05567
#
# Static dielectric constant tensor:
#      x y z
#    x 1.839460 0.000000 0.000000 
#    y 0.000000 2.090970 0.000000 
#    z 0.000000 0.000000 1.846470 
# 
# From -- ./inp_files/11670.got.cif
#   From: 2010.05.17/outbox.cif.g08.bks.cpg/sg51_6_cif.got.tgz:11670.got - 2010.06.03 11:52:47.
