data_PCOD9403240
_publ_section_title
;
Structure prediction by ZEFSAII (Michael W. Deem and Ramdas Pophale) SiO2 
 PCOD9403240
Probable space group: P M M A
;
_chemical_formula_sum "Si O2"
_cell_formula_units_Z 64
_cell_length_a 9.043376
_cell_length_b 28.162035
_cell_length_c 14.034563
_cell_angle_alpha 90.000000
_cell_angle_beta 90.000000
_cell_angle_gamma 90.000000
_cell_volume 3574.320700
_symmetry_space_group_name_H-M "P M M A"
_symmetry_group_IT_number 51
_symmetry_cell_setting 'orthorhombic'
loop_
_space_group_symop_operation_xyz
x,y,z
1/2-x,-y,z
1/2+x,-y,-z
-x,y,-z
-x,-y,-z
1/2+x,y,-z
1/2-x,y,z
x,-y,z
loop_
_atom_site_type_symbol
_atom_site_label
_atom_site_fract_x
_atom_site_fract_y
_atom_site_fract_z
Si Si1 0.423921 0.687764 0.102642
Si Si2 0.574050 0.141519 0.098091
Si Si3 0.576037 0.217161 0.770628
Si Si4 0.580654 0.057799 0.594635
Si Si5 0.575220 0.633403 0.270894
Si Si6 0.574577 0.271879 0.397018
Si Si7 0.425058 0.556262 0.398562
Si Si8 0.927773 0.943821 0.808066
O O1 0.250000 0.677605 0.092966
O O2 0.438390 0.738308 0.156698
O O3 0.501009 0.649903 0.172502
O O4 0.500000 0.689467 0.000000
O O5 0.750000 0.143753 0.091787
O O6 0.511452 0.173972 0.182679
O O7 0.516087 0.088596 0.119359
O O8 0.500000 0.158412 0.000000
O O9 0.750000 0.206210 0.760028
O O10 0.504743 0.234000 0.671725
O O11 0.500000 0.075143 0.500000
O O12 0.750000 0.073258 0.590272
O O13 0.523406 0.069639 0.699972
O O14 0.579352 0.000000 0.591788
O O15 0.750000 0.626102 0.258354
O O16 0.554978 0.677204 0.344910
O O17 0.498736 0.587856 0.317222
O O18 0.500000 0.272613 0.500000
O O19 0.750000 0.262711 0.403657
O O20 0.500000 0.567951 0.500000
O O21 0.250000 0.565725 0.404082
O O22 0.446562 0.500000 0.381997
O O23 0.750000 0.935767 0.815119
O O24 0.952129 0.000000 0.821142
#
# Coordination Sequence:
#
# PCOD9403240 Si02
#       8
#     8   8   8   8   8   8   8   8
#     4  10  20  34  55  81 108 138 175 221 271 322
#     4  12  25  40  59  81 106 137 174 216 264 318
#     4  10  21  38  59  82 109 141 177 218 263 313
#     4   8  14  26  47  74 102 131 161 196 239 285
#     4  10  20  33  52  78 109 145 185 228 273 324
#     4  10  20  34  54  82 115 149 183 220 266 320
#     4  10  20  33  50  74 106 144 186 231 277 326
#     4   9  19  37  58  80 108 140 175 216 260 307
#
# _framework density 17.905498999999999
#
# number of rings (size 3 to 8) (size 9 to 14) (size 15 to 20)
#    0.000    2.125    0.000    4.500    0.000    6.750 
#    0.000    1.875    0.000    1.875    0.000    0.000 
#    0.000    0.000    0.000    0.000    0.000    0.000 
#
# Total GULP energy -357330.383550 kJ/mol
# GULP energy per Si atom -5583.287243 kJ/mol
# Density = 1.786475 g / cm^3
# Si number density = 17.905499 Si / 1000 Ang^3
#
#
#
# Elastic Constant Matrix: (Units=GPa)
#
#
# Indices 1 2 3 4 5 6 
#
# 1 125.3382 48.5881 68.2097 0.0000 0.0000 0.0000
# 2 48.5881 42.0570 23.2530 0.0000 0.0000 0.0000
# 3 68.2097 23.2530 111.4309 0.0000 0.0000 0.0000
# 4 0.0000 0.0000 0.0000 23.5626 0.0000 0.0000
# 5 0.0000 0.0000 0.0000 0.0000 36.5927 0.0000
# 6 0.0000 0.0000 0.0000 0.0000 0.0000 24.8612
#
#
#
# Elastic Compliance Matrix: (Units=1/GPa)
#
#
# Indices 1 2 3 4 5 6 
#
# 1 0.019282 -0.017804 -0.008087 0.000000 0.000000 0.000000
# 2 -0.017804 0.043319 0.001859 0.000000 0.000000 0.000000
# 3 -0.008087 0.001859 0.013537 0.000000 0.000000 0.000000
# 4 0.000000 0.000000 0.000000 0.042440 0.000000 0.000000
# 5 0.000000 0.000000 0.000000 0.000000 0.027328 0.000000
# 6 0.000000 0.000000 0.000000 0.000000 0.000000 0.040223
#
#
# Mechanical properties :
#
#
# Convention : Reuss Voigt Hill
#
# Bulk Modulus (GPa) = 35.62356 62.10308 48.86332
# Shear Modulus (GPa) = 20.52957 26.25497 23.39227
#
# Velocity S-wave (km/s) = 3.38975 3.83339 3.61838
# Velocity P-wave (km/s) = 5.93793 7.37240 6.69370
#
# Compressibility (1/GPa) = 0.02807131
#
# Stress axis : x y z
#
# Youngs Moduli (GPa) = 51.86303 23.08475 73.87289
#
# Poissons Ratio (x) = 0.41101 0.59744
# Poissons Ratio (y) = 0.92339 -0.13732
# Poissons Ratio (z) = 0.41944 -0.04291
#
# Static dielectric constant tensor:
#      x y z
#    x 1.593290 0.000000 0.000000 
#    y 0.000000 1.610750 0.000000 
#    z 0.000000 0.000000 1.608880 
# 
# From -- ./inp_files/14860.got.cif
#   From: 2010.05.17/outbox.cif.g08.bks.cpg/sg51_8_cif.got.tgz:14860.got - 2010.06.03 11:52:47.
