data_PCOD9403098
_publ_section_title
;
Structure prediction by ZEFSAII (Michael W. Deem and Ramdas Pophale) SiO2 
 PCOD9403098
Probable space group: P M M A
;
_chemical_formula_sum "Si O2"
_cell_formula_units_Z 64
_cell_length_a 9.363203
_cell_length_b 7.402483
_cell_length_c 42.638841
_cell_angle_alpha 90.000000
_cell_angle_beta 90.000000
_cell_angle_gamma 90.000000
_cell_volume 2955.338621
_symmetry_space_group_name_H-M "P M M A"
_symmetry_group_IT_number 51
_symmetry_cell_setting 'orthorhombic'
loop_
_space_group_symop_operation_xyz
x,y,z
1/2-x,-y,z
1/2+x,-y,-z
-x,y,-z
-x,-y,-z
1/2+x,y,-z
1/2-x,y,z
x,-y,z
loop_
_atom_site_type_symbol
_atom_site_label
_atom_site_fract_x
_atom_site_fract_y
_atom_site_fract_z
Si Si1 0.912391 0.784201 0.154184
Si Si2 0.912724 0.215828 0.591117
Si Si3 0.085871 0.721171 0.721806
Si Si4 0.414992 0.779193 0.093233
Si Si5 0.087040 0.284354 0.338585
Si Si6 0.913717 0.220883 0.469160
Si Si7 0.915026 0.220461 0.031042
Si Si8 0.087898 0.716169 0.217335
O O1 0.750000 0.714135 0.155239
O O2 0.002616 0.717626 0.124406
O O3 0.996730 0.751569 0.186267
O O4 0.902781 0.000000 0.150388
O O5 0.750000 0.286309 0.589267
O O6 0.967430 0.250298 0.626246
O O7 0.009268 0.282348 0.562669
O O8 0.904780 0.000000 0.587608
O O9 0.250000 0.778272 0.724064
O O10 0.086035 0.500000 0.721904
O O11 0.011691 0.781592 0.689561
O O12 0.994283 0.781686 0.751748
O O13 0.250000 0.721698 0.092780
O O14 0.500964 0.723463 0.062253
O O15 0.413882 0.000000 0.093396
O O16 0.250000 0.213731 0.336528
O O17 0.095472 0.500000 0.334964
O O18 0.750000 0.278624 0.470550
O O19 0.000000 0.276967 0.500000
O O20 0.913929 0.000000 0.469017
O O21 0.750000 0.278373 0.030975
O O22 0.913870 0.000000 0.030967
O O23 0.000000 0.277497 0.000000
O O24 0.250000 0.785594 0.214835
O O25 0.097156 0.500000 0.220515
#
# Coordination Sequence:
#
# PCOD9403098 Si02
#       8
#     8   8   8   8   8   8   8   8
#     4  10  20  33  49  70  97 128 160 194 236 287
#     4   9  17  29  45  66  92 119 147 182 224 266
#     4   9  17  30  49  71  93 119 153 192 231 272
#     4   9  16  26  40  58  83 117 154 190 231 280
#     4   9  17  30  48  68  90 118 151 184 220 267
#     4   9  16  26  42  64  89 117 149 184 221 261
#     4   9  15  22  33  51  77 110 149 191 233 277
#     4  10  20  34  53  75  97 123 158 199 240 282
#
# _framework density 21.655723999999999
#
# number of rings (size 3 to 8) (size 9 to 14) (size 15 to 20)
#    0.000    2.750    0.000    2.250    0.000    8.000 
#    0.000    0.625    0.000    2.625    0.000    0.000 
#    0.000    0.500    0.000    1.875    0.000    4.125 
#
# Total GULP energy -357582.474493 kJ/mol
# GULP energy per Si atom -5587.226164 kJ/mol
# Density = 2.160643 g / cm^3
# Si number density = 21.655724 Si / 1000 Ang^3
#
#
#
# Elastic Constant Matrix: (Units=GPa)
#
#
# Indices 1 2 3 4 5 6 
#
# 1 227.9826 7.0610 163.1708 0.0000 0.0000 0.0000
# 2 7.0610 72.9746 0.4595 0.0000 0.0000 0.0000
# 3 163.1708 0.4595 256.9542 0.0000 0.0000 0.0000
# 4 0.0000 0.0000 0.0000 10.2019 0.0000 0.0000
# 5 0.0000 0.0000 0.0000 0.0000 42.1384 0.0000
# 6 0.0000 0.0000 0.0000 0.0000 0.0000 129.1947
#
#
#
# Elastic Compliance Matrix: (Units=1/GPa)
#
#
# Indices 1 2 3 4 5 6 
#
# 1 0.008082 -0.000750 -0.005131 0.000000 0.000000 0.000000
# 2 -0.000750 0.013773 0.000451 0.000000 0.000000 0.000000
# 3 -0.005131 0.000451 0.007149 0.000000 0.000000 0.000000
# 4 0.000000 0.000000 0.000000 0.098021 0.000000 0.000000
# 5 0.000000 0.000000 0.000000 0.000000 0.023731 0.000000
# 6 0.000000 0.000000 0.000000 0.000000 0.000000 0.007740
#
#
# Mechanical properties :
#
#
# Convention : Reuss Voigt Hill
#
# Bulk Modulus (GPa) = 55.10876 99.92153 77.51514
# Shear Modulus (GPa) = 28.50588 62.12167 45.31378
#
# Velocity S-wave (km/s) = 3.63205 5.36174 4.57931
# Velocity P-wave (km/s) = 6.56445 9.19631 7.98950
#
# Compressibility (1/GPa) = 0.01814594
#
# Stress axis : x y z
#
# Youngs Moduli (GPa) = 123.73808 72.60533 139.88010
#
# Poissons Ratio (x) = 0.05443 0.71767
# Poissons Ratio (y) = 0.09276 -0.06315
# Poissons Ratio (z) = 0.63485 -0.03278
#
# Static dielectric constant tensor:
#      x y z
#    x 1.744820 0.000000 0.000000 
#    y 0.000000 1.888370 0.000000 
#    z 0.000000 0.000000 1.734150 
# 
# From -- ./inp_files/37429.got.cif
#   From: 2010.05.17/outbox.cif.g08.bks.cpg/sg51_19_cif.got.tgz:37429.got - 2010.06.03 11:52:47.
