data_PCOD9403577
_publ_section_title
;
Structure prediction by ZEFSAII (Michael W. Deem and Ramdas Pophale) SiO2 
 PCOD9403577
Probable space group: P M M A
;
_chemical_formula_sum "Si O2"
_cell_formula_units_Z 64
_cell_length_a 8.951246
_cell_length_b 24.032537
_cell_length_c 15.956067
_cell_angle_alpha 90.000000
_cell_angle_beta 90.000000
_cell_angle_gamma 90.000000
_cell_volume 3432.487494
_symmetry_space_group_name_H-M "P M M A"
_symmetry_group_IT_number 51
_symmetry_cell_setting 'orthorhombic'
loop_
_space_group_symop_operation_xyz
x,y,z
1/2-x,-y,z
1/2+x,-y,-z
-x,y,-z
-x,-y,-z
1/2+x,y,-z
1/2-x,y,z
x,-y,z
loop_
_atom_site_type_symbol
_atom_site_label
_atom_site_fract_x
_atom_site_fract_y
_atom_site_fract_z
Si Si1 0.929992 0.356005 0.260093
Si Si2 0.918521 0.933741 0.416771
Si Si3 0.572937 0.933152 0.090863
Si Si4 0.570148 0.435456 0.411443
Si Si5 0.582133 0.367377 0.916638
Si Si6 0.919829 0.766637 0.918248
Si Si7 0.073761 0.771290 0.744380
Si Si8 0.572733 0.115727 0.740698
O O1 0.750000 0.356993 0.252641
O O2 0.977004 0.396327 0.335021
O O3 0.971364 0.291672 0.279632
O O4 0.997112 0.374636 0.171073
O O5 0.750000 0.911178 0.408623
O O6 0.000000 0.911303 0.500000
O O7 0.010104 0.923251 0.332457
O O8 0.907036 0.000000 0.427382
O O9 0.750000 0.920919 0.088684
O O10 0.498353 0.901559 0.169595
O O11 0.554857 0.000000 0.104591
O O12 0.500000 0.920952 0.000000
O O13 0.500000 0.418512 0.500000
O O14 0.750000 0.432588 0.417599
O O15 0.529020 0.500000 0.396011
O O16 0.750000 0.389479 0.911417
O O17 0.592699 0.300244 0.927190
O O18 0.500000 0.388690 0.000000
O O19 0.750000 0.787626 0.904263
O O20 0.032590 0.774787 0.842353
O O21 0.000000 0.789758 0.000000
O O22 0.250000 0.778445 0.729860
O O23 0.979849 0.822875 0.710678
O O24 0.750000 0.112807 0.747325
#
# Coordination Sequence:
#
# PCOD9403577 Si02
#       8
#     8   8   8   8   8   8   8   8
#     4   9  18  33  53  76 105 142 179 219 268 318
#     4  10  21  39  63  88 110 133 167 214 267 320
#     4  10  21  38  59  83 112 147 188 234 284 336
#     4   9  18  34  57  85 113 139 172 217 268 321
#     4   9  16  26  44  70 100 134 172 214 255 301
#     4   9  16  27  43  65  93 127 170 215 259 303
#     4  10  20  34  50  70 101 140 181 221 264 317
#     4  12  24  37  55  80 111 146 184 225 271 323
#
# _framework density 18.645371000000001
#
# number of rings (size 3 to 8) (size 9 to 14) (size 15 to 20)
#    0.000    2.250    0.000    3.375    0.000    7.500 
#    0.000    3.125    0.000    1.875    0.000    0.000 
#    0.000    0.000    0.000    0.000    0.000    0.000 
#
# Total GULP energy -356927.819655 kJ/mol
# GULP energy per Si atom -5576.997182 kJ/mol
# Density = 1.860293 g / cm^3
# Si number density = 18.645371 Si / 1000 Ang^3
#
#
#
# Elastic Constant Matrix: (Units=GPa)
#
#
# Indices 1 2 3 4 5 6 
#
# 1 103.8968 36.0121 60.8089 0.0000 0.0000 0.0000
# 2 36.0121 59.3546 53.2094 0.0000 0.0000 0.0000
# 3 60.8089 53.2094 118.2540 0.0000 0.0000 0.0000
# 4 0.0000 0.0000 0.0000 -12.1205 0.0000 0.0000
# 5 0.0000 0.0000 0.0000 0.0000 27.7036 0.0000
# 6 0.0000 0.0000 0.0000 0.0000 0.0000 14.4002
#
#
#
# Elastic Compliance Matrix: (Units=1/GPa)
#
#
# Indices 1 2 3 4 5 6 
#
# 1 0.014182 -0.003464 -0.005734 0.000000 0.000000 0.000000
# 2 -0.003464 0.029085 -0.011306 0.000000 0.000000 0.000000
# 3 -0.005734 -0.011306 0.016492 0.000000 0.000000 0.000000
# 4 0.000000 0.000000 0.000000 -0.082505 0.000000 0.000000
# 5 0.000000 0.000000 0.000000 0.000000 0.036096 0.000000
# 6 0.000000 0.000000 0.000000 0.000000 0.000000 0.069444
#
#
# Mechanical properties :
#
#
# Convention : Reuss Voigt Hill
#
# Bulk Modulus (GPa) = 53.33020 64.61848 58.97434
# Shear Modulus (GPa) = 38.44655 14.76166 26.60410
#
# Velocity S-wave (km/s) = 4.54584 2.81678 3.78146
# Velocity P-wave (km/s) = 7.49782 6.73133 7.12489
#
# Compressibility (1/GPa) = 0.01875110
#
# Stress axis : x y z
#
# Youngs Moduli (GPa) = 70.51437 34.38224 60.63630
#
# Poissons Ratio (x) = 0.11911 0.34767
# Poissons Ratio (y) = 0.24428 0.68553
# Poissons Ratio (z) = 0.40431 0.38871
#
# Static dielectric constant tensor:
#      x y z
#    x 1.644340 0.000000 0.000000 
#    y 0.000000 1.688900 0.000000 
#    z 0.000000 0.000000 1.668390 
# 
# From -- ./inp_files/22396.got.cif
#   From: 2010.05.17/outbox.cif.g08.bks.cpg/sg51_12_cif.got.tgz:22396.got - 2010.06.03 11:52:47.
