data_PCOD9403355
_publ_section_title
;
Structure prediction by ZEFSAII (Michael W. Deem and Ramdas Pophale) SiO2 
 PCOD9403355
Probable space group: P M M A
;
_chemical_formula_sum "Si O2"
_cell_formula_units_Z 64
_cell_length_a 9.321288
_cell_length_b 19.749291
_cell_length_c 19.892020
_cell_angle_alpha 90.000000
_cell_angle_beta 90.000000
_cell_angle_gamma 90.000000
_cell_volume 3661.898672
_symmetry_space_group_name_H-M "P M M A"
_symmetry_group_IT_number 51
_symmetry_cell_setting 'orthorhombic'
loop_
_space_group_symop_operation_xyz
x,y,z
1/2-x,-y,z
1/2+x,-y,-z
-x,y,-z
-x,-y,-z
1/2+x,y,-z
1/2-x,y,z
x,-y,z
loop_
_atom_site_type_symbol
_atom_site_label
_atom_site_fract_x
_atom_site_fract_y
_atom_site_fract_z
Si Si1 0.575058 0.771171 0.568899
Si Si2 0.408413 0.922947 0.240110
Si Si3 0.082322 0.698356 0.691355
Si Si4 0.914680 0.399943 0.933464
Si Si5 0.919820 0.421875 0.207495
Si Si6 0.917240 0.074527 0.598201
Si Si7 0.411848 0.193654 0.810853
Si Si8 0.410310 0.762610 0.062874
O O1 0.500000 0.748003 0.500000
O O2 0.750000 0.768898 0.567275
O O3 0.514518 0.724957 0.629823
O O4 0.528368 0.850976 0.577374
O O5 0.250000 0.893857 0.223991
O O6 0.419615 0.923830 0.320841
O O7 0.535270 0.879606 0.210651
O O8 0.412663 0.000000 0.216737
O O9 0.250000 0.689546 0.670294
O O10 0.037231 0.631212 0.733824
O O11 0.078370 0.757986 0.746443
O O12 0.750000 0.424202 0.932108
O O13 0.907466 0.318759 0.940338
O O14 0.995049 0.414187 0.862908
O O15 0.000000 0.424082 0.000000
O O16 0.750000 0.408625 0.193982
O O17 0.934948 0.500000 0.229506
O O18 0.750000 0.072966 0.577023
O O19 0.980452 0.000000 0.578505
O O20 0.250000 0.194942 0.835841
O O21 0.515136 0.219655 0.868109
O O22 0.250000 0.788997 0.060148
O O23 0.500000 0.788539 0.000000
#
# Coordination Sequence:
#
# PCOD9403355 Si02
#       8
#     8   8   8   8   8   8   8   8
#     4  11  22  36  57  81 110 145 181 221 269 319
#     4   9  17  31  51  75 105 141 182 224 266 317
#     4  10  21  37  56  81 110 138 177 223 267 319
#     4  10  20  33  52  78 112 150 186 224 263 316
#     4  10  21  38  59  81 109 145 181 223 275 326
#     4   8  15  29  49  74 106 143 180 215 253 305
#     4  11  20  31  53  80 108 140 177 228 275 317
#     4  10  20  33  51  76 107 142 182 224 271 321
#
# _framework density 17.477271999999999
#
# number of rings (size 3 to 8) (size 9 to 14) (size 15 to 20)
#    0.000    2.125    2.500    2.250    0.000    3.000 
#    0.000    0.000    0.000    1.875    0.000    0.000 
#    0.000    0.000    0.000    0.000    0.000    0.000 
#
# Total GULP energy -356586.080789 kJ/mol
# GULP energy per Si atom -5571.657512 kJ/mol
# Density = 1.743749 g / cm^3
# Si number density = 17.477272 Si / 1000 Ang^3
#
#
#
# Elastic Constant Matrix: (Units=GPa)
#
#
# Indices 1 2 3 4 5 6 
#
# 1 103.7034 37.9638 62.0395 0.0000 0.0000 0.0000
# 2 37.9638 74.6035 42.0698 0.0000 0.0000 0.0000
# 3 62.0395 42.0698 96.5087 0.0000 0.0000 0.0000
# 4 0.0000 0.0000 0.0000 13.3029 0.0000 0.0000
# 5 0.0000 0.0000 0.0000 0.0000 26.7492 0.0000
# 6 0.0000 0.0000 0.0000 0.0000 0.0000 13.1717
#
#
#
# Elastic Compliance Matrix: (Units=1/GPa)
#
#
# Indices 1 2 3 4 5 6 
#
# 1 0.016207 -0.003145 -0.009047 0.000000 0.000000 0.000000
# 2 -0.003145 0.018384 -0.005992 0.000000 0.000000 0.000000
# 3 -0.009047 -0.005992 0.018790 0.000000 0.000000 0.000000
# 4 0.000000 0.000000 0.000000 0.075171 0.000000 0.000000
# 5 0.000000 0.000000 0.000000 0.000000 0.037384 0.000000
# 6 0.000000 0.000000 0.000000 0.000000 0.000000 0.075920
#
#
# Mechanical properties :
#
#
# Convention : Reuss Voigt Hill
#
# Bulk Modulus (GPa) = 58.78461 62.10686 60.44574
# Shear Modulus (GPa) = 17.61216 19.49427 18.55321
#
# Velocity S-wave (km/s) = 3.17790 3.34339 3.26170
# Velocity P-wave (km/s) = 6.86828 7.10755 6.98894
#
# Compressibility (1/GPa) = 0.01701125
#
# Stress axis : x y z
#
# Youngs Moduli (GPa) = 61.70263 54.39620 53.22102
#
# Poissons Ratio (x) = 0.17110 0.48150
# Poissons Ratio (y) = 0.19408 0.31889
# Poissons Ratio (z) = 0.55824 0.32593
#
# Static dielectric constant tensor:
#      x y z
#    x 1.621810 0.000000 0.000000 
#    y 0.000000 1.689400 0.000000 
#    z 0.000000 0.000000 1.576430 
# 
# From -- ./inp_files/28384.got.cif
#   From: 2010.05.17/outbox.cif.g08.bks.cpg/sg51_15_cif.got.tgz:28384.got - 2010.06.03 11:52:47.
