data_PCOD9403836
_publ_section_title
;
Structure prediction by ZEFSAII (Michael W. Deem and Ramdas Pophale) SiO2 
 PCOD9403836
Probable space group: P M M A
;
_chemical_formula_sum "Si O2"
_cell_formula_units_Z 56
_cell_length_a 8.890476
_cell_length_b 14.644897
_cell_length_c 24.369898
_cell_angle_alpha 90.000000
_cell_angle_beta 90.000000
_cell_angle_gamma 90.000000
_cell_volume 3172.963286
_symmetry_space_group_name_H-M "P M M A"
_symmetry_group_IT_number 51
_symmetry_cell_setting 'orthorhombic'
loop_
_space_group_symop_operation_xyz
x,y,z
1/2-x,-y,z
1/2+x,-y,-z
-x,y,-z
-x,-y,-z
1/2+x,y,-z
1/2-x,y,z
x,-y,z
loop_
_atom_site_type_symbol
_atom_site_label
_atom_site_fract_x
_atom_site_fract_y
_atom_site_fract_z
Si Si1 0.069516 0.749675 0.139773
Si Si2 0.072482 0.108618 0.941480
Si Si3 0.430339 0.255404 0.560134
Si Si4 0.427508 0.391413 0.941652
Si Si5 0.568769 0.894868 0.350486
Si Si6 0.568629 0.605961 0.644686
Si Si7 0.930969 0.243707 0.733470
O O1 0.250000 0.749066 0.137508
O O2 0.022151 0.750378 0.203332
O O3 0.006216 0.836459 0.106993
O O4 0.005333 0.663121 0.107123
O O5 0.250000 0.128705 0.942571
O O6 0.052629 0.000000 0.934426
O O7 0.000000 0.133966 0.000000
O O8 0.500000 0.251066 0.500000
O O9 0.250000 0.260216 0.556970
O O10 0.472200 0.166268 0.596471
O O11 0.492972 0.342121 0.593770
O O12 0.250000 0.371795 0.942864
O O13 0.448357 0.500000 0.935041
O O14 0.500000 0.365053 0.000000
O O15 0.750000 0.893664 0.346407
O O16 0.501350 0.841943 0.298412
O O17 0.519448 0.000000 0.354318
O O18 0.750000 0.609963 0.638459
O O19 0.524984 0.500000 0.648904
O O20 0.528921 0.665714 0.698502
O O21 0.750000 0.235251 0.731925
#
# Coordination Sequence:
#
# PCOD9403836 Si02
#       7
#     8   8   8   8   8   8   8
#     4  11  22  35  54  79 108 140 173 214 263 315
#     4  10  21  37  56  77 103 136 174 217 265 317
#     4  10  20  34  53  79 110 139 171 212 254 302
#     4  10  21  37  56  78 105 137 174 216 262 315
#     4   9  19  36  56  77 104 139 175 213 259 305
#     4   9  18  35  57  77 101 136 175 214 256 301
#     4   9  20  36  53  77 105 135 174 216 257 303
#
# _framework density 17.649118000000001
#
# number of rings (size 3 to 8) (size 9 to 14) (size 15 to 20)
#    0.000    2.286    0.000    2.143    0.000    5.714 
#    0.000    4.286    0.000    0.000    0.000    0.000 
#    0.000    0.000    0.000    0.000    0.000    0.000 
#
# Total GULP energy -312615.978521 kJ/mol
# GULP energy per Si atom -5582.428188 kJ/mol
# Density = 1.760895 g / cm^3
# Si number density = 17.649118 Si / 1000 Ang^3
#
#
#
# Elastic Constant Matrix: (Units=GPa)
#
#
# Indices 1 2 3 4 5 6 
#
# 1 55.7785 48.4939 62.2509 0.0000 0.0000 0.0000
# 2 48.4939 145.6816 90.0059 0.0000 0.0000 0.0000
# 3 62.2509 90.0059 193.7529 0.0000 0.0000 0.0000
# 4 0.0000 0.0000 0.0000 10.3740 0.0000 0.0000
# 5 0.0000 0.0000 0.0000 0.0000 27.2457 0.0000
# 6 0.0000 0.0000 0.0000 0.0000 0.0000 31.5609
#
#
#
# Elastic Compliance Matrix: (Units=1/GPa)
#
#
# Indices 1 2 3 4 5 6 
#
# 1 0.031164 -0.005873 -0.007284 0.000000 0.000000 0.000000
# 2 -0.005873 0.010734 -0.003099 0.000000 0.000000 0.000000
# 3 -0.007284 -0.003099 0.008941 0.000000 0.000000 0.000000
# 4 0.000000 0.000000 0.000000 0.096395 0.000000 0.000000
# 5 0.000000 0.000000 0.000000 0.000000 0.036703 0.000000
# 6 0.000000 0.000000 0.000000 0.000000 0.000000 0.031685
#
#
# Mechanical properties :
#
#
# Convention : Reuss Voigt Hill
#
# Bulk Modulus (GPa) = 54.56889 88.52382 71.54635
# Shear Modulus (GPa) = 19.66612 26.80028 23.23320
#
# Velocity S-wave (km/s) = 3.34171 3.90103 3.63215
# Velocity P-wave (km/s) = 6.77313 8.39983 7.62996
#
# Compressibility (1/GPa) = 0.01832546
#
# Stress axis : x y z
#
# Youngs Moduli (GPa) = 32.08861 93.15933 111.83928
#
# Poissons Ratio (x) = 0.54715 0.81466
# Poissons Ratio (y) = 0.18846 0.34665
# Poissons Ratio (z) = 0.23374 0.28875
#
# Static dielectric constant tensor:
#      x y z
#    x 1.592030 0.000000 0.000000 
#    y 0.000000 1.599810 0.000000 
#    z 0.000000 0.000000 1.568680 
# 
# From -- ./inp_files/31903.got.cif
#   From: 2010.05.17/outbox.cif.g08.bks.cpg/sg51_16_cif.got.tgz:31903.got - 2010.06.03 11:52:47.
