data_PCOD9403220
_publ_section_title
;
Structure prediction by ZEFSAII (Michael W. Deem and Ramdas Pophale) SiO2 
 PCOD9403220
Probable space group: P M M A
;
_chemical_formula_sum "Si O2"
_cell_formula_units_Z 56
_cell_length_a 20.569849
_cell_length_b 7.480303
_cell_length_c 15.934682
_cell_angle_alpha 90.000000
_cell_angle_beta 90.000000
_cell_angle_gamma 90.000000
_cell_volume 2451.848855
_symmetry_space_group_name_H-M "P M M A"
_symmetry_group_IT_number 51
_symmetry_cell_setting 'orthorhombic'
loop_
_space_group_symop_operation_xyz
x,y,z
1/2-x,-y,z
1/2+x,-y,-z
-x,y,-z
-x,-y,-z
1/2+x,y,-z
1/2-x,y,z
x,-y,z
loop_
_atom_site_type_symbol
_atom_site_label
_atom_site_fract_x
_atom_site_fract_y
_atom_site_fract_z
Si Si1 0.091786 0.788523 0.339034
Si Si2 0.539620 0.715446 0.261752
Si Si3 0.176935 0.784572 0.490688
Si Si4 0.322365 0.709310 0.989514
Si Si5 0.456475 0.281189 0.922443
Si Si6 0.175122 0.784088 0.182423
Si Si7 0.678714 0.293131 0.314816
O O1 0.124139 0.718519 0.424130
O O2 0.127803 0.717381 0.255583
O O3 0.015108 0.765372 0.328457
O O4 0.105459 0.000000 0.339926
O O5 0.542711 0.500000 0.262307
O O6 0.518652 0.774331 0.168674
O O7 0.612104 0.784899 0.279204
O O8 0.250000 0.745360 0.458856
O O9 0.171602 0.710440 0.584324
O O10 0.171864 0.000000 0.499212
O O11 0.250000 0.787362 0.978537
O O12 0.317862 0.500000 0.968410
O O13 0.382502 0.781049 0.936708
O O14 0.340059 0.721600 0.088226
O O15 0.456456 0.500000 0.924120
O O16 0.500000 0.220946 0.000000
O O17 0.250000 0.733048 0.200548
O O18 0.172441 0.000000 0.180151
O O19 0.750000 0.214272 0.294682
O O20 0.680949 0.500000 0.286998
#
# Coordination Sequence:
#
# PCOD9403220 Si02
#       7
#     8   8   8   8   8   8   8
#     4  10  20  33  50  74 103 132 165 204 243 291
#     4  10  21  35  52  74 100 133 168 204 250 298
#     4   9  18  34  56  78 100 131 168 202 241 291
#     4   9  17  29  47  71  95 121 160 208 250 290
#     4   9  17  30  48  69  95 127 161 197 239 288
#     4   9  17  30  48  70  99 133 164 198 246 299
#     4   9  19  36  55  75 100 129 164 206 249 293
#
# _framework density 22.839905999999999
#
# number of rings (size 3 to 8) (size 9 to 14) (size 15 to 20)
#    0.000    2.714    0.000    1.286    0.000    5.714 
#    0.000    6.429    0.000    6.857    0.000    4.000 
#    0.000    0.000    0.000    0.000    0.000    0.000 
#
# Total GULP energy -312712.196290 kJ/mol
# GULP energy per Si atom -5584.146362 kJ/mol
# Density = 2.278792 g / cm^3
# Si number density = 22.839906 Si / 1000 Ang^3
#
#
#
# Elastic Constant Matrix: (Units=GPa)
#
#
# Indices 1 2 3 4 5 6 
#
# 1 83.9151 -3.0591 24.8327 0.0000 0.0000 0.0000
# 2 -3.0591 64.5208 -5.8714 0.0000 0.0000 0.0000
# 3 24.8327 -5.8714 39.4480 0.0000 0.0000 0.0000
# 4 0.0000 0.0000 0.0000 12.9828 0.0000 0.0000
# 5 0.0000 0.0000 0.0000 0.0000 42.0843 0.0000
# 6 0.0000 0.0000 0.0000 0.0000 0.0000 10.5600
#
#
#
# Elastic Compliance Matrix: (Units=1/GPa)
#
#
# Indices 1 2 3 4 5 6 
#
# 1 0.014646 -0.000147 -0.009242 0.000000 0.000000 0.000000
# 2 -0.000147 0.015713 0.002431 0.000000 0.000000 0.000000
# 3 -0.009242 0.002431 0.031529 0.000000 0.000000 0.000000
# 4 0.000000 0.000000 0.000000 0.077025 0.000000 0.000000
# 5 0.000000 0.000000 0.000000 0.000000 0.023762 0.000000
# 6 0.000000 0.000000 0.000000 0.000000 0.000000 0.094697
#
#
# Mechanical properties :
#
#
# Convention : Reuss Voigt Hill
#
# Bulk Modulus (GPa) = 20.84452 24.40980 22.62716
# Shear Modulus (GPa) = 17.40468 24.59086 20.99777
#
# Velocity S-wave (km/s) = 2.76348 3.28481 3.03536
# Velocity P-wave (km/s) = 4.39643 5.00971 4.71306
#
# Compressibility (1/GPa) = 0.04797423
#
# Stress axis : x y z
#
# Youngs Moduli (GPa) = 68.27649 63.64094 31.71643
#
# Poissons Ratio (x) = 0.00933 0.29312
# Poissons Ratio (y) = 0.01001 -0.07710
# Poissons Ratio (z) = 0.63099 -0.15471
#
# Static dielectric constant tensor:
#      x y z
#    x 1.861010 0.000000 0.000000 
#    y 0.000000 1.792200 0.000000 
#    z 0.000000 0.000000 1.811550 
# 
# From -- ./inp_files/25750.got.cif
#   From: 2010.05.17/outbox.cif.g08.bks.cpg/sg51_13_cif.got.tgz:25750.got - 2010.06.03 11:52:47.
