data_PCOD9403091
_publ_section_title
;
Structure prediction by ZEFSAII (Michael W. Deem and Ramdas Pophale) SiO2 
 PCOD9403091
Probable space group: P M M A
;
_chemical_formula_sum "Si O2"
_cell_formula_units_Z 64
_cell_length_a 9.351775
_cell_length_b 14.431968
_cell_length_c 21.319768
_cell_angle_alpha 90.000000
_cell_angle_beta 90.000000
_cell_angle_gamma 90.000000
_cell_volume 2877.412202
_symmetry_space_group_name_H-M "P M M A"
_symmetry_group_IT_number 51
_symmetry_cell_setting 'orthorhombic'
loop_
_space_group_symop_operation_xyz
x,y,z
1/2-x,-y,z
1/2+x,-y,-z
-x,y,-z
-x,-y,-z
1/2+x,y,-z
1/2-x,y,z
x,-y,z
loop_
_atom_site_type_symbol
_atom_site_label
_atom_site_fract_x
_atom_site_fract_y
_atom_site_fract_z
Si Si1 0.414691 0.113298 0.812058
Si Si2 0.412178 0.613430 0.183674
Si Si3 0.911760 0.389957 0.302781
Si Si4 0.412382 0.889354 0.311121
Si Si5 0.914643 0.886872 0.937407
Si Si6 0.088331 0.360209 0.558700
Si Si7 0.587509 0.613191 0.061179
Si Si8 0.086572 0.139304 0.560628
O O1 0.250000 0.145149 0.812961
O O2 0.497637 0.142959 0.749167
O O3 0.501024 0.140400 0.874488
O O4 0.410976 0.000000 0.811719
O O5 0.250000 0.646491 0.178982
O O6 0.407761 0.500000 0.183870
O O7 0.488535 0.644256 0.247337
O O8 0.505631 0.640553 0.123969
O O9 0.750000 0.349937 0.301155
O O10 0.898229 0.500000 0.292973
O O11 0.973690 0.377476 0.372291
O O12 0.250000 0.851354 0.314141
O O13 0.499190 0.875302 0.375430
O O14 0.399851 0.000000 0.303498
O O15 0.750000 0.854799 0.937598
O O16 0.910865 0.000000 0.937496
O O17 0.000000 0.859295 0.000000
O O18 0.250000 0.396796 0.558761
O O19 0.096714 0.249764 0.552300
O O20 0.000000 0.395952 0.500000
O O21 0.750000 0.646603 0.059984
O O22 0.591993 0.500000 0.060845
O O23 0.500000 0.641304 0.000000
O O24 0.250000 0.104597 0.564459
O O25 0.000000 0.103748 0.500000
#
# Coordination Sequence:
#
# PCOD9403091 Si02
#       8
#     8   8   8   8   8   8   8   8
#     4   9  16  26  40  59  85 117 151 187 229 275
#     4   9  16  25  37  56  83 114 149 188 228 270
#     4   9  17  30  47  67  93 124 155 188 229 275
#     4  10  20  33  49  70  95 122 153 190 232 278
#     4   9  15  22  33  51  78 114 154 192 229 271
#     4   9  19  34  51  71  94 121 153 189 229 273
#     4   9  15  22  33  50  75 110 149 186 225 270
#     4  10  20  35  53  71  93 121 153 189 229 274
#
# _framework density 22.242208000000002
#
# number of rings (size 3 to 8) (size 9 to 14) (size 15 to 20)
#    0.000    2.750    0.000    2.250    0.000    8.250 
#    0.000    0.000    0.000    0.000    0.000    0.000 
#    0.000    1.000    0.000    8.000    0.000   13.500 
#
# Total GULP energy -357657.656337 kJ/mol
# GULP energy per Si atom -5588.400880 kJ/mol
# Density = 2.219158 g / cm^3
# Si number density = 22.242208 Si / 1000 Ang^3
#
#
#
# Elastic Constant Matrix: (Units=GPa)
#
#
# Indices 1 2 3 4 5 6 
#
# 1 232.3732 8.1487 163.3769 0.0000 0.0000 0.0000
# 2 8.1487 68.8776 -2.9756 0.0000 0.0000 0.0000
# 3 163.3769 -2.9756 269.2514 0.0000 0.0000 0.0000
# 4 0.0000 0.0000 0.0000 28.8357 0.0000 0.0000
# 5 0.0000 0.0000 0.0000 0.0000 -57.0077 0.0000
# 6 0.0000 0.0000 0.0000 0.0000 0.0000 6.4982
#
#
#
# Elastic Compliance Matrix: (Units=1/GPa)
#
#
# Indices 1 2 3 4 5 6 
#
# 1 0.007587 -0.001097 -0.004616 0.000000 0.000000 0.000000
# 2 -0.001097 0.014684 0.000828 0.000000 0.000000 0.000000
# 3 -0.004616 0.000828 0.006524 0.000000 0.000000 0.000000
# 4 0.000000 0.000000 0.000000 0.034679 0.000000 0.000000
# 5 0.000000 0.000000 0.000000 0.000000 -0.017541 0.000000
# 6 0.000000 0.000000 0.000000 0.000000 0.000000 0.153888
#
#
# Mechanical properties :
#
#
# Convention : Reuss Voigt Hill
#
# Bulk Modulus (GPa) = 52.56165 100.84468 76.70316
# Shear Modulus (GPa) = 23.15531 22.46205 22.80868
#
# Velocity S-wave (km/s) = 3.23004 3.18131 3.20577
# Velocity P-wave (km/s) = 6.13136 7.67673 6.94715
#
# Compressibility (1/GPa) = 0.01902528
#
# Stress axis : x y z
#
# Youngs Moduli (GPa) = 131.79983 68.10104 153.27975
#
# Poissons Ratio (x) = 0.07471 0.70753
# Poissons Ratio (y) = 0.14459 -0.12691
# Poissons Ratio (z) = 0.60838 -0.05638
#
# Static dielectric constant tensor:
#      x y z
#    x 1.781560 0.000000 0.000000 
#    y 0.000000 1.868780 0.000000 
#    z 0.000000 0.000000 1.767300 
# 
# From -- ./inp_files/28621.got.cif
#   From: 2010.05.17/outbox.cif.g08.bks.cpg/sg51_15_cif.got.tgz:28621.got - 2010.06.03 11:52:47.
