data_PCOD9403078
_publ_section_title
;
Structure prediction by ZEFSAII (Michael W. Deem and Ramdas Pophale) SiO2 
 PCOD9403078
Probable space group: P M M A
;
_chemical_formula_sum "Si O2"
_cell_formula_units_Z 64
_cell_length_a 13.826682
_cell_length_b 10.529233
_cell_length_c 21.171447
_cell_angle_alpha 90.000000
_cell_angle_beta 90.000000
_cell_angle_gamma 90.000000
_cell_volume 3082.231485
_symmetry_space_group_name_H-M "P M M A"
_symmetry_group_IT_number 51
_symmetry_cell_setting 'orthorhombic'
loop_
_space_group_symop_operation_xyz
x,y,z
1/2-x,-y,z
1/2+x,-y,-z
-x,y,-z
-x,-y,-z
1/2+x,y,-z
1/2-x,y,z
x,-y,z
loop_
_atom_site_type_symbol
_atom_site_label
_atom_site_fract_x
_atom_site_fract_y
_atom_site_fract_z
Si Si1 0.867161 0.643379 0.391817
Si Si2 0.368211 0.145503 0.957848
Si Si3 0.633691 0.852599 0.638047
Si Si4 0.636984 0.846069 0.901918
Si Si5 0.864833 0.362953 0.137243
Si Si6 0.938874 0.858390 0.771302
Si Si7 0.861776 0.222621 0.262981
Si Si8 0.631994 0.353530 0.535344
O O1 0.750000 0.639618 0.393653
O O2 0.900036 0.500000 0.377334
O O3 0.888020 0.735560 0.333781
O O4 0.897834 0.675782 0.463082
O O5 0.250000 0.139700 0.958095
O O6 0.398992 0.243758 0.904146
O O7 0.401427 0.000000 0.946094
O O8 0.397007 0.190907 0.028032
O O9 0.750000 0.857861 0.635033
O O10 0.604045 0.801734 0.707157
O O11 0.600130 0.753299 0.584866
O O12 0.598561 0.000000 0.630259
O O13 0.750000 0.814029 0.896871
O O14 0.587317 0.797261 0.838100
O O15 0.629318 0.000000 0.903411
O O16 0.750000 0.368751 0.123471
O O17 0.908394 0.500000 0.121526
O O18 0.869946 0.336658 0.212195
O O19 0.053551 0.866296 0.761630
O O20 0.895825 0.000000 0.773116
O O21 0.750000 0.177593 0.260755
O O22 0.750000 0.352545 0.536298
O O23 0.603730 0.500000 0.549519
#
# Coordination Sequence:
#
# PCOD9403078 Si02
#       8
#     8   8   8   8   8   8   8   8
#     4   8  14  28  51  73  92 122 168 215 251 286
#     4   8  14  26  48  77 102 124 156 200 249 300
#     4   9  17  31  53  79 105 132 160 195 246 306
#     4   8  14  28  52  78 100 124 159 204 249 294
#     4   9  17  30  50  74  99 131 169 207 251 300
#     4  10  20  33  49  72 101 132 169 209 248 295
#     4  10  20  33  49  68  94 131 173 214 251 287
#     4   8  14  27  50  78 104 130 162 202 248 297
#
# _framework density 20.764177
#
# number of rings (size 3 to 8) (size 9 to 14) (size 15 to 20)
#    0.000    3.250    0.000    2.250    0.000    3.750 
#    0.000    4.375    0.000   10.500    0.000    3.500 
#    0.000    0.000    0.000    0.000    0.000    0.000 
#
# Total GULP energy -356646.124152 kJ/mol
# GULP energy per Si atom -5572.595690 kJ/mol
# Density = 2.071692 g / cm^3
# Si number density = 20.764177 Si / 1000 Ang^3
#
#
#
# Elastic Constant Matrix: (Units=GPa)
#
#
# Indices 1 2 3 4 5 6 
#
# 1 63.9926 12.5039 35.4864 0.0000 0.0000 0.0000
# 2 12.5039 79.3752 67.9552 0.0000 0.0000 0.0000
# 3 35.4864 67.9552 166.8959 0.0000 0.0000 0.0000
# 4 0.0000 0.0000 0.0000 14.0612 0.0000 0.0000
# 5 0.0000 0.0000 0.0000 0.0000 32.2838 0.0000
# 6 0.0000 0.0000 0.0000 0.0000 0.0000 5.2298
#
#
#
# Elastic Compliance Matrix: (Units=1/GPa)
#
#
# Indices 1 2 3 4 5 6 
#
# 1 0.017739 0.000667 -0.004043 0.000000 0.000000 0.000000
# 2 0.000667 0.019365 -0.008027 0.000000 0.000000 0.000000
# 3 -0.004043 -0.008027 0.010120 0.000000 0.000000 0.000000
# 4 0.000000 0.000000 0.000000 0.071118 0.000000 0.000000
# 5 0.000000 0.000000 0.000000 0.000000 0.030975 0.000000
# 6 0.000000 0.000000 0.000000 0.000000 0.000000 0.191211
#
#
# Mechanical properties :
#
#
# Convention : Reuss Voigt Hill
#
# Bulk Modulus (GPa) = 40.95375 60.23941 50.59658
# Shear Modulus (GPa) = 13.45991 23.26951 18.36471
#
# Velocity S-wave (km/s) = 2.54879 3.35125 2.97718
# Velocity P-wave (km/s) = 5.33178 6.63692 6.01983
#
# Compressibility (1/GPa) = 0.02441779
#
# Stress axis : x y z
#
# Youngs Moduli (GPa) = 56.37414 51.63872 98.81612
#
# Poissons Ratio (x) = -0.03446 0.39955
# Poissons Ratio (y) = -0.03762 0.79319
# Poissons Ratio (z) = 0.22794 0.41450
#
# Static dielectric constant tensor:
#      x y z
#    x 1.796660 0.000000 0.000000 
#    y 0.000000 1.729690 0.000000 
#    z 0.000000 0.000000 1.764080 
# 
# From -- ./inp_files/29861.got.cif
#   From: 2010.05.17/outbox.cif.g08.bks.cpg/sg51_15_cif.got.tgz:29861.got - 2010.06.03 11:52:47.
