data_PCOD9403306
_publ_section_title
;
Structure prediction by ZEFSAII (Michael W. Deem and Ramdas Pophale) SiO2 
 PCOD9403306
Probable space group: P M M A
;
_chemical_formula_sum "Si O2"
_cell_formula_units_Z 64
_cell_length_a 17.408659
_cell_length_b 9.227483
_cell_length_c 23.565762
_cell_angle_alpha 90.000000
_cell_angle_beta 90.000000
_cell_angle_gamma 90.000000
_cell_volume 3785.559350
_symmetry_space_group_name_H-M "P M M A"
_symmetry_group_IT_number 51
_symmetry_cell_setting 'orthorhombic'
loop_
_space_group_symop_operation_xyz
x,y,z
1/2-x,-y,z
1/2+x,-y,-z
-x,y,-z
-x,-y,-z
1/2+x,y,-z
1/2-x,y,z
x,-y,z
loop_
_atom_site_type_symbol
_atom_site_label
_atom_site_fract_x
_atom_site_fract_y
_atom_site_fract_z
Si Si1 0.399587 0.829954 0.928182
Si Si2 0.658591 0.330060 0.961098
Si Si3 0.004603 0.326509 0.762958
Si Si4 0.982345 0.674038 0.632517
Si Si5 0.924151 0.166144 0.459847
Si Si6 0.337180 0.673518 0.444588
Si Si7 0.934839 0.170190 0.869672
Si Si8 0.335568 0.328017 0.819989
O O1 0.487600 0.815313 0.907628
O O2 0.349949 0.760804 0.877430
O O3 0.382728 0.000000 0.935187
O O4 0.382511 0.746439 0.985917
O O5 0.750000 0.315946 0.968383
O O6 0.638932 0.500000 0.959546
O O7 0.630854 0.253116 0.903762
O O8 0.993180 0.500000 0.769432
O O9 0.094036 0.295668 0.777837
O O10 0.985379 0.286367 0.698523
O O11 0.954632 0.242631 0.809520
O O12 0.991880 0.500000 0.628129
O O13 0.900935 0.711531 0.602815
O O14 0.048994 0.751169 0.596476
O O15 0.860873 0.248339 0.497122
O O16 0.000000 0.166595 0.500000
O O17 0.902967 0.000000 0.448616
O O18 0.250000 0.710030 0.428150
O O19 0.341959 0.500000 0.452854
O O20 0.918376 0.000000 0.863600
O O21 0.250000 0.298469 0.797612
O O22 0.340106 0.500000 0.833281
#
# Coordination Sequence:
#
# PCOD9403306 Si02
#       8
#     8   8   8   8   8   8   8   8
#     4  10  20  33  51  75  99 124 157 198 247 303
#     4  11  23  36  51  73  99 127 161 202 249 300
#     4   9  18  33  52  72  97 132 171 208 245 287
#     4   9  17  31  51  73  98 131 171 208 244 290
#     4   9  17  29  47  71  98 127 157 193 240 290
#     4   9  17  30  49  73 100 130 165 206 249 291
#     4  10  21  36  53  73  98 129 165 204 247 297
#     4   9  17  30  48  70  96 126 161 201 245 294
#
# _framework density 16.906351999999998
#
# number of rings (size 3 to 8) (size 9 to 14) (size 15 to 20)
#    0.000    2.500    0.000    2.250    0.000    8.000 
#    0.000    1.250    0.000    4.500    0.000    0.000 
#    0.000    0.000    0.000    0.000    0.000    0.000 
#
# Total GULP energy -356928.942072 kJ/mol
# GULP energy per Si atom -5577.014720 kJ/mol
# Density = 1.686787 g / cm^3
# Si number density = 16.906352 Si / 1000 Ang^3
#
#
#
# Elastic Constant Matrix: (Units=GPa)
#
#
# Indices 1 2 3 4 5 6 
#
# 1 41.6656 30.6839 39.6081 0.0000 0.0000 0.0000
# 2 30.6839 63.2506 62.0487 0.0000 0.0000 0.0000
# 3 39.6081 62.0487 138.5910 0.0000 0.0000 0.0000
# 4 0.0000 0.0000 0.0000 10.7743 0.0000 0.0000
# 5 0.0000 0.0000 0.0000 0.0000 11.3815 0.0000
# 6 0.0000 0.0000 0.0000 0.0000 0.0000 10.5589
#
#
#
# Elastic Compliance Matrix: (Units=1/GPa)
#
#
# Indices 1 2 3 4 5 6 
#
# 1 0.039036 -0.014253 -0.004775 0.000000 0.000000 0.000000
# 2 -0.014253 0.033396 -0.010879 0.000000 0.000000 0.000000
# 3 -0.004775 -0.010879 0.013451 0.000000 0.000000 0.000000
# 4 0.000000 0.000000 0.000000 0.092813 0.000000 0.000000
# 5 0.000000 0.000000 0.000000 0.000000 0.087862 0.000000
# 6 0.000000 0.000000 0.000000 0.000000 0.000000 0.094707
#
#
# Mechanical properties :
#
#
# Convention : Reuss Voigt Hill
#
# Bulk Modulus (GPa) = 38.35799 56.46539 47.41169
# Shear Modulus (GPa) = 11.63419 13.95403 12.79411
#
# Velocity S-wave (km/s) = 2.62612 2.87605 2.75392
# Velocity P-wave (km/s) = 5.65094 6.67085 6.18196
#
# Compressibility (1/GPa) = 0.02607019
#
# Stress axis : x y z
#
# Youngs Moduli (GPa) = 25.61738 29.94358 74.34619
#
# Poissons Ratio (x) = 0.42678 0.35501
# Poissons Ratio (y) = 0.36512 0.80878
# Poissons Ratio (z) = 0.12232 0.32574
#
# Static dielectric constant tensor:
#      x y z
#    x 1.578960 0.000000 0.000000 
#    y 0.000000 1.563700 0.000000 
#    z 0.000000 0.000000 1.541210 
# 
# From -- ./inp_files/33887.got.cif
#   From: 2010.05.17/outbox.cif.g08.bks.cpg/sg51_17_cif.got.tgz:33887.got - 2010.06.03 11:52:47.
