data_PCOD9403834
_publ_section_title
;
Structure prediction by ZEFSAII (Michael W. Deem and Ramdas Pophale) SiO2 
 PCOD9403834
Probable space group: P M M A
;
_chemical_formula_sum "Si O2"
_cell_formula_units_Z 52
_cell_length_a 9.355430
_cell_length_b 13.224725
_cell_length_c 22.518104
_cell_angle_alpha 90.000000
_cell_angle_beta 90.000000
_cell_angle_gamma 90.000000
_cell_volume 2786.007134
_symmetry_space_group_name_H-M "P M M A"
_symmetry_group_IT_number 51
_symmetry_cell_setting 'orthorhombic'
loop_
_space_group_symop_operation_xyz
x,y,z
1/2-x,-y,z
1/2+x,-y,-z
-x,y,-z
-x,-y,-z
1/2+x,y,-z
1/2-x,y,z
x,-y,z
loop_
_atom_site_type_symbol
_atom_site_label
_atom_site_fract_x
_atom_site_fract_y
_atom_site_fract_z
Si Si1 0.421629 0.116825 0.437237
Si Si2 0.085824 0.115980 0.187165
Si Si3 0.079796 0.615165 0.892693
Si Si4 0.081177 0.699546 0.763904
Si Si5 0.578882 0.692476 0.642575
Si Si6 0.082833 0.805649 0.056281
Si Si7 0.579941 0.500000 0.561651
O O1 0.500000 0.135984 0.500000
O O2 0.250000 0.124968 0.445930
O O3 0.462297 0.200903 0.388426
O O4 0.452607 0.000000 0.419669
O O5 0.250000 0.147034 0.201401
O O6 0.069313 0.129191 0.116247
O O7 0.975014 0.189555 0.218184
O O8 0.067775 0.000000 0.204102
O O9 0.250000 0.633122 0.901400
O O10 0.047243 0.500000 0.909391
O O11 0.050761 0.632083 0.822367
O O12 0.988949 0.697862 0.927808
O O13 0.250000 0.697821 0.753877
O O14 0.998397 0.671807 0.704500
O O15 0.750000 0.694655 0.651910
O O16 0.544766 0.600761 0.598377
O O17 0.250000 0.793739 0.042968
O O18 0.000000 0.849271 0.000000
O O19 0.750000 0.500000 0.551787
O O20 0.500000 0.500000 0.500000
#
# Coordination Sequence:
#
# PCOD9403834 Si02
#       7
#     8   8   8   8   8   8   4
#     4   9  18  33  53  75 100 132 170 213 261 313
#     4   9  19  37  58  78 106 145 182 218 267 323
#     4   9  19  36  55  74 101 137 175 219 270 319
#     4  10  21  35  54  81 108 136 176 224 269 315
#     4  10  21  36  53  77 109 143 180 219 268 330
#     4  10  20  34  53  79 108 138 177 220 265 319
#     4  10  22  38  56  80 110 146 185 230 277 328
#
# _framework density 18.664702999999999
#
# number of rings (size 3 to 8) (size 9 to 14) (size 15 to 20)
#    0.000    2.462    0.000    1.385    1.077    4.308 
#    0.000    1.538    0.000    0.000    0.000    0.000 
#    0.000    0.000    0.000    0.000    0.000    0.000 
#
# Total GULP energy -290229.719423 kJ/mol
# GULP energy per Si atom -5581.340758 kJ/mol
# Density = 1.862222 g / cm^3
# Si number density = 18.664703 Si / 1000 Ang^3
#
#
#
# Elastic Constant Matrix: (Units=GPa)
#
#
# Indices 1 2 3 4 5 6 
#
# 1 32.1386 9.0680 27.6535 0.0000 0.0000 0.0000
# 2 9.0680 46.9332 -2.0768 0.0000 0.0000 0.0000
# 3 27.6535 -2.0768 69.3563 0.0000 0.0000 0.0000
# 4 0.0000 0.0000 0.0000 -3.3453 0.0000 0.0000
# 5 0.0000 0.0000 0.0000 0.0000 40.9671 0.0000
# 6 0.0000 0.0000 0.0000 0.0000 0.0000 14.1133
#
#
#
# Elastic Compliance Matrix: (Units=1/GPa)
#
#
# Indices 1 2 3 4 5 6 
#
# 1 0.052567 -0.011099 -0.021292 0.000000 0.000000 0.000000
# 2 -0.011099 0.023678 0.005134 0.000000 0.000000 0.000000
# 3 -0.021292 0.005134 0.023061 0.000000 0.000000 0.000000
# 4 0.000000 0.000000 0.000000 -0.298931 0.000000 0.000000
# 5 0.000000 0.000000 0.000000 0.000000 0.024410 0.000000
# 6 0.000000 0.000000 0.000000 0.000000 0.000000 0.070855
#
#
# Mechanical properties :
#
#
# Convention : Reuss Voigt Hill
#
# Bulk Modulus (GPa) = 22.32407 24.19082 23.25745
# Shear Modulus (GPa) = -143.20427 17.93258 -62.63585
#
# Velocity S-wave (km/s) = -8.76876 3.10300 -5.79925
# Velocity P-wave (km/s) = 9.51499 5.08203 5.68806
#
# Compressibility (1/GPa) = 0.04479469
#
# Stress axis : x y z
#
# Youngs Moduli (GPa) = 19.02334 42.23250 43.36253
#
# Poissons Ratio (x) = 0.46872 0.92326
# Poissons Ratio (y) = 0.21113 -0.22263
# Poissons Ratio (z) = 0.40504 -0.21683
#
# Static dielectric constant tensor:
#      x y z
#    x 1.620140 0.000000 0.000000 
#    y 0.000000 1.635700 0.000000 
#    z 0.000000 0.000000 1.635940 
# 
# From -- ./inp_files/31717.got.cif
#   From: 2010.05.17/outbox.cif.g08.bks.cpg/sg51_16_cif.got.tgz:31717.got - 2010.06.03 11:52:47.
