data_PCOD9403281
_publ_section_title
;
Structure prediction by ZEFSAII (Michael W. Deem and Ramdas Pophale) SiO2 
 PCOD9403281
Probable space group: P M M A
;
_chemical_formula_sum "Si O2"
_cell_formula_units_Z 64
_cell_length_a 9.179741
_cell_length_b 14.604631
_cell_length_c 32.073273
_cell_angle_alpha 90.000000
_cell_angle_beta 90.000000
_cell_angle_gamma 90.000000
_cell_volume 4299.958831
_symmetry_space_group_name_H-M "P M M A"
_symmetry_group_IT_number 51
_symmetry_cell_setting 'orthorhombic'
loop_
_space_group_symop_operation_xyz
x,y,z
1/2-x,-y,z
1/2+x,-y,-z
-x,y,-z
-x,-y,-z
1/2+x,y,-z
1/2-x,y,z
x,-y,z
loop_
_atom_site_type_symbol
_atom_site_label
_atom_site_fract_x
_atom_site_fract_y
_atom_site_fract_z
Si Si1 0.575238 0.209793 0.542815
Si Si2 0.576931 0.605888 0.324807
Si Si3 0.582771 0.888365 0.958248
Si Si4 0.582224 0.111266 0.124463
Si Si5 0.425371 0.779204 0.291723
Si Si6 0.576956 0.396410 0.585896
Si Si7 0.074407 0.891483 0.781635
Si Si8 0.573045 0.895395 0.626409
O O1 0.500000 0.182309 0.500000
O O2 0.750000 0.201597 0.538801
O O3 0.540673 0.315491 0.554156
O O4 0.527878 0.150371 0.582852
O O5 0.750000 0.623034 0.324989
O O6 0.552479 0.500000 0.312461
O O7 0.494044 0.678839 0.296402
O O8 0.512324 0.615683 0.371510
O O9 0.750000 0.860798 0.960197
O O10 0.510225 0.857402 0.915048
O O11 0.577733 0.000000 0.957970
O O12 0.500000 0.858603 0.000000
O O13 0.750000 0.139485 0.119117
O O14 0.533050 0.136660 0.171047
O O15 0.580981 0.000000 0.124214
O O16 0.250000 0.775288 0.289840
O O17 0.490770 0.833163 0.252612
O O18 0.468527 0.834736 0.333788
O O19 0.750000 0.387388 0.595802
O O20 0.552133 0.500000 0.570336
O O21 0.250000 0.880928 0.777891
O O22 0.042928 0.000000 0.776470
O O23 0.750000 0.896348 0.626034
O O24 0.522469 0.000000 0.630245
#
# Coordination Sequence:
#
# PCOD9403281 Si02
#       8
#     8   8   8   8   8   8   8   8
#     4  10  20  34  49  68  91 117 145 174 212 256
#     4  10  20  33  51  74  96 116 140 174 216 262
#     4   9  15  21  31  48  70  99 140 189 235 276
#     4   8  14  25  38  51  74 109 145 183 229 273
#     4  11  20  32  51  72  92 118 150 182 219 265
#     4   9  17  32  52  71  92 116 141 170 209 259
#     4   9  18  31  45  64  92 123 153 190 234 272
#     4   9  18  33  50  67  89 116 145 178 215 253
#
# _framework density 14.883864000000001
#
# number of rings (size 3 to 8) (size 9 to 14) (size 15 to 20)
#    0.000    2.625    1.250    2.250    0.000    4.500 
#    0.000    1.250    0.000    1.500    0.000    0.000 
#    0.000    0.000    0.000    0.000    0.000    0.625 
#
# Total GULP energy -356635.752935 kJ/mol
# GULP energy per Si atom -5572.433640 kJ/mol
# Density = 1.484999 g / cm^3
# Si number density = 14.883864 Si / 1000 Ang^3
#
#
#
# Elastic Constant Matrix: (Units=GPa)
#
#
# Indices 1 2 3 4 5 6 
#
# 1 50.7944 31.6573 58.7964 0.0000 0.0000 0.0000
# 2 31.6573 59.5751 43.5713 0.0000 0.0000 0.0000
# 3 58.7964 43.5713 133.2676 0.0000 0.0000 0.0000
# 4 0.0000 0.0000 0.0000 4.7349 0.0000 0.0000
# 5 0.0000 0.0000 0.0000 0.0000 28.6079 0.0000
# 6 0.0000 0.0000 0.0000 0.0000 0.0000 15.4502
#
#
#
# Elastic Compliance Matrix: (Units=1/GPa)
#
#
# Indices 1 2 3 4 5 6 
#
# 1 0.046635 -0.012792 -0.016392 0.000000 0.000000 0.000000
# 2 -0.012792 0.025570 -0.002716 0.000000 0.000000 0.000000
# 3 -0.016392 -0.002716 0.015624 0.000000 0.000000 0.000000
# 4 0.000000 0.000000 0.000000 0.211198 0.000000 0.000000
# 5 0.000000 0.000000 0.000000 0.000000 0.034955 0.000000
# 6 0.000000 0.000000 0.000000 0.000000 0.000000 0.064724
#
#
# Mechanical properties :
#
#
# Convention : Reuss Voigt Hill
#
# Bulk Modulus (GPa) = 41.62010 56.85412 49.23711
# Shear Modulus (GPa) = 10.62663 17.06607 13.84635
#
# Velocity S-wave (km/s) = 2.67492 3.38985 3.05338
# Velocity P-wave (km/s) = 6.12896 7.32139 6.75156
#
# Compressibility (1/GPa) = 0.02402685
#
# Stress axis : x y z
#
# Youngs Moduli (GPa) = 21.44331 39.10905 64.00444
#
# Poissons Ratio (x) = 0.50028 1.04919
# Poissons Ratio (y) = 0.27430 0.17385
# Poissons Ratio (z) = 0.35151 0.10623
#
# Static dielectric constant tensor:
#      x y z
#    x 1.498270 0.000000 0.000000 
#    y 0.000000 1.487800 0.000000 
#    z 0.000000 0.000000 1.484600 
# 
# From -- ./inp_files/37586.got.cif
#   From: 2010.05.17/outbox.cif.g08.bks.cpg/sg51_19_cif.got.tgz:37586.got - 2010.06.03 11:52:47.
