data_PCOD9403984
_publ_section_title
;
Structure prediction by ZEFSAII (Michael W. Deem and Ramdas Pophale) SiO2 
 PCOD9403984
Probable space group: P M M A
;
_chemical_formula_sum "Si O2"
_cell_formula_units_Z 44
_cell_length_a 9.630653
_cell_length_b 7.858585
_cell_length_c 31.202701
_cell_angle_alpha 90.000000
_cell_angle_beta 90.000000
_cell_angle_gamma 90.000000
_cell_volume 2361.523543
_symmetry_space_group_name_H-M "P M M A"
_symmetry_group_IT_number 51
_symmetry_cell_setting 'orthorhombic'
loop_
_space_group_symop_operation_xyz
x,y,z
1/2-x,-y,z
1/2+x,-y,-z
-x,y,-z
-x,-y,-z
1/2+x,y,-z
1/2-x,y,z
x,-y,z
loop_
_atom_site_type_symbol
_atom_site_label
_atom_site_fract_x
_atom_site_fract_y
_atom_site_fract_z
Si Si1 0.593843 0.297897 0.216446
Si Si2 0.911194 0.792474 0.959932
Si Si3 0.092619 0.795983 0.297180
Si Si4 0.081423 0.195569 0.392013
Si Si5 0.081626 0.500000 0.455586
Si Si6 0.591067 0.794983 0.864604
O O1 0.750000 0.225366 0.216297
O O2 0.603858 0.500000 0.217807
O O3 0.507009 0.244710 0.258069
O O4 0.510026 0.252545 0.173616
O O5 0.750000 0.746936 0.965163
O O6 0.954745 0.736815 0.912133
O O7 0.918567 0.000000 0.960204
O O8 0.000000 0.729964 0.000000
O O9 0.250000 0.729880 0.289888
O O10 0.040229 0.742680 0.344285
O O11 0.102592 0.000000 0.300023
O O12 0.250000 0.190365 0.390613
O O13 0.043737 0.332198 0.427932
O O14 0.034221 0.000000 0.399518
O O15 0.250000 0.500000 0.461543
O O16 0.000000 0.500000 0.500000
O O17 0.750000 0.735227 0.857057
O O18 0.596701 0.000000 0.865923
#
# Coordination Sequence:
#
# PCOD9403984 Si02
#       6
#     8   8   8   8   4   8
#     4  11  24  36  46  69 104 137 167 204 252 306
#     4   8  14  25  43  69  97 121 151 196 247 297
#     4   9  18  34  57  81 100 125 169 218 258 303
#     4   8  16  32  54  80 107 136 177 225 265 311
#     4  10  20  34  54  80 110 146 182 220 267 312
#     4   9  18  33  52  73  97 127 166 209 248 295
#
# _framework density 18.632038999999999
#
# number of rings (size 3 to 8) (size 9 to 14) (size 15 to 20)
#    0.000    2.909    0.000    3.273    1.273    5.455 
#    0.000    2.727    0.000    1.636    0.000    0.000 
#    0.000    0.000    0.000    0.000    0.000    0.000 
#
# Total GULP energy -245253.993756 kJ/mol
# GULP energy per Si atom -5573.954404 kJ/mol
# Density = 1.858963 g / cm^3
# Si number density = 18.632039 Si / 1000 Ang^3
#
#
#
# Elastic Constant Matrix: (Units=GPa)
#
#
# Indices 1 2 3 4 5 6 
#
# 1 82.6609 22.8985 99.8411 0.0000 0.0000 0.0000
# 2 22.8985 45.2504 48.6652 0.0000 0.0000 0.0000
# 3 99.8411 48.6652 221.0434 0.0000 0.0000 0.0000
# 4 0.0000 0.0000 0.0000 61.3206 0.0000 0.0000
# 5 0.0000 0.0000 0.0000 0.0000 34.0239 0.0000
# 6 0.0000 0.0000 0.0000 0.0000 0.0000 -15.3813
#
#
#
# Elastic Compliance Matrix: (Units=1/GPa)
#
#
# Indices 1 2 3 4 5 6 
#
# 1 0.026638 -0.000708 -0.011876 0.000000 0.000000 0.000000
# 2 -0.000708 0.028974 -0.006059 0.000000 0.000000 0.000000
# 3 -0.011876 -0.006059 0.011222 0.000000 0.000000 0.000000
# 4 0.000000 0.000000 0.000000 0.016308 0.000000 0.000000
# 5 0.000000 0.000000 0.000000 0.000000 0.029391 0.000000
# 6 0.000000 0.000000 0.000000 0.000000 0.000000 -0.065014
#
#
# Mechanical properties :
#
#
# Convention : Reuss Voigt Hill
#
# Bulk Modulus (GPa) = 33.84303 76.86269 55.35286
# Shear Modulus (GPa) = 52.82357 27.82931 40.32644
#
# Velocity S-wave (km/s) = 5.33034 3.86894 4.65732
# Velocity P-wave (km/s) = 7.48910 7.82948 7.66118
#
# Compressibility (1/GPa) = 0.02954818
#
# Stress axis : x y z
#
# Youngs Moduli (GPa) = 37.54024 34.51381 89.10865
#
# Poissons Ratio (x) = 0.02442 1.05827
# Poissons Ratio (y) = 0.02656 0.53994
# Poissons Ratio (z) = 0.44583 0.20913
#
# Static dielectric constant tensor:
#      x y z
#    x 1.637920 0.000000 0.000000 
#    y 0.000000 1.674800 0.000000 
#    z 0.000000 0.000000 1.654510 
# 
# From -- ./inp_files/36797.got.cif
#   From: 2010.05.17/outbox.cif.g08.bks.cpg/sg51_19_cif.got.tgz:36797.got - 2010.06.03 11:52:47.
