data_PCOD9403958
_publ_section_title
;
Structure prediction by ZEFSAII (Michael W. Deem and Ramdas Pophale) SiO2 
 PCOD9403958
Probable space group: P M M A
;
_chemical_formula_sum "Si O2"
_cell_formula_units_Z 64
_cell_length_a 19.199968
_cell_length_b 7.648469
_cell_length_c 20.687751
_cell_angle_alpha 90.000000
_cell_angle_beta 90.000000
_cell_angle_gamma 90.000000
_cell_volume 3038.003683
_symmetry_space_group_name_H-M "P M M A"
_symmetry_group_IT_number 51
_symmetry_cell_setting 'orthorhombic'
loop_
_space_group_symop_operation_xyz
x,y,z
1/2-x,-y,z
1/2+x,-y,-z
-x,y,-z
-x,-y,-z
1/2+x,y,-z
1/2-x,y,z
x,-y,z
loop_
_atom_site_type_symbol
_atom_site_label
_atom_site_fract_x
_atom_site_fract_y
_atom_site_fract_z
Si Si1 0.431637 0.702056 0.705579
Si Si2 0.586157 0.714953 0.678063
Si Si3 0.070543 0.789802 0.079402
Si Si4 0.586634 0.788533 0.066425
Si Si5 0.327596 0.706977 0.811580
Si Si6 0.328310 0.708821 0.197380
Si Si7 0.829722 0.711257 0.553738
Si Si8 0.829497 0.793947 0.406220
O O1 0.444731 0.500000 0.723799
O O2 0.507616 0.777187 0.691008
O O3 0.385630 0.782789 0.763127
O O4 0.383799 0.708075 0.642066
O O5 0.585770 0.500000 0.676732
O O6 0.634886 0.772614 0.737254
O O7 0.618666 0.771583 0.609884
O O8 0.122369 0.741031 0.136232
O O9 0.990633 0.730077 0.089214
O O10 0.067787 0.000000 0.076937
O O11 0.094365 0.730535 0.007974
O O12 0.644917 0.727240 0.115808
O O13 0.587555 0.000000 0.066945
O O14 0.250000 0.780408 0.802723
O O15 0.323243 0.500000 0.797322
O O16 0.250000 0.778297 0.188846
O O17 0.323206 0.500000 0.204426
O O18 0.750000 0.768753 0.566681
O O19 0.829655 0.500000 0.554171
O O20 0.848164 0.767940 0.481287
O O21 0.750000 0.727620 0.397275
O O22 0.829404 0.000000 0.392281
#
# Coordination Sequence:
#
# PCOD9403958 Si02
#       8
#     8   8   8   8   8   8   8   8
#     4  10  20  35  55  76 101 135 172 209 252 304
#     4   9  18  33  54  79 104 132 170 213 253 297
#     4   9  19  36  55  76 104 137 174 214 256 306
#     4   9  19  36  56  76 101 137 177 214 255 306
#     4  10  21  35  52  77 107 136 170 215 262 307
#     4  10  20  34  54  80 108 137 171 212 257 306
#     4   9  17  32  55  78 101 133 170 206 247 298
#     4  10  21  36  53  75 104 135 168 209 254 300
#
# _framework density 21.066465999999998
#
# number of rings (size 3 to 8) (size 9 to 14) (size 15 to 20)
#    0.000    2.500    0.000    2.625    0.000    6.750 
#    0.000    8.125    0.000    1.500    0.000    0.000 
#    0.000    0.000    0.000    0.000    0.000    0.000 
#
# Total GULP energy -357369.885731 kJ/mol
# GULP energy per Si atom -5583.904465 kJ/mol
# Density = 2.101852 g / cm^3
# Si number density = 21.066466 Si / 1000 Ang^3
#
#
#
# Elastic Constant Matrix: (Units=GPa)
#
#
# Indices 1 2 3 4 5 6 
#
# 1 49.8353 -4.6851 16.5344 0.0000 0.0000 0.0000
# 2 -4.6851 37.6982 -12.5012 0.0000 0.0000 0.0000
# 3 16.5344 -12.5012 54.4516 0.0000 0.0000 0.0000
# 4 0.0000 0.0000 0.0000 56.5635 0.0000 0.0000
# 5 0.0000 0.0000 0.0000 0.0000 38.9539 0.0000
# 6 0.0000 0.0000 0.0000 0.0000 0.0000 14.4816
#
#
#
# Elastic Compliance Matrix: (Units=1/GPa)
#
#
# Indices 1 2 3 4 5 6 
#
# 1 0.022325 0.000570 -0.006648 0.000000 0.000000 0.000000
# 2 0.000570 0.028727 0.006422 0.000000 0.000000 0.000000
# 3 -0.006648 0.006422 0.021858 0.000000 0.000000 0.000000
# 4 0.000000 0.000000 0.000000 0.017679 0.000000 0.000000
# 5 0.000000 0.000000 0.000000 0.000000 0.025671 0.000000
# 6 0.000000 0.000000 0.000000 0.000000 0.000000 0.069053
#
#
# Mechanical properties :
#
#
# Convention : Reuss Voigt Hill
#
# Bulk Modulus (GPa) = 13.58731 15.63125 14.60928
# Shear Modulus (GPa) = 23.90522 31.50894 27.70708
#
# Velocity S-wave (km/s) = 3.37226 3.87161 3.63053
# Velocity P-wave (km/s) = 4.65044 5.23659 4.95220
#
# Compressibility (1/GPa) = 0.07359807
#
# Stress axis : x y z
#
# Youngs Moduli (GPa) = 44.79189 34.81052 45.74955
#
# Poissons Ratio (x) = -0.01984 0.30416
# Poissons Ratio (y) = -0.02553 -0.29381
# Poissons Ratio (z) = 0.29779 -0.22356
#
# Static dielectric constant tensor:
#      x y z
#    x 1.751340 0.000000 0.000000 
#    y 0.000000 1.807010 0.000000 
#    z 0.000000 0.000000 1.724430 
# 
# From -- ./inp_files/33863.got.cif
#   From: 2010.05.17/outbox.cif.g08.bks.cpg/sg51_17_cif.got.tgz:33863.got - 2010.06.03 11:52:47.
