data_PCOD9403385
_publ_section_title
;
Structure prediction by ZEFSAII (Michael W. Deem and Ramdas Pophale) SiO2 
 PCOD9403385
Probable space group: P M M A
;
_chemical_formula_sum "Si O2"
_cell_formula_units_Z 56
_cell_length_a 16.229757
_cell_length_b 14.867270
_cell_length_c 12.769758
_cell_angle_alpha 90.000000
_cell_angle_beta 90.000000
_cell_angle_gamma 90.000000
_cell_volume 3081.242738
_symmetry_space_group_name_H-M "P M M A"
_symmetry_group_IT_number 51
_symmetry_cell_setting 'orthorhombic'
loop_
_space_group_symop_operation_xyz
x,y,z
1/2-x,-y,z
1/2+x,-y,-z
-x,y,-z
-x,-y,-z
1/2+x,y,-z
1/2-x,y,z
x,-y,z
loop_
_atom_site_type_symbol
_atom_site_label
_atom_site_fract_x
_atom_site_fract_y
_atom_site_fract_z
Si Si1 0.346016 0.900860 0.327661
Si Si2 0.653859 0.771042 0.845527
Si Si3 0.091265 0.600374 0.047494
Si Si4 0.096255 0.105846 0.968443
Si Si5 0.149394 0.794737 0.756589
Si Si6 0.588848 0.105912 0.449812
Si Si7 0.345751 0.599131 0.819627
O O1 0.250000 0.906184 0.298123
O O2 0.382116 0.824109 0.254206
O O3 0.351812 0.882234 0.450418
O O4 0.384048 0.000000 0.308975
O O5 0.750000 0.749056 0.829383
O O6 0.607320 0.679856 0.872897
O O7 0.645188 0.838588 0.943595
O O8 0.103372 0.500000 0.090566
O O9 0.148402 0.611385 0.945113
O O10 0.000000 0.606655 0.000000
O O11 0.115658 0.149905 0.856321
O O12 0.117300 0.000000 0.968674
O O13 0.000000 0.114651 0.000000
O O14 0.250000 0.798323 0.758368
O O15 0.115588 0.837287 0.649783
O O16 0.121536 0.690581 0.768904
O O17 0.500000 0.127635 0.500000
O O18 0.588775 0.000000 0.421074
O O19 0.250000 0.594616 0.790209
O O20 0.383493 0.500000 0.796858
#
# Coordination Sequence:
#
# PCOD9403385 Si02
#       7
#     8   8   8   8   8   8   8
#     4   9  19  35  53  73 102 142 185 227 273 330
#     4  11  21  34  54  78 107 146 184 222 271 336
#     4  10  20  33  51  77 109 145 184 228 278 335
#     4  11  24  36  51  80 118 151 179 223 283 340
#     4  11  22  37  60  86 112 148 193 240 286 336
#     4  10  22  37  56  80 107 143 191 240 283 328
#     4   9  18  33  53  79 110 142 180 227 282 343
#
# _framework density 18.174484
#
# number of rings (size 3 to 8) (size 9 to 14) (size 15 to 20)
#    0.000    1.857    1.429    2.571    2.000    4.000 
#    0.000    0.000    0.000    1.286    0.000    2.000 
#    0.000    0.000    0.000    0.000    0.000    0.000 
#
# Total GULP energy -312471.125009 kJ/mol
# GULP energy per Si atom -5579.841518 kJ/mol
# Density = 1.813312 g / cm^3
# Si number density = 18.174484 Si / 1000 Ang^3
#
#
#
# Elastic Constant Matrix: (Units=GPa)
#
#
# Indices 1 2 3 4 5 6 
#
# 1 36.7554 29.8042 14.5069 0.0000 0.0000 0.0000
# 2 29.8042 160.3428 75.4930 0.0000 0.0000 0.0000
# 3 14.5069 75.4930 94.5268 0.0000 0.0000 0.0000
# 4 0.0000 0.0000 0.0000 7.5122 0.0000 0.0000
# 5 0.0000 0.0000 0.0000 0.0000 22.6491 0.0000
# 6 0.0000 0.0000 0.0000 0.0000 0.0000 25.5305
#
#
#
# Elastic Compliance Matrix: (Units=1/GPa)
#
#
# Indices 1 2 3 4 5 6 
#
# 1 0.032039 -0.005834 -0.000258 0.000000 0.000000 0.000000
# 2 -0.005834 0.011057 -0.007935 0.000000 0.000000 0.000000
# 3 -0.000258 -0.007935 0.016956 0.000000 0.000000 0.000000
# 4 0.000000 0.000000 0.000000 0.133117 0.000000 0.000000
# 5 0.000000 0.000000 0.000000 0.000000 0.044152 0.000000
# 6 0.000000 0.000000 0.000000 0.000000 0.000000 0.039169
#
#
# Mechanical properties :
#
#
# Convention : Reuss Voigt Hill
#
# Bulk Modulus (GPa) = 31.25169 59.02592 45.13881
# Shear Modulus (GPa) = 15.86241 22.59308 19.22775
#
# Velocity S-wave (km/s) = 2.95750 3.52962 3.25615
# Velocity P-wave (km/s) = 5.37542 7.01133 6.24715
#
# Compressibility (1/GPa) = 0.03199826
#
# Stress axis : x y z
#
# Youngs Moduli (GPa) = 31.21165 90.43857 58.97582
#
# Poissons Ratio (x) = 0.52762 0.01520
# Poissons Ratio (y) = 0.18209 0.46800
# Poissons Ratio (z) = 0.00804 0.71767
#
# Static dielectric constant tensor:
#      x y z
#    x 1.727070 0.000000 0.000000 
#    y 0.000000 1.647840 0.000000 
#    z 0.000000 0.000000 1.595080 
# 
# From -- ./inp_files/16609.got.cif
#   From: 2010.05.17/outbox.cif.g08.bks.cpg/sg51_9_cif.got.tgz:16609.got - 2010.06.03 11:52:47.
