data_PCOD9403028
_publ_section_title
;
Structure prediction by ZEFSAII (Michael W. Deem and Ramdas Pophale) SiO2 
 PCOD9403028
Probable space group: P M M A
;
_chemical_formula_sum "Si O2"
_cell_formula_units_Z 56
_cell_length_a 9.335882
_cell_length_b 15.942664
_cell_length_c 21.070413
_cell_angle_alpha 90.000000
_cell_angle_beta 90.000000
_cell_angle_gamma 90.000000
_cell_volume 3136.095616
_symmetry_space_group_name_H-M "P M M A"
_symmetry_group_IT_number 51
_symmetry_cell_setting 'orthorhombic'
loop_
_space_group_symop_operation_xyz
x,y,z
1/2-x,-y,z
1/2+x,-y,-z
-x,y,-z
-x,-y,-z
1/2+x,y,-z
1/2-x,y,z
x,-y,z
loop_
_atom_site_type_symbol
_atom_site_label
_atom_site_fract_x
_atom_site_fract_y
_atom_site_fract_z
Si Si1 0.081222 0.872725 0.679519
Si Si2 0.420051 0.091987 0.192496
Si Si3 0.579671 0.597519 0.066951
Si Si4 0.417486 0.283757 0.163637
Si Si5 0.407876 0.096777 0.445081
Si Si6 0.419438 0.402096 0.437628
Si Si7 0.582173 0.704417 0.688647
O O1 0.250000 0.886783 0.676377
O O2 0.012361 0.908233 0.743539
O O3 0.998500 0.905733 0.618523
O O4 0.035575 0.775839 0.679498
O O5 0.250000 0.096120 0.208025
O O6 0.451945 0.183144 0.161386
O O7 0.443028 0.000000 0.160404
O O8 0.750000 0.609143 0.059636
O O9 0.554689 0.500000 0.085918
O O10 0.515280 0.661556 0.117856
O O11 0.500000 0.610303 0.000000
O O12 0.250000 0.292525 0.145923
O O13 0.431371 0.316748 0.236496
O O14 0.500000 0.139894 0.500000
O O15 0.250000 0.134553 0.436468
O O16 0.387031 0.000000 0.464125
O O17 0.500000 0.367211 0.500000
O O18 0.250000 0.396579 0.450221
O O19 0.459995 0.500000 0.431955
O O20 0.442469 0.359950 0.368803
O O21 0.750000 0.733437 0.682790
#
# Coordination Sequence:
#
# PCOD9403028 Si02
#       7
#     8   8   8   8   8   8   8
#     4  11  21  31  46  69  96 125 161 206 256 310
#     4   9  18  34  55  77 104 141 181 219 263 316
#     4  10  21  37  58  85 117 152 186 220 263 318
#     4   9  18  33  55  83 112 143 181 227 276 322
#     4  10  20  33  47  62  83 113 151 197 250 308
#     4   9  18  33  52  72  94 125 168 216 266 323
#     4   9  19  35  52  71  99 134 171 212 261 316
#
# _framework density 17.856598999999999
#
# number of rings (size 3 to 8) (size 9 to 14) (size 15 to 20)
#    0.000    2.429    0.000    3.429    0.000    7.714 
#    0.000    2.857    0.000    2.143    0.000    0.000 
#    0.000    0.000    0.000    0.000    0.000    0.000 
#
# Total GULP energy -311761.057372 kJ/mol
# GULP energy per Si atom -5567.161739 kJ/mol
# Density = 1.781596 g / cm^3
# Si number density = 17.856599 Si / 1000 Ang^3
#
#
#
# Elastic Constant Matrix: (Units=GPa)
#
#
# Indices 1 2 3 4 5 6 
#
# 1 101.9181 53.9031 56.5707 0.0000 0.0000 0.0000
# 2 53.9031 97.4350 64.4828 0.0000 0.0000 0.0000
# 3 56.5707 64.4828 85.0693 0.0000 0.0000 0.0000
# 4 0.0000 0.0000 0.0000 19.1207 0.0000 0.0000
# 5 0.0000 0.0000 0.0000 0.0000 31.2623 0.0000
# 6 0.0000 0.0000 0.0000 0.0000 0.0000 21.1364
#
#
#
# Elastic Compliance Matrix: (Units=1/GPa)
#
#
# Indices 1 2 3 4 5 6 
#
# 1 0.016182 -0.003673 -0.007977 0.000000 0.000000 0.000000
# 2 -0.003673 0.021428 -0.013800 0.000000 0.000000 0.000000
# 3 -0.007977 -0.013800 0.027520 0.000000 0.000000 0.000000
# 4 0.000000 0.000000 0.000000 0.052299 0.000000 0.000000
# 5 0.000000 0.000000 0.000000 0.000000 0.031987 0.000000
# 6 0.000000 0.000000 0.000000 0.000000 0.000000 0.047312
#
#
# Mechanical properties :
#
#
# Convention : Reuss Voigt Hill
#
# Bulk Modulus (GPa) = 70.27156 70.48171 70.37663
# Shear Modulus (GPa) = 19.81202 21.60160 20.70681
#
# Velocity S-wave (km/s) = 3.33454 3.48189 3.40901
# Velocity P-wave (km/s) = 7.36643 7.46467 7.41571
#
# Compressibility (1/GPa) = 0.01423051
#
# Stress axis : x y z
#
# Youngs Moduli (GPa) = 61.79683 46.66729 36.33726
#
# Poissons Ratio (x) = 0.17142 0.28985
# Poissons Ratio (y) = 0.22700 0.50145
# Poissons Ratio (z) = 0.49293 0.64401
#
# Static dielectric constant tensor:
#      x y z
#    x 1.627700 0.000000 0.000000 
#    y 0.000000 1.688200 0.000000 
#    z 0.000000 0.000000 1.597520 
# 
# From -- ./inp_files/31944.got.cif
#   From: 2010.05.17/outbox.cif.g08.bks.cpg/sg51_16_cif.got.tgz:31944.got - 2010.06.03 11:52:47.
