data_PCOD9403286
_publ_section_title
;
Structure prediction by ZEFSAII (Michael W. Deem and Ramdas Pophale) SiO2 
 PCOD9403286
Probable space group: P M M A
;
_chemical_formula_sum "Si O2"
_cell_formula_units_Z 40
_cell_length_a 20.902211
_cell_length_b 7.739373
_cell_length_c 13.246088
_cell_angle_alpha 90.000000
_cell_angle_beta 90.000000
_cell_angle_gamma 90.000000
_cell_volume 2142.819754
_symmetry_space_group_name_H-M "P M M A"
_symmetry_group_IT_number 51
_symmetry_cell_setting 'orthorhombic'
loop_
_space_group_symop_operation_xyz
x,y,z
1/2-x,-y,z
1/2+x,-y,-z
-x,y,-z
-x,-y,-z
1/2+x,y,-z
1/2-x,y,z
x,-y,z
loop_
_atom_site_type_symbol
_atom_site_label
_atom_site_fract_x
_atom_site_fract_y
_atom_site_fract_z
Si Si1 0.931265 0.203944 0.537049
Si Si2 0.178842 0.294177 0.617796
Si Si3 0.452189 0.291138 0.237013
Si Si4 0.923465 0.701697 0.977486
Si Si5 0.598117 0.287698 0.194720
O O1 0.872253 0.267780 0.470799
O O2 0.924346 0.239017 0.655749
O O3 0.000000 0.278150 0.500000
O O4 0.933717 0.000000 0.520974
O O5 0.250000 0.225411 0.597459
O O6 0.183954 0.500000 0.630544
O O7 0.148444 0.227218 0.722372
O O8 0.452159 0.500000 0.231827
O O9 0.417182 0.225271 0.135343
O O10 0.526714 0.236475 0.230367
O O11 0.904512 0.500000 0.972153
O O12 0.892237 0.773842 0.079500
O O13 0.000000 0.705280 0.000000
O O14 0.598311 0.500000 0.192224
#
# Coordination Sequence:
#
# PCOD9403286 Si02
#       5
#     8   8   8   8   8
#     4  11  22  33  47  69  99 133 169 206 246 292
#     4  10  20  33  51  74  97 125 163 204 248 298
#     4   9  15  26  48  72  94 125 161 199 242 284
#     4   7  11  20  39  69  96 119 149 186 236 289
#     4   8  13  24  44  70  98 122 150 194 245 291
#
# _framework density 18.666990999999999
#
# number of rings (size 3 to 8) (size 9 to 14) (size 15 to 20)
#    0.000    3.000    2.000    3.000    0.000    1.200 
#    0.000    0.000    0.000    7.800    0.000    5.600 
#    0.000    0.000    0.000    0.000    0.000    0.000 
#
# Total GULP energy -222759.908787 kJ/mol
# GULP energy per Si atom -5568.997720 kJ/mol
# Density = 1.862450 g / cm^3
# Si number density = 18.666991 Si / 1000 Ang^3
#
#
#
# Elastic Constant Matrix: (Units=GPa)
#
#
# Indices 1 2 3 4 5 6 
#
# 1 105.6178 8.9723 86.3267 0.0000 0.0000 0.0000
# 2 8.9723 25.9601 -3.4806 0.0000 0.0000 0.0000
# 3 86.3267 -3.4806 180.7961 0.0000 0.0000 0.0000
# 4 0.0000 0.0000 0.0000 85.8028 0.0000 0.0000
# 5 0.0000 0.0000 0.0000 0.0000 16.2770 0.0000
# 6 0.0000 0.0000 0.0000 0.0000 0.0000 -21.5976
#
#
#
# Elastic Compliance Matrix: (Units=1/GPa)
#
#
# Indices 1 2 3 4 5 6 
#
# 1 0.016658 -0.006841 -0.008086 0.000000 0.000000 0.000000
# 2 -0.006841 0.041430 0.004064 0.000000 0.000000 0.000000
# 3 -0.008086 0.004064 0.009470 0.000000 0.000000 0.000000
# 4 0.000000 0.000000 0.000000 0.011655 0.000000 0.000000
# 5 0.000000 0.000000 0.000000 0.000000 0.061436 0.000000
# 6 0.000000 0.000000 0.000000 0.000000 0.000000 -0.046301
#
#
# Mechanical properties :
#
#
# Convention : Reuss Voigt Hill
#
# Bulk Modulus (GPa) = 21.81849 55.11230 38.46539
# Shear Modulus (GPa) = 38.06594 30.80014 34.43304
#
# Velocity S-wave (km/s) = 4.52066 4.06640 4.29953
# Velocity P-wave (km/s) = 6.24197 7.18578 6.73044
#
# Compressibility (1/GPa) = 0.04583268
#
# Stress axis : x y z
#
# Youngs Moduli (GPa) = 60.03097 24.13702 105.59583
#
# Poissons Ratio (x) = 0.16513 0.85381
# Poissons Ratio (y) = 0.41070 -0.42917
# Poissons Ratio (z) = 0.48539 -0.09810
#
# Static dielectric constant tensor:
#      x y z
#    x 1.633490 0.000000 0.000000 
#    y 0.000000 1.680000 0.000000 
#    z 0.000000 0.000000 1.687430 
# 
# From -- ./inp_files/17900.got.cif
#   From: 2010.05.17/outbox.cif.g08.bks.cpg/sg51_9_cif.got.tgz:17900.got - 2010.06.03 11:52:47.
