data_PCOD9403604
_publ_section_title
;
Structure prediction by ZEFSAII (Michael W. Deem and Ramdas Pophale) SiO2 
 PCOD9403604
Probable space group: P M M A
;
_chemical_formula_sum "Si O2"
_cell_formula_units_Z 64
_cell_length_a 35.594820
_cell_length_b 7.495905
_cell_length_c 11.106132
_cell_angle_alpha 90.000000
_cell_angle_beta 90.000000
_cell_angle_gamma 90.000000
_cell_volume 2963.286932
_symmetry_space_group_name_H-M "P M M A"
_symmetry_group_IT_number 51
_symmetry_cell_setting 'orthorhombic'
loop_
_space_group_symop_operation_xyz
x,y,z
1/2-x,-y,z
1/2+x,-y,-z
-x,y,-z
-x,-y,-z
1/2+x,y,-z
1/2-x,y,z
x,-y,z
loop_
_atom_site_type_symbol
_atom_site_label
_atom_site_fract_x
_atom_site_fract_y
_atom_site_fract_z
Si Si1 0.944103 0.207217 0.544426
Si Si2 0.208545 0.209732 0.749564
Si Si3 0.632545 0.283674 0.653099
Si Si4 0.052703 0.219201 0.722891
Si Si5 0.208552 0.284133 0.467142
Si Si6 0.898141 0.707988 0.910245
Si Si7 0.525412 0.784152 0.800960
Si Si8 0.629599 0.204561 0.167871
O O1 0.899249 0.221501 0.559936
O O2 0.955117 0.278716 0.414176
O O3 0.960603 0.281530 0.668863
O O4 0.955305 0.000000 0.544014
O O5 0.250000 0.285766 0.779731
O O6 0.204050 0.226594 0.605548
O O7 0.170613 0.285678 0.808379
O O8 0.210219 0.000000 0.781057
O O9 0.631604 0.500000 0.653397
O O10 0.673559 0.223535 0.612369
O O11 0.619801 0.222351 0.785591
O O12 0.093371 0.284290 0.764994
O O13 0.017972 0.270592 0.808327
O O14 0.053554 0.000000 0.722684
O O15 0.250000 0.225736 0.425994
O O16 0.208099 0.500000 0.466465
O O17 0.888970 0.500000 0.919615
O O18 0.943090 0.726099 0.895201
O O19 0.881570 0.796226 0.028308
O O20 0.526563 0.000000 0.802401
O O21 0.632222 0.000000 0.211712
#
# Coordination Sequence:
#
# PCOD9403604 Si02
#       8
#     8   8   8   8   8   8   8   8
#     4   9  16  28  49  74  96 120 154 195 238 288
#     4   9  18  33  53  77 104 129 152 187 238 288
#     4   9  18  32  48  67  94 126 156 192 240 285
#     4   9  17  29  48  74  99 123 156 198 239 283
#     4   9  17  30  50  75 100 124 151 185 230 288
#     4  10  21  36  50  66  93 128 167 208 243 277
#     4   9  17  31  51  72  95 125 159 196 241 290
#     4  10  20  34  51  70  95 129 166 199 234 280
#
# _framework density 21.597638
#
# number of rings (size 3 to 8) (size 9 to 14) (size 15 to 20)
#    0.000    2.750    0.000    1.500    0.000    4.500 
#    0.000    5.000    0.000    3.750    0.000    0.000 
#    0.000    0.000    0.000    0.000    0.000    0.000 
#
# Total GULP energy -357124.637249 kJ/mol
# GULP energy per Si atom -5580.072457 kJ/mol
# Density = 2.154848 g / cm^3
# Si number density = 21.597638 Si / 1000 Ang^3
#
#
#
# Elastic Constant Matrix: (Units=GPa)
#
#
# Indices 1 2 3 4 5 6 
#
# 1 171.6611 4.4892 35.9834 0.0000 0.0000 0.0000
# 2 4.4892 60.2971 -6.2708 0.0000 0.0000 0.0000
# 3 35.9834 -6.2708 47.7831 0.0000 0.0000 0.0000
# 4 0.0000 0.0000 0.0000 18.8776 0.0000 0.0000
# 5 0.0000 0.0000 0.0000 0.0000 24.2932 0.0000
# 6 0.0000 0.0000 0.0000 0.0000 0.0000 22.9746
#
#
#
# Elastic Compliance Matrix: (Units=1/GPa)
#
#
# Indices 1 2 3 4 5 6 
#
# 1 0.006986 -0.001082 -0.005403 0.000000 0.000000 0.000000
# 2 -0.001082 0.016982 0.003043 0.000000 0.000000 0.000000
# 3 -0.005403 0.003043 0.025396 0.000000 0.000000 0.000000
# 4 0.000000 0.000000 0.000000 0.052973 0.000000 0.000000
# 5 0.000000 0.000000 0.000000 0.000000 0.041164 0.000000
# 6 0.000000 0.000000 0.000000 0.000000 0.000000 0.043526
#
#
# Mechanical properties :
#
#
# Convention : Reuss Voigt Hill
#
# Bulk Modulus (GPa) = 23.54015 38.68277 31.11146
# Shear Modulus (GPa) = 24.03028 29.59837 26.81433
#
# Velocity S-wave (km/s) = 3.33924 3.70597 3.52737
# Velocity P-wave (km/s) = 5.07843 6.02178 5.57011
#
# Compressibility (1/GPa) = 0.04248062
#
# Stress axis : x y z
#
# Youngs Moduli (GPa) = 143.13680 58.88723 39.37601
#
# Poissons Ratio (x) = 0.06372 0.21275
# Poissons Ratio (y) = 0.15488 -0.11984
# Poissons Ratio (z) = 0.77338 -0.17922
#
# Static dielectric constant tensor:
#      x y z
#    x 1.814800 0.000000 0.000000 
#    y 0.000000 1.821010 0.000000 
#    z 0.000000 0.000000 1.751470 
# 
# From -- ./inp_files/19607.got.cif
#   From: 2010.05.17/outbox.cif.g08.bks.cpg/sg51_10_cif.got.tgz:19607.got - 2010.06.03 11:52:47.
