data_PCOD9403595
_publ_section_title
;
Structure prediction by ZEFSAII (Michael W. Deem and Ramdas Pophale) SiO2 
 PCOD9403595
Probable space group: P M M A
;
_chemical_formula_sum "Si O2"
_cell_formula_units_Z 40
_cell_length_a 9.909412
_cell_length_b 13.548485
_cell_length_c 15.671068
_cell_angle_alpha 90.000000
_cell_angle_beta 90.000000
_cell_angle_gamma 90.000000
_cell_volume 2103.958723
_symmetry_space_group_name_H-M "P M M A"
_symmetry_group_IT_number 51
_symmetry_cell_setting 'orthorhombic'
loop_
_space_group_symop_operation_xyz
x,y,z
1/2-x,-y,z
1/2+x,-y,-z
-x,y,-z
-x,-y,-z
1/2+x,y,-z
1/2-x,y,z
x,-y,z
loop_
_atom_site_type_symbol
_atom_site_label
_atom_site_fract_x
_atom_site_fract_y
_atom_site_fract_z
Si Si1 0.903705 0.187118 0.269998
Si Si2 0.093707 0.118992 0.421075
Si Si3 0.041782 0.382749 0.799941
Si Si4 0.094170 0.119339 0.922222
Si Si5 0.750000 0.619076 0.861703
Si Si6 0.250000 0.381590 0.946861
O O1 0.750000 0.151260 0.287551
O O2 0.902452 0.306303 0.268424
O O3 0.940346 0.154427 0.173329
O O4 0.013369 0.148860 0.336046
O O5 0.250000 0.153840 0.424295
O O6 0.000000 0.153115 0.500000
O O7 0.098439 0.000000 0.424545
O O8 0.058349 0.500000 0.782692
O O9 0.120428 0.360663 0.888467
O O10 0.886179 0.356468 0.813383
O O11 0.250000 0.148367 0.937189
O O12 0.088148 0.000000 0.921325
O O13 0.000000 0.153907 0.000000
O O14 0.750000 0.500000 0.867547
O O15 0.750000 0.658764 0.958038
O O16 0.250000 0.500000 0.956125
#
# Coordination Sequence:
#
# PCOD9403595 Si02
#       6
#     8   8   8   8   4   4
#     4  11  22  36  56  85 115 154 195 236 286 339
#     4  10  22  41  67  96 121 144 175 226 289 349
#     4  10  20  34  50  75 110 151 196 242 294 341
#     4   9  19  35  52  73 106 149 193 235 280 333
#     4   9  18  30  48  70  98 143 198 254 298 331
#     4   9  16  30  48  68 100 145 198 248 294 337
#
# _framework density 19.011780000000002
#
# number of rings (size 3 to 8) (size 9 to 14) (size 15 to 20)
#    0.000    2.200    1.000    1.800    1.400    6.800 
#    0.000    2.000    0.000    0.600    0.000    0.000 
#    0.000    0.000    0.000    0.000    0.000    0.000 
#
# Total GULP energy -223185.147631 kJ/mol
# GULP energy per Si atom -5579.628691 kJ/mol
# Density = 1.896851 g / cm^3
# Si number density = 19.011780 Si / 1000 Ang^3
#
#
#
# Elastic Constant Matrix: (Units=GPa)
#
#
# Indices 1 2 3 4 5 6 
#
# 1 164.9218 20.0742 79.4947 0.0000 0.0000 0.0000
# 2 20.0742 36.3290 18.0617 0.0000 0.0000 0.0000
# 3 79.4947 18.0617 109.5374 0.0000 0.0000 0.0000
# 4 0.0000 0.0000 0.0000 14.1502 0.0000 0.0000
# 5 0.0000 0.0000 0.0000 0.0000 25.7968 0.0000
# 6 0.0000 0.0000 0.0000 0.0000 0.0000 22.6119
#
#
#
# Elastic Compliance Matrix: (Units=1/GPa)
#
#
# Indices 1 2 3 4 5 6 
#
# 1 0.009454 -0.001975 -0.006535 0.000000 0.000000 0.000000
# 2 -0.001975 0.030397 -0.003579 0.000000 0.000000 0.000000
# 3 -0.006535 -0.003579 0.014462 0.000000 0.000000 0.000000
# 4 0.000000 0.000000 0.000000 0.070670 0.000000 0.000000
# 5 0.000000 0.000000 0.000000 0.000000 0.038765 0.000000
# 6 0.000000 0.000000 0.000000 0.000000 0.000000 0.044225
#
#
# Mechanical properties :
#
#
# Convention : Reuss Voigt Hill
#
# Bulk Modulus (GPa) = 33.18424 60.67215 46.92820
# Shear Modulus (GPa) = 20.64443 25.38895 23.01669
#
# Velocity S-wave (km/s) = 3.29884 3.65832 3.48322
# Velocity P-wave (km/s) = 5.65705 7.05880 6.39644
#
# Compressibility (1/GPa) = 0.03013478
#
# Stress axis : x y z
#
# Youngs Moduli (GPa) = 105.77496 32.89825 69.14465
#
# Poissons Ratio (x) = 0.06497 0.45189
# Poissons Ratio (y) = 0.20888 0.24747
# Poissons Ratio (z) = 0.69129 0.11774
#
# Static dielectric constant tensor:
#      x y z
#    x 2.523140 0.000000 0.000000 
#    y 0.000000 1.707570 0.000000 
#    z 0.000000 0.000000 1.628690 
# 
# From -- ./inp_files/20532.got.cif
#   From: 2010.05.17/outbox.cif.g08.bks.cpg/sg51_11_cif.got.tgz:20532.got - 2010.06.03 11:52:47.
