data_PCOD9403102
_publ_section_title
;
Structure prediction by ZEFSAII (Michael W. Deem and Ramdas Pophale) SiO2 
 PCOD9403102
Probable space group: P M M A
;
_chemical_formula_sum "Si O2"
_cell_formula_units_Z 64
_cell_length_a 7.649924
_cell_length_b 21.231822
_cell_length_c 19.044596
_cell_angle_alpha 90.000000
_cell_angle_beta 90.000000
_cell_angle_gamma 90.000000
_cell_volume 3093.258033
_symmetry_space_group_name_H-M "P M M A"
_symmetry_group_IT_number 51
_symmetry_cell_setting 'orthorhombic'
loop_
_space_group_symop_operation_xyz
x,y,z
1/2-x,-y,z
1/2+x,-y,-z
-x,y,-z
-x,-y,-z
1/2+x,y,-z
1/2-x,y,z
x,-y,z
loop_
_atom_site_type_symbol
_atom_site_label
_atom_site_fract_x
_atom_site_fract_y
_atom_site_fract_z
Si Si1 0.535202 0.690994 0.832423
Si Si2 0.539543 0.428947 0.581068
Si Si3 0.039319 0.929195 0.174143
Si Si4 0.459603 0.070797 0.663412
Si Si5 0.039991 0.186765 0.082113
Si Si6 0.959899 0.570566 0.918717
Si Si7 0.042896 0.313787 0.326816
Si Si8 0.958111 0.807837 0.418178
O O1 0.750000 0.691558 0.833143
O O2 0.476647 0.750643 0.878222
O O3 0.476960 0.626069 0.868571
O O4 0.475109 0.695261 0.752000
O O5 0.500000 0.413460 0.500000
O O6 0.750000 0.430593 0.587475
O O7 0.474293 0.500000 0.595203
O O8 0.470837 0.374770 0.632351
O O9 0.250000 0.930806 0.168887
O O10 0.973410 0.875663 0.121683
O O11 0.996137 0.914171 0.255052
O O12 0.973958 0.000000 0.159258
O O13 0.250000 0.068229 0.654870
O O14 0.528061 0.126670 0.614336
O O15 0.527963 0.000000 0.649169
O O16 0.250000 0.186399 0.089123
O O17 0.000000 0.187427 0.000000
O O18 0.750000 0.568531 0.911791
O O19 0.027213 0.500000 0.903441
O O20 0.000000 0.584973 0.000000
O O21 0.250000 0.324620 0.319228
O O22 0.020910 0.251836 0.373754
O O23 0.750000 0.808929 0.410805
O O24 0.000000 0.801706 0.500000
#
# Coordination Sequence:
#
# PCOD9403102 Si02
#       8
#     8   8   8   8   8   8   8   8
#     4   9  18  32  50  72  97 127 163 204 249 295
#     4   9  18  32  51  75 101 130 164 202 245 294
#     4   9  18  33  53  76 101 130 164 202 246 297
#     4   9  19  36  56  78 104 133 166 206 251 298
#     4  10  20  33  49  70  98 130 165 204 245 292
#     4   9  17  30  49  72  98 129 165 204 246 294
#     4  10  20  35  55  76 101 134 171 211 255 303
#     4  11  23  37  54  77 105 135 169 209 251 298
#
# _framework density 20.690158
#
# number of rings (size 3 to 8) (size 9 to 14) (size 15 to 20)
#    0.000    2.500    0.000    1.875    0.000    5.000 
#    0.000    3.750    0.000    0.000    0.000    3.500 
#    0.000    0.000    0.000    0.000    0.000    0.000 
#
# Total GULP energy -357343.927522 kJ/mol
# GULP energy per Si atom -5583.498868 kJ/mol
# Density = 2.064307 g / cm^3
# Si number density = 20.690158 Si / 1000 Ang^3
#
#
#
# Elastic Constant Matrix: (Units=GPa)
#
#
# Indices 1 2 3 4 5 6 
#
# 1 36.3615 -1.9602 -10.1298 0.0000 0.0000 0.0000
# 2 -1.9602 163.5599 129.4579 0.0000 0.0000 0.0000
# 3 -10.1298 129.4579 165.8648 0.0000 0.0000 0.0000
# 4 0.0000 0.0000 0.0000 44.6959 0.0000 0.0000
# 5 0.0000 0.0000 0.0000 0.0000 4.6035 0.0000
# 6 0.0000 0.0000 0.0000 0.0000 0.0000 10.9182
#
#
#
# Elastic Compliance Matrix: (Units=1/GPa)
#
#
# Indices 1 2 3 4 5 6 
#
# 1 0.028427 -0.002704 0.003846 0.000000 0.000000 0.000000
# 2 -0.002704 0.016253 -0.012850 0.000000 0.000000 0.000000
# 3 0.003846 -0.012850 0.016294 0.000000 0.000000 0.000000
# 4 0.000000 0.000000 0.000000 0.022373 0.000000 0.000000
# 5 0.000000 0.000000 0.000000 0.000000 0.217226 0.000000
# 6 0.000000 0.000000 0.000000 0.000000 0.000000 0.091590
#
#
# Mechanical properties :
#
#
# Convention : Reuss Voigt Hill
#
# Bulk Modulus (GPa) = 26.62525 66.72465 46.67495
# Shear Modulus (GPa) = 11.67956 28.60474 20.14215
#
# Velocity S-wave (km/s) = 2.37850 3.72227 3.12350
# Velocity P-wave (km/s) = 4.52100 7.12694 5.96794
#
# Compressibility (1/GPa) = 0.03755834
#
# Stress axis : x y z
#
# Youngs Moduli (GPa) = 35.17731 61.52853 61.37365
#
# Poissons Ratio (x) = 0.16636 -0.23607
# Poissons Ratio (y) = 0.09511 0.78867
# Poissons Ratio (z) = -0.13531 0.79066
#
# Static dielectric constant tensor:
#      x y z
#    x 1.774090 0.000000 0.000000 
#    y 0.000000 1.749790 0.000000 
#    z 0.000000 0.000000 1.680850 
# 
# From -- ./inp_files/28470.got.cif
#   From: 2010.05.17/outbox.cif.g08.bks.cpg/sg51_15_cif.got.tgz:28470.got - 2010.06.03 11:52:47.
