data_PCOD9403750
_publ_section_title
;
Structure prediction by ZEFSAII (Michael W. Deem and Ramdas Pophale) SiO2 
 PCOD9403750
Probable space group: P M M A
;
_chemical_formula_sum "Si O2"
_cell_formula_units_Z 64
_cell_length_a 18.894255
_cell_length_b 7.531835
_cell_length_c 20.679801
_cell_angle_alpha 90.000000
_cell_angle_beta 90.000000
_cell_angle_gamma 90.000000
_cell_volume 2942.909622
_symmetry_space_group_name_H-M "P M M A"
_symmetry_group_IT_number 51
_symmetry_cell_setting 'orthorhombic'
loop_
_space_group_symop_operation_xyz
x,y,z
1/2-x,-y,z
1/2+x,-y,-z
-x,y,-z
-x,-y,-z
1/2+x,y,-z
1/2-x,y,z
x,-y,z
loop_
_atom_site_type_symbol
_atom_site_label
_atom_site_fract_x
_atom_site_fract_y
_atom_site_fract_z
Si Si1 0.441279 0.205093 0.901306
Si Si2 0.918179 0.288667 0.240800
Si Si3 0.670380 0.786953 0.364343
Si Si4 0.097572 0.785158 0.131954
Si Si5 0.073733 0.292130 0.275570
Si Si6 0.576783 0.790203 0.480993
Si Si7 0.171459 0.782663 0.003709
Si Si8 0.831202 0.284732 0.606580
O O1 0.406149 0.212621 0.830503
O O2 0.519888 0.280709 0.891025
O O3 0.389550 0.281736 0.955225
O O4 0.452735 0.000000 0.920030
O O5 0.924589 0.500000 0.232714
O O6 0.858519 0.250247 0.293028
O O7 0.994122 0.218055 0.267259
O O8 0.750000 0.718943 0.374353
O O9 0.614554 0.716082 0.417018
O O10 0.673192 0.000000 0.372274
O O11 0.109350 0.724774 0.205162
O O12 0.095459 0.000000 0.134276
O O13 0.152705 0.732333 0.077096
O O14 0.064619 0.500000 0.290201
O O15 0.121866 0.218671 0.332944
O O16 0.500000 0.714727 0.500000
O O17 0.630002 0.768276 0.540708
O O18 0.565943 0.000000 0.468954
O O19 0.250000 0.724497 0.985281
O O20 0.170950 0.000000 0.001258
O O21 0.750000 0.223074 0.608963
O O22 0.829548 0.500000 0.608905
#
# Coordination Sequence:
#
# PCOD9403750 Si02
#       8
#     8   8   8   8   8   8   8   8
#     4   9  17  31  51  72  97 131 166 202 250 303
#     4  10  20  34  53  76 101 131 170 214 253 293
#     4  10  21  36  53  75 105 137 166 201 250 305
#     4   9  17  30  50  74  97 125 166 210 247 293
#     4   9  19  35  52  73 103 136 169 207 253 302
#     4  10  21  37  58  82 106 134 171 215 259 303
#     4   9  17  29  47  72  99 126 161 206 252 298
#     4  10  21  36  54  77 106 140 175 210 252 306
#
# _framework density 21.747184000000001
#
# number of rings (size 3 to 8) (size 9 to 14) (size 15 to 20)
#    0.000    2.500    0.000    1.875    0.000    5.250 
#    0.000    1.875    0.000    3.750    0.000    0.000 
#    0.000    0.000    0.000    0.000    0.000    0.000 
#
# Total GULP energy -357395.581553 kJ/mol
# GULP energy per Si atom -5584.305962 kJ/mol
# Density = 2.169769 g / cm^3
# Si number density = 21.747184 Si / 1000 Ang^3
#
#
#
# Elastic Constant Matrix: (Units=GPa)
#
#
# Indices 1 2 3 4 5 6 
#
# 1 52.2708 -3.0534 9.5618 0.0000 0.0000 0.0000
# 2 -3.0534 53.1390 -20.2487 0.0000 0.0000 0.0000
# 3 9.5618 -20.2487 57.5282 0.0000 0.0000 0.0000
# 4 0.0000 0.0000 0.0000 19.2079 0.0000 0.0000
# 5 0.0000 0.0000 0.0000 0.0000 5.2822 0.0000
# 6 0.0000 0.0000 0.0000 0.0000 0.0000 48.0276
#
#
#
# Elastic Compliance Matrix: (Units=1/GPa)
#
#
# Indices 1 2 3 4 5 6 
#
# 1 0.019732 -0.000134 -0.003327 0.000000 0.000000 0.000000
# 2 -0.000134 0.021734 0.007672 0.000000 0.000000 0.000000
# 3 -0.003327 0.007672 0.020636 0.000000 0.000000 0.000000
# 4 0.000000 0.000000 0.000000 0.052062 0.000000 0.000000
# 5 0.000000 0.000000 0.000000 0.000000 0.189315 0.000000
# 6 0.000000 0.000000 0.000000 0.000000 0.000000 0.020821
#
#
# Mechanical properties :
#
#
# Convention : Reuss Voigt Hill
#
# Bulk Modulus (GPa) = 14.17921 15.05084 14.61502
# Shear Modulus (GPa) = 14.73248 26.28210 20.50729
#
# Velocity S-wave (km/s) = 2.60560 3.48016 3.07414
# Velocity P-wave (km/s) = 3.94796 4.80464 4.39721
#
# Compressibility (1/GPa) = 0.07052581
#
# Stress axis : x y z
#
# Youngs Moduli (GPa) = 50.67944 46.00996 48.45857
#
# Poissons Ratio (x) = 0.00616 0.16121
# Poissons Ratio (y) = 0.00678 -0.37179
# Poissons Ratio (z) = 0.16860 -0.35300
#
# Static dielectric constant tensor:
#      x y z
#    x 1.788370 0.000000 0.000000 
#    y 0.000000 1.836980 0.000000 
#    z 0.000000 0.000000 1.753760 
# 
# From -- ./inp_files/30521.got.cif
#   From: 2010.05.17/outbox.cif.g08.bks.cpg/sg51_16_cif.got.tgz:30521.got - 2010.06.03 11:52:47.
