data_PCOD9403417
_publ_section_title
;
Structure prediction by ZEFSAII (Michael W. Deem and Ramdas Pophale) SiO2 
 PCOD9403417
Probable space group: P M M A
;
_chemical_formula_sum "Si O2"
_cell_formula_units_Z 44
_cell_length_a 8.706067
_cell_length_b 29.132747
_cell_length_c 9.610748
_cell_angle_alpha 90.000000
_cell_angle_beta 90.000000
_cell_angle_gamma 90.000000
_cell_volume 2437.589847
_symmetry_space_group_name_H-M "P M M A"
_symmetry_group_IT_number 51
_symmetry_cell_setting 'orthorhombic'
loop_
_space_group_symop_operation_xyz
x,y,z
1/2-x,-y,z
1/2+x,-y,-z
-x,y,-z
-x,-y,-z
1/2+x,y,-z
1/2-x,y,z
x,-y,z
loop_
_atom_site_type_symbol
_atom_site_label
_atom_site_fract_x
_atom_site_fract_y
_atom_site_fract_z
Si Si1 0.934561 0.811345 0.653424
Si Si2 0.434333 0.267909 0.845097
Si Si3 0.066095 0.644887 0.656287
Si Si4 0.064304 0.000000 0.153855
Si Si5 0.565132 0.083190 0.651736
Si Si6 0.065822 0.449956 0.342774
O O1 0.750000 0.808158 0.649962
O O2 0.978722 0.864249 0.685194
O O3 0.000000 0.800357 0.500000
O O4 0.001123 0.776446 0.765476
O O5 0.250000 0.265496 0.850352
O O6 0.477374 0.312503 0.753385
O O7 0.500000 0.271030 0.000000
O O8 0.250000 0.642485 0.645874
O O9 0.000000 0.650882 0.500000
O O10 0.003833 0.596704 0.717294
O O11 0.014181 0.045408 0.237546
O O12 0.250000 0.000000 0.149567
O O13 0.000000 0.000000 0.000000
O O14 0.500000 0.071927 0.500000
O O15 0.750000 0.081792 0.644501
O O16 0.250000 0.446207 0.348194
O O17 0.026771 0.500000 0.279558
O O18 0.000000 0.450951 0.500000
#
# Coordination Sequence:
#
# PCOD9403417 Si02
#       6
#     8   8   8   4   8   8
#     4  10  20  36  58  83 109 138 175 219 265 316
#     4  11  24  39  55  77 105 140 178 218 267 318
#     4  10  20  33  52  77 103 134 172 212 257 308
#     4  10  21  36  52  76 110 144 179 218 260 308
#     4   9  19  35  56  81 107 137 175 217 261 310
#     4   9  16  26  44  72 103 133 166 207 255 303
#
# _framework density 18.050616000000002
#
# number of rings (size 3 to 8) (size 9 to 14) (size 15 to 20)
#    0.000    2.182    0.000    4.091    0.000    7.636 
#    0.000    1.818    0.000    0.545    0.000    0.000 
#    0.000    0.000    0.000    0.000    0.000    0.000 
#
# Total GULP energy -245521.480514 kJ/mol
# GULP energy per Si atom -5580.033648 kJ/mol
# Density = 1.800953 g / cm^3
# Si number density = 18.050616 Si / 1000 Ang^3
#
#
#
# Elastic Constant Matrix: (Units=GPa)
#
#
# Indices 1 2 3 4 5 6 
#
# 1 43.0786 48.3796 38.9159 0.0000 0.0000 0.0000
# 2 48.3796 161.3952 111.4598 0.0000 0.0000 0.0000
# 3 38.9159 111.4598 119.8931 0.0000 0.0000 0.0000
# 4 0.0000 0.0000 0.0000 -2.9260 0.0000 0.0000
# 5 0.0000 0.0000 0.0000 0.0000 29.5972 0.0000
# 6 0.0000 0.0000 0.0000 0.0000 0.0000 21.1535
#
#
#
# Elastic Compliance Matrix: (Units=1/GPa)
#
#
# Indices 1 2 3 4 5 6 
#
# 1 0.035880 -0.007577 -0.004602 0.000000 0.000000 0.000000
# 2 -0.007577 0.018909 -0.015119 0.000000 0.000000 0.000000
# 3 -0.004602 -0.015119 0.023890 0.000000 0.000000 0.000000
# 4 0.000000 0.000000 0.000000 -0.341762 0.000000 0.000000
# 5 0.000000 0.000000 0.000000 0.000000 0.033787 0.000000
# 6 0.000000 0.000000 0.000000 0.000000 0.000000 0.047274
#
#
# Mechanical properties :
#
#
# Convention : Reuss Voigt Hill
#
# Bulk Modulus (GPa) = 41.52421 80.20859 60.86640
# Shear Modulus (GPa) = -41.87665 17.93904 -11.96880
#
# Velocity S-wave (km/s) = -4.82182 3.15591 -2.57781
# Velocity P-wave (km/s) = 2.81880 7.60339 4.99329
#
# Compressibility (1/GPa) = 0.02408234
#
# Stress axis : x y z
#
# Youngs Moduli (GPa) = 27.87034 52.88623 41.85845
#
# Poissons Ratio (x) = 0.40073 0.19264
# Poissons Ratio (y) = 0.21118 0.63286
# Poissons Ratio (z) = 0.12826 0.79959
#
# Static dielectric constant tensor:
#      x y z
#    x 1.606470 0.000000 0.000000 
#    y 0.000000 1.656290 0.000000 
#    z 0.000000 0.000000 1.570280 
# 
# From -- ./inp_files/5757.got.cif
#   From: 2010.05.17/outbox.cif.g08.bks.cpg/sg51_3_cif.got.tgz:5757.got - 2010.06.03 11:52:47.
