data_PCOD9403444
_publ_section_title
;
Structure prediction by ZEFSAII (Michael W. Deem and Ramdas Pophale) SiO2 
 PCOD9403444
Probable space group: P M M A
;
_chemical_formula_sum "Si O2"
_cell_formula_units_Z 64
_cell_length_a 23.648273
_cell_length_b 8.976361
_cell_length_c 17.023327
_cell_angle_alpha 90.000000
_cell_angle_beta 90.000000
_cell_angle_gamma 90.000000
_cell_volume 3613.634152
_symmetry_space_group_name_H-M "P M M A"
_symmetry_group_IT_number 51
_symmetry_cell_setting 'orthorhombic'
loop_
_space_group_symop_operation_xyz
x,y,z
1/2-x,-y,z
1/2+x,-y,-z
-x,y,-z
-x,-y,-z
1/2+x,y,-z
1/2-x,y,z
x,-y,z
loop_
_atom_site_type_symbol
_atom_site_label
_atom_site_fract_x
_atom_site_fract_y
_atom_site_fract_z
Si Si1 0.595421 0.169355 0.813460
Si Si2 0.993364 0.676402 0.909179
Si Si3 0.313311 0.677463 0.736618
Si Si4 0.392592 0.324009 0.437723
Si Si5 0.683496 0.824072 0.693107
Si Si6 0.814130 0.822300 0.435501
Si Si7 0.485369 0.828104 0.341627
Si Si8 0.574340 0.178942 0.219294
O O1 0.568061 0.279086 0.875675
O O2 0.657215 0.201555 0.779300
O O3 0.556518 0.173914 0.734465
O O4 0.592678 0.000000 0.843413
O O5 0.002219 0.500000 0.901472
O O6 0.037249 0.761010 0.852753
O O7 0.000000 0.718361 0.000000
O O8 0.250000 0.706954 0.767481
O O9 0.321544 0.500000 0.733422
O O10 0.315559 0.745273 0.649107
O O11 0.363378 0.754833 0.783693
O O12 0.394548 0.500000 0.449661
O O13 0.349464 0.279516 0.367603
O O14 0.364221 0.242246 0.511530
O O15 0.453663 0.263874 0.408892
O O16 0.750000 0.801309 0.690067
O O17 0.671872 0.000000 0.673564
O O18 0.750000 0.795007 0.468808
O O19 0.820309 0.000000 0.427698
O O20 0.543716 0.774459 0.301854
O O21 0.491396 0.000000 0.366788
O O22 0.574222 0.000000 0.218907
#
# Coordination Sequence:
#
# PCOD9403444 Si02
#       8
#     8   8   8   8   8   8   8   8
#     4   8  15  28  46  68  94 125 162 201 239 283
#     4  10  20  33  52  79 107 132 159 195 243 295
#     4  10  21  37  57  80 105 132 164 207 257 305
#     4  11  20  28  43  69  99 130 168 215 260 300
#     4   9  17  29  44  63  91 129 168 202 240 289
#     4  10  20  34  51  69  94 132 175 218 262 305
#     4   8  16  31  48  68  96 130 166 203 247 296
#     4  10  20  35  57  81 104 133 169 207 246 296
#
# _framework density 17.710702999999999
#
# number of rings (size 3 to 8) (size 9 to 14) (size 15 to 20)
#    0.000    2.500    0.000    4.500    0.000    9.250 
#    0.000    0.625    0.000    4.500    0.000    3.500 
#    0.000    0.000    0.000    0.000    0.000    0.000 
#
# Total GULP energy -356877.184766 kJ/mol
# GULP energy per Si atom -5576.206012 kJ/mol
# Density = 1.767039 g / cm^3
# Si number density = 17.710703 Si / 1000 Ang^3
#
#
#
# Elastic Constant Matrix: (Units=GPa)
#
#
# Indices 1 2 3 4 5 6 
#
# 1 71.2041 30.6081 14.8827 0.0000 0.0000 0.0000
# 2 30.6081 62.1288 20.1335 0.0000 0.0000 0.0000
# 3 14.8827 20.1335 37.2228 0.0000 0.0000 0.0000
# 4 0.0000 0.0000 0.0000 26.9351 0.0000 0.0000
# 5 0.0000 0.0000 0.0000 0.0000 17.4558 0.0000
# 6 0.0000 0.0000 0.0000 0.0000 0.0000 17.1046
#
#
#
# Elastic Compliance Matrix: (Units=1/GPa)
#
#
# Indices 1 2 3 4 5 6 
#
# 1 0.018076 -0.007958 -0.002923 0.000000 0.000000 0.000000
# 2 -0.007958 0.023020 -0.009269 0.000000 0.000000 0.000000
# 3 -0.002923 -0.009269 0.033048 0.000000 0.000000 0.000000
# 4 0.000000 0.000000 0.000000 0.037126 0.000000 0.000000
# 5 0.000000 0.000000 0.000000 0.000000 0.057288 0.000000
# 6 0.000000 0.000000 0.000000 0.000000 0.000000 0.058464
#
#
# Mechanical properties :
#
#
# Convention : Reuss Voigt Hill
#
# Bulk Modulus (GPa) = 29.54827 33.53382 31.54105
# Shear Modulus (GPa) = 17.94668 19.29452 18.62060
#
# Velocity S-wave (km/s) = 3.18673 3.30423 3.24601
# Velocity P-wave (km/s) = 5.50094 5.79073 5.64770
#
# Compressibility (1/GPa) = 0.03384293
#
# Stress axis : x y z
#
# Youngs Moduli (GPa) = 55.32221 43.44042 30.25929
#
# Poissons Ratio (x) = 0.34570 0.08844
# Poissons Ratio (y) = 0.44026 0.28049
# Poissons Ratio (z) = 0.16170 0.40267
#
# Static dielectric constant tensor:
#      x y z
#    x 1.658690 0.000000 0.000000 
#    y 0.000000 1.592610 0.000000 
#    z 0.000000 0.000000 1.595210 
# 
# From -- ./inp_files/30962.got.cif
#   From: 2010.05.17/outbox.cif.g08.bks.cpg/sg51_16_cif.got.tgz:30962.got - 2010.06.03 11:52:47.
