data_PCOD9403730
_publ_section_title
;
Structure prediction by ZEFSAII (Michael W. Deem and Ramdas Pophale) SiO2 
 PCOD9403730
Probable space group: P M M A
;
_chemical_formula_sum "Si O2"
_cell_formula_units_Z 64
_cell_length_a 16.152050
_cell_length_b 7.651963
_cell_length_c 24.437783
_cell_angle_alpha 90.000000
_cell_angle_beta 90.000000
_cell_angle_gamma 90.000000
_cell_volume 3020.385077
_symmetry_space_group_name_H-M "P M M A"
_symmetry_group_IT_number 51
_symmetry_cell_setting 'orthorhombic'
loop_
_space_group_symop_operation_xyz
x,y,z
1/2-x,-y,z
1/2+x,-y,-z
-x,y,-z
-x,-y,-z
1/2+x,y,-z
1/2-x,y,z
x,-y,z
loop_
_atom_site_type_symbol
_atom_site_label
_atom_site_fract_x
_atom_site_fract_y
_atom_site_fract_z
Si Si1 0.597263 0.288898 0.940224
Si Si2 0.657338 0.706956 0.430835
Si Si3 0.656772 0.211323 0.558494
Si Si4 0.839551 0.206132 0.178356
Si Si5 0.403850 0.711070 0.938969
Si Si6 0.160715 0.205932 0.176804
Si Si7 0.499286 0.784484 0.241816
Si Si8 0.492524 0.794031 0.366229
O O1 0.600085 0.500000 0.939478
O O2 0.500627 0.237369 0.933933
O O3 0.646431 0.224020 0.888020
O O4 0.625495 0.231828 0.000734
O O5 0.750000 0.776998 0.417763
O O6 0.659309 0.500000 0.422207
O O7 0.642543 0.740488 0.495202
O O8 0.580682 0.776267 0.396082
O O9 0.750000 0.270650 0.573671
O O10 0.582673 0.277983 0.596821
O O11 0.656798 0.000000 0.560790
O O12 0.750000 0.282604 0.192497
O O13 0.855494 0.224477 0.113647
O O14 0.918051 0.277444 0.211093
O O15 0.836796 0.000000 0.190635
O O16 0.401084 0.500000 0.938202
O O17 0.250000 0.282344 0.191718
O O18 0.081352 0.276645 0.208672
O O19 0.163141 0.000000 0.189462
O O20 0.496286 0.725477 0.304522
O O21 0.500157 0.000000 0.240465
O O22 0.475523 0.000000 0.360877
#
# Coordination Sequence:
#
# PCOD9403730 Si02
#       8
#     8   8   8   8   8   8   8   8
#     4   9  18  33  53  76 102 132 167 208 259 315
#     4  10  21  36  54  79 112 145 175 213 263 313
#     4   9  18  33  54  82 113 141 173 215 260 308
#     4  10  20  34  53  75 100 133 172 212 257 311
#     4   9  18  33  53  76 101 131 167 210 260 313
#     4  10  20  34  54  78 103 134 172 211 255 310
#     4   9  19  36  53  74 105 137 171 214 259 299
#     4  10  20  34  56  81 105 140 183 220 257 306
#
# _framework density 21.189352
#
# number of rings (size 3 to 8) (size 9 to 14) (size 15 to 20)
#    0.000    2.500    1.250    1.500    0.000    5.250 
#    0.000    8.750    0.000    0.000    0.000    1.750 
#    0.000    0.000    0.000    0.000    0.000    0.000 
#
# Total GULP energy -357260.818267 kJ/mol
# GULP energy per Si atom -5582.200285 kJ/mol
# Density = 2.114112 g / cm^3
# Si number density = 21.189352 Si / 1000 Ang^3
#
#
#
# Elastic Constant Matrix: (Units=GPa)
#
#
# Indices 1 2 3 4 5 6 
#
# 1 159.9956 -3.0583 83.5236 0.0000 0.0000 0.0000
# 2 -3.0583 35.0912 -12.3525 0.0000 0.0000 0.0000
# 3 83.5236 -12.3525 110.4065 0.0000 0.0000 0.0000
# 4 0.0000 0.0000 0.0000 49.3601 0.0000 0.0000
# 5 0.0000 0.0000 0.0000 0.0000 -12.3716 0.0000
# 6 0.0000 0.0000 0.0000 0.0000 0.0000 4.1656
#
#
#
# Elastic Compliance Matrix: (Units=1/GPa)
#
#
# Indices 1 2 3 4 5 6 
#
# 1 0.010456 -0.001950 -0.008128 0.000000 0.000000 0.000000
# 2 -0.001950 0.030029 0.004835 0.000000 0.000000 0.000000
# 3 -0.008128 0.004835 0.015748 0.000000 0.000000 0.000000
# 4 0.000000 0.000000 0.000000 0.020259 0.000000 0.000000
# 5 0.000000 0.000000 0.000000 0.000000 -0.080830 0.000000
# 6 0.000000 0.000000 0.000000 0.000000 0.000000 0.240062
#
#
# Mechanical properties :
#
#
# Convention : Reuss Voigt Hill
#
# Bulk Modulus (GPa) = 21.85983 49.07989 35.46986
# Shear Modulus (GPa) = 19.12336 24.05618 21.58977
#
# Velocity S-wave (km/s) = 3.00742 3.37307 3.19548
# Velocity P-wave (km/s) = 4.73268 6.19540 5.51277
#
# Compressibility (1/GPa) = 0.04574602
#
# Stress axis : x y z
#
# Youngs Moduli (GPa) = 95.63692 33.30094 63.50183
#
# Poissons Ratio (x) = 0.06494 0.51617
# Poissons Ratio (y) = 0.18649 -0.30703
# Poissons Ratio (z) = 0.77737 -0.16101
#
# Static dielectric constant tensor:
#      x y z
#    x 1.782030 0.000000 0.000000 
#    y 0.000000 1.787320 0.000000 
#    z 0.000000 0.000000 1.722870 
# 
# From -- ./inp_files/35722.got.cif
#   From: 2010.05.17/outbox.cif.g08.bks.cpg/sg51_18_cif.got.tgz:35722.got - 2010.06.03 11:52:47.
