data_PCOD9403678
_publ_section_title
;
Structure prediction by ZEFSAII (Michael W. Deem and Ramdas Pophale) SiO2 
 PCOD9403678
Probable space group: P M M A
;
_chemical_formula_sum "Si O2"
_cell_formula_units_Z 56
_cell_length_a 18.974481
_cell_length_b 8.360607
_cell_length_c 19.771061
_cell_angle_alpha 90.000000
_cell_angle_beta 90.000000
_cell_angle_gamma 90.000000
_cell_volume 3136.445107
_symmetry_space_group_name_H-M "P M M A"
_symmetry_group_IT_number 51
_symmetry_cell_setting 'orthorhombic'
loop_
_space_group_symop_operation_xyz
x,y,z
1/2-x,-y,z
1/2+x,-y,-z
-x,y,-z
-x,-y,-z
1/2+x,y,-z
1/2-x,y,z
x,-y,z
loop_
_atom_site_type_symbol
_atom_site_label
_atom_site_fract_x
_atom_site_fract_y
_atom_site_fract_z
Si Si1 0.967885 0.814286 0.710256
Si Si2 0.324687 0.692733 0.621152
Si Si3 0.022886 0.307260 0.573777
Si Si4 0.331158 0.691399 0.029202
Si Si5 0.071727 0.193871 0.146562
Si Si6 0.414105 0.808796 0.898983
Si Si7 0.114720 0.688508 0.761012
O O1 0.923835 0.751391 0.774869
O O2 0.971789 0.736239 0.636325
O O3 0.046949 0.791400 0.739344
O O4 0.951530 0.000000 0.701176
O O5 0.250000 0.756231 0.595182
O O6 0.324814 0.500000 0.610921
O O7 0.397988 0.752982 0.590326
O O8 0.329690 0.717598 0.701927
O O9 0.025710 0.500000 0.572109
O O10 0.000000 0.249520 0.500000
O O11 0.250000 0.747276 0.022574
O O12 0.331308 0.500000 0.025157
O O13 0.366139 0.744235 0.099589
O O14 0.380906 0.757184 0.969574
O O15 0.995613 0.243253 0.114254
O O16 0.072019 0.000000 0.146926
O O17 0.368876 0.735116 0.837362
O O18 0.412982 0.000000 0.894458
O O19 0.096011 0.500000 0.757684
#
# Coordination Sequence:
#
# PCOD9403678 Si02
#       7
#     8   8   8   8   8   8   8
#     4   9  17  30  49  73  97 121 154 194 236 286
#     4   8  14  25  42  64  91 123 155 187 227 277
#     4   9  17  29  47  72  98 125 159 196 236 284
#     4  11  24  37  49  70  98 128 166 211 257 301
#     4   9  19  35  54  74  95 123 163 206 246 297
#     4  10  20  34  52  74  99 128 164 202 244 299
#     4   9  16  27  45  69  96 124 154 191 234 281
#
# _framework density 17.854607999999999
#
# number of rings (size 3 to 8) (size 9 to 14) (size 15 to 20)
#    0.000    2.714    0.000    3.857    0.000    7.143 
#    0.000    1.429    0.000   11.143    0.000    2.000 
#    0.000    0.000    0.000    0.000    0.000    0.000 
#
# Total GULP energy -311789.207956 kJ/mol
# GULP energy per Si atom -5567.664428 kJ/mol
# Density = 1.781397 g / cm^3
# Si number density = 17.854608 Si / 1000 Ang^3
#
#
#
# Elastic Constant Matrix: (Units=GPa)
#
#
# Indices 1 2 3 4 5 6 
#
# 1 45.0816 10.0603 27.0289 0.0000 0.0000 0.0000
# 2 10.0603 15.4050 11.2417 0.0000 0.0000 0.0000
# 3 27.0289 11.2417 123.3112 0.0000 0.0000 0.0000
# 4 0.0000 0.0000 0.0000 24.0277 0.0000 0.0000
# 5 0.0000 0.0000 0.0000 0.0000 1.6404 0.0000
# 6 0.0000 0.0000 0.0000 0.0000 0.0000 71.0957
#
#
#
# Elastic Compliance Matrix: (Units=1/GPa)
#
#
# Indices 1 2 3 4 5 6 
#
# 1 0.028454 -0.015031 -0.004867 0.000000 0.000000 0.000000
# 2 -0.015031 0.077480 -0.003769 0.000000 0.000000 0.000000
# 3 -0.004867 -0.003769 0.009520 0.000000 0.000000 0.000000
# 4 0.000000 0.000000 0.000000 0.041619 0.000000 0.000000
# 5 0.000000 0.000000 0.000000 0.000000 0.609625 0.000000
# 6 0.000000 0.000000 0.000000 0.000000 0.000000 0.014066
#
#
# Mechanical properties :
#
#
# Convention : Reuss Voigt Hill
#
# Bulk Modulus (GPa) = 14.67962 31.16218 22.92090
# Shear Modulus (GPa) = 5.87681 28.38389 17.13035
#
# Velocity S-wave (km/s) = 1.81621 3.99146 3.10084
# Velocity P-wave (km/s) = 3.55496 6.22363 5.06810
#
# Compressibility (1/GPa) = 0.06812163
#
# Stress axis : x y z
#
# Youngs Moduli (GPa) = 35.14440 12.90654 105.04327
#
# Poissons Ratio (x) = 0.19399 0.51121
# Poissons Ratio (y) = 0.52824 0.39590
# Poissons Ratio (z) = 0.17104 0.04864
#
# Static dielectric constant tensor:
#      x y z
#    x 1.624200 0.000000 0.000000 
#    y 0.000000 1.620030 0.000000 
#    z 0.000000 0.000000 1.635030 
# 
# From -- ./inp_files/33729.got.cif
#   From: 2010.05.17/outbox.cif.g08.bks.cpg/sg51_17_cif.got.tgz:33729.got - 2010.06.03 11:52:47.
