data_PCOD9403457
_publ_section_title
;
Structure prediction by ZEFSAII (Michael W. Deem and Ramdas Pophale) SiO2 
 PCOD9403457
Probable space group: P M M A
;
_chemical_formula_sum "Si O2"
_cell_formula_units_Z 64
_cell_length_a 18.396285
_cell_length_b 8.581051
_cell_length_c 22.322294
_cell_angle_alpha 90.000000
_cell_angle_beta 90.000000
_cell_angle_gamma 90.000000
_cell_volume 3523.785272
_symmetry_space_group_name_H-M "P M M A"
_symmetry_group_IT_number 51
_symmetry_cell_setting 'orthorhombic'
loop_
_space_group_symop_operation_xyz
x,y,z
1/2-x,-y,z
1/2+x,-y,-z
-x,y,-z
-x,-y,-z
1/2+x,y,-z
1/2-x,y,z
x,-y,z
loop_
_atom_site_type_symbol
_atom_site_label
_atom_site_fract_x
_atom_site_fract_y
_atom_site_fract_z
Si Si1 0.100957 0.814779 0.247507
Si Si2 0.333562 0.811792 0.493934
Si Si3 0.574002 0.812850 0.390062
Si Si4 0.669553 0.311788 0.871125
Si Si5 0.044757 0.688055 0.811118
Si Si6 0.666382 0.688358 0.278541
Si Si7 0.910791 0.685236 0.623361
Si Si8 0.022811 0.310128 0.065447
O O1 0.152318 0.748604 0.195390
O O2 0.116942 0.750338 0.313228
O O3 0.019975 0.760084 0.228400
O O4 0.104158 0.000000 0.248007
O O5 0.250000 0.764909 0.504970
O O6 0.385554 0.764243 0.548768
O O7 0.363243 0.745043 0.431960
O O8 0.335686 0.000000 0.490834
O O9 0.622998 0.758193 0.334512
O O10 0.493560 0.743375 0.385401
O O11 0.568170 0.000000 0.389397
O O12 0.750000 0.262742 0.890405
O O13 0.667399 0.500000 0.869434
O O14 0.603426 0.260457 0.913792
O O15 0.036682 0.500000 0.808145
O O16 0.121227 0.729561 0.781271
O O17 0.030589 0.734748 0.879898
O O18 0.750000 0.739609 0.277343
O O19 0.665239 0.500000 0.283762
O O20 0.910316 0.500000 0.625348
O O21 0.022854 0.500000 0.063386
O O22 0.000000 0.253563 0.000000
#
# Coordination Sequence:
#
# PCOD9403457 Si02
#       8
#     8   8   8   8   8   8   8   8
#     4  11  21  34  55  80 105 138 179 224 274 327
#     4  10  23  42  59  78 108 143 180 225 274 323
#     4  11  22  38  60  83 107 141 184 227 272 325
#     4   9  18  33  53  78 110 147 186 228 275 326
#     4   9  17  32  52  75 109 146 180 221 269 321
#     4  10  20  33  52  79 110 144 181 225 276 326
#     4  12  24  38  58  83 110 142 180 224 274 331
#     4   8  14  27  50  78 107 144 187 227 267 315
#
# _framework density 18.162286999999999
#
# number of rings (size 3 to 8) (size 9 to 14) (size 15 to 20)
#    0.000    2.000    1.250    4.125    0.000    4.250 
#    0.000    0.625    0.000    9.750    0.000    0.000 
#    0.000    4.000    0.000    0.000    0.000    0.000 
#
# Total GULP energy -357306.362011 kJ/mol
# GULP energy per Si atom -5582.911906 kJ/mol
# Density = 1.812095 g / cm^3
# Si number density = 18.162287 Si / 1000 Ang^3
#
#
#
# Elastic Constant Matrix: (Units=GPa)
#
#
# Indices 1 2 3 4 5 6 
#
# 1 59.5884 11.0292 33.4320 0.0000 0.0000 0.0000
# 2 11.0292 18.6647 16.6896 0.0000 0.0000 0.0000
# 3 33.4320 16.6896 138.7393 0.0000 0.0000 0.0000
# 4 0.0000 0.0000 0.0000 73.3667 0.0000 0.0000
# 5 0.0000 0.0000 0.0000 0.0000 16.1523 0.0000
# 6 0.0000 0.0000 0.0000 0.0000 0.0000 19.6430
#
#
#
# Elastic Compliance Matrix: (Units=1/GPa)
#
#
# Indices 1 2 3 4 5 6 
#
# 1 0.020583 -0.008659 -0.003918 0.000000 0.000000 0.000000
# 2 -0.008659 0.063677 -0.005573 0.000000 0.000000 0.000000
# 3 -0.003918 -0.005573 0.008822 0.000000 0.000000 0.000000
# 4 0.000000 0.000000 0.000000 0.013630 0.000000 0.000000
# 5 0.000000 0.000000 0.000000 0.000000 0.061911 0.000000
# 6 0.000000 0.000000 0.000000 0.000000 0.000000 0.050909
#
#
# Mechanical properties :
#
#
# Convention : Reuss Voigt Hill
#
# Bulk Modulus (GPa) = 17.61148 37.69932 27.65540
# Shear Modulus (GPa) = 18.19769 32.22186 25.20978
#
# Velocity S-wave (km/s) = 3.16879 4.21659 3.72967
# Velocity P-wave (km/s) = 4.80688 6.67144 5.81439
#
# Compressibility (1/GPa) = 0.05678114
#
# Stress axis : x y z
#
# Youngs Moduli (GPa) = 48.58431 15.70420 113.34792
#
# Poissons Ratio (x) = 0.13598 0.44412
# Poissons Ratio (y) = 0.42069 0.63174
# Poissons Ratio (z) = 0.19036 0.08753
#
# Static dielectric constant tensor:
#      x y z
#    x 1.619330 0.000000 0.000000 
#    y 0.000000 1.615830 0.000000 
#    z 0.000000 0.000000 1.608280 
# 
# From -- ./inp_files/33824.got.cif
#   From: 2010.05.17/outbox.cif.g08.bks.cpg/sg51_17_cif.got.tgz:33824.got - 2010.06.03 11:52:47.
