data_PCOD9403332
_publ_section_title
;
Structure prediction by ZEFSAII (Michael W. Deem and Ramdas Pophale) SiO2 
 PCOD9403332
Probable space group: P M M A
;
_chemical_formula_sum "Si O2"
_cell_formula_units_Z 40
_cell_length_a 14.538605
_cell_length_b 9.494079
_cell_length_c 13.180485
_cell_angle_alpha 90.000000
_cell_angle_beta 90.000000
_cell_angle_gamma 90.000000
_cell_volume 1819.311102
_symmetry_space_group_name_H-M "P M M A"
_symmetry_group_IT_number 51
_symmetry_cell_setting 'orthorhombic'
loop_
_space_group_symop_operation_xyz
x,y,z
1/2-x,-y,z
1/2+x,-y,-z
-x,y,-z
-x,-y,-z
1/2+x,y,-z
1/2-x,y,z
x,-y,z
loop_
_atom_site_type_symbol
_atom_site_label
_atom_site_fract_x
_atom_site_fract_y
_atom_site_fract_z
Si Si1 0.106428 0.659824 0.473208
Si Si2 0.143198 0.842767 0.664772
Si Si3 0.860991 0.661141 0.756896
Si Si4 0.637459 0.838359 0.949738
Si Si5 0.862783 0.338372 0.147311
O O1 0.145175 0.500000 0.481589
O O2 0.143264 0.767844 0.555985
O O3 0.117327 0.707902 0.357474
O O4 0.000000 0.649851 0.500000
O O5 0.250000 0.858624 0.693702
O O6 0.103849 0.738635 0.750287
O O7 0.101873 0.000000 0.662689
O O8 0.750000 0.657158 0.763984
O O9 0.894106 0.500000 0.768991
O O10 0.893476 0.760612 0.847340
O O11 0.750000 0.839154 0.949252
O O12 0.607394 0.000000 0.954157
O O13 0.609783 0.750753 0.048905
O O14 0.750000 0.342134 0.148349
O O15 0.893203 0.500000 0.142371
#
# Coordination Sequence:
#
# PCOD9403332 Si02
#       5
#     8   8   8   8   8
#     4  10  21  36  53  73  99 133 172 212 254 300
#     4  10  20  33  51  76 104 133 167 207 250 297
#     4   9  17  30  49  72  98 129 165 203 243 291
#     4   9  16  26  43  70 102 130 158 197 244 292
#     4   9  16  27  46  72 101 131 162 198 243 294
#
# _framework density 21.986346000000001
#
# number of rings (size 3 to 8) (size 9 to 14) (size 15 to 20)
#    0.000    2.600    0.000    2.400    0.000    8.000 
#    0.000    2.000    0.000    1.200    0.000    8.400 
#    0.000    0.000    0.000    0.000    0.000    0.000 
#
# Total GULP energy -223478.557494 kJ/mol
# GULP energy per Si atom -5586.963937 kJ/mol
# Density = 2.193630 g / cm^3
# Si number density = 21.986346 Si / 1000 Ang^3
#
#
#
# Elastic Constant Matrix: (Units=GPa)
#
#
# Indices 1 2 3 4 5 6 
#
# 1 45.4857 0.0894 5.9131 0.0000 0.0000 0.0000
# 2 0.0894 204.1093 151.1107 0.0000 0.0000 0.0000
# 3 5.9131 151.1107 219.3088 0.0000 0.0000 0.0000
# 4 0.0000 0.0000 0.0000 -0.5963 0.0000 0.0000
# 5 0.0000 0.0000 0.0000 0.0000 17.0369 0.0000
# 6 0.0000 0.0000 0.0000 0.0000 0.0000 -8.7027
#
#
#
# Elastic Compliance Matrix: (Units=1/GPa)
#
#
# Indices 1 2 3 4 5 6 
#
# 1 0.022140 0.000882 -0.001205 0.000000 0.000000 0.000000
# 2 0.000882 0.010036 -0.006939 0.000000 0.000000 0.000000
# 3 -0.001205 -0.006939 0.009374 0.000000 0.000000 0.000000
# 4 0.000000 0.000000 0.000000 -1.676907 0.000000 0.000000
# 5 0.000000 0.000000 0.000000 0.000000 0.058696 0.000000
# 6 0.000000 0.000000 0.000000 0.000000 0.000000 -0.114907
#
#
# Mechanical properties :
#
#
# Convention : Reuss Voigt Hill
#
# Bulk Modulus (GPa) = 37.00097 87.01448 62.00772
# Shear Modulus (GPa) = -2.99754 22.33361 9.66803
#
# Velocity S-wave (km/s) = -1.16890 3.19061 2.09925
# Velocity P-wave (km/s) = 3.87864 7.29629 5.84293
#
# Compressibility (1/GPa) = 0.02702632
#
# Stress axis : x y z
#
# Youngs Moduli (GPa) = 45.16742 99.63881 106.68352
#
# Poissons Ratio (x) = -0.08792 0.12854
# Poissons Ratio (y) = -0.03985 0.74029
# Poissons Ratio (z) = 0.05442 0.69140
#
# Static dielectric constant tensor:
#      x y z
#    x 1.812060 0.000000 0.000000 
#    y 0.000000 1.783600 0.000000 
#    z 0.000000 0.000000 1.756370 
# 
# From -- ./inp_files/17072.got.cif
#   From: 2010.05.17/outbox.cif.g08.bks.cpg/sg51_9_cif.got.tgz:17072.got - 2010.06.03 11:52:47.
