data_PCOD9403698
_publ_section_title
;
Structure prediction by ZEFSAII (Michael W. Deem and Ramdas Pophale) SiO2 
 PCOD9403698
Probable space group: P M M A
;
_chemical_formula_sum "Si O2"
_cell_formula_units_Z 44
_cell_length_a 9.214983
_cell_length_b 8.035969
_cell_length_c 31.176681
_cell_angle_alpha 90.000000
_cell_angle_beta 90.000000
_cell_angle_gamma 90.000000
_cell_volume 2308.674310
_symmetry_space_group_name_H-M "P M M A"
_symmetry_group_IT_number 51
_symmetry_cell_setting 'orthorhombic'
loop_
_space_group_symop_operation_xyz
x,y,z
1/2-x,-y,z
1/2+x,-y,-z
-x,y,-z
-x,-y,-z
1/2+x,y,-z
1/2-x,y,z
x,-y,z
loop_
_atom_site_type_symbol
_atom_site_label
_atom_site_fract_x
_atom_site_fract_y
_atom_site_fract_z
Si Si1 0.426879 0.816029 0.896566
Si Si2 0.578274 0.302933 0.194844
Si Si3 0.584768 0.798951 0.627635
Si Si4 0.426114 0.500000 0.953863
Si Si5 0.582190 0.201023 0.287611
Si Si6 0.084670 0.700893 0.542201
O O1 0.250000 0.811275 0.895103
O O2 0.478996 0.786061 0.847728
O O3 0.469761 0.664163 0.927016
O O4 0.470317 0.000000 0.911438
O O5 0.750000 0.259304 0.197347
O O6 0.567227 0.500000 0.187916
O O7 0.519779 0.256984 0.241662
O O8 0.750000 0.738637 0.624922
O O9 0.507458 0.740531 0.671268
O O10 0.496414 0.749032 0.585621
O O11 0.587206 0.000000 0.629334
O O12 0.250000 0.500000 0.957721
O O13 0.500000 0.500000 0.000000
O O14 0.750000 0.258275 0.291388
O O15 0.583660 0.000000 0.287613
O O16 0.250000 0.762198 0.542437
O O17 0.088206 0.500000 0.540130
O O18 0.000000 0.761298 0.500000
#
# Coordination Sequence:
#
# PCOD9403698 Si02
#       6
#     8   8   8   4   8   8
#     4   9  16  28  48  74 104 137 173 217 269 319
#     4   9  15  25  44  72 102 128 163 213 261 307
#     4  10  21  36  53  74 103 139 176 213 254 305
#     4  10  20  34  52  76 106 138 176 222 267 316
#     4   9  17  29  46  70  99 129 161 202 254 306
#     4  10  21  37  57  79 102 130 167 212 263 317
#
# _framework density 19.058557
#
# number of rings (size 3 to 8) (size 9 to 14) (size 15 to 20)
#    0.000    2.545    0.909    1.636    0.000    5.818 
#    0.000    1.818    0.000    1.091    0.000    0.000 
#    0.000    0.000    0.000    0.000    0.000    0.000 
#
# Total GULP energy -245422.567991 kJ/mol
# GULP energy per Si atom -5577.785636 kJ/mol
# Density = 1.901518 g / cm^3
# Si number density = 19.058557 Si / 1000 Ang^3
#
#
#
# Elastic Constant Matrix: (Units=GPa)
#
#
# Indices 1 2 3 4 5 6 
#
# 1 74.0004 24.5483 59.3874 0.0000 0.0000 0.0000
# 2 24.5483 53.5445 65.3370 0.0000 0.0000 0.0000
# 3 59.3874 65.3370 183.3648 0.0000 0.0000 0.0000
# 4 0.0000 0.0000 0.0000 46.9637 0.0000 0.0000
# 5 0.0000 0.0000 0.0000 0.0000 28.1907 0.0000
# 6 0.0000 0.0000 0.0000 0.0000 0.0000 11.1246
#
#
#
# Elastic Compliance Matrix: (Units=1/GPa)
#
#
# Indices 1 2 3 4 5 6 
#
# 1 0.018387 -0.002058 -0.005222 0.000000 0.000000 0.000000
# 2 -0.002058 0.033274 -0.011190 0.000000 0.000000 0.000000
# 3 -0.005222 -0.011190 0.011132 0.000000 0.000000 0.000000
# 4 0.000000 0.000000 0.000000 0.021293 0.000000 0.000000
# 5 0.000000 0.000000 0.000000 0.000000 0.035473 0.000000
# 6 0.000000 0.000000 0.000000 0.000000 0.000000 0.089891
#
#
# Mechanical properties :
#
#
# Convention : Reuss Voigt Hill
#
# Bulk Modulus (GPa) = 38.67929 67.71725 53.19827
# Shear Modulus (GPa) = 19.60743 28.03159 23.81951
#
# Velocity S-wave (km/s) = 3.21097 3.83928 3.53910
# Velocity P-wave (km/s) = 5.83833 7.43382 6.68386
#
# Compressibility (1/GPa) = 0.02585363
#
# Stress axis : x y z
#
# Youngs Moduli (GPa) = 54.38715 30.05391 89.83191
#
# Poissons Ratio (x) = 0.06185 0.46908
# Poissons Ratio (y) = 0.11193 1.00518
# Poissons Ratio (z) = 0.28399 0.33629
#
# Static dielectric constant tensor:
#      x y z
#    x 1.653900 0.000000 0.000000 
#    y 0.000000 1.681830 0.000000 
#    z 0.000000 0.000000 1.652440 
# 
# From -- ./inp_files/36792.got.cif
#   From: 2010.05.17/outbox.cif.g08.bks.cpg/sg51_19_cif.got.tgz:36792.got - 2010.06.03 11:52:47.
