data_PCOD9403541
_publ_section_title
;
Structure prediction by ZEFSAII (Michael W. Deem and Ramdas Pophale) SiO2 
 PCOD9403541
Probable space group: P M M A
;
_chemical_formula_sum "Si O2"
_cell_formula_units_Z 56
_cell_length_a 9.387835
_cell_length_b 20.919015
_cell_length_c 15.569880
_cell_angle_alpha 90.000000
_cell_angle_beta 90.000000
_cell_angle_gamma 90.000000
_cell_volume 3057.679381
_symmetry_space_group_name_H-M "P M M A"
_symmetry_group_IT_number 51
_symmetry_cell_setting 'orthorhombic'
loop_
_space_group_symop_operation_xyz
x,y,z
1/2-x,-y,z
1/2+x,-y,-z
-x,y,-z
-x,-y,-z
1/2+x,y,-z
1/2-x,y,z
x,-y,z
loop_
_atom_site_type_symbol
_atom_site_label
_atom_site_fract_x
_atom_site_fract_y
_atom_site_fract_z
Si Si1 0.421939 0.571868 0.407837
Si Si2 0.582349 0.790069 0.914925
Si Si3 0.250000 0.428550 0.157750
Si Si4 0.089480 0.690018 0.675841
Si Si5 0.750000 0.427303 0.048305
Si Si6 0.579971 0.925940 0.587517
Si Si7 0.485867 0.652891 0.858648
Si Si8 0.421040 0.185283 0.281152
O O1 0.500000 0.569960 0.500000
O O2 0.250000 0.581207 0.413819
O O3 0.444567 0.500000 0.369616
O O4 0.499375 0.631207 0.362101
O O5 0.750000 0.800454 0.926985
O O6 0.552963 0.714052 0.905288
O O7 0.540960 0.817518 0.820647
O O8 0.500000 0.812865 0.000000
O O9 0.250000 0.500000 0.191056
O O10 0.389009 0.389797 0.180765
O O11 0.250000 0.430021 0.054028
O O12 0.250000 0.693449 0.639251
O O13 0.100615 0.677691 0.777635
O O14 0.002786 0.756381 0.672731
O O15 0.750000 0.500000 0.081462
O O16 0.887460 0.389718 0.081129
O O17 0.500000 0.907050 0.500000
O O18 0.750000 0.922599 0.572943
O O19 0.547226 0.879004 0.666375
O O20 0.543208 0.000000 0.606142
O O21 0.250000 0.197432 0.283807
#
# Coordination Sequence:
#
# PCOD9403541 Si02
#       8
#     8   8   4   8   4   8   8   8
#     4  10  22  40  61  81 102 133 176 226 282 345
#     4  10  20  33  54  76 101 141 187 234 284 332
#     4  11  22  34  50  68  93 129 172 223 279 341
#     4  11  23  38  55  78 108 142 180 228 280 328
#     4  11  22  36  48  66  95 129 170 221 279 339
#     4   9  18  35  61  92 124 157 188 218 262 323
#     4  11  22  36  50  72  99 132 176 225 280 339
#     4   9  20  37  56  82 117 150 188 234 277 331
#
# _framework density 18.314543
#
# number of rings (size 3 to 8) (size 9 to 14) (size 15 to 20)
#    0.000    1.857    1.429    2.571    3.000    4.857 
#    0.000    1.429    0.000    0.429    0.000    0.000 
#    0.000    0.000    0.000    0.000    0.000    0.000 
#
# Total GULP energy -312401.003107 kJ/mol
# GULP energy per Si atom -5578.589341 kJ/mol
# Density = 1.827286 g / cm^3
# Si number density = 18.314543 Si / 1000 Ang^3
#
#
#
# Elastic Constant Matrix: (Units=GPa)
#
#
# Indices 1 2 3 4 5 6 
#
# 1 95.4295 44.3606 37.5300 0.0000 0.0000 0.0000
# 2 44.3606 96.5249 63.8673 0.0000 0.0000 0.0000
# 3 37.5300 63.8673 93.7313 0.0000 0.0000 0.0000
# 4 0.0000 0.0000 0.0000 23.5054 0.0000 0.0000
# 5 0.0000 0.0000 0.0000 0.0000 33.6695 0.0000
# 6 0.0000 0.0000 0.0000 0.0000 0.0000 19.7547
#
#
#
# Elastic Compliance Matrix: (Units=1/GPa)
#
#
# Indices 1 2 3 4 5 6 
#
# 1 0.013561 -0.004807 -0.002155 0.000000 0.000000 0.000000
# 2 -0.004807 0.020569 -0.012091 0.000000 0.000000 0.000000
# 3 -0.002155 -0.012091 0.019770 0.000000 0.000000 0.000000
# 4 0.000000 0.000000 0.000000 0.042543 0.000000 0.000000
# 5 0.000000 0.000000 0.000000 0.000000 0.029700 0.000000
# 6 0.000000 0.000000 0.000000 0.000000 0.000000 0.050621
#
#
# Mechanical properties :
#
#
# Convention : Reuss Voigt Hill
#
# Bulk Modulus (GPa) = 63.30839 64.13348 63.72093
# Shear Modulus (GPa) = 22.71339 24.71444 23.71391
#
# Velocity S-wave (km/s) = 3.52544 3.67746 3.60226
# Velocity P-wave (km/s) = 7.15640 7.28872 7.22286
#
# Compressibility (1/GPa) = 0.01579570
#
# Stress axis : x y z
#
# Youngs Moduli (GPa) = 73.74299 48.61621 50.58126
#
# Poissons Ratio (x) = 0.23368 0.10898
# Poissons Ratio (y) = 0.35445 0.61158
# Poissons Ratio (z) = 0.15888 0.58782
#
# Static dielectric constant tensor:
#      x y z
#    x 1.637450 0.000000 0.000000 
#    y 0.000000 1.612960 0.000000 
#    z 0.000000 0.000000 1.650280 
# 
# From -- ./inp_files/21890.got.cif
#   From: 2010.05.17/outbox.cif.g08.bks.cpg/sg51_11_cif.got.tgz:21890.got - 2010.06.03 11:52:47.
