data_PCOD9403014
_publ_section_title
;
Structure prediction by ZEFSAII (Michael W. Deem and Ramdas Pophale) SiO2 
 PCOD9403014
Probable space group: P M M A
;
_chemical_formula_sum "Si O2"
_cell_formula_units_Z 24
_cell_length_a 10.876050
_cell_length_b 11.054700
_cell_length_c 9.449271
_cell_angle_alpha 90.000000
_cell_angle_beta 90.000000
_cell_angle_gamma 90.000000
_cell_volume 1136.099742
_symmetry_space_group_name_H-M "P M M A"
_symmetry_group_IT_number 51
_symmetry_cell_setting 'orthorhombic'
loop_
_space_group_symop_operation_xyz
x,y,z
1/2-x,-y,z
1/2+x,-y,-z
-x,y,-z
-x,-y,-z
1/2+x,y,-z
1/2-x,y,z
x,-y,z
loop_
_atom_site_type_symbol
_atom_site_label
_atom_site_fract_x
_atom_site_fract_y
_atom_site_fract_z
Si Si1 0.114798 0.355993 0.399682
Si Si2 0.618282 0.500000 0.101698
Si Si3 0.110138 0.000000 0.883642
Si Si4 0.970978 0.746591 0.167122
O O1 0.250000 0.331617 0.459592
O O2 0.109048 0.500000 0.367729
O O3 0.000000 0.327151 0.500000
O O4 0.091956 0.279364 0.257956
O O5 0.750000 0.500000 0.025169
O O6 0.608151 0.375768 0.188934
O O7 0.500000 0.500000 0.000000
O O8 0.090990 0.125431 0.799620
O O9 0.250000 0.000000 0.942298
O O10 0.000000 0.000000 0.000000
O O11 0.000000 0.749691 0.000000
#
# Coordination Sequence:
#
# PCOD9403014 Si02
#       4
#     8   4   4   8
#     4  10  22  41  64  93 128 166 206 257 317 377
#     4  10  20  32  53  84 117 150 196 248 300 352
#     4  10  22  38  59  88 129 168 208 256 314 374
#     4  10  21  38  60  92 123 163 204 253 308 366
#
# _framework density 21.124904000000001
#
# number of rings (size 3 to 8) (size 9 to 14) (size 15 to 20)
#    0.000    2.000    1.667    1.000    0.000   13.333 
#    0.000    0.833    0.000    0.000    0.000    0.000 
#    0.000    0.000    0.000    0.000    0.000    0.000 
#
# Total GULP energy -133722.569985 kJ/mol
# GULP energy per Si atom -5571.773749 kJ/mol
# Density = 2.107682 g / cm^3
# Si number density = 21.124904 Si / 1000 Ang^3
#
#
#
# Elastic Constant Matrix: (Units=GPa)
#
#
# Indices 1 2 3 4 5 6 
#
# 1 188.4507 38.7276 36.7102 0.0000 0.0000 0.0000
# 2 38.7276 171.3265 3.6753 0.0000 0.0000 0.0000
# 3 36.7102 3.6753 62.1133 0.0000 0.0000 0.0000
# 4 0.0000 0.0000 0.0000 -16.8868 0.0000 0.0000
# 5 0.0000 0.0000 0.0000 0.0000 30.3583 0.0000
# 6 0.0000 0.0000 0.0000 0.0000 0.0000 6.6156
#
#
#
# Elastic Compliance Matrix: (Units=1/GPa)
#
#
# Indices 1 2 3 4 5 6 
#
# 1 0.006291 -0.001344 -0.003639 0.000000 0.000000 0.000000
# 2 -0.001344 0.006131 0.000432 0.000000 0.000000 0.000000
# 3 -0.003639 0.000432 0.018225 0.000000 0.000000 0.000000
# 4 0.000000 0.000000 0.000000 -0.059218 0.000000 0.000000
# 5 0.000000 0.000000 0.000000 0.000000 0.032940 0.000000
# 6 0.000000 0.000000 0.000000 0.000000 0.000000 0.151157
#
#
# Mechanical properties :
#
#
# Convention : Reuss Voigt Hill
#
# Bulk Modulus (GPa) = 46.41483 64.45740 55.43611
# Shear Modulus (GPa) = 29.10170 26.86925 27.98547
#
# Velocity S-wave (km/s) = 3.71563 3.57027 3.64368
# Velocity P-wave (km/s) = 6.35824 6.89743 6.63332
#
# Compressibility (1/GPa) = 0.02154484
#
# Stress axis : x y z
#
# Youngs Moduli (GPa) = 158.94465 163.09542 54.87055
#
# Poissons Ratio (x) = 0.21922 0.19967
# Poissons Ratio (y) = 0.21364 -0.02368
# Poissons Ratio (z) = 0.57838 -0.07039
#
# Static dielectric constant tensor:
#      x y z
#    x 1.792530 0.000000 0.000000 
#    y 0.000000 1.823140 0.000000 
#    z 0.000000 0.000000 1.726820 
# 
# From -- ./inp_files/6552.got.cif
#   From: 2010.05.17/outbox.cif.g08.bks.cpg/sg51_4_cif.got.tgz:6552.got - 2010.06.03 11:52:47.
