data_PCOD9403279
_publ_section_title
;
Structure prediction by ZEFSAII (Michael W. Deem and Ramdas Pophale) SiO2 
 PCOD9403279
Probable space group: P M M A
;
_chemical_formula_sum "Si O2"
_cell_formula_units_Z 64
_cell_length_a 9.008601
_cell_length_b 28.542225
_cell_length_c 14.366190
_cell_angle_alpha 90.000000
_cell_angle_beta 90.000000
_cell_angle_gamma 90.000000
_cell_volume 3693.914026
_symmetry_space_group_name_H-M "P M M A"
_symmetry_group_IT_number 51
_symmetry_cell_setting 'orthorhombic'
loop_
_space_group_symop_operation_xyz
x,y,z
1/2-x,-y,z
1/2+x,-y,-z
-x,y,-z
-x,-y,-z
1/2+x,y,-z
1/2-x,y,z
x,-y,z
loop_
_atom_site_type_symbol
_atom_site_label
_atom_site_fract_x
_atom_site_fract_y
_atom_site_fract_z
Si Si1 0.426519 0.448378 0.399365
Si Si2 0.576521 0.123085 0.760866
Si Si3 0.571701 0.552875 0.100520
Si Si4 0.571700 0.731316 0.257029
Si Si5 0.070770 0.815206 0.603041
Si Si6 0.423169 0.056362 0.902050
Si Si7 0.429055 0.623204 0.738370
Si Si8 0.577864 0.789459 0.901281
O O1 0.500000 0.448028 0.500000
O O2 0.250000 0.443338 0.406404
O O3 0.458217 0.500000 0.357598
O O4 0.497564 0.406986 0.341850
O O5 0.750000 0.114413 0.739973
O O6 0.493631 0.143719 0.670026
O O7 0.500506 0.079434 0.812550
O O8 0.568510 0.163608 0.839473
O O9 0.750000 0.553934 0.092643
O O10 0.531374 0.500000 0.133963
O O11 0.527348 0.595138 0.168186
O O12 0.500000 0.558817 0.000000
O O13 0.750000 0.733134 0.248702
O O14 0.532362 0.766657 0.341858
O O15 0.526706 0.677396 0.268556
O O16 0.500706 0.750906 0.162781
O O17 0.250000 0.818602 0.597328
O O18 0.000000 0.816225 0.500000
O O19 0.250000 0.070033 0.905053
O O20 0.432721 0.000000 0.896392
O O21 0.500000 0.070477 0.000000
O O22 0.250000 0.621163 0.731300
O O23 0.750000 0.777922 0.915278
O O24 0.500000 0.795248 0.000000
#
# Coordination Sequence:
#
# PCOD9403279 Si02
#       8
#     8   8   8   8   8   8   8   8
#     4  10  21  36  54  76 100 127 160 198 242 295
#     4  10  20  34  54  80 107 139 182 226 268 314
#     4   9  18  32  50  71  96 128 165 205 247 293
#     4   9  20  36  52  74 103 133 167 209 257 310
#     4  10  20  36  57  78 103 135 173 219 268 318
#     4  10  20  33  51  79 116 155 190 224 266 315
#     4  10  20  35  54  76 102 131 164 204 253 304
#     4  10  20  33  51  74 102 137 175 216 259 305
#
# _framework density 17.325796
#
# number of rings (size 3 to 8) (size 9 to 14) (size 15 to 20)
#    0.000    2.250    0.000    2.625    0.000    7.000 
#    0.000    3.750    0.000    0.375    0.000    0.000 
#    0.000    0.000    0.000    0.000    0.000    0.000 
#
# Total GULP energy -356978.050557 kJ/mol
# GULP energy per Si atom -5577.782040 kJ/mol
# Density = 1.728636 g / cm^3
# Si number density = 17.325796 Si / 1000 Ang^3
#
#
#
# Elastic Constant Matrix: (Units=GPa)
#
#
# Indices 1 2 3 4 5 6 
#
# 1 53.9329 36.3210 51.3196 0.0000 0.0000 0.0000
# 2 36.3210 60.4763 34.9709 0.0000 0.0000 0.0000
# 3 51.3196 34.9709 123.3641 0.0000 0.0000 0.0000
# 4 0.0000 0.0000 0.0000 28.4817 0.0000 0.0000
# 5 0.0000 0.0000 0.0000 0.0000 34.7062 0.0000
# 6 0.0000 0.0000 0.0000 0.0000 0.0000 25.3353
#
#
#
# Elastic Compliance Matrix: (Units=1/GPa)
#
#
# Indices 1 2 3 4 5 6 
#
# 1 0.043088 -0.018554 -0.012665 0.000000 0.000000 0.000000
# 2 -0.018554 0.027767 -0.000153 0.000000 0.000000 0.000000
# 3 -0.012665 -0.000153 0.013418 0.000000 0.000000 0.000000
# 4 0.000000 0.000000 0.000000 0.035110 0.000000 0.000000
# 5 0.000000 0.000000 0.000000 0.000000 0.028813 0.000000
# 6 0.000000 0.000000 0.000000 0.000000 0.000000 0.039471
#
#
# Mechanical properties :
#
#
# Convention : Reuss Voigt Hill
#
# Bulk Modulus (GPa) = 46.44854 53.66627 50.05740
# Shear Modulus (GPa) = 19.41080 25.38210 22.39645
#
# Velocity S-wave (km/s) = 3.35078 3.83167 3.59927
# Velocity P-wave (km/s) = 6.46818 7.11461 6.79908
#
# Compressibility (1/GPa) = 0.02152920
#
# Stress axis : x y z
#
# Youngs Moduli (GPa) = 23.20810 36.01372 74.52659
#
# Poissons Ratio (x) = 0.66822 0.94388
# Poissons Ratio (y) = 0.43061 0.01138
# Poissons Ratio (z) = 0.29393 0.00550
#
# Static dielectric constant tensor:
#      x y z
#    x 1.579510 0.000000 0.000000 
#    y 0.000000 1.594250 0.000000 
#    z 0.000000 0.000000 1.556160 
# 
# From -- ./inp_files/14873.got.cif
#   From: 2010.05.17/outbox.cif.g08.bks.cpg/sg51_8_cif.got.tgz:14873.got - 2010.06.03 11:52:47.
