data_PCOD9403623
_publ_section_title
;
Structure prediction by ZEFSAII (Michael W. Deem and Ramdas Pophale) SiO2 
 PCOD9403623
Probable space group: P M M A
;
_chemical_formula_sum "Si O2"
_cell_formula_units_Z 48
_cell_length_a 13.750974
_cell_length_b 16.696275
_cell_length_c 10.426278
_cell_angle_alpha 90.000000
_cell_angle_beta 90.000000
_cell_angle_gamma 90.000000
_cell_volume 2393.769619
_symmetry_space_group_name_H-M "P M M A"
_symmetry_group_IT_number 51
_symmetry_cell_setting 'orthorhombic'
loop_
_space_group_symop_operation_xyz
x,y,z
1/2-x,-y,z
1/2+x,-y,-z
-x,y,-z
-x,-y,-z
1/2+x,y,-z
1/2-x,y,z
x,-y,z
loop_
_atom_site_type_symbol
_atom_site_label
_atom_site_fract_x
_atom_site_fract_y
_atom_site_fract_z
Si Si1 0.865947 0.586473 0.368178
Si Si2 0.367131 0.809693 0.822331
Si Si3 0.367137 0.768078 0.254143
Si Si4 0.366704 0.237656 0.542600
Si Si5 0.981597 0.349766 0.139686
Si Si6 0.868203 0.910444 0.939949
O O1 0.750000 0.591412 0.341029
O O2 0.883523 0.500000 0.431599
O O3 0.891055 0.668079 0.442212
O O4 0.927270 0.593071 0.238367
O O5 0.250000 0.805039 0.826187
O O6 0.396353 0.808941 0.672226
O O7 0.410870 0.727504 0.877670
O O8 0.396567 0.880900 0.917468
O O9 0.250000 0.757282 0.249638
O O10 0.397259 0.787020 0.400700
O O11 0.422586 0.689353 0.203945
O O12 0.394266 0.841797 0.161765
O O13 0.250000 0.231968 0.542279
O O14 0.000000 0.384665 0.000000
O O15 0.750000 0.912651 0.938272
O O16 0.902374 0.000000 0.910959
#
# Coordination Sequence:
#
# PCOD9403623 Si02
#       6
#     8   8   8   8   8   8
#     4   9  19  36  57  80 107 136 171 219 266 310
#     4   9  17  32  51  74 102 132 176 223 257 309
#     4  10  20  34  51  76 109 140 175 222 264 308
#     4   8  16  32  54  76 100 138 178 212 261 317
#     4  11  20  31  53  80 103 140 183 211 258 315
#     4   9  17  31  52  76 105 141 177 217 267 314
#
# _framework density 20.052054999999999
#
# number of rings (size 3 to 8) (size 9 to 14) (size 15 to 20)
#    0.000    2.667    1.667    1.500    0.000    3.667 
#    0.000    4.167    0.000    6.500    0.000    5.833 
#    0.000    0.000    0.000    0.000    0.000    0.000 
#
# Total GULP energy -267703.008321 kJ/mol
# GULP energy per Si atom -5577.146007 kJ/mol
# Density = 2.000642 g / cm^3
# Si number density = 20.052055 Si / 1000 Ang^3
#
#
#
# Elastic Constant Matrix: (Units=GPa)
#
#
# Indices 1 2 3 4 5 6 
#
# 1 77.1454 15.7030 34.0694 0.0000 0.0000 0.0000
# 2 15.7030 83.9988 39.6414 0.0000 0.0000 0.0000
# 3 34.0694 39.6414 138.3216 0.0000 0.0000 0.0000
# 4 0.0000 0.0000 0.0000 5.3984 0.0000 0.0000
# 5 0.0000 0.0000 0.0000 0.0000 24.7581 0.0000
# 6 0.0000 0.0000 0.0000 0.0000 0.0000 12.2088
#
#
#
# Elastic Compliance Matrix: (Units=1/GPa)
#
#
# Indices 1 2 3 4 5 6 
#
# 1 0.014648 -0.001198 -0.003265 0.000000 0.000000 0.000000
# 2 -0.001198 0.013865 -0.003679 0.000000 0.000000 0.000000
# 3 -0.003265 -0.003679 0.009088 0.000000 0.000000 0.000000
# 4 0.000000 0.000000 0.000000 0.185241 0.000000 0.000000
# 5 0.000000 0.000000 0.000000 0.000000 0.040391 0.000000
# 6 0.000000 0.000000 0.000000 0.000000 0.000000 0.081908
#
#
# Mechanical properties :
#
#
# Convention : Reuss Voigt Hill
#
# Bulk Modulus (GPa) = 46.90637 53.14371 50.02504
# Shear Modulus (GPa) = 13.56747 22.47653 18.02200
#
# Velocity S-wave (km/s) = 2.60400 3.35163 3.00119
# Velocity P-wave (km/s) = 5.69949 6.44502 6.08369
#
# Compressibility (1/GPa) = 0.02131907
#
# Stress axis : x y z
#
# Youngs Moduli (GPa) = 68.26836 72.12496 110.03701
#
# Poissons Ratio (x) = 0.08638 0.35923
# Poissons Ratio (y) = 0.08176 0.40477
# Poissons Ratio (z) = 0.22287 0.26531
#
# Static dielectric constant tensor:
#      x y z
#    x 1.766870 0.000000 0.000000 
#    y 0.000000 1.667640 0.000000 
#    z 0.000000 0.000000 1.718700 
# 
# From -- ./inp_files/16471.got.cif
#   From: 2010.05.17/outbox.cif.g08.bks.cpg/sg51_9_cif.got.tgz:16471.got - 2010.06.03 11:52:47.
