data_PCOD9403670
_publ_section_title
;
Structure prediction by ZEFSAII (Michael W. Deem and Ramdas Pophale) SiO2 
 PCOD9403670
Probable space group: P M M A
;
_chemical_formula_sum "Si O2"
_cell_formula_units_Z 48
_cell_length_a 8.641297
_cell_length_b 19.132626
_cell_length_c 15.290292
_cell_angle_alpha 90.000000
_cell_angle_beta 90.000000
_cell_angle_gamma 90.000000
_cell_volume 2527.954735
_symmetry_space_group_name_H-M "P M M A"
_symmetry_group_IT_number 51
_symmetry_cell_setting 'orthorhombic'
loop_
_space_group_symop_operation_xyz
x,y,z
1/2-x,-y,z
1/2+x,-y,-z
-x,y,-z
-x,-y,-z
1/2+x,y,-z
1/2-x,y,z
x,-y,z
loop_
_atom_site_type_symbol
_atom_site_label
_atom_site_fract_x
_atom_site_fract_y
_atom_site_fract_z
Si Si1 0.437661 0.195049 0.241163
Si Si2 0.563747 0.080971 0.903640
Si Si3 0.563986 0.578796 0.662454
Si Si4 0.072722 0.420840 0.857458
Si Si5 0.935162 0.273738 0.405572
Si Si6 0.927770 0.711092 0.912817
O O1 0.250000 0.194568 0.251998
O O2 0.480703 0.127934 0.180888
O O3 0.510837 0.216849 0.333275
O O4 0.489565 0.257619 0.176732
O O5 0.750000 0.085301 0.909111
O O6 0.518822 0.000000 0.889598
O O7 0.500000 0.101194 0.000000
O O8 0.750000 0.585026 0.673433
O O9 0.534366 0.500000 0.624470
O O10 0.480772 0.579358 0.756626
O O11 0.503718 0.648363 0.614462
O O12 0.250000 0.395425 0.865372
O O13 0.066024 0.500000 0.888689
O O14 0.958110 0.370653 0.908001
O O15 0.750000 0.278508 0.405750
O O16 0.000000 0.252914 0.500000
O O17 0.750000 0.728462 0.915077
O O18 0.000000 0.740452 0.000000
#
# Coordination Sequence:
#
# PCOD9403670 Si02
#       6
#     8   8   8   8   8   8
#     4  10  21  38  58  83 117 153 189 233 285 339
#     4   9  18  34  59  92 128 163 196 232 275 328
#     4  10  20  36  58  82 110 144 185 237 296 352
#     4  10  20  34  52  74 102 139 185 234 283 337
#     4  12  25  40  61  85 113 149 192 242 293 349
#     4  11  22  34  52  76 107 145 187 233 279 335
#
# _framework density 18.987680999999998
#
# number of rings (size 3 to 8) (size 9 to 14) (size 15 to 20)
#    0.000    1.667    1.667    3.500    0.000    4.000 
#    0.000    0.000    0.000    0.500    0.000    0.000 
#    0.000    0.000    0.000    0.000    0.000    0.000 
#
# Total GULP energy -267691.304587 kJ/mol
# GULP energy per Si atom -5576.902179 kJ/mol
# Density = 1.894446 g / cm^3
# Si number density = 18.987681 Si / 1000 Ang^3
#
#
#
# Elastic Constant Matrix: (Units=GPa)
#
#
# Indices 1 2 3 4 5 6 
#
# 1 39.1940 11.3244 14.0869 0.0000 0.0000 0.0000
# 2 11.3244 94.6410 40.3196 0.0000 0.0000 0.0000
# 3 14.0869 40.3196 122.1002 0.0000 0.0000 0.0000
# 4 0.0000 0.0000 0.0000 35.3512 0.0000 0.0000
# 5 0.0000 0.0000 0.0000 0.0000 30.8939 0.0000
# 6 0.0000 0.0000 0.0000 0.0000 0.0000 17.1735
#
#
#
# Elastic Compliance Matrix: (Units=1/GPa)
#
#
# Indices 1 2 3 4 5 6 
#
# 1 0.027012 -0.002216 -0.002385 0.000000 0.000000 0.000000
# 2 -0.002216 0.012478 -0.003865 0.000000 0.000000 0.000000
# 3 -0.002385 -0.003865 0.009741 0.000000 0.000000 0.000000
# 4 0.000000 0.000000 0.000000 0.028288 0.000000 0.000000
# 5 0.000000 0.000000 0.000000 0.000000 0.032369 0.000000
# 6 0.000000 0.000000 0.000000 0.000000 0.000000 0.058229
#
#
# Mechanical properties :
#
#
# Convention : Reuss Voigt Hill
#
# Bulk Modulus (GPa) = 30.95998 43.04409 37.00203
# Shear Modulus (GPa) = 25.53445 29.36400 27.44923
#
# Velocity S-wave (km/s) = 3.67112 3.93679 3.80627
# Velocity P-wave (km/s) = 5.85749 6.58659 6.23271
#
# Compressibility (1/GPa) = 0.03229977
#
# Stress axis : x y z
#
# Youngs Moduli (GPa) = 37.02126 80.14157 102.65563
#
# Poissons Ratio (x) = 0.17761 0.24478
# Poissons Ratio (y) = 0.08205 0.39674
# Poissons Ratio (z) = 0.08828 0.30973
#
# Static dielectric constant tensor:
#      x y z
#    x 1.639650 0.000000 0.000000 
#    y 0.000000 1.698630 0.000000 
#    z 0.000000 0.000000 1.675080 
# 
# From -- ./inp_files/21115.got.cif
#   From: 2010.05.17/outbox.cif.g08.bks.cpg/sg51_11_cif.got.tgz:21115.got - 2010.06.03 11:52:47.
