data_PCOD9403283
_publ_section_title
;
Structure prediction by ZEFSAII (Michael W. Deem and Ramdas Pophale) SiO2 
 PCOD9403283
Probable space group: P M M A
;
_chemical_formula_sum "Si O2"
_cell_formula_units_Z 56
_cell_length_a 8.748489
_cell_length_b 14.747571
_cell_length_c 26.944665
_cell_angle_alpha 90.000000
_cell_angle_beta 90.000000
_cell_angle_gamma 90.000000
_cell_volume 3476.372728
_symmetry_space_group_name_H-M "P M M A"
_symmetry_group_IT_number 51
_symmetry_cell_setting 'orthorhombic'
loop_
_space_group_symop_operation_xyz
x,y,z
1/2-x,-y,z
1/2+x,-y,-z
-x,y,-z
-x,-y,-z
1/2+x,y,-z
1/2-x,y,z
x,-y,z
loop_
_atom_site_type_symbol
_atom_site_label
_atom_site_fract_x
_atom_site_fract_y
_atom_site_fract_z
Si Si1 0.934282 0.210576 0.947741
Si Si2 0.572833 0.110096 0.448843
Si Si3 0.936182 0.895952 0.849105
Si Si4 0.564586 0.106211 0.339380
Si Si5 0.066491 0.782249 0.247975
Si Si6 0.434549 0.398797 0.097097
Si Si7 0.432816 0.603131 0.792182
O O1 0.750000 0.207690 0.949771
O O2 0.984157 0.151183 0.900432
O O3 0.982033 0.314668 0.936831
O O4 0.000000 0.179199 0.000000
O O5 0.500000 0.143146 0.500000
O O6 0.750000 0.135133 0.449954
O O7 0.510582 0.135945 0.394562
O O8 0.564204 0.000000 0.449210
O O9 0.750000 0.895854 0.849131
O O10 0.983695 0.838007 0.801265
O O11 0.987159 0.000000 0.845760
O O12 0.750000 0.110602 0.338915
O O13 0.496915 0.167072 0.296091
O O14 0.523284 0.000000 0.332045
O O15 0.250000 0.781449 0.248986
O O16 0.004383 0.680791 0.241654
O O17 0.250000 0.395860 0.101202
O O18 0.478585 0.500000 0.079707
O O19 0.502145 0.385493 0.152055
O O20 0.250000 0.612142 0.793413
O O21 0.470698 0.500000 0.776674
#
# Coordination Sequence:
#
# PCOD9403283 Si02
#       7
#     8   8   8   8   8   8   8
#     4  10  20  34  49  68  91 118 150 188 233 280
#     4   8  14  25  41  61  90 130 171 208 245 281
#     4   9  18  33  50  67  90 120 153 190 233 277
#     4   9  18  31  45  67 102 138 169 206 249 284
#     4  11  20  32  51  73  96 126 162 198 238 286
#     4   9  17  32  52  71  92 117 146 182 229 286
#     4  10  20  33  51  74  97 121 150 187 235 291
#
# _framework density 16.108744999999999
#
# number of rings (size 3 to 8) (size 9 to 14) (size 15 to 20)
#    0.000    2.571    1.429    2.143    0.000    3.429 
#    0.000    1.429    0.000    1.714    0.000    0.000 
#    0.000    0.571    0.000    1.857    0.000    2.286 
#
# Total GULP energy -312125.913379 kJ/mol
# GULP energy per Si atom -5573.677025 kJ/mol
# Density = 1.607208 g / cm^3
# Si number density = 16.108745 Si / 1000 Ang^3
#
#
#
# Elastic Constant Matrix: (Units=GPa)
#
#
# Indices 1 2 3 4 5 6 
#
# 1 11.6953 19.8021 26.6088 0.0000 0.0000 0.0000
# 2 19.8021 86.2491 58.6053 0.0000 0.0000 0.0000
# 3 26.6088 58.6053 138.3691 0.0000 0.0000 0.0000
# 4 0.0000 0.0000 0.0000 13.5106 0.0000 0.0000
# 5 0.0000 0.0000 0.0000 0.0000 27.3376 0.0000
# 6 0.0000 0.0000 0.0000 0.0000 0.0000 16.8382
#
#
#
# Elastic Compliance Matrix: (Units=1/GPa)
#
#
# Indices 1 2 3 4 5 6 
#
# 1 0.185417 -0.025754 -0.024748 0.000000 0.000000 0.000000
# 2 -0.025754 0.019857 -0.003458 0.000000 0.000000 0.000000
# 3 -0.024748 -0.003458 0.013451 0.000000 0.000000 0.000000
# 4 0.000000 0.000000 0.000000 0.074016 0.000000 0.000000
# 5 0.000000 0.000000 0.000000 0.000000 0.036580 0.000000
# 6 0.000000 0.000000 0.000000 0.000000 0.000000 0.059389
#
#
# Mechanical properties :
#
#
# Convention : Reuss Voigt Hill
#
# Bulk Modulus (GPa) = 9.02490 49.59398 29.30944
# Shear Modulus (GPa) = 9.37097 20.29044 14.83070
#
# Velocity S-wave (km/s) = 2.41453 3.55292 3.03753
# Velocity P-wave (km/s) = 3.65895 6.90542 5.52597
#
# Compressibility (1/GPa) = 0.11080450
#
# Stress axis : x y z
#
# Youngs Moduli (GPa) = 5.39325 50.36107 74.34585
#
# Poissons Ratio (x) = 1.29700 1.83993
# Poissons Ratio (y) = 0.13890 0.25706
# Poissons Ratio (z) = 0.13347 0.17413
#
# Static dielectric constant tensor:
#      x y z
#    x 1.544670 0.000000 0.000000 
#    y 0.000000 1.541680 0.000000 
#    z 0.000000 0.000000 1.534820 
# 
# From -- ./inp_files/37472.got.cif
#   From: 2010.05.17/outbox.cif.g08.bks.cpg/sg51_19_cif.got.tgz:37472.got - 2010.06.03 11:52:47.
