data_PCOD9403616
_publ_section_title
;
Structure prediction by ZEFSAII (Michael W. Deem and Ramdas Pophale) SiO2 
 PCOD9403616
Probable space group: P M M A
;
_chemical_formula_sum "Si O2"
_cell_formula_units_Z 44
_cell_length_a 8.428519
_cell_length_b 28.689724
_cell_length_c 10.070063
_cell_angle_alpha 90.000000
_cell_angle_beta 90.000000
_cell_angle_gamma 90.000000
_cell_volume 2435.060904
_symmetry_space_group_name_H-M "P M M A"
_symmetry_group_IT_number 51
_symmetry_cell_setting 'orthorhombic'
loop_
_space_group_symop_operation_xyz
x,y,z
1/2-x,-y,z
1/2+x,-y,-z
-x,y,-z
-x,-y,-z
1/2+x,y,-z
1/2-x,y,z
x,-y,z
loop_
_atom_site_type_symbol
_atom_site_label
_atom_site_fract_x
_atom_site_fract_y
_atom_site_fract_z
Si Si1 0.940426 0.734427 0.350342
Si Si2 0.558356 0.080084 0.147322
Si Si3 0.941549 0.186734 0.146541
Si Si4 0.559564 0.367408 0.649871
Si Si5 0.941895 0.000000 0.348860
Si Si6 0.441657 0.447117 0.148456
O O1 0.750000 0.733736 0.351401
O O2 0.996127 0.775786 0.254367
O O3 0.000000 0.741864 0.500000
O O4 0.000286 0.683557 0.306379
O O5 0.750000 0.079287 0.144415
O O6 0.505990 0.133429 0.172827
O O7 0.505900 0.044893 0.262513
O O8 0.500000 0.066429 0.000000
O O9 0.750000 0.186706 0.147028
O O10 0.000000 0.199530 0.000000
O O11 0.500000 0.374974 0.500000
O O12 0.750000 0.366899 0.648312
O O13 0.503686 0.408396 0.747189
O O14 0.000000 0.000000 0.500000
O O15 0.750000 0.000000 0.351698
O O16 0.250000 0.446703 0.148135
O O17 0.493343 0.500000 0.182253
O O18 0.500000 0.436776 0.000000
#
# Coordination Sequence:
#
# PCOD9403616 Si02
#       6
#     8   8   8   8   4   8
#     4  10  20  34  51  72  99 131 165 202 244 290
#     4   9  18  34  53  74  99 129 165 204 245 291
#     4   9  19  34  52  74 100 129 164 204 245 291
#     4  10  20  34  52  74 100 130 165 203 242 289
#     4  10  21  34  50  74 104 132 163 204 246 292
#     4   9  19  35  53  74 100 129 162 200 243 291
#
# _framework density 18.069364
#
# number of rings (size 3 to 8) (size 9 to 14) (size 15 to 20)
#    0.000    2.545    0.000    2.455    0.000    5.455 
#    0.000    3.636    0.000    0.000    0.000    0.000 
#    0.000    0.000    0.000    0.000    0.000    0.000 
#
# Total GULP energy -245451.301719 kJ/mol
# GULP energy per Si atom -5578.438675 kJ/mol
# Density = 1.802824 g / cm^3
# Si number density = 18.069364 Si / 1000 Ang^3
#
#
#
# Elastic Constant Matrix: (Units=GPa)
#
#
# Indices 1 2 3 4 5 6 
#
# 1 19.0949 24.3072 18.5926 0.0000 0.0000 0.0000
# 2 24.3072 156.1455 125.8729 0.0000 0.0000 0.0000
# 3 18.5926 125.8729 135.5668 0.0000 0.0000 0.0000
# 4 0.0000 0.0000 0.0000 40.0436 0.0000 0.0000
# 5 0.0000 0.0000 0.0000 0.0000 30.0642 0.0000
# 6 0.0000 0.0000 0.0000 0.0000 0.0000 23.4726
#
#
#
# Elastic Compliance Matrix: (Units=1/GPa)
#
#
# Indices 1 2 3 4 5 6 
#
# 1 0.065438 -0.011737 0.001923 0.000000 0.000000 0.000000
# 2 -0.011737 0.027568 -0.023987 0.000000 0.000000 0.000000
# 3 0.001923 -0.023987 0.029384 0.000000 0.000000 0.000000
# 4 0.000000 0.000000 0.000000 0.024973 0.000000 0.000000
# 5 0.000000 0.000000 0.000000 0.000000 0.033262 0.000000
# 6 0.000000 0.000000 0.000000 0.000000 0.000000 0.042603
#
#
# Mechanical properties :
#
#
# Convention : Reuss Voigt Hill
#
# Bulk Modulus (GPa) = 18.25192 72.03918 45.14555
# Shear Modulus (GPa) = 16.17640 28.18504 22.18072
#
# Velocity S-wave (km/s) = 2.99530 3.95375 3.50742
# Velocity P-wave (km/s) = 4.69951 7.79728 6.43750
#
# Compressibility (1/GPa) = 0.05478875
#
# Stress axis : x y z
#
# Youngs Moduli (GPa) = 15.28160 36.27429 34.03184
#
# Poissons Ratio (x) = 0.42575 -0.06545
# Poissons Ratio (y) = 0.17936 0.81631
# Poissons Ratio (z) = -0.02939 0.87010
#
# Static dielectric constant tensor:
#      x y z
#    x 1.625550 0.000000 0.000000 
#    y 0.000000 1.634710 0.000000 
#    z 0.000000 0.000000 1.580380 
# 
# From -- ./inp_files/5875.got.cif
#   From: 2010.05.17/outbox.cif.g08.bks.cpg/sg51_3_cif.got.tgz:5875.got - 2010.06.03 11:52:47.
