data_PCOD9403676
_publ_section_title
;
Structure prediction by ZEFSAII (Michael W. Deem and Ramdas Pophale) SiO2 
 PCOD9403676
Probable space group: P M M A
;
_chemical_formula_sum "Si O2"
_cell_formula_units_Z 56
_cell_length_a 18.742897
_cell_length_b 9.025482
_cell_length_c 19.604496
_cell_angle_alpha 90.000000
_cell_angle_beta 90.000000
_cell_angle_gamma 90.000000
_cell_volume 3316.368678
_symmetry_space_group_name_H-M "P M M A"
_symmetry_group_IT_number 51
_symmetry_cell_setting 'orthorhombic'
loop_
_space_group_symop_operation_xyz
x,y,z
1/2-x,-y,z
1/2+x,-y,-z
-x,y,-z
-x,-y,-z
1/2+x,y,-z
1/2-x,y,z
x,-y,z
loop_
_atom_site_type_symbol
_atom_site_label
_atom_site_fract_x
_atom_site_fract_y
_atom_site_fract_z
Si Si1 0.827143 0.822167 0.376803
Si Si2 0.482909 0.675642 0.281501
Si Si3 0.923348 0.675109 0.858734
Si Si4 0.333031 0.177048 0.029059
Si Si5 0.586971 0.323701 0.096693
Si Si6 0.027906 0.677139 0.572680
Si Si7 0.375256 0.174205 0.770009
O O1 0.750000 0.777541 0.405295
O O2 0.895438 0.745654 0.409611
O O3 0.827997 0.789586 0.295669
O O4 0.834562 0.000000 0.383040
O O5 0.503995 0.500000 0.274396
O O6 0.423687 0.698056 0.223278
O O7 0.475575 0.703953 0.362211
O O8 0.546597 0.781613 0.257614
O O9 0.912617 0.500000 0.871619
O O10 0.865563 0.767728 0.899595
O O11 0.003541 0.711605 0.886805
O O12 0.250000 0.221377 0.021277
O O13 0.336933 0.000000 0.024408
O O14 0.382371 0.248090 0.970540
O O15 0.591691 0.500000 0.090697
O O16 0.632854 0.266232 0.161103
O O17 0.036189 0.500000 0.567963
O O18 0.000000 0.732719 0.500000
O O19 0.369581 0.000000 0.785007
#
# Coordination Sequence:
#
# PCOD9403676 Si02
#       7
#     8   8   8   8   8   8   8
#     4   9  18  31  46  67  98 134 167 197 233 283
#     4   8  15  29  48  71  97 121 150 191 235 281
#     4   9  18  33  53  73  93 121 159 200 239 285
#     4  11  24  37  48  67  95 125 160 205 252 292
#     4  10  20  34  52  74  98 125 160 199 240 291
#     4   9  17  30  50  76 103 129 159 198 241 284
#     4   9  16  27  45  69  96 125 156 191 232 278
#
# _framework density 16.885939
#
# number of rings (size 3 to 8) (size 9 to 14) (size 15 to 20)
#    0.000    2.714    0.000    2.571    0.000    7.429 
#    0.000    1.429    0.000    0.857    0.000    6.000 
#    0.000    0.000    0.000    0.000    0.000    0.000 
#
# Total GULP energy -311779.588225 kJ/mol
# GULP energy per Si atom -5567.492647 kJ/mol
# Density = 1.684751 g / cm^3
# Si number density = 16.885939 Si / 1000 Ang^3
#
#
#
# Elastic Constant Matrix: (Units=GPa)
#
#
# Indices 1 2 3 4 5 6 
#
# 1 35.0381 17.5826 25.7880 0.0000 0.0000 0.0000
# 2 17.5826 21.3653 24.7376 0.0000 0.0000 0.0000
# 3 25.7880 24.7376 106.4063 0.0000 0.0000 0.0000
# 4 0.0000 0.0000 0.0000 21.8187 0.0000 0.0000
# 5 0.0000 0.0000 0.0000 0.0000 11.3972 0.0000
# 6 0.0000 0.0000 0.0000 0.0000 0.0000 23.3793
#
#
#
# Elastic Compliance Matrix: (Units=1/GPa)
#
#
# Indices 1 2 3 4 5 6 
#
# 1 0.049531 -0.036757 -0.003459 0.000000 0.000000 0.000000
# 2 -0.036757 0.091322 -0.012322 0.000000 0.000000 0.000000
# 3 -0.003459 -0.012322 0.013101 0.000000 0.000000 0.000000
# 4 0.000000 0.000000 0.000000 0.045832 0.000000 0.000000
# 5 0.000000 0.000000 0.000000 0.000000 0.087741 0.000000
# 6 0.000000 0.000000 0.000000 0.000000 0.000000 0.042773
#
#
# Mechanical properties :
#
#
# Convention : Reuss Voigt Hill
#
# Bulk Modulus (GPa) = 20.45941 33.22511 26.84226
# Shear Modulus (GPa) = 11.07004 17.63248 14.35126
#
# Velocity S-wave (km/s) = 2.56320 3.23493 2.91846
# Velocity P-wave (km/s) = 4.57193 5.80275 5.22372
#
# Compressibility (1/GPa) = 0.04887725
#
# Stress axis : x y z
#
# Youngs Moduli (GPa) = 20.18923 10.95026 76.33050
#
# Poissons Ratio (x) = 0.40250 0.26400
# Poissons Ratio (y) = 0.74210 0.94058
# Poissons Ratio (z) = 0.06983 0.13493
#
# Static dielectric constant tensor:
#      x y z
#    x 1.576190 0.000000 0.000000 
#    y 0.000000 1.562160 0.000000 
#    z 0.000000 0.000000 1.606540 
# 
# From -- ./inp_files/30343.got.cif
#   From: 2010.05.17/outbox.cif.g08.bks.cpg/sg51_16_cif.got.tgz:30343.got - 2010.06.03 11:52:47.
