data_PCOD9403663
_publ_section_title
;
Structure prediction by ZEFSAII (Michael W. Deem and Ramdas Pophale) SiO2 
 PCOD9403663
Probable space group: P M M A
;
_chemical_formula_sum "Si O2"
_cell_formula_units_Z 48
_cell_length_a 18.524034
_cell_length_b 7.637777
_cell_length_c 17.177803
_cell_angle_alpha 90.000000
_cell_angle_beta 90.000000
_cell_angle_gamma 90.000000
_cell_volume 2430.357497
_symmetry_space_group_name_H-M "P M M A"
_symmetry_group_IT_number 51
_symmetry_cell_setting 'orthorhombic'
loop_
_space_group_symop_operation_xyz
x,y,z
1/2-x,-y,z
1/2+x,-y,-z
-x,y,-z
-x,-y,-z
1/2+x,y,-z
1/2-x,y,z
x,-y,z
loop_
_atom_site_type_symbol
_atom_site_label
_atom_site_fract_x
_atom_site_fract_y
_atom_site_fract_z
Si Si1 0.524156 0.211219 0.084193
Si Si2 0.416320 0.214757 0.507409
Si Si3 0.331991 0.789045 0.353334
Si Si4 0.110560 0.200374 0.676595
Si Si5 0.963642 0.297423 0.751866
Si Si6 0.829626 0.214612 0.162388
O O1 0.472976 0.257467 0.156915
O O2 0.604192 0.271968 0.108649
O O3 0.526012 0.000000 0.080635
O O4 0.500000 0.277002 0.000000
O O5 0.500000 0.267516 0.500000
O O6 0.369815 0.271836 0.433390
O O7 0.386386 0.277663 0.590559
O O8 0.415984 0.000000 0.508624
O O9 0.250000 0.724917 0.345084
O O10 0.385709 0.742808 0.283223
O O11 0.329392 0.000000 0.357244
O O12 0.153543 0.276941 0.749690
O O13 0.026826 0.198489 0.704630
O O14 0.135831 0.000000 0.669295
O O15 0.979720 0.500000 0.739371
O O16 0.750000 0.267710 0.137368
O O17 0.831764 0.000000 0.163901
#
# Coordination Sequence:
#
# PCOD9403663 Si02
#       6
#     8   8   8   8   8   8
#     4   9  18  34  56  78 100 129 167 209 255 312
#     4   9  15  26  48  73  97 126 165 216 258 293
#     4  10  20  34  52  74 101 136 179 222 263 305
#     4   9  16  29  50  72  98 132 170 207 251 308
#     4  11  21  33  51  73 101 134 169 208 253 310
#     4   8  14  25  45  74 102 124 152 199 252 297
#
# _framework density 19.750178999999999
#
# number of rings (size 3 to 8) (size 9 to 14) (size 15 to 20)
#    0.000    2.667    1.667    2.500    0.000    1.333 
#    0.000    5.833    0.000   11.000    0.000    0.000 
#    0.000    0.000    0.000    0.000    0.000    0.000 
#
# Total GULP energy -267754.031839 kJ/mol
# GULP energy per Si atom -5578.208997 kJ/mol
# Density = 1.970523 g / cm^3
# Si number density = 19.750179 Si / 1000 Ang^3
#
#
#
# Elastic Constant Matrix: (Units=GPa)
#
#
# Indices 1 2 3 4 5 6 
#
# 1 141.2557 0.6727 92.1929 0.0000 0.0000 0.0000
# 2 0.6727 45.6306 3.3728 0.0000 0.0000 0.0000
# 3 92.1929 3.3728 175.7174 0.0000 0.0000 0.0000
# 4 0.0000 0.0000 0.0000 -88.7364 0.0000 0.0000
# 5 0.0000 0.0000 0.0000 0.0000 17.8582 0.0000
# 6 0.0000 0.0000 0.0000 0.0000 0.0000 -12.5893
#
#
#
# Elastic Compliance Matrix: (Units=1/GPa)
#
#
# Indices 1 2 3 4 5 6 
#
# 1 0.010769 0.000259 -0.005655 0.000000 0.000000 0.000000
# 2 0.000259 0.021952 -0.000557 0.000000 0.000000 0.000000
# 3 -0.005655 -0.000557 0.008669 0.000000 0.000000 0.000000
# 4 0.000000 0.000000 0.000000 -0.011269 0.000000 0.000000
# 5 0.000000 0.000000 0.000000 0.000000 0.055997 0.000000
# 6 0.000000 0.000000 0.000000 0.000000 0.000000 -0.079433
#
#
# Mechanical properties :
#
#
# Convention : Reuss Voigt Hill
#
# Bulk Modulus (GPa) = 33.91707 61.67563 47.79635
# Shear Modulus (GPa) = 175.93581 1.06419 88.50000
#
# Velocity S-wave (km/s) = 9.44849 0.73484 6.70127
# Velocity P-wave (km/s) = 11.67229 5.65824 9.17219
#
# Compressibility (1/GPa) = 0.02948368
#
# Stress axis : x y z
#
# Youngs Moduli (GPa) = 92.85893 45.55295 115.35763
#
# Poissons Ratio (x) = -0.01181 0.65236
# Poissons Ratio (y) = -0.02407 0.06430
# Poissons Ratio (z) = 0.52513 0.02539
#
# Static dielectric constant tensor:
#      x y z
#    x 1.683940 0.000000 0.000000 
#    y 0.000000 1.728100 0.000000 
#    z 0.000000 0.000000 1.682500 
# 
# From -- ./inp_files/30033.got.cif
#   From: 2010.05.17/outbox.cif.g08.bks.cpg/sg51_16_cif.got.tgz:30033.got - 2010.06.03 11:52:47.
