data_PCOD9403757
_publ_section_title
;
Structure prediction by ZEFSAII (Michael W. Deem and Ramdas Pophale) SiO2 
 PCOD9403757
Probable space group: P M M A
;
_chemical_formula_sum "Si O2"
_cell_formula_units_Z 40
_cell_length_a 18.818903
_cell_length_b 8.304571
_cell_length_c 14.144105
_cell_angle_alpha 90.000000
_cell_angle_beta 90.000000
_cell_angle_gamma 90.000000
_cell_volume 2210.481975
_symmetry_space_group_name_H-M "P M M A"
_symmetry_group_IT_number 51
_symmetry_cell_setting 'orthorhombic'
loop_
_space_group_symop_operation_xyz
x,y,z
1/2-x,-y,z
1/2+x,-y,-z
-x,y,-z
-x,-y,-z
1/2+x,y,-z
1/2-x,y,z
x,-y,z
loop_
_atom_site_type_symbol
_atom_site_label
_atom_site_fract_x
_atom_site_fract_y
_atom_site_fract_z
Si Si1 0.596388 0.194590 0.890352
Si Si2 0.168509 0.805491 0.914984
Si Si3 0.543692 0.690784 0.208287
Si Si4 0.829294 0.196211 0.695529
Si Si5 0.472029 0.194541 0.399220
O O1 0.517780 0.254877 0.865331
O O2 0.646090 0.240431 0.801498
O O3 0.592941 0.000000 0.892777
O O4 0.630362 0.251137 0.988269
O O5 0.250000 0.749487 0.909489
O O6 0.118890 0.753583 0.828764
O O7 0.169749 0.000000 0.918453
O O8 0.544348 0.500000 0.212461
O O9 0.520694 0.757533 0.310440
O O10 0.750000 0.253719 0.674548
O O11 0.892120 0.250223 0.626038
O O12 0.828160 0.000000 0.692897
O O13 0.500000 0.253879 0.500000
O O14 0.470603 0.000000 0.402182
#
# Coordination Sequence:
#
# PCOD9403757 Si02
#       5
#     8   8   8   8   8
#     4   9  17  31  52  75  99 129 168 211 251 294
#     4  10  20  34  53  76 102 135 175 214 248 286
#     4  11  22  34  50  73 103 137 169 203 251 311
#     4   8  13  24  46  75 100 120 151 202 258 302
#     4   9  18  34  55  75  96 126 169 218 262 304
#
# _framework density 18.095600999999998
#
# number of rings (size 3 to 8) (size 9 to 14) (size 15 to 20)
#    0.000    2.600    0.000    4.200    0.000    6.400 
#    0.000    1.000    0.000   18.000    0.000    0.000 
#    0.000    0.000    0.000    0.000    0.000    0.000 
#
# Total GULP energy -223124.826547 kJ/mol
# GULP energy per Si atom -5578.120664 kJ/mol
# Density = 1.805441 g / cm^3
# Si number density = 18.095601 Si / 1000 Ang^3
#
#
#
# Elastic Constant Matrix: (Units=GPa)
#
#
# Indices 1 2 3 4 5 6 
#
# 1 146.3529 12.2470 89.2814 0.0000 0.0000 0.0000
# 2 12.2470 9.8989 8.1442 0.0000 0.0000 0.0000
# 3 89.2814 8.1442 110.6648 0.0000 0.0000 0.0000
# 4 0.0000 0.0000 0.0000 0.3141 0.0000 0.0000
# 5 0.0000 0.0000 0.0000 0.0000 17.1321 0.0000
# 6 0.0000 0.0000 0.0000 0.0000 0.0000 -13.9767
#
#
#
# Elastic Compliance Matrix: (Units=1/GPa)
#
#
# Indices 1 2 3 4 5 6 
#
# 1 0.014113 -0.008615 -0.010752 0.000000 0.000000 0.000000
# 2 -0.008615 0.112791 -0.001351 0.000000 0.000000 0.000000
# 3 -0.010752 -0.001351 0.017810 0.000000 0.000000 0.000000
# 4 0.000000 0.000000 0.000000 3.183393 0.000000 0.000000
# 5 0.000000 0.000000 0.000000 0.000000 0.058370 0.000000
# 6 0.000000 0.000000 0.000000 0.000000 0.000000 -0.071548
#
#
# Mechanical properties :
#
#
# Convention : Reuss Voigt Hill
#
# Bulk Modulus (GPa) = 9.68245 54.02908 31.85576
# Shear Modulus (GPa) = 1.47458 11.17683 6.32571
#
# Velocity S-wave (km/s) = 0.90369 2.48796 1.87171
# Velocity P-wave (km/s) = 2.53992 6.17865 4.72371
#
# Compressibility (1/GPa) = 0.10327969
#
# Stress axis : x y z
#
# Youngs Moduli (GPa) = 70.85804 8.86595 56.14836
#
# Poissons Ratio (x) = 0.07638 0.60370
# Poissons Ratio (y) = 0.61041 0.07584
# Poissons Ratio (z) = 0.76185 0.01197
#
# Static dielectric constant tensor:
#      x y z
#    x 1.623000 0.000000 0.000000 
#    y 0.000000 1.614940 0.000000 
#    z 0.000000 0.000000 1.607200 
# 
# From -- ./inp_files/24536.got.cif
#   From: 2010.05.17/outbox.cif.g08.bks.cpg/sg51_13_cif.got.tgz:24536.got - 2010.06.03 11:52:47.
