data_PCOD9403156
_publ_section_title
;
Structure prediction by ZEFSAII (Michael W. Deem and Ramdas Pophale) SiO2 
 PCOD9403156
Probable space group: P M M A
;
_chemical_formula_sum "Si O2"
_cell_formula_units_Z 64
_cell_length_a 19.062729
_cell_length_b 9.163379
_cell_length_c 19.481481
_cell_angle_alpha 90.000000
_cell_angle_beta 90.000000
_cell_angle_gamma 90.000000
_cell_volume 3403.005826
_symmetry_space_group_name_H-M "P M M A"
_symmetry_group_IT_number 51
_symmetry_cell_setting 'orthorhombic'
loop_
_space_group_symop_operation_xyz
x,y,z
1/2-x,-y,z
1/2+x,-y,-z
-x,y,-z
-x,-y,-z
1/2+x,y,-z
1/2-x,y,z
x,-y,z
loop_
_atom_site_type_symbol
_atom_site_label
_atom_site_fract_x
_atom_site_fract_y
_atom_site_fract_z
Si Si1 0.406253 0.174958 0.604453
Si Si2 0.331365 0.839159 0.868465
Si Si3 0.865187 0.664824 0.263200
Si Si4 0.834309 0.331480 0.999144
Si Si5 0.045239 0.826108 0.067986
Si Si6 0.975175 0.334667 0.789795
Si Si7 0.064304 0.175090 0.344752
Si Si8 0.169086 0.822591 0.462989
O O1 0.363976 0.262305 0.662452
O O2 0.489048 0.204233 0.617769
O O3 0.376484 0.216639 0.530113
O O4 0.396756 0.000000 0.613286
O O5 0.250000 0.857073 0.885925
O O6 0.333569 0.771325 0.793444
O O7 0.365586 0.000000 0.872415
O O8 0.356850 0.725620 0.925346
O O9 0.836799 0.500000 0.261745
O O10 0.946261 0.657578 0.240037
O O11 0.750000 0.322370 0.992043
O O12 0.854562 0.500000 0.990768
O O13 0.876177 0.229732 0.947206
O O14 0.022098 0.751030 0.138623
O O15 0.042565 0.000000 0.074677
O O16 0.000000 0.785586 0.000000
O O17 0.949488 0.500000 0.800563
O O18 0.933922 0.251926 0.729184
O O19 0.126722 0.222916 0.395143
O O20 0.067677 0.000000 0.335224
O O21 0.250000 0.772703 0.466273
O O22 0.170518 0.000000 0.461948
#
# Coordination Sequence:
#
# PCOD9403156 Si02
#       8
#     8   8   8   8   8   8   8   8
#     4   9  17  30  50  75 103 135 171 211 257 314
#     4  10  20  33  50  72 100 137 178 216 257 311
#     4  10  20  33  50  74 104 137 173 216 265 314
#     4  10  21  37  56  78 106 141 179 219 267 323
#     4  11  23  37  57  85 113 142 179 224 272 321
#     4  10  21  36  54  77 105 137 175 219 267 318
#     4   9  17  32  54  76 100 134 175 215 258 312
#     4   9  17  30  51  79 106 132 169 218 266 310
#
# _framework density 18.806903999999999
#
# number of rings (size 3 to 8) (size 9 to 14) (size 15 to 20)
#    0.000    2.250    0.000    3.000    0.000    8.000 
#    0.000    2.500    0.000    6.375    0.000    0.000 
#    0.000    0.000    0.000    0.000    0.000    0.000 
#
# Total GULP energy -356924.329282 kJ/mol
# GULP energy per Si atom -5576.942645 kJ/mol
# Density = 1.876410 g / cm^3
# Si number density = 18.806904 Si / 1000 Ang^3
#
#
#
# Elastic Constant Matrix: (Units=GPa)
#
#
# Indices 1 2 3 4 5 6 
#
# 1 52.3254 28.7271 38.9319 0.0000 0.0000 0.0000
# 2 28.7271 75.4412 52.6667 0.0000 0.0000 0.0000
# 3 38.9319 52.6667 139.3226 0.0000 0.0000 0.0000
# 4 0.0000 0.0000 0.0000 -12.1532 0.0000 0.0000
# 5 0.0000 0.0000 0.0000 0.0000 27.5336 0.0000
# 6 0.0000 0.0000 0.0000 0.0000 0.0000 11.3550
#
#
#
# Elastic Compliance Matrix: (Units=1/GPa)
#
#
# Indices 1 2 3 4 5 6 
#
# 1 0.026377 -0.006655 -0.004855 0.000000 0.000000 0.000000
# 2 -0.006655 0.019686 -0.005582 0.000000 0.000000 0.000000
# 3 -0.004855 -0.005582 0.010645 0.000000 0.000000 0.000000
# 4 0.000000 0.000000 0.000000 -0.082283 0.000000 0.000000
# 5 0.000000 0.000000 0.000000 0.000000 0.036319 0.000000
# 6 0.000000 0.000000 0.000000 0.000000 0.000000 0.088067
#
#
# Mechanical properties :
#
#
# Convention : Reuss Voigt Hill
#
# Bulk Modulus (GPa) = 44.39742 56.41562 50.40652
# Shear Modulus (GPa) = 35.58637 15.13132 25.35884
#
# Velocity S-wave (km/s) = 4.35466 2.83956 3.67601
# Velocity P-wave (km/s) = 6.99588 6.38852 6.69909
#
# Compressibility (1/GPa) = 0.02252383
#
# Stress axis : x y z
#
# Youngs Moduli (GPa) = 37.91185 50.79631 93.94510
#
# Poissons Ratio (x) = 0.33803 0.45612
# Poissons Ratio (y) = 0.25229 0.52443
# Poissons Ratio (z) = 0.18407 0.28356
#
# Static dielectric constant tensor:
#      x y z
#    x 1.695350 0.000000 0.000000 
#    y 0.000000 1.651400 0.000000 
#    z 0.000000 0.000000 1.634230 
# 
# From -- ./inp_files/30610.got.cif
#   From: 2010.05.17/outbox.cif.g08.bks.cpg/sg51_16_cif.got.tgz:30610.got - 2010.06.03 11:52:47.
