data_PCOD9403296
_publ_section_title
;
Structure prediction by ZEFSAII (Michael W. Deem and Ramdas Pophale) SiO2 
 PCOD9403296
Probable space group: P M M A
;
_chemical_formula_sum "Si O2"
_cell_formula_units_Z 56
_cell_length_a 20.047885
_cell_length_b 7.930770
_cell_length_c 18.237861
_cell_angle_alpha 90.000000
_cell_angle_beta 90.000000
_cell_angle_gamma 90.000000
_cell_volume 2899.731718
_symmetry_space_group_name_H-M "P M M A"
_symmetry_group_IT_number 51
_symmetry_cell_setting 'orthorhombic'
loop_
_space_group_symop_operation_xyz
x,y,z
1/2-x,-y,z
1/2+x,-y,-z
-x,y,-z
-x,-y,-z
1/2+x,y,-z
1/2-x,y,z
x,-y,z
loop_
_atom_site_type_symbol
_atom_site_label
_atom_site_fract_x
_atom_site_fract_y
_atom_site_fract_z
Si Si1 0.672762 0.205984 0.074456
Si Si2 0.419261 0.198913 0.795239
Si Si3 0.566790 0.300240 0.789531
Si Si4 0.919610 0.201833 0.370522
Si Si5 0.673280 0.203775 0.910057
Si Si6 0.174093 0.702368 0.497954
Si Si7 0.929631 0.702974 0.623214
O O1 0.750000 0.252370 0.085766
O O2 0.626677 0.269658 0.140203
O O3 0.670068 0.000000 0.074255
O O4 0.652815 0.259411 0.992200
O O5 0.497004 0.219779 0.813736
O O6 0.410142 0.268433 0.712745
O O7 0.404108 0.000000 0.790695
O O8 0.555799 0.500000 0.784717
O O9 0.624815 0.265227 0.846826
O O10 0.582168 0.238120 0.706876
O O11 0.863097 0.262028 0.425811
O O12 0.994010 0.252622 0.396095
O O13 0.918049 0.000000 0.368253
O O14 0.750000 0.257194 0.898312
O O15 0.672363 0.000000 0.909501
O O16 0.250000 0.767610 0.495365
O O17 0.177654 0.500000 0.489618
O O18 0.125282 0.768451 0.433724
O O19 0.925172 0.500000 0.622622
#
# Coordination Sequence:
#
# PCOD9403296 Si02
#       7
#     8   8   8   8   8   8   8
#     4   8  15  30  52  74  95 127 171 208 238 284
#     4   9  18  33  53  75 100 131 166 203 242 290
#     4  10  20  33  51  75 102 130 163 206 250 292
#     4  10  20  33  52  78 104 129 160 203 254 299
#     4   9  18  33  52  73  98 129 166 206 247 293
#     4  10  21  36  53  73  98 130 168 205 241 289
#     4   9  19  36  55  72  95 133 174 204 236 289
#
# _framework density 19.312131000000001
#
# number of rings (size 3 to 8) (size 9 to 14) (size 15 to 20)
#    0.000    2.714    0.000    2.143    0.000    5.714 
#    0.000    6.429    0.000    1.286    0.000    0.000 
#    0.000    0.000    0.000    0.000    0.000    0.000 
#
# Total GULP energy -312350.095892 kJ/mol
# GULP energy per Si atom -5577.680284 kJ/mol
# Density = 1.926818 g / cm^3
# Si number density = 19.312131 Si / 1000 Ang^3
#
#
#
# Elastic Constant Matrix: (Units=GPa)
#
#
# Indices 1 2 3 4 5 6 
#
# 1 106.9650 1.2763 75.8483 0.0000 0.0000 0.0000
# 2 1.2763 13.7270 4.9084 0.0000 0.0000 0.0000
# 3 75.8483 4.9084 94.0374 0.0000 0.0000 0.0000
# 4 0.0000 0.0000 0.0000 16.2809 0.0000 0.0000
# 5 0.0000 0.0000 0.0000 0.0000 -422.5420 0.0000
# 6 0.0000 0.0000 0.0000 0.0000 0.0000 18.8668
#
#
#
# Elastic Compliance Matrix: (Units=1/GPa)
#
#
# Indices 1 2 3 4 5 6 
#
# 1 0.022098 0.004401 -0.018053 0.000000 0.000000 0.000000
# 2 0.004401 0.075111 -0.007470 0.000000 0.000000 0.000000
# 3 -0.018053 -0.007470 0.025585 0.000000 0.000000 0.000000
# 4 0.000000 0.000000 0.000000 0.061422 0.000000 0.000000
# 5 0.000000 0.000000 0.000000 0.000000 -0.002367 0.000000
# 6 0.000000 0.000000 0.000000 0.000000 0.000000 0.053003
#
#
# Mechanical properties :
#
#
# Convention : Reuss Voigt Hill
#
# Bulk Modulus (GPa) = 12.41481 42.08836 27.25159
# Shear Modulus (GPa) = 16.45024 -68.63242 -26.09109
#
# Velocity S-wave (km/s) = 2.92174 -5.96789 -3.67961
# Velocity P-wave (km/s) = 4.22192 5.06424 1.97761
#
# Compressibility (1/GPa) = 0.08054894
#
# Stress axis : x y z
#
# Youngs Moduli (GPa) = 45.25334 13.31364 39.08494
#
# Poissons Ratio (x) = -0.05859 0.70561
# Poissons Ratio (y) = -0.19915 0.29196
# Poissons Ratio (z) = 0.81697 0.09945
#
# Static dielectric constant tensor:
#      x y z
#    x 1.639960 0.000000 0.000000 
#    y 0.000000 1.706820 0.000000 
#    z 0.000000 0.000000 1.690500 
# 
# From -- ./inp_files/25710.got.cif
#   From: 2010.05.17/outbox.cif.g08.bks.cpg/sg51_13_cif.got.tgz:25710.got - 2010.06.03 11:52:47.
