data_PCOD9403847
_publ_section_title
;
Structure prediction by ZEFSAII (Michael W. Deem and Ramdas Pophale) SiO2 
 PCOD9403847
Probable space group: P M M A
;
_chemical_formula_sum "Si O2"
_cell_formula_units_Z 64
_cell_length_a 29.837418
_cell_length_b 7.599247
_cell_length_c 12.900634
_cell_angle_alpha 90.000000
_cell_angle_beta 90.000000
_cell_angle_gamma 90.000000
_cell_volume 2925.114383
_symmetry_space_group_name_H-M "P M M A"
_symmetry_group_IT_number 51
_symmetry_cell_setting 'orthorhombic'
loop_
_space_group_symop_operation_xyz
x,y,z
1/2-x,-y,z
1/2+x,-y,-z
-x,y,-z
-x,-y,-z
1/2+x,y,-z
1/2-x,y,z
x,-y,z
loop_
_atom_site_type_symbol
_atom_site_label
_atom_site_fract_x
_atom_site_fract_y
_atom_site_fract_z
Si Si1 0.550235 0.786546 0.972408
Si Si2 0.630140 0.210420 0.116715
Si Si3 0.345154 0.711021 0.276521
Si Si4 0.441876 0.704203 0.264266
Si Si5 0.301155 0.287933 0.062935
Si Si6 0.200104 0.788120 0.489380
Si Si7 0.873315 0.792198 0.349196
Si Si8 0.523992 0.287955 0.392443
O O1 0.561423 0.716719 0.858998
O O2 0.551942 0.000000 0.967766
O O3 0.500000 0.733707 0.000000
O O4 0.585976 0.723604 0.056811
O O5 0.671708 0.243446 0.040716
O O6 0.633714 0.281298 0.233195
O O7 0.624734 0.000000 0.125204
O O8 0.349670 0.500000 0.265630
O O9 0.394860 0.781917 0.303710
O O10 0.312169 0.745541 0.371064
O O11 0.326688 0.777847 0.166272
O O12 0.442732 0.500000 0.297407
O O13 0.489130 0.777389 0.304560
O O14 0.250000 0.224230 0.060695
O O15 0.299922 0.500000 0.070226
O O16 0.250000 0.723722 0.515549
O O17 0.161181 0.719421 0.565605
O O18 0.200715 0.000000 0.496718
O O19 0.925307 0.774823 0.380384
O O20 0.863731 0.000000 0.343271
O O21 0.500000 0.238999 0.500000
O O22 0.527387 0.500000 0.388877
#
# Coordination Sequence:
#
# PCOD9403847 Si02
#       8
#     8   8   8   8   8   8   8   8
#     4  10  20  34  53  79 111 146 185 229 275 327
#     4  10  21  37  57  82 113 151 192 233 282 340
#     4  10  20  37  60  85 115 149 188 235 289 346
#     4  10  20  34  55  82 111 147 187 229 279 334
#     4  10  21  37  58  84 114 149 190 238 289 340
#     4  10  22  39  59  84 112 144 187 240 292 343
#     4  10  22  40  60  83 114 152 194 236 285 342
#     4  10  21  37  57  84 116 151 193 237 283 337
#
# _framework density 21.879486
#
# number of rings (size 3 to 8) (size 9 to 14) (size 15 to 20)
#    0.000    2.000    1.250    1.875    0.000    6.500 
#    0.000    1.250    0.000    0.000    0.000    0.000 
#    0.000    0.000    0.000    0.000    0.000    0.000 
#
# Total GULP energy -357554.897958 kJ/mol
# GULP energy per Si atom -5586.795281 kJ/mol
# Density = 2.182969 g / cm^3
# Si number density = 21.879486 Si / 1000 Ang^3
#
#
#
# Elastic Constant Matrix: (Units=GPa)
#
#
# Indices 1 2 3 4 5 6 
#
# 1 162.4267 -7.9262 55.7233 0.0000 0.0000 0.0000
# 2 -7.9262 40.6746 -10.1001 0.0000 0.0000 0.0000
# 3 55.7233 -10.1001 121.6908 0.0000 0.0000 0.0000
# 4 0.0000 0.0000 0.0000 9.6189 0.0000 0.0000
# 5 0.0000 0.0000 0.0000 0.0000 38.2006 0.0000
# 6 0.0000 0.0000 0.0000 0.0000 0.0000 18.1096
#
#
#
# Elastic Compliance Matrix: (Units=1/GPa)
#
#
# Indices 1 2 3 4 5 6 
#
# 1 0.007319 0.000607 -0.003301 0.000000 0.000000 0.000000
# 2 0.000607 0.025153 0.001810 0.000000 0.000000 0.000000
# 3 -0.003301 0.001810 0.009879 0.000000 0.000000 0.000000
# 4 0.000000 0.000000 0.000000 0.103962 0.000000 0.000000
# 5 0.000000 0.000000 0.000000 0.000000 0.026178 0.000000
# 6 0.000000 0.000000 0.000000 0.000000 0.000000 0.055219
#
#
# Mechanical properties :
#
#
# Convention : Reuss Voigt Hill
#
# Bulk Modulus (GPa) = 24.64150 44.46512 34.55331
# Shear Modulus (GPa) = 20.57559 32.32548 26.45054
#
# Velocity S-wave (km/s) = 3.06993 3.84791 3.48072
# Velocity P-wave (km/s) = 4.88393 6.33315 5.65515
#
# Compressibility (1/GPa) = 0.04058194
#
# Stress axis : x y z
#
# Youngs Moduli (GPa) = 136.63695 39.75670 101.22178
#
# Poissons Ratio (x) = -0.02411 0.33413
# Poissons Ratio (y) = -0.08287 -0.18320
# Poissons Ratio (z) = 0.45103 -0.07196
#
# Static dielectric constant tensor:
#      x y z
#    x 1.805560 0.000000 0.000000 
#    y 0.000000 1.823770 0.000000 
#    z 0.000000 0.000000 1.780910 
# 
# From -- ./inp_files/19513.got.cif
#   From: 2010.05.17/outbox.cif.g08.bks.cpg/sg51_10_cif.got.tgz:19513.got - 2010.06.03 11:52:47.
