data_PCOD9403336
_publ_section_title
;
Structure prediction by ZEFSAII (Michael W. Deem and Ramdas Pophale) SiO2 
 PCOD9403336
Probable space group: P M M A
;
_chemical_formula_sum "Si O2"
_cell_formula_units_Z 48
_cell_length_a 9.442307
_cell_length_b 7.521524
_cell_length_c 31.806082
_cell_angle_alpha 90.000000
_cell_angle_beta 90.000000
_cell_angle_gamma 90.000000
_cell_volume 2258.885078
_symmetry_space_group_name_H-M "P M M A"
_symmetry_group_IT_number 51
_symmetry_cell_setting 'orthorhombic'
loop_
_space_group_symop_operation_xyz
x,y,z
1/2-x,-y,z
1/2+x,-y,-z
-x,y,-z
-x,-y,-z
1/2+x,y,-z
1/2-x,y,z
x,-y,z
loop_
_atom_site_type_symbol
_atom_site_label
_atom_site_fract_x
_atom_site_fract_y
_atom_site_fract_z
Si Si1 0.589206 0.789167 0.201695
Si Si2 0.087322 0.282403 0.376584
Si Si3 0.411313 0.712803 0.703359
Si Si4 0.086679 0.717207 0.541174
Si Si5 0.409073 0.709668 0.120619
Si Si6 0.087297 0.717550 0.958786
O O1 0.750000 0.716328 0.196933
O O2 0.540507 0.749021 0.249109
O O3 0.485794 0.726339 0.165300
O O4 0.597546 0.000000 0.197669
O O5 0.250000 0.225196 0.379861
O O6 0.088230 0.500000 0.376531
O O7 0.013297 0.222234 0.333456
O O8 0.994474 0.227308 0.416634
O O9 0.250000 0.781806 0.699066
O O10 0.404171 0.500000 0.698779
O O11 0.250000 0.774816 0.540369
O O12 0.087924 0.500000 0.541055
O O13 0.000000 0.773425 0.500000
O O14 0.250000 0.784462 0.120971
O O15 0.396453 0.500000 0.112034
O O16 0.507649 0.780564 0.083219
O O17 0.250000 0.776127 0.960119
O O18 0.089886 0.500000 0.958432
O O19 0.000000 0.770892 0.000000
#
# Coordination Sequence:
#
# PCOD9403336 Si02
#       6
#     8   8   8   8   8   8
#     4  10  21  36  53  73  98 129 165 205 250 299
#     4   9  16  25  38  58  84 114 150 191 233 278
#     4   9  17  30  48  68  91 121 157 197 241 288
#     4   9  15  22  33  51  79 115 151 185 225 275
#     4  10  20  33  51  76 104 134 169 206 244 289
#     4   9  16  27  46  73 104 134 164 201 243 285
#
# _framework density 21.249421000000002
#
# number of rings (size 3 to 8) (size 9 to 14) (size 15 to 20)
#    0.000    2.667    0.000    2.500    0.000    8.667 
#    0.000    1.667    0.000    0.500    0.000    0.000 
#    0.000    0.667    0.000    1.833    0.000    3.333 
#
# Total GULP energy -268096.158314 kJ/mol
# GULP energy per Si atom -5585.336632 kJ/mol
# Density = 2.120106 g / cm^3
# Si number density = 21.249421 Si / 1000 Ang^3
#
#
#
# Elastic Constant Matrix: (Units=GPa)
#
#
# Indices 1 2 3 4 5 6 
#
# 1 216.5898 5.3315 156.6939 0.0000 0.0000 0.0000
# 2 5.3315 53.5106 -4.6687 0.0000 0.0000 0.0000
# 3 156.6939 -4.6687 211.6615 0.0000 0.0000 0.0000
# 4 0.0000 0.0000 0.0000 -55.1444 0.0000 0.0000
# 5 0.0000 0.0000 0.0000 0.0000 41.0458 0.0000
# 6 0.0000 0.0000 0.0000 0.0000 0.0000 -5.9442
#
#
#
# Elastic Compliance Matrix: (Units=1/GPa)
#
#
# Indices 1 2 3 4 5 6 
#
# 1 0.010086 -0.001660 -0.007504 0.000000 0.000000 0.000000
# 2 -0.001660 0.018997 0.001648 0.000000 0.000000 0.000000
# 3 -0.007504 0.001648 0.010316 0.000000 0.000000 0.000000
# 4 0.000000 0.000000 0.000000 -0.018134 0.000000 0.000000
# 5 0.000000 0.000000 0.000000 0.000000 0.024363 0.000000
# 6 0.000000 0.000000 0.000000 0.000000 0.000000 -0.168233
#
#
# Mechanical properties :
#
#
# Convention : Reuss Voigt Hill
#
# Bulk Modulus (GPa) = 41.03732 88.49725 64.76729
# Shear Modulus (GPa) = -50.27628 17.61848 -16.32890
#
# Velocity S-wave (km/s) = -4.86944 2.88258 -2.77508
# Velocity P-wave (km/s) = 3.50159 7.26749 4.50307
#
# Compressibility (1/GPa) = 0.02436806
#
# Stress axis : x y z
#
# Youngs Moduli (GPa) = 99.14267 52.63986 96.93803
#
# Poissons Ratio (x) = 0.08736 0.72739
# Poissons Ratio (y) = 0.16454 -0.15972
# Poissons Ratio (z) = 0.74393 -0.08673
#
# Static dielectric constant tensor:
#      x y z
#    x 1.741850 0.000000 0.000000 
#    y 0.000000 1.788010 0.000000 
#    z 0.000000 0.000000 1.723530 
# 
# From -- ./inp_files/36987.got.cif
#   From: 2010.05.17/outbox.cif.g08.bks.cpg/sg51_19_cif.got.tgz:36987.got - 2010.06.03 11:52:47.
