data_PCOD9403638
_publ_section_title
;
Structure prediction by ZEFSAII (Michael W. Deem and Ramdas Pophale) SiO2 
 PCOD9403638
Probable space group: P M M A
;
_chemical_formula_sum "Si O2"
_cell_formula_units_Z 64
_cell_length_a 27.789023
_cell_length_b 9.545323
_cell_length_c 14.676174
_cell_angle_alpha 90.000000
_cell_angle_beta 90.000000
_cell_angle_gamma 90.000000
_cell_volume 3892.931475
_symmetry_space_group_name_H-M "P M M A"
_symmetry_group_IT_number 51
_symmetry_cell_setting 'orthorhombic'
loop_
_space_group_symop_operation_xyz
x,y,z
1/2-x,-y,z
1/2+x,-y,-z
-x,y,-z
-x,-y,-z
1/2+x,y,-z
1/2-x,y,z
x,-y,z
loop_
_atom_site_type_symbol
_atom_site_label
_atom_site_fract_x
_atom_site_fract_y
_atom_site_fract_z
Si Si1 0.070160 0.836138 0.281676
Si Si2 0.461773 0.834940 0.786895
Si Si3 0.446662 0.666212 0.463981
Si Si4 0.103748 0.666103 0.650424
Si Si5 0.806960 0.161659 0.049359
Si Si6 0.445558 0.657955 0.965935
Si Si7 0.305972 0.332814 0.772519
Si Si8 0.881669 0.166061 0.898173
O O1 0.067658 0.745729 0.372541
O O2 0.111481 0.799738 0.208139
O O3 0.018891 0.819194 0.230079
O O4 0.074753 0.000000 0.305736
O O5 0.433700 0.761895 0.704648
O O6 0.445554 0.752897 0.876495
O O7 0.451141 0.000000 0.793550
O O8 0.500000 0.709873 0.500000
O O9 0.449815 0.500000 0.445614
O O10 0.407743 0.688583 0.544208
O O11 0.094399 0.500000 0.668232
O O12 0.156716 0.697872 0.690820
O O13 0.750000 0.179166 0.040223
O O14 0.822616 0.258228 0.133933
O O15 0.817388 0.000000 0.074200
O O16 0.831939 0.187254 0.952226
O O17 0.427406 0.500000 0.948269
O O18 0.500000 0.647854 0.000000
O O19 0.416990 0.737104 0.044298
O O20 0.250000 0.291493 0.754638
O O21 0.306467 0.500000 0.786362
O O22 0.894277 0.000000 0.906398
#
# Coordination Sequence:
#
# PCOD9403638 Si02
#       8
#     8   8   8   8   8   8   8   8
#     4  10  21  34  49  70  97 132 169 207 245 292
#     4  11  21  32  48  70  99 133 168 203 244 293
#     4  10  20  34  52  72  97 130 166 207 251 296
#     4  10  20  34  52  74 100 129 165 207 253 303
#     4   9  18  33  54  78 102 130 166 206 248 296
#     4  11  22  32  45  68  99 134 168 201 240 291
#     4   9  18  33  53  76 102 130 161 201 249 300
#     4  10  20  35  52  71 100 135 170 207 249 295
#
# _framework density 16.440054
#
# number of rings (size 3 to 8) (size 9 to 14) (size 15 to 20)
#    0.000    2.000    2.500    1.500    0.000    5.250 
#    0.000    0.000    0.000    0.750    0.000    0.000 
#    0.000    0.000    0.000    0.000    0.000    0.000 
#
# Total GULP energy -356832.926519 kJ/mol
# GULP energy per Si atom -5575.514477 kJ/mol
# Density = 1.640264 g / cm^3
# Si number density = 16.440054 Si / 1000 Ang^3
#
#
#
# Elastic Constant Matrix: (Units=GPa)
#
#
# Indices 1 2 3 4 5 6 
#
# 1 57.4432 25.0521 39.7640 0.0000 0.0000 0.0000
# 2 25.0521 56.7892 65.3308 0.0000 0.0000 0.0000
# 3 39.7640 65.3308 136.4993 0.0000 0.0000 0.0000
# 4 0.0000 0.0000 0.0000 32.5958 0.0000 0.0000
# 5 0.0000 0.0000 0.0000 0.0000 25.4142 0.0000
# 6 0.0000 0.0000 0.0000 0.0000 0.0000 5.1468
#
#
#
# Elastic Compliance Matrix: (Units=1/GPa)
#
#
# Indices 1 2 3 4 5 6 
#
# 1 0.022503 -0.005308 -0.004015 0.000000 0.000000 0.000000
# 2 -0.005308 0.040436 -0.017807 0.000000 0.000000 0.000000
# 3 -0.004015 -0.017807 0.017018 0.000000 0.000000 0.000000
# 4 0.000000 0.000000 0.000000 0.030679 0.000000 0.000000
# 5 0.000000 0.000000 0.000000 0.000000 0.039348 0.000000
# 6 0.000000 0.000000 0.000000 0.000000 0.000000 0.194294
#
#
# Mechanical properties :
#
#
# Convention : Reuss Voigt Hill
#
# Bulk Modulus (GPa) = 38.91512 56.78063 47.84787
# Shear Modulus (GPa) = 12.28189 20.67035 16.47612
#
# Velocity S-wave (km/s) = 2.73623 3.54971 3.16918
# Velocity P-wave (km/s) = 5.80559 7.17033 6.52374
#
# Compressibility (1/GPa) = 0.02569695
#
# Stress axis : x y z
#
# Youngs Moduli (GPa) = 44.43921 24.73044 58.76044
#
# Poissons Ratio (x) = 0.13128 0.23590
# Poissons Ratio (y) = 0.23590 1.04634
# Poissons Ratio (z) = 0.17841 0.44037
#
# Static dielectric constant tensor:
#      x y z
#    x 1.574660 0.000000 0.000000 
#    y 0.000000 1.553810 0.000000 
#    z 0.000000 0.000000 1.544520 
# 
# From -- ./inp_files/26595.got.cif
#   From: 2010.05.17/outbox.cif.g08.bks.cpg/sg51_14_cif.got.tgz:26595.got - 2010.06.03 11:52:47.
