data_PCOD9403066
_publ_section_title
;
Structure prediction by ZEFSAII (Michael W. Deem and Ramdas Pophale) SiO2 
 PCOD9403066
Probable space group: P M M A
;
_chemical_formula_sum "Si O2"
_cell_formula_units_Z 56
_cell_length_a 21.709746
_cell_length_b 9.447697
_cell_length_c 16.949248
_cell_angle_alpha 90.000000
_cell_angle_beta 90.000000
_cell_angle_gamma 90.000000
_cell_volume 3476.411141
_symmetry_space_group_name_H-M "P M M A"
_symmetry_group_IT_number 51
_symmetry_cell_setting 'orthorhombic'
loop_
_space_group_symop_operation_xyz
x,y,z
1/2-x,-y,z
1/2+x,-y,-z
-x,y,-z
-x,-y,-z
1/2+x,y,-z
1/2-x,y,z
x,-y,z
loop_
_atom_site_type_symbol
_atom_site_label
_atom_site_fract_x
_atom_site_fract_y
_atom_site_fract_z
Si Si1 0.096733 0.667614 0.976573
Si Si2 0.059226 0.669401 0.443806
Si Si3 0.975187 0.669110 0.870313
Si Si4 0.485067 0.832484 0.293109
Si Si5 0.176869 0.162348 0.865676
Si Si6 0.820005 0.330640 0.454178
Si Si7 0.368691 0.832385 0.695673
O O1 0.107575 0.500000 0.976205
O O2 0.152892 0.750601 0.939515
O O3 0.039047 0.693990 0.917553
O O4 0.076628 0.707155 0.064976
O O5 0.058379 0.500000 0.428712
O O6 0.050994 0.755646 0.363441
O O7 0.123659 0.705092 0.486983
O O8 0.000000 0.700031 0.500000
O O9 0.971611 0.500000 0.854220
O O10 0.972648 0.757806 0.790610
O O11 0.557920 0.815312 0.311614
O O12 0.472115 0.000000 0.289523
O O13 0.250000 0.163549 0.860878
O O14 0.150645 0.218207 0.782695
O O15 0.155085 0.000000 0.873211
O O16 0.750000 0.297309 0.481070
O O17 0.823211 0.500000 0.441754
O O18 0.834116 0.251490 0.372553
O O19 0.353910 0.000000 0.690347
#
# Coordination Sequence:
#
# PCOD9403066 Si02
#       7
#     8   8   8   8   8   8   8
#     4   9  18  32  51  74  99 130 170 209 247 296
#     4  10  20  35  54  75 102 137 171 211 264 309
#     4   9  18  33  52  74 101 131 162 206 259 301
#     4  11  21  32  52  80 106 134 171 213 253 302
#     4  10  20  33  48  70 105 144 174 202 245 301
#     4  10  21  36  54  76 101 133 176 217 253 304
#     4  10  20  33  49  73 107 142 171 203 251 305
#
# _framework density 16.108567000000001
#
# number of rings (size 3 to 8) (size 9 to 14) (size 15 to 20)
#    0.000    2.143    2.857    1.714    0.000    3.714 
#    0.000    1.429    0.000    0.857    0.000    2.000 
#    0.000    0.000    0.000    0.000    0.000    0.000 
#
# Total GULP energy -312288.739568 kJ/mol
# GULP energy per Si atom -5576.584635 kJ/mol
# Density = 1.607190 g / cm^3
# Si number density = 16.108567 Si / 1000 Ang^3
#
#
#
# Elastic Constant Matrix: (Units=GPa)
#
#
# Indices 1 2 3 4 5 6 
#
# 1 77.3580 32.5966 46.1591 0.0000 0.0000 0.0000
# 2 32.5966 36.8494 55.1720 0.0000 0.0000 0.0000
# 3 46.1591 55.1720 110.5369 0.0000 0.0000 0.0000
# 4 0.0000 0.0000 0.0000 110.8168 0.0000 0.0000
# 5 0.0000 0.0000 0.0000 0.0000 21.9135 0.0000
# 6 0.0000 0.0000 0.0000 0.0000 0.0000 20.1736
#
#
#
# Elastic Compliance Matrix: (Units=1/GPa)
#
#
# Indices 1 2 3 4 5 6 
#
# 1 0.020716 -0.021262 0.001962 0.000000 0.000000 0.000000
# 2 -0.021262 0.129216 -0.055616 0.000000 0.000000 0.000000
# 3 0.001962 -0.055616 0.035987 0.000000 0.000000 0.000000
# 4 0.000000 0.000000 0.000000 0.009024 0.000000 0.000000
# 5 0.000000 0.000000 0.000000 0.000000 0.045634 0.000000
# 6 0.000000 0.000000 0.000000 0.000000 0.000000 0.049570
#
#
# Mechanical properties :
#
#
# Convention : Reuss Voigt Hill
#
# Bulk Modulus (GPa) = 27.71196 54.73330 41.22263
# Shear Modulus (GPa) = 11.06174 36.63524 23.84849
#
# Velocity S-wave (km/s) = 2.62334 4.77411 3.85188
# Velocity P-wave (km/s) = 5.13969 8.02751 6.74008
#
# Compressibility (1/GPa) = 0.03608551
#
# Stress axis : x y z
#
# Youngs Moduli (GPa) = 48.27290 7.73896 27.78773
#
# Poissons Ratio (x) = 0.16455 -0.05452
# Poissons Ratio (y) = 1.02639 1.54545
# Poissons Ratio (z) = -0.09471 0.43041
#
# Static dielectric constant tensor:
#      x y z
#    x 1.544620 0.000000 0.000000 
#    y 0.000000 1.538580 0.000000 
#    z 0.000000 0.000000 1.517310 
# 
# From -- ./inp_files/30390.got.cif
#   From: 2010.05.17/outbox.cif.g08.bks.cpg/sg51_16_cif.got.tgz:30390.got - 2010.06.03 11:52:47.
