data_PCOD9403853
_publ_section_title
;
Structure prediction by ZEFSAII (Michael W. Deem and Ramdas Pophale) SiO2 
 PCOD9403853
Probable space group: P M M A
;
_chemical_formula_sum "Si O2"
_cell_formula_units_Z 56
_cell_length_a 15.333772
_cell_length_b 23.893930
_cell_length_c 8.279097
_cell_angle_alpha 90.000000
_cell_angle_beta 90.000000
_cell_angle_gamma 90.000000
_cell_volume 3033.329295
_symmetry_space_group_name_H-M "P M M A"
_symmetry_group_IT_number 51
_symmetry_cell_setting 'orthorhombic'
loop_
_space_group_symop_operation_xyz
x,y,z
1/2-x,-y,z
1/2+x,-y,-z
-x,y,-z
-x,-y,-z
1/2+x,y,-z
1/2-x,y,z
x,-y,z
loop_
_atom_site_type_symbol
_atom_site_label
_atom_site_fract_x
_atom_site_fract_y
_atom_site_fract_z
Si Si1 0.845865 0.336982 0.878002
Si Si2 0.852047 0.741664 0.189517
Si Si3 0.475872 0.348588 0.680007
Si Si4 0.645689 0.130765 0.169199
Si Si5 0.603883 0.063888 0.496087
Si Si6 0.095051 0.437132 0.916849
Si Si7 0.645574 0.936231 0.855540
O O1 0.750000 0.330039 0.800055
O O2 0.933233 0.336257 0.772426
O O3 0.855322 0.289603 0.016143
O O4 0.848563 0.396973 0.968907
O O5 0.750000 0.741255 0.240082
O O6 0.884806 0.805183 0.178040
O O7 0.913086 0.704870 0.303956
O O8 0.500000 0.362107 0.500000
O O9 0.424378 0.400526 0.758805
O O10 0.750000 0.134066 0.149685
O O11 0.629149 0.098549 0.337274
O O12 0.611847 0.098708 0.009173
O O13 0.500000 0.061197 0.500000
O O14 0.630122 0.086374 0.673843
O O15 0.638849 0.000000 0.482696
O O16 0.128171 0.500000 0.891615
O O17 0.000000 0.441178 0.000000
O O18 0.750000 0.939595 0.873905
O O19 0.610211 0.000000 0.859821
#
# Coordination Sequence:
#
# PCOD9403853 Si02
#       7
#     8   8   8   8   8   8   8
#     4   9  18  35  56  76 105 145 186 226 269 321
#     4   9  19  37  55  74 103 139 184 235 276 324
#     4  10  20  34  53  80 113 147 180 223 281 333
#     4  10  20  36  57  79 102 135 181 228 277 328
#     4  10  21  36  52  77 112 142 171 214 272 337
#     4   8  15  30  53  79 106 140 182 221 259 311
#     4   9  18  34  56  79 102 133 175 220 271 333
#
# _framework density 18.461563999999999
#
# number of rings (size 3 to 8) (size 9 to 14) (size 15 to 20)
#    0.000    2.714    0.000    2.143    0.000    3.714 
#    7.714    2.143    0.000    0.000    0.000    4.000 
#    0.000    0.000    0.000    0.000    0.000    0.000 
#
# Total GULP energy -311964.959309 kJ/mol
# GULP energy per Si atom -5570.802845 kJ/mol
# Density = 1.841954 g / cm^3
# Si number density = 18.461564 Si / 1000 Ang^3
#
#
#
# Elastic Constant Matrix: (Units=GPa)
#
#
# Indices 1 2 3 4 5 6 
#
# 1 39.6204 2.6799 -4.8648 0.0000 0.0000 0.0000
# 2 2.6799 118.7489 46.4830 0.0000 0.0000 0.0000
# 3 -4.8648 46.4830 83.0457 0.0000 0.0000 0.0000
# 4 0.0000 0.0000 0.0000 3.7627 0.0000 0.0000
# 5 0.0000 0.0000 0.0000 0.0000 6.5039 0.0000
# 6 0.0000 0.0000 0.0000 0.0000 0.0000 13.0346
#
#
#
# Elastic Compliance Matrix: (Units=1/GPa)
#
#
# Indices 1 2 3 4 5 6 
#
# 1 0.025627 -0.001493 0.002337 0.000000 0.000000 0.000000
# 2 -0.001493 0.010871 -0.006172 0.000000 0.000000 0.000000
# 3 0.002337 -0.006172 0.015633 0.000000 0.000000 0.000000
# 4 0.000000 0.000000 0.000000 0.265764 0.000000 0.000000
# 5 0.000000 0.000000 0.000000 0.000000 0.153755 0.000000
# 6 0.000000 0.000000 0.000000 0.000000 0.000000 0.076719
#
#
# Mechanical properties :
#
#
# Convention : Reuss Voigt Hill
#
# Bulk Modulus (GPa) = 24.11097 36.66791 30.38944
# Shear Modulus (GPa) = 8.72827 17.80136 13.26481
#
# Velocity S-wave (km/s) = 2.17671 3.10859 2.68341
# Velocity P-wave (km/s) = 4.40521 5.72619 5.10858
#
# Compressibility (1/GPa) = 0.04147490
#
# Stress axis : x y z
#
# Youngs Moduli (GPa) = 39.02061 91.98897 63.96632
#
# Poissons Ratio (x) = 0.13735 -0.14949
# Poissons Ratio (y) = 0.05826 0.39481
# Poissons Ratio (z) = -0.09119 0.56777
#
# Static dielectric constant tensor:
#      x y z
#    x 1.658430 0.000000 0.000000 
#    y 0.000000 1.647980 0.000000 
#    z 0.000000 0.000000 1.630720 
# 
# From -- ./inp_files/8521.got.cif
#   From: 2010.05.17/outbox.cif.g08.bks.cpg/sg51_5_cif.got.tgz:8521.got - 2010.06.03 11:52:47.
