data_PCOD9403364
_publ_section_title
;
Structure prediction by ZEFSAII (Michael W. Deem and Ramdas Pophale) SiO2 
 PCOD9403364
Probable space group: P M M A
;
_chemical_formula_sum "Si O2"
_cell_formula_units_Z 40
_cell_length_a 7.609066
_cell_length_b 9.499547
_cell_length_c 26.436398
_cell_angle_alpha 90.000000
_cell_angle_beta 90.000000
_cell_angle_gamma 90.000000
_cell_volume 1910.893699
_symmetry_space_group_name_H-M "P M M A"
_symmetry_group_IT_number 51
_symmetry_cell_setting 'orthorhombic'
loop_
_space_group_symop_operation_xyz
x,y,z
1/2-x,-y,z
1/2+x,-y,-z
-x,y,-z
-x,-y,-z
1/2+x,y,-z
1/2-x,y,z
x,-y,z
loop_
_atom_site_type_symbol
_atom_site_label
_atom_site_fract_x
_atom_site_fract_y
_atom_site_fract_z
Si Si1 0.534780 0.161879 0.748838
Si Si2 0.534967 0.661698 0.847306
Si Si3 0.541265 0.840499 0.442555
Si Si4 0.539216 0.839307 0.943062
Si Si5 0.042131 0.658338 0.346259
O O1 0.750000 0.159496 0.748427
O O2 0.481511 0.247617 0.798649
O O3 0.472650 0.243081 0.698695
O O4 0.476990 0.000000 0.749820
O O5 0.750000 0.660517 0.847576
O O6 0.477685 0.500000 0.844086
O O7 0.475306 0.738014 0.898674
O O8 0.500000 0.797171 0.500000
O O9 0.750000 0.847435 0.437749
O O10 0.477566 0.734526 0.399932
O O11 0.469925 0.000000 0.435255
O O12 0.750000 0.845841 0.938206
O O13 0.471957 0.000000 0.937702
O O14 0.500000 0.790709 0.000000
O O15 0.250000 0.646419 0.336566
O O16 0.968637 0.500000 0.346192
#
# Coordination Sequence:
#
# PCOD9403364 Si02
#       5
#     8   8   8   8   8
#     4   9  16  27  46  71  98 128 162 201 244 290
#     4   9  16  26  42  66  95 124 156 197 243 289
#     4  10  21  37  57  79 103 134 172 211 250 294
#     4   9  17  29  45  65  90 121 157 196 238 285
#     4  10  20  33  51  77 107 136 166 203 249 299
#
# _framework density 20.932613
#
# number of rings (size 3 to 8) (size 9 to 14) (size 15 to 20)
#    0.000    2.600    0.000    2.400    0.000    8.000 
#    0.000    0.000    0.000    1.200    0.000    2.800 
#    0.000    0.000    0.000    0.000    0.000    0.000 
#
# Total GULP energy -223376.757614 kJ/mol
# GULP energy per Si atom -5584.418940 kJ/mol
# Density = 2.088497 g / cm^3
# Si number density = 20.932613 Si / 1000 Ang^3
#
#
#
# Elastic Constant Matrix: (Units=GPa)
#
#
# Indices 1 2 3 4 5 6 
#
# 1 42.4991 5.3176 -6.1128 0.0000 0.0000 0.0000
# 2 5.3176 205.2256 154.1359 0.0000 0.0000 0.0000
# 3 -6.1128 154.1359 199.8682 0.0000 0.0000 0.0000
# 4 0.0000 0.0000 0.0000 -8.0725 0.0000 0.0000
# 5 0.0000 0.0000 0.0000 0.0000 17.3680 0.0000
# 6 0.0000 0.0000 0.0000 0.0000 0.0000 -0.3336
#
#
#
# Elastic Compliance Matrix: (Units=1/GPa)
#
#
# Indices 1 2 3 4 5 6 
#
# 1 0.024303 -0.002823 0.002920 0.000000 0.000000 0.000000
# 2 -0.002823 0.011908 -0.009269 0.000000 0.000000 0.000000
# 3 0.002920 -0.009269 0.012241 0.000000 0.000000 0.000000
# 4 0.000000 0.000000 0.000000 -0.123877 0.000000 0.000000
# 5 0.000000 0.000000 0.000000 0.000000 0.057577 0.000000
# 6 0.000000 0.000000 0.000000 0.000000 0.000000 -2.997833
#
#
# Mechanical properties :
#
#
# Convention : Reuss Voigt Hill
#
# Bulk Modulus (GPa) = 33.21399 83.80825 58.51112
# Shear Modulus (GPa) = -1.67375 21.40920 9.86772
#
# Velocity S-wave (km/s) = -0.89517 3.20154 2.17354
# Velocity P-wave (km/s) = 3.85138 7.33421 5.85763
#
# Compressibility (1/GPa) = 0.03010780
#
# Stress axis : x y z
#
# Youngs Moduli (GPa) = 41.14683 83.97949 81.69228
#
# Poissons Ratio (x) = 0.23709 -0.23858
# Poissons Ratio (y) = 0.11616 0.75724
# Poissons Ratio (z) = -0.12017 0.77844
#
# Static dielectric constant tensor:
#      x y z
#    x 1.800990 0.000000 0.000000 
#    y 0.000000 1.732730 0.000000 
#    z 0.000000 0.000000 1.720330 
# 
# From -- ./inp_files/32795.got.cif
#   From: 2010.05.17/outbox.cif.g08.bks.cpg/sg51_17_cif.got.tgz:32795.got - 2010.06.03 11:52:47.
