data_PCOD9403590
_publ_section_title
;
Structure prediction by ZEFSAII (Michael W. Deem and Ramdas Pophale) SiO2 
 PCOD9403590
Probable space group: P M M A
;
_chemical_formula_sum "Si O2"
_cell_formula_units_Z 56
_cell_length_a 18.359828
_cell_length_b 9.211732
_cell_length_c 19.446454
_cell_angle_alpha 90.000000
_cell_angle_beta 90.000000
_cell_angle_gamma 90.000000
_cell_volume 3288.897384
_symmetry_space_group_name_H-M "P M M A"
_symmetry_group_IT_number 51
_symmetry_cell_setting 'orthorhombic'
loop_
_space_group_symop_operation_xyz
x,y,z
1/2-x,-y,z
1/2+x,-y,-z
-x,y,-z
-x,-y,-z
1/2+x,y,-z
1/2-x,y,z
x,-y,z
loop_
_atom_site_type_symbol
_atom_site_label
_atom_site_fract_x
_atom_site_fract_y
_atom_site_fract_z
Si Si1 0.164872 0.325507 0.168747
Si Si2 0.533142 0.673526 0.342216
Si Si3 0.050300 0.165309 0.932308
Si Si4 0.432335 0.165810 0.446712
Si Si5 0.831250 0.673619 0.990226
Si Si6 0.024624 0.826621 0.212446
Si Si7 0.835114 0.326305 0.446178
O O1 0.250000 0.294190 0.183973
O O2 0.155266 0.500000 0.174469
O O3 0.151512 0.282771 0.088602
O O4 0.105290 0.242726 0.213621
O O5 0.527646 0.500000 0.335488
O O6 0.465147 0.736051 0.386163
O O7 0.526104 0.752656 0.269453
O O8 0.608253 0.705826 0.383776
O O9 0.008032 0.204319 0.863181
O O10 0.076419 0.000000 0.924373
O O11 0.115511 0.269153 0.952244
O O12 0.000000 0.169709 0.000000
O O13 0.500000 0.159319 0.500000
O O14 0.366296 0.239759 0.488071
O O15 0.416056 0.000000 0.425247
O O16 0.750000 0.725545 0.004384
O O17 0.832041 0.500000 0.989604
O O18 0.027957 0.000000 0.221938
O O19 0.750000 0.292744 0.432332
O O20 0.840655 0.500000 0.458779
#
# Coordination Sequence:
#
# PCOD9403590 Si02
#       7
#     8   8   8   8   8   8   8
#     4   9  18  33  52  74  99 127 164 212 267 325
#     4  10  20  35  55  78 108 146 182 216 262 314
#     4  10  20  34  50  73 102 135 176 221 269 324
#     4   9  17  31  53  80 108 136 169 209 251 298
#     4   9  18  32  51  75  99 125 164 217 271 320
#     4  11  22  35  52  75 106 141 180 223 268 320
#     4   9  18  34  57  84 111 141 178 217 257 305
#
# _framework density 17.026983000000001
#
# number of rings (size 3 to 8) (size 9 to 14) (size 15 to 20)
#    0.000    2.429    1.429    2.143    0.000    4.571 
#    0.000    2.857    0.000    6.857    0.000    0.000 
#    0.000    0.000    0.000    0.000    0.000    0.000 
#
# Total GULP energy -312005.008886 kJ/mol
# GULP energy per Si atom -5571.518016 kJ/mol
# Density = 1.698823 g / cm^3
# Si number density = 17.026983 Si / 1000 Ang^3
#
#
#
# Elastic Constant Matrix: (Units=GPa)
#
#
# Indices 1 2 3 4 5 6 
#
# 1 106.0398 54.2181 39.1685 0.0000 0.0000 0.0000
# 2 54.2181 52.8285 38.1403 0.0000 0.0000 0.0000
# 3 39.1685 38.1403 73.5954 0.0000 0.0000 0.0000
# 4 0.0000 0.0000 0.0000 27.6260 0.0000 0.0000
# 5 0.0000 0.0000 0.0000 0.0000 19.1784 0.0000
# 6 0.0000 0.0000 0.0000 0.0000 0.0000 32.7025
#
#
#
# Elastic Compliance Matrix: (Units=1/GPa)
#
#
# Indices 1 2 3 4 5 6 
#
# 1 0.019843 -0.020357 -0.000011 0.000000 0.000000 0.000000
# 2 -0.020357 0.051130 -0.015664 0.000000 0.000000 0.000000
# 3 -0.000011 -0.015664 0.021711 0.000000 0.000000 0.000000
# 4 0.000000 0.000000 0.000000 0.036198 0.000000 0.000000
# 5 0.000000 0.000000 0.000000 0.000000 0.052142 0.000000
# 6 0.000000 0.000000 0.000000 0.000000 0.000000 0.030579
#
#
# Mechanical properties :
#
#
# Convention : Reuss Voigt Hill
#
# Bulk Modulus (GPa) = 48.49329 55.05749 51.77539
# Shear Modulus (GPa) = 17.20936 22.63051 19.91993
#
# Velocity S-wave (km/s) = 3.18262 3.64963 3.42410
# Velocity P-wave (km/s) = 6.48440 7.08275 6.79017
#
# Compressibility (1/GPa) = 0.02062141
#
# Stress axis : x y z
#
# Youngs Moduli (GPa) = 50.39561 19.55785 46.05947
#
# Poissons Ratio (x) = 0.39814 0.00049
# Poissons Ratio (y) = 1.02591 0.72146
# Poissons Ratio (z) = 0.00054 0.30635
#
# Static dielectric constant tensor:
#      x y z
#    x 1.580960 0.000000 0.000000 
#    y 0.000000 1.574150 0.000000 
#    z 0.000000 0.000000 1.580570 
# 
# From -- ./inp_files/33715.got.cif
#   From: 2010.05.17/outbox.cif.g08.bks.cpg/sg51_17_cif.got.tgz:33715.got - 2010.06.03 11:52:47.
