data_PCOD9403689
_publ_section_title
;
Structure prediction by ZEFSAII (Michael W. Deem and Ramdas Pophale) SiO2 
 PCOD9403689
Probable space group: P M M A
;
_chemical_formula_sum "Si O2"
_cell_formula_units_Z 64
_cell_length_a 13.887979
_cell_length_b 9.107090
_cell_length_c 26.845610
_cell_angle_alpha 90.000000
_cell_angle_beta 90.000000
_cell_angle_gamma 90.000000
_cell_volume 3395.407912
_symmetry_space_group_name_H-M "P M M A"
_symmetry_group_IT_number 51
_symmetry_cell_setting 'orthorhombic'
loop_
_space_group_symop_operation_xyz
x,y,z
1/2-x,-y,z
1/2+x,-y,-z
-x,y,-z
-x,-y,-z
1/2+x,y,-z
1/2-x,y,z
x,-y,z
loop_
_atom_site_type_symbol
_atom_site_label
_atom_site_fract_x
_atom_site_fract_y
_atom_site_fract_z
Si Si1 0.053186 0.822443 0.077876
Si Si2 0.138887 0.826205 0.670677
Si Si3 0.953185 0.825847 0.726983
Si Si4 0.132491 0.667631 0.568672
Si Si5 0.867777 0.167905 0.531235
Si Si6 0.143229 0.821829 0.971692
Si Si7 0.364014 0.324879 0.176566
Si Si8 0.133669 0.668215 0.368405
O O1 0.093310 0.746324 0.126699
O O2 0.943644 0.777574 0.064477
O O3 0.056573 0.000000 0.083461
O O4 0.114638 0.783971 0.028458
O O5 0.250000 0.791022 0.682037
O O6 0.107422 0.736676 0.621903
O O7 0.065974 0.799045 0.715659
O O8 0.133603 0.000000 0.658504
O O9 0.914791 0.743423 0.775198
O O10 0.900635 0.765852 0.677640
O O11 0.937489 0.000000 0.732040
O O12 0.250000 0.666757 0.567745
O O13 0.099965 0.500000 0.563652
O O14 0.102130 0.764198 0.521515
O O15 0.750000 0.167399 0.531083
O O16 0.897188 0.264990 0.578552
O O17 0.899375 0.000000 0.537041
O O18 0.250000 0.768359 0.959218
O O19 0.144131 0.000000 0.970297
O O20 0.250000 0.293561 0.179250
O O21 0.376809 0.500000 0.175911
O O22 0.250000 0.667601 0.368288
O O23 0.100979 0.500000 0.362632
#
# Coordination Sequence:
#
# PCOD9403689 Si02
#       8
#     8   8   8   8   8   8   8   8
#     4   9  17  31  55  85 114 150 195 235 271 316
#     4   9  19  37  58  78 101 129 164 210 264 319
#     4  11  23  38  58  81 102 131 175 222 265 314
#     4   9  16  27  47  75 103 132 167 206 254 314
#     4   9  16  27  46  72 102 136 172 210 254 308
#     4   8  14  27  51  85 122 155 189 232 278 320
#     4  11  24  40  57  79 110 146 181 222 273 321
#     4  10  20  34  52  75 106 140 170 208 263 321
#
# _framework density 18.848987999999999
#
# number of rings (size 3 to 8) (size 9 to 14) (size 15 to 20)
#    0.000    2.500    0.000    3.375    0.000    7.750 
#    0.000    2.500    0.000    8.625    0.000    0.000 
#    0.000    0.000    0.000    0.000    0.000    0.000 
#
# Total GULP energy -357502.308127 kJ/mol
# GULP energy per Si atom -5585.973564 kJ/mol
# Density = 1.880609 g / cm^3
# Si number density = 18.848988 Si / 1000 Ang^3
#
#
#
# Elastic Constant Matrix: (Units=GPa)
#
#
# Indices 1 2 3 4 5 6 
#
# 1 99.5381 50.2233 56.5371 0.0000 0.0000 0.0000
# 2 50.2233 76.1774 64.9891 0.0000 0.0000 0.0000
# 3 56.5371 64.9891 135.1698 0.0000 0.0000 0.0000
# 4 0.0000 0.0000 0.0000 -92.6813 0.0000 0.0000
# 5 0.0000 0.0000 0.0000 0.0000 24.8766 0.0000
# 6 0.0000 0.0000 0.0000 0.0000 0.0000 16.8446
#
#
#
# Elastic Compliance Matrix: (Units=1/GPa)
#
#
# Indices 1 2 3 4 5 6 
#
# 1 0.015607 -0.008003 -0.002680 0.000000 0.000000 0.000000
# 2 -0.008003 0.026360 -0.009327 0.000000 0.000000 0.000000
# 3 -0.002680 -0.009327 0.013003 0.000000 0.000000 0.000000
# 4 0.000000 0.000000 0.000000 -0.010790 0.000000 0.000000
# 5 0.000000 0.000000 0.000000 0.000000 0.040198 0.000000
# 6 0.000000 0.000000 0.000000 0.000000 0.000000 0.059366
#
#
# Mechanical properties :
#
#
# Convention : Reuss Voigt Hill
#
# Bulk Modulus (GPa) = 66.88441 72.70938 69.79689
# Shear Modulus (GPa) = 26.49036 -0.91631 12.78702
#
# Velocity S-wave (km/s) = 3.75293 -0.69799 2.60742
# Velocity P-wave (km/s) = 7.37162 6.16513 6.79520
#
# Compressibility (1/GPa) = 0.01495117
#
# Stress axis : x y z
#
# Youngs Moduli (GPa) = 64.07530 37.93571 76.90431
#
# Poissons Ratio (x) = 0.30360 0.20610
# Poissons Ratio (y) = 0.51280 0.71725
# Poissons Ratio (z) = 0.17172 0.35381
#
# Static dielectric constant tensor:
#      x y z
#    x 1.715050 0.000000 0.000000 
#    y 0.000000 1.629490 0.000000 
#    z 0.000000 0.000000 1.593940 
# 
# From -- ./inp_files/35617.got.cif
#   From: 2010.05.17/outbox.cif.g08.bks.cpg/sg51_18_cif.got.tgz:35617.got - 2010.06.03 11:52:47.
