data_PCOD9403250
_publ_section_title
;
Structure prediction by ZEFSAII (Michael W. Deem and Ramdas Pophale) SiO2 
 PCOD9403250
Probable space group: P M M A
;
_chemical_formula_sum "Si O2"
_cell_formula_units_Z 44
_cell_length_a 8.465701
_cell_length_b 8.326899
_cell_length_c 31.059683
_cell_angle_alpha 90.000000
_cell_angle_beta 90.000000
_cell_angle_gamma 90.000000
_cell_volume 2189.491389
_symmetry_space_group_name_H-M "P M M A"
_symmetry_group_IT_number 51
_symmetry_cell_setting 'orthorhombic'
loop_
_space_group_symop_operation_xyz
x,y,z
1/2-x,-y,z
1/2+x,-y,-z
-x,y,-z
-x,-y,-z
1/2+x,y,-z
1/2-x,y,z
x,-y,z
loop_
_atom_site_type_symbol
_atom_site_label
_atom_site_fract_x
_atom_site_fract_y
_atom_site_fract_z
Si Si1 0.562515 0.315810 0.044725
Si Si2 0.942298 0.816699 0.686322
Si Si3 0.558549 0.320662 0.596705
Si Si4 0.061570 0.000000 0.548717
Si Si5 0.436212 0.309935 0.223150
Si Si6 0.431197 0.809840 0.133194
O O1 0.750000 0.319593 0.042034
O O2 0.501708 0.500000 0.047179
O O3 0.513841 0.230518 0.088536
O O4 0.500000 0.243274 0.000000
O O5 0.750000 0.807448 0.688187
O O6 0.990043 0.704929 0.646664
O O7 0.002294 0.770112 0.733665
O O8 0.984757 0.000000 0.676163
O O9 0.750000 0.316138 0.594895
O O10 0.508698 0.500000 0.582000
O O11 0.497889 0.164569 0.571293
O O12 0.000000 0.000000 0.500000
O O13 0.250000 0.000000 0.549580
O O14 0.250000 0.261177 0.220742
O O15 0.442602 0.500000 0.228930
O O16 0.504409 0.264476 0.176604
O O17 0.250000 0.750448 0.129196
O O18 0.428808 0.000000 0.139448
#
# Coordination Sequence:
#
# PCOD9403250 Si02
#       6
#     8   8   8   4   8   8
#     4  10  21  37  57  78  99 128 169 216 270 330
#     4   9  15  26  49  82 120 155 191 237 287 340
#     4  10  20  37  63  94 127 163 206 255 308 365
#     4  12  26  44  66  90 124 164 208 258 311 368
#     4   9  16  26  44  75 112 148 186 228 275 325
#     4  10  20  33  50  75 108 143 179 220 269 323
#
# _framework density 20.095991999999999
#
# number of rings (size 3 to 8) (size 9 to 14) (size 15 to 20)
#    0.000    2.182    0.909    3.000    0.000    7.636 
#    0.000    0.000    0.000    1.091    0.000    0.000 
#    0.000    0.000    0.000    0.000    0.000    0.000 
#
# Total GULP energy -245443.001456 kJ/mol
# GULP energy per Si atom -5578.250033 kJ/mol
# Density = 2.005025 g / cm^3
# Si number density = 20.095992 Si / 1000 Ang^3
#
#
#
# Elastic Constant Matrix: (Units=GPa)
#
#
# Indices 1 2 3 4 5 6 
#
# 1 28.3802 22.4544 24.7451 0.0000 0.0000 0.0000
# 2 22.4544 96.8164 64.0097 0.0000 0.0000 0.0000
# 3 24.7451 64.0097 143.5886 0.0000 0.0000 0.0000
# 4 0.0000 0.0000 0.0000 24.7910 0.0000 0.0000
# 5 0.0000 0.0000 0.0000 0.0000 14.9518 0.0000
# 6 0.0000 0.0000 0.0000 0.0000 0.0000 15.2142
#
#
#
# Elastic Compliance Matrix: (Units=1/GPa)
#
#
# Indices 1 2 3 4 5 6 
#
# 1 0.045036 -0.007534 -0.004402 0.000000 0.000000 0.000000
# 2 -0.007534 0.015906 -0.005792 0.000000 0.000000 0.000000
# 3 -0.004402 -0.005792 0.010305 0.000000 0.000000 0.000000
# 4 0.000000 0.000000 0.000000 0.040337 0.000000 0.000000
# 5 0.000000 0.000000 0.000000 0.000000 0.066881 0.000000
# 6 0.000000 0.000000 0.000000 0.000000 0.000000 0.065728
#
#
# Mechanical properties :
#
#
# Convention : Reuss Voigt Hill
#
# Bulk Modulus (GPa) = 27.94187 54.57818 41.26002
# Shear Modulus (GPa) = 17.14794 21.49647 19.32220
#
# Velocity S-wave (km/s) = 2.92430 3.27416 3.10416
# Velocity P-wave (km/s) = 5.03353 6.44292 5.78133
#
# Compressibility (1/GPa) = 0.03578859
#
# Stress axis : x y z
#
# Youngs Moduli (GPa) = 22.20466 62.87067 97.03976
#
# Poissons Ratio (x) = 0.47369 0.42721
# Poissons Ratio (y) = 0.16730 0.56206
# Poissons Ratio (z) = 0.09775 0.36415
#
# Static dielectric constant tensor:
#      x y z
#    x 1.721170 0.000000 0.000000 
#    y 0.000000 1.707780 0.000000 
#    z 0.000000 0.000000 1.728440 
# 
# From -- ./inp_files/36825.got.cif
#   From: 2010.05.17/outbox.cif.g08.bks.cpg/sg51_19_cif.got.tgz:36825.got - 2010.06.03 11:52:47.
