data_PCOD9403468
_publ_section_title
;
Structure prediction by ZEFSAII (Michael W. Deem and Ramdas Pophale) SiO2 
 PCOD9403468
Probable space group: P M M A
;
_chemical_formula_sum "Si O2"
_cell_formula_units_Z 56
_cell_length_a 14.368316
_cell_length_b 9.145538
_cell_length_c 23.511724
_cell_angle_alpha 90.000000
_cell_angle_beta 90.000000
_cell_angle_gamma 90.000000
_cell_volume 3089.581133
_symmetry_space_group_name_H-M "P M M A"
_symmetry_group_IT_number 51
_symmetry_cell_setting 'orthorhombic'
loop_
_space_group_symop_operation_xyz
x,y,z
1/2-x,-y,z
1/2+x,-y,-z
-x,y,-z
-x,-y,-z
1/2+x,y,-z
1/2-x,y,z
x,-y,z
loop_
_atom_site_type_symbol
_atom_site_label
_atom_site_fract_x
_atom_site_fract_y
_atom_site_fract_z
Si Si1 0.357401 0.824366 0.403096
Si Si2 0.861459 0.830277 0.465037
Si Si3 0.957479 0.174172 0.141246
Si Si4 0.465413 0.325693 0.636743
Si Si5 0.357129 0.826042 0.083532
Si Si6 0.638108 0.330368 0.035164
Si Si7 0.641185 0.323904 0.247513
O O1 0.250000 0.783243 0.392163
O O2 0.379471 0.788980 0.469351
O O3 0.432844 0.746282 0.364292
O O4 0.363948 0.000000 0.397886
O O5 0.750000 0.822837 0.457256
O O6 0.912181 0.732792 0.418856
O O7 0.890121 0.000000 0.457586
O O8 0.907939 0.238104 0.085206
O O9 0.913206 0.249538 0.195959
O O10 0.067215 0.204739 0.131946
O O11 0.944295 0.000000 0.144092
O O12 0.472927 0.500000 0.634609
O O13 0.406714 0.285050 0.692670
O O14 0.250000 0.792059 0.098614
O O15 0.362323 0.000000 0.070796
O O16 0.382455 0.737981 0.026497
O O17 0.750000 0.324439 0.042082
O O18 0.609373 0.500000 0.038027
O O19 0.750000 0.281980 0.247105
O O20 0.636773 0.500000 0.241165
#
# Coordination Sequence:
#
# PCOD9403468 Si02
#       7
#     8   8   8   8   8   8   8
#     4   9  19  36  56  79 109 144 180 218 262 316
#     4   9  18  33  54  80 110 144 180 218 263 318
#     4  11  22  35  55  81 105 135 178 223 264 306
#     4  11  22  35  54  80 109 141 178 223 273 320
#     4   9  19  36  55  77 108 140 170 211 261 310
#     4  10  20  33  52  80 112 144 175 209 256 314
#     4  10  23  42  58  74 103 141 176 213 261 316
#
# _framework density 18.125435
#
# number of rings (size 3 to 8) (size 9 to 14) (size 15 to 20)
#    0.000    2.143    0.000    3.857    0.000   10.286 
#    0.000    2.143    0.000    2.571    0.000    0.000 
#    0.000    0.000    0.000    0.000    0.000    0.000 
#
# Total GULP energy -312755.502408 kJ/mol
# GULP energy per Si atom -5584.919686 kJ/mol
# Density = 1.808418 g / cm^3
# Si number density = 18.125435 Si / 1000 Ang^3
#
#
#
# Elastic Constant Matrix: (Units=GPa)
#
#
# Indices 1 2 3 4 5 6 
#
# 1 116.9894 54.5264 85.6554 0.0000 0.0000 0.0000
# 2 54.5264 42.3026 48.1199 0.0000 0.0000 0.0000
# 3 85.6554 48.1199 84.7721 0.0000 0.0000 0.0000
# 4 0.0000 0.0000 0.0000 33.2672 0.0000 0.0000
# 5 0.0000 0.0000 0.0000 0.0000 32.1161 0.0000
# 6 0.0000 0.0000 0.0000 0.0000 0.0000 25.6005
#
#
#
# Elastic Compliance Matrix: (Units=1/GPa)
#
#
# Indices 1 2 3 4 5 6 
#
# 1 0.035568 -0.014014 -0.027984 0.000000 0.000000 0.000000
# 2 -0.014014 0.072242 -0.026848 0.000000 0.000000 0.000000
# 3 -0.027984 -0.026848 0.055312 0.000000 0.000000 0.000000
# 4 0.000000 0.000000 0.000000 0.030060 0.000000 0.000000
# 5 0.000000 0.000000 0.000000 0.000000 0.031137 0.000000
# 6 0.000000 0.000000 0.000000 0.000000 0.000000 0.039062
#
#
# Mechanical properties :
#
#
# Convention : Reuss Voigt Hill
#
# Bulk Modulus (GPa) = 39.32188 68.96306 54.14247
# Shear Modulus (GPa) = 12.20858 21.91426 17.06142
#
# Velocity S-wave (km/s) = 2.59812 3.48089 3.07138
# Velocity P-wave (km/s) = 5.54452 7.36788 6.52025
#
# Compressibility (1/GPa) = 0.02543113
#
# Stress axis : x y z
#
# Youngs Moduli (GPa) = 28.11494 13.84238 18.07936
#
# Poissons Ratio (x) = 0.19398 0.50594
# Poissons Ratio (y) = 0.39400 0.48539
# Poissons Ratio (z) = 0.78677 0.37163
#
# Static dielectric constant tensor:
#      x y z
#    x 1.648270 0.000000 0.000000 
#    y 0.000000 1.602650 0.000000 
#    z 0.000000 0.000000 1.583260 
# 
# From -- ./inp_files/33320.got.cif
#   From: 2010.05.17/outbox.cif.g08.bks.cpg/sg51_17_cif.got.tgz:33320.got - 2010.06.03 11:52:47.
