data_PCOD9403821
_publ_section_title
;
Structure prediction by ZEFSAII (Michael W. Deem and Ramdas Pophale) SiO2 
 PCOD9403821
Probable space group: P M M A
;
_chemical_formula_sum "Si O2"
_cell_formula_units_Z 64
_cell_length_a 22.842531
_cell_length_b 9.292289
_cell_length_c 15.826040
_cell_angle_alpha 90.000000
_cell_angle_beta 90.000000
_cell_angle_gamma 90.000000
_cell_volume 3359.225748
_symmetry_space_group_name_H-M "P M M A"
_symmetry_group_IT_number 51
_symmetry_cell_setting 'orthorhombic'
loop_
_space_group_symop_operation_xyz
x,y,z
1/2-x,-y,z
1/2+x,-y,-z
-x,y,-z
-x,-y,-z
1/2+x,y,-z
1/2-x,y,z
x,-y,z
loop_
_atom_site_type_symbol
_atom_site_label
_atom_site_fract_x
_atom_site_fract_y
_atom_site_fract_z
Si Si1 0.351999 0.164344 0.374817
Si Si2 0.317041 0.325019 0.026229
Si Si3 0.119296 0.673413 0.856641
Si Si4 0.819596 0.661770 0.459806
Si Si5 0.868070 0.672784 0.792776
Si Si6 0.679189 0.165267 0.296615
Si Si7 0.008312 0.164500 0.405439
Si Si8 0.504300 0.329206 0.237825
O O1 0.328672 0.256146 0.452805
O O2 0.340646 0.243280 0.286239
O O3 0.422190 0.160911 0.387886
O O4 0.330494 0.000000 0.375924
O O5 0.250000 0.277847 0.013175
O O6 0.317017 0.500000 0.026285
O O7 0.340837 0.282164 0.117954
O O8 0.358276 0.280110 0.948646
O O9 0.126181 0.500000 0.851214
O O10 0.157668 0.748113 0.784544
O O11 0.052240 0.707832 0.832868
O O12 0.750000 0.649691 0.447008
O O13 0.844505 0.500000 0.461552
O O14 0.842311 0.755309 0.381448
O O15 0.860098 0.500000 0.782122
O O16 0.937921 0.701935 0.790935
O O17 0.750000 0.164543 0.297552
O O18 0.659254 0.000000 0.294623
O O19 0.982701 0.250088 0.326105
O O20 0.000000 0.225406 0.500000
O O21 0.985855 0.000000 0.406281
O O22 0.507699 0.500000 0.252924
#
# Coordination Sequence:
#
# PCOD9403821 Si02
#       8
#     8   8   8   8   8   8   8   8
#     4  10  20  34  53  78 108 141 178 224 274 322
#     4   9  18  33  56  83 107 138 182 230 280 333
#     4  10  20  34  54  81 110 140 179 226 277 331
#     4  10  21  36  54  77 106 142 182 222 268 324
#     4   9  18  35  55  76 108 145 184 228 274 328
#     4  10  21  36  53  75 106 143 180 221 271 327
#     4   9  19  34  51  73 103 142 182 219 263 318
#     4   9  19  33  50  78 109 141 181 225 274 324
#
# _framework density 19.052008000000001
#
# number of rings (size 3 to 8) (size 9 to 14) (size 15 to 20)
#    0.000    2.500    0.000    1.500    1.750    4.250 
#    0.000    4.375    0.000    0.750    0.000    4.375 
#    0.000    0.000    0.000    0.000    0.000    0.000 
#
# Total GULP energy -357113.053400 kJ/mol
# GULP energy per Si atom -5579.891459 kJ/mol
# Density = 1.900864 g / cm^3
# Si number density = 19.052008 Si / 1000 Ang^3
#
#
#
# Elastic Constant Matrix: (Units=GPa)
#
#
# Indices 1 2 3 4 5 6 
#
# 1 17.7467 4.0751 1.0150 0.0000 0.0000 0.0000
# 2 4.0751 45.5213 26.4975 0.0000 0.0000 0.0000
# 3 1.0150 26.4975 127.7150 0.0000 0.0000 0.0000
# 4 0.0000 0.0000 0.0000 -97.4352 0.0000 0.0000
# 5 0.0000 0.0000 0.0000 0.0000 32.6023 0.0000
# 6 0.0000 0.0000 0.0000 0.0000 0.0000 14.6164
#
#
#
# Elastic Compliance Matrix: (Units=1/GPa)
#
#
# Indices 1 2 3 4 5 6 
#
# 1 0.057586 -0.005560 0.000696 0.000000 0.000000 0.000000
# 2 -0.005560 0.025522 -0.005251 0.000000 0.000000 0.000000
# 3 0.000696 -0.005251 0.008914 0.000000 0.000000 0.000000
# 4 0.000000 0.000000 0.000000 -0.010263 0.000000 0.000000
# 5 0.000000 0.000000 0.000000 0.000000 0.030673 0.000000
# 6 0.000000 0.000000 0.000000 0.000000 0.000000 0.068416
#
#
# Mechanical properties :
#
#
# Convention : Reuss Voigt Hill
#
# Bulk Modulus (GPa) = 13.92933 28.23980 21.08457
# Shear Modulus (GPa) = 22.22142 0.58306 11.40224
#
# Velocity S-wave (km/s) = 3.41890 0.55381 2.44904
# Velocity P-wave (km/s) = 4.78668 3.90686 4.36897
#
# Compressibility (1/GPa) = 0.07179094
#
# Stress axis : x y z
#
# Youngs Moduli (GPa) = 17.36547 39.18182 112.18514
#
# Poissons Ratio (x) = 0.21786 -0.07808
# Poissons Ratio (y) = 0.09656 0.58908
# Poissons Ratio (z) = -0.01209 0.20574
#
# Static dielectric constant tensor:
#      x y z
#    x 1.690350 0.000000 0.000000 
#    y 0.000000 1.658450 0.000000 
#    z 0.000000 0.000000 1.628980 
# 
# From -- ./inp_files/26218.got.cif
#   From: 2010.05.17/outbox.cif.g08.bks.cpg/sg51_14_cif.got.tgz:26218.got - 2010.06.03 11:52:47.
