data_PCOD9403667
_publ_section_title
;
Structure prediction by ZEFSAII (Michael W. Deem and Ramdas Pophale) SiO2 
 PCOD9403667
Probable space group: P M M A
;
_chemical_formula_sum "Si O2"
_cell_formula_units_Z 64
_cell_length_a 8.713559
_cell_length_b 20.093439
_cell_length_c 20.910373
_cell_angle_alpha 90.000000
_cell_angle_beta 90.000000
_cell_angle_gamma 90.000000
_cell_volume 3661.100315
_symmetry_space_group_name_H-M "P M M A"
_symmetry_group_IT_number 51
_symmetry_cell_setting 'orthorhombic'
loop_
_space_group_symop_operation_xyz
x,y,z
1/2-x,-y,z
1/2+x,-y,-z
-x,y,-z
-x,-y,-z
1/2+x,y,-z
1/2-x,y,z
x,-y,z
loop_
_atom_site_type_symbol
_atom_site_label
_atom_site_fract_x
_atom_site_fract_y
_atom_site_fract_z
Si Si1 0.933679 0.328208 0.069155
Si Si2 0.435116 0.174078 0.931099
Si Si3 0.935191 0.923196 0.181895
Si Si4 0.434976 0.923451 0.320209
Si Si5 0.434245 0.578374 0.324463
Si Si6 0.067170 0.674696 0.569123
Si Si7 0.434812 0.178568 0.430722
Si Si8 0.435062 0.422826 0.177949
O O1 0.750000 0.330997 0.066606
O O2 0.980237 0.251054 0.080327
O O3 0.993877 0.374804 0.125468
O O4 0.000000 0.348235 0.000000
O O5 0.250000 0.171717 0.933773
O O6 0.487101 0.125869 0.874253
O O7 0.500000 0.153820 0.000000
O O8 0.750000 0.921056 0.184349
O O9 0.999262 0.903952 0.251209
O O10 0.980925 0.000000 0.169527
O O11 0.250000 0.922254 0.316845
O O12 0.482182 0.873463 0.376185
O O13 0.482529 0.000000 0.333004
O O14 0.250000 0.587209 0.330104
O O15 0.466437 0.500000 0.334407
O O16 0.517069 0.623784 0.376094
O O17 0.478081 0.594763 0.251094
O O18 0.250000 0.679252 0.564584
O O19 0.000000 0.654145 0.500000
O O20 0.998336 0.747743 0.583205
O O21 0.500000 0.158908 0.500000
O O22 0.250000 0.181154 0.433631
O O23 0.250000 0.419462 0.174293
O O24 0.479120 0.500000 0.166954
#
# Coordination Sequence:
#
# PCOD9403667 Si02
#       8
#     8   8   8   8   8   8   8   8
#     4  10  20  34  52  74 102 135 170 211 254 300
#     4   9  19  34  50  72 101 131 167 208 250 296
#     4   9  18  33  52  74 102 134 167 206 251 299
#     4   9  19  35  53  75 103 134 170 211 253 301
#     4   9  19  37  58  79 106 138 171 210 257 308
#     4  11  22  36  55  78 106 138 174 215 256 303
#     4  10  20  35  54  76 104 136 171 212 257 305
#     4   9  19  36  56  77 102 132 166 206 252 302
#
# _framework density 17.481083999999999
#
# number of rings (size 3 to 8) (size 9 to 14) (size 15 to 20)
#    0.000    2.500    0.000    3.375    0.000    5.000 
#    0.000    3.750    0.000    0.000    0.000    0.000 
#    0.000    0.000    0.000    0.000    0.000    0.000 
#
# Total GULP energy -357093.718583 kJ/mol
# GULP energy per Si atom -5579.589353 kJ/mol
# Density = 1.744130 g / cm^3
# Si number density = 17.481084 Si / 1000 Ang^3
#
#
#
# Elastic Constant Matrix: (Units=GPa)
#
#
# Indices 1 2 3 4 5 6 
#
# 1 43.2978 40.5616 54.4224 0.0000 0.0000 0.0000
# 2 40.5616 93.4442 120.4324 0.0000 0.0000 0.0000
# 3 54.4224 120.4324 186.5587 0.0000 0.0000 0.0000
# 4 0.0000 0.0000 0.0000 43.3780 0.0000 0.0000
# 5 0.0000 0.0000 0.0000 0.0000 34.1385 0.0000
# 6 0.0000 0.0000 0.0000 0.0000 0.0000 21.3259
#
#
#
# Elastic Compliance Matrix: (Units=1/GPa)
#
#
# Indices 1 2 3 4 5 6 
#
# 1 0.039148 -0.013539 -0.002680 0.000000 0.000000 0.000000
# 2 -0.013539 0.068379 -0.040192 0.000000 0.000000 0.000000
# 3 -0.002680 -0.040192 0.032088 0.000000 0.000000 0.000000
# 4 0.000000 0.000000 0.000000 0.023053 0.000000 0.000000
# 5 0.000000 0.000000 0.000000 0.000000 0.029292 0.000000
# 6 0.000000 0.000000 0.000000 0.000000 0.000000 0.046891
#
#
# Mechanical properties :
#
#
# Convention : Reuss Voigt Hill
#
# Bulk Modulus (GPa) = 37.32404 83.79262 60.55833
# Shear Modulus (GPa) = 13.86559 26.96076 20.41317
#
# Velocity S-wave (km/s) = 2.81939 3.93145 3.42091
# Velocity P-wave (km/s) = 5.65651 8.28527 7.09373
#
# Compressibility (1/GPa) = 0.02679238
#
# Stress axis : x y z
#
# Youngs Moduli (GPa) = 25.54413 14.62443 31.16422
#
# Poissons Ratio (x) = 0.19800 0.08353
# Poissons Ratio (y) = 0.34584 1.25256
# Poissons Ratio (z) = 0.06846 0.58779
#
# Static dielectric constant tensor:
#      x y z
#    x 1.588540 0.000000 0.000000 
#    y 0.000000 1.584910 0.000000 
#    z 0.000000 0.000000 1.566920 
# 
# From -- ./inp_files/28437.got.cif
#   From: 2010.05.17/outbox.cif.g08.bks.cpg/sg51_15_cif.got.tgz:28437.got - 2010.06.03 11:52:47.
