data_PCOD9403808
_publ_section_title
;
Structure prediction by ZEFSAII (Michael W. Deem and Ramdas Pophale) SiO2 
 PCOD9403808
Probable space group: P M M A
;
_chemical_formula_sum "Si O2"
_cell_formula_units_Z 28
_cell_length_a 8.530014
_cell_length_b 18.414895
_cell_length_c 9.875862
_cell_angle_alpha 90.000000
_cell_angle_beta 90.000000
_cell_angle_gamma 90.000000
_cell_volume 1551.293610
_symmetry_space_group_name_H-M "P M M A"
_symmetry_group_IT_number 51
_symmetry_cell_setting 'orthorhombic'
loop_
_space_group_symop_operation_xyz
x,y,z
1/2-x,-y,z
1/2+x,-y,-z
-x,y,-z
-x,-y,-z
1/2+x,y,-z
1/2-x,y,z
x,-y,z
loop_
_atom_site_type_symbol
_atom_site_label
_atom_site_fract_x
_atom_site_fract_y
_atom_site_fract_z
Si Si1 0.061460 0.209736 0.650846
Si Si2 0.438343 0.369114 0.348331
Si Si3 0.060677 0.500000 0.153113
Si Si4 0.560758 0.918573 0.151686
O O1 0.250000 0.211979 0.649120
O O2 0.007930 0.145728 0.750207
O O3 0.000000 0.195440 0.500000
O O4 0.999028 0.289221 0.690406
O O5 0.500000 0.385501 0.500000
O O6 0.250000 0.368070 0.354198
O O7 0.488812 0.429484 0.239941
O O8 0.250000 0.500000 0.148804
O O9 0.000000 0.500000 0.000000
O O10 0.750000 0.917494 0.149528
O O11 0.511479 0.000000 0.195277
O O12 0.500000 0.907235 0.000000
#
# Coordination Sequence:
#
# PCOD9403808 Si02
#       4
#     8   8   4   8
#     4  10  20  34  53  78 105 134 170 211 255 302
#     4  10  20  36  56  78 103 134 172 210 253 304
#     4  10  23  38  54  78 106 136 171 210 252 302
#     4   9  19  35  53  74 102 136 173 211 253 303
#
# _framework density 18.049451000000001
#
# number of rings (size 3 to 8) (size 9 to 14) (size 15 to 20)
#    0.000    2.286    0.000    3.857    0.000    6.286 
#    0.000    5.714    0.000    0.000    0.000    0.000 
#    0.000    0.000    0.000    0.000    0.000    0.000 
#
# Total GULP energy -156264.278259 kJ/mol
# GULP energy per Si atom -5580.867081 kJ/mol
# Density = 1.800837 g / cm^3
# Si number density = 18.049451 Si / 1000 Ang^3
#
#
#
# Elastic Constant Matrix: (Units=GPa)
#
#
# Indices 1 2 3 4 5 6 
#
# 1 36.5199 37.2645 27.3273 0.0000 0.0000 0.0000
# 2 37.2645 199.7500 143.2083 0.0000 0.0000 0.0000
# 3 27.3273 143.2083 126.5923 0.0000 0.0000 0.0000
# 4 0.0000 0.0000 0.0000 52.1025 0.0000 0.0000
# 5 0.0000 0.0000 0.0000 0.0000 32.5880 0.0000
# 6 0.0000 0.0000 0.0000 0.0000 0.0000 25.7495
#
#
#
# Elastic Compliance Matrix: (Units=1/GPa)
#
#
# Indices 1 2 3 4 5 6 
#
# 1 0.033838 -0.005693 -0.000864 0.000000 0.000000 0.000000
# 2 -0.005693 0.027452 -0.029826 0.000000 0.000000 0.000000
# 3 -0.000864 -0.029826 0.041827 0.000000 0.000000 0.000000
# 4 0.000000 0.000000 0.000000 0.019193 0.000000 0.000000
# 5 0.000000 0.000000 0.000000 0.000000 0.030686 0.000000
# 6 0.000000 0.000000 0.000000 0.000000 0.000000 0.038836
#
#
# Mechanical properties :
#
#
# Convention : Reuss Voigt Hill
#
# Bulk Modulus (GPa) = 32.94888 86.49581 59.72235
# Shear Modulus (GPa) = 18.20071 32.42547 25.31309
#
# Velocity S-wave (km/s) = 3.17895 4.24309 3.74897
# Velocity P-wave (km/s) = 5.63637 8.48709 7.20414
#
# Compressibility (1/GPa) = 0.03035004
#
# Stress axis : x y z
#
# Youngs Moduli (GPa) = 29.55241 36.42766 23.90817
#
# Poissons Ratio (x) = 0.20739 0.02066
# Poissons Ratio (y) = 0.16824 0.71308
# Poissons Ratio (z) = 0.02554 1.08649
#
# Static dielectric constant tensor:
#      x y z
#    x 1.617980 0.000000 0.000000 
#    y 0.000000 1.628600 0.000000 
#    z 0.000000 0.000000 1.579480 
# 
# From -- ./inp_files/4678.got.cif
#   From: 2010.05.17/outbox.cif.g08.bks.cpg/sg51_3_cif.got.tgz:4678.got - 2010.06.03 11:52:47.
