data_PCOD9403115
_publ_section_title
;
Structure prediction by ZEFSAII (Michael W. Deem and Ramdas Pophale) SiO2 
 PCOD9403115
Probable space group: P M M A
;
_chemical_formula_sum "Si O2"
_cell_formula_units_Z 64
_cell_length_a 27.708570
_cell_length_b 9.011167
_cell_length_c 15.005632
_cell_angle_alpha 90.000000
_cell_angle_beta 90.000000
_cell_angle_gamma 90.000000
_cell_volume 3746.704509
_symmetry_space_group_name_H-M "P M M A"
_symmetry_group_IT_number 51
_symmetry_cell_setting 'orthorhombic'
loop_
_space_group_symop_operation_xyz
x,y,z
1/2-x,-y,z
1/2+x,-y,-z
-x,y,-z
-x,-y,-z
1/2+x,y,-z
1/2-x,y,z
x,-y,z
loop_
_atom_site_type_symbol
_atom_site_label
_atom_site_fract_x
_atom_site_fract_y
_atom_site_fract_z
Si Si1 0.307462 0.824681 0.847290
Si Si2 0.389867 0.323202 0.523756
Si Si3 0.080439 0.824296 0.349770
Si Si4 0.882465 0.676458 0.023042
Si Si5 0.533776 0.823187 0.346778
Si Si6 0.029747 0.676966 0.841899
Si Si7 0.925694 0.177856 0.854584
Si Si8 0.193903 0.677091 0.659672
O O1 0.250000 0.801264 0.858235
O O2 0.337624 0.740988 0.922344
O O3 0.320597 0.761215 0.749857
O O4 0.317273 0.000000 0.850776
O O5 0.396459 0.500000 0.526160
O O6 0.390429 0.265943 0.422996
O O7 0.433486 0.244716 0.576329
O O8 0.341382 0.286226 0.578499
O O9 0.090374 0.787030 0.246622
O O10 0.023102 0.796691 0.363492
O O11 0.088444 0.000000 0.362336
O O12 0.877943 0.500000 0.011319
O O13 0.929893 0.704620 0.083829
O O14 0.891014 0.756334 0.929287
O O15 0.545591 0.746327 0.252497
O O16 0.540861 0.000000 0.340327
O O17 0.023531 0.500000 0.832537
O O18 0.978759 0.750997 0.866437
O O19 0.929589 0.000000 0.861731
O O20 0.250000 0.711438 0.640569
O O21 0.190247 0.500000 0.676296
#
# Coordination Sequence:
#
# PCOD9403115 Si02
#       8
#     8   8   8   8   8   8   8   8
#     4  10  21  36  55  80 106 132 166 207 250 299
#     4  11  21  31  50  77  99 128 170 210 250 297
#     4   9  20  36  50  68  98 135 170 205 249 296
#     4  11  22  34  52  77 104 136 171 207 252 304
#     4  10  20  33  49  71 102 138 170 203 248 300
#     4  10  20  33  49  74 107 137 169 209 250 298
#     4  10  21  36  53  73 100 136 175 213 253 297
#     4   9  19  36  54  74 104 135 161 197 248 302
#
# _framework density 17.081678
#
# number of rings (size 3 to 8) (size 9 to 14) (size 15 to 20)
#    0.000    2.000    0.000    4.500    0.000   12.750 
#    0.000    0.000    0.000    0.750    0.000    3.500 
#    0.000    0.000    0.000    0.000    0.000    0.000 
#
# Total GULP energy -357484.961099 kJ/mol
# GULP energy per Si atom -5585.702517 kJ/mol
# Density = 1.704280 g / cm^3
# Si number density = 17.081678 Si / 1000 Ang^3
#
#
#
# Elastic Constant Matrix: (Units=GPa)
#
#
# Indices 1 2 3 4 5 6 
#
# 1 52.3553 46.9527 64.1442 0.0000 0.0000 0.0000
# 2 46.9527 65.1549 69.9590 0.0000 0.0000 0.0000
# 3 64.1442 69.9590 129.4993 0.0000 0.0000 0.0000
# 4 0.0000 0.0000 0.0000 34.4056 0.0000 0.0000
# 5 0.0000 0.0000 0.0000 0.0000 27.2551 0.0000
# 6 0.0000 0.0000 0.0000 0.0000 0.0000 16.2958
#
#
#
# Elastic Compliance Matrix: (Units=1/GPa)
#
#
# Indices 1 2 3 4 5 6 
#
# 1 0.066430 -0.029864 -0.016771 0.000000 0.000000 0.000000
# 2 -0.029864 0.049974 -0.012205 0.000000 0.000000 0.000000
# 3 -0.016771 -0.012205 0.022623 0.000000 0.000000 0.000000
# 4 0.000000 0.000000 0.000000 0.029065 0.000000 0.000000
# 5 0.000000 0.000000 0.000000 0.000000 0.036690 0.000000
# 6 0.000000 0.000000 0.000000 0.000000 0.000000 0.061366
#
#
# Mechanical properties :
#
#
# Convention : Reuss Voigt Hill
#
# Bulk Modulus (GPa) = 46.84588 67.68015 57.26301
# Shear Modulus (GPa) = 12.78960 19.98819 16.38890
#
# Velocity S-wave (km/s) = 2.73927 3.42446 3.10085
# Velocity P-wave (km/s) = 6.12282 7.43932 6.81294
#
# Compressibility (1/GPa) = 0.02134659
#
# Stress axis : x y z
#
# Youngs Moduli (GPa) = 15.05341 20.01056 44.20360
#
# Poissons Ratio (x) = 0.59759 0.74135
# Poissons Ratio (y) = 0.44955 0.53949
# Poissons Ratio (z) = 0.25246 0.24422
#
# Static dielectric constant tensor:
#      x y z
#    x 1.564910 0.000000 0.000000 
#    y 0.000000 1.566380 0.000000 
#    z 0.000000 0.000000 1.573310 
# 
# From -- ./inp_files/26250.got.cif
#   From: 2010.05.17/outbox.cif.g08.bks.cpg/sg51_14_cif.got.tgz:26250.got - 2010.06.03 11:52:47.
