data_PCOD9403656
_publ_section_title
;
Structure prediction by ZEFSAII (Michael W. Deem and Ramdas Pophale) SiO2 
 PCOD9403656
Probable space group: P M M A
;
_chemical_formula_sum "Si O2"
_cell_formula_units_Z 52
_cell_length_a 9.571847
_cell_length_b 10.433381
_cell_length_c 28.728697
_cell_angle_alpha 90.000000
_cell_angle_beta 90.000000
_cell_angle_gamma 90.000000
_cell_volume 2869.040930
_symmetry_space_group_name_H-M "P M M A"
_symmetry_group_IT_number 51
_symmetry_cell_setting 'orthorhombic'
loop_
_space_group_symop_operation_xyz
x,y,z
1/2-x,-y,z
1/2+x,-y,-z
-x,y,-z
-x,-y,-z
1/2+x,y,-z
1/2-x,y,z
x,-y,z
loop_
_atom_site_type_symbol
_atom_site_label
_atom_site_fract_x
_atom_site_fract_y
_atom_site_fract_z
Si Si1 0.083113 0.350446 0.280145
Si Si2 0.907988 0.500000 0.545485
Si Si3 0.095461 0.150330 0.542016
Si Si4 0.583656 0.351493 0.951454
Si Si5 0.414319 0.851259 0.891423
Si Si6 0.084785 0.853751 0.779855
Si Si7 0.088770 0.739850 0.385532
O O1 0.250000 0.342814 0.271854
O O2 0.042166 0.500000 0.275000
O O3 0.059285 0.304758 0.333260
O O4 0.001922 0.254378 0.246451
O O5 0.750000 0.500000 0.528754
O O6 0.925972 0.619753 0.579866
O O7 0.000000 0.500000 0.500000
O O8 0.250000 0.209451 0.541976
O O9 0.000000 0.202258 0.500000
O O10 0.019409 0.163481 0.591442
O O11 0.110343 0.000000 0.532492
O O12 0.750000 0.328796 0.957488
O O13 0.567008 0.500000 0.935453
O O14 0.513802 0.249418 0.916876
O O15 0.500000 0.340304 0.000000
O O16 0.250000 0.826061 0.902039
O O17 0.431099 0.841822 0.835636
O O18 0.443332 0.000000 0.904524
O O19 0.250000 0.840594 0.769626
O O20 0.042766 0.000000 0.766980
O O21 0.250000 0.785380 0.387793
#
# Coordination Sequence:
#
# PCOD9403656 Si02
#       7
#     8   4   8   8   8   8   8
#     4  10  21  38  58  81 112 147 183 227 278 333
#     4  10  20  34  52  74 100 130 164 204 251 302
#     4  10  21  36  53  75 103 133 167 208 253 305
#     4  10  21  36  55  82 117 156 197 240 287 340
#     4   9  19  37  59  82 111 149 192 238 289 343
#     4   9  20  39  60  83 113 148 188 236 287 339
#     4  10  20  36  55  74 102 136 169 209 258 311
#
# _framework density 18.124523
#
# number of rings (size 3 to 8) (size 9 to 14) (size 15 to 20)
#    0.000    2.308    0.769    2.308    0.000    7.385 
#    0.000    7.692    0.000    0.000    0.000    0.000 
#    0.000    0.000    0.000    0.000    0.000    0.000 
#
# Total GULP energy -290000.708745 kJ/mol
# GULP energy per Si atom -5576.936707 kJ/mol
# Density = 1.808327 g / cm^3
# Si number density = 18.124523 Si / 1000 Ang^3
#
#
#
# Elastic Constant Matrix: (Units=GPa)
#
#
# Indices 1 2 3 4 5 6 
#
# 1 104.6177 79.4119 64.9571 0.0000 0.0000 0.0000
# 2 79.4119 106.1125 64.3107 0.0000 0.0000 0.0000
# 3 64.9571 64.3107 74.1935 0.0000 0.0000 0.0000
# 4 0.0000 0.0000 0.0000 41.7107 0.0000 0.0000
# 5 0.0000 0.0000 0.0000 0.0000 34.0945 0.0000
# 6 0.0000 0.0000 0.0000 0.0000 0.0000 32.5996
#
#
#
# Elastic Compliance Matrix: (Units=1/GPa)
#
#
# Indices 1 2 3 4 5 6 
#
# 1 0.026921 -0.012350 -0.012864 0.000000 0.000000 0.000000
# 2 -0.012350 0.025520 -0.011308 0.000000 0.000000 0.000000
# 3 -0.012864 -0.011308 0.034542 0.000000 0.000000 0.000000
# 4 0.000000 0.000000 0.000000 0.023975 0.000000 0.000000
# 5 0.000000 0.000000 0.000000 0.000000 0.029330 0.000000
# 6 0.000000 0.000000 0.000000 0.000000 0.000000 0.030675
#
#
# Mechanical properties :
#
#
# Convention : Reuss Voigt Hill
#
# Bulk Modulus (GPa) = 71.74280 78.03144 74.88712
# Shear Modulus (GPa) = 20.10838 26.76389 23.43613
#
# Velocity S-wave (km/s) = 3.33446 3.84691 3.59982
# Velocity P-wave (km/s) = 7.38201 7.92957 7.66068
#
# Compressibility (1/GPa) = 0.01393868
#
# Stress axis : x y z
#
# Youngs Moduli (GPa) = 37.14631 39.18537 28.95014
#
# Poissons Ratio (x) = 0.48395 0.37241
# Poissons Ratio (y) = 0.45877 0.32736
# Poissons Ratio (z) = 0.47785 0.44309
#
# Static dielectric constant tensor:
#      x y z
#    x 1.626000 0.000000 0.000000 
#    y 0.000000 1.626730 0.000000 
#    z 0.000000 0.000000 1.589770 
# 
# From -- ./inp_files/36202.got.cif
#   From: 2010.05.17/outbox.cif.g08.bks.cpg/sg51_19_cif.got.tgz:36202.got - 2010.06.03 11:52:47.
