data_PCOD9403940
_publ_section_title
;
Structure prediction by ZEFSAII (Michael W. Deem and Ramdas Pophale) SiO2 
 PCOD9403940
Probable space group: P M M A
;
_chemical_formula_sum "Si O2"
_cell_formula_units_Z 48
_cell_length_a 8.616714
_cell_length_b 31.662452
_cell_length_c 9.538763
_cell_angle_alpha 90.000000
_cell_angle_beta 90.000000
_cell_angle_gamma 90.000000
_cell_volume 2602.425353
_symmetry_space_group_name_H-M "P M M A"
_symmetry_group_IT_number 51
_symmetry_cell_setting 'orthorhombic'
loop_
_space_group_symop_operation_xyz
x,y,z
1/2-x,-y,z
1/2+x,-y,-z
-x,y,-z
-x,-y,-z
1/2+x,y,-z
1/2-x,y,z
x,-y,z
loop_
_atom_site_type_symbol
_atom_site_label
_atom_site_fract_x
_atom_site_fract_y
_atom_site_fract_z
Si Si1 0.062811 0.951787 0.653773
Si Si2 0.436592 0.374269 0.843241
Si Si3 0.936104 0.716097 0.842683
Si Si4 0.436496 0.873945 0.843061
Si Si5 0.436382 0.797095 0.342389
Si Si6 0.937274 0.546857 0.343056
O O1 0.250000 0.951393 0.647654
O O2 0.014054 0.917893 0.769537
O O3 0.000000 0.940072 0.500000
O O4 0.012428 0.000000 0.683850
O O5 0.250000 0.373048 0.845923
O O6 0.498585 0.328954 0.792373
O O7 0.489220 0.413949 0.750835
O O8 0.500000 0.379427 0.000000
O O9 0.750000 0.713686 0.850983
O O10 0.979761 0.754097 0.739518
O O11 0.000000 0.723644 0.000000
O O12 0.250000 0.872536 0.846767
O O13 0.497647 0.836073 0.746507
O O14 0.500000 0.870359 0.000000
O O15 0.500000 0.797461 0.500000
O O16 0.250000 0.799855 0.345881
O O17 0.750000 0.547725 0.346911
O O18 0.984376 0.500000 0.290861
O O19 0.000000 0.551309 0.500000
#
# Coordination Sequence:
#
# PCOD9403940 Si02
#       6
#     8   8   8   8   8   8
#     4   9  19  36  57  82 112 146 184 226 273 324
#     4  10  20  34  54  79 107 139 175 217 263 314
#     4  10  21  37  57  80 107 140 177 218 266 319
#     4  11  23  38  58  83 113 148 186 229 275 325
#     4  11  24  40  59  83 111 144 182 225 273 325
#     4   9  19  35  53  75 104 138 176 217 262 312
#
# _framework density 18.444334999999999
#
# number of rings (size 3 to 8) (size 9 to 14) (size 15 to 20)
#    0.000    2.000    0.000    4.000    0.000    9.333 
#    0.000    3.333    0.000    0.000    0.000    0.000 
#    0.000    0.000    0.000    0.000    0.000    0.000 
#
# Total GULP energy -268053.616771 kJ/mol
# GULP energy per Si atom -5584.450349 kJ/mol
# Density = 1.840235 g / cm^3
# Si number density = 18.444335 Si / 1000 Ang^3
#
#
#
# Elastic Constant Matrix: (Units=GPa)
#
#
# Indices 1 2 3 4 5 6 
#
# 1 38.4112 46.5292 35.4988 0.0000 0.0000 0.0000
# 2 46.5292 172.9289 115.2419 0.0000 0.0000 0.0000
# 3 35.4988 115.2419 131.8337 0.0000 0.0000 0.0000
# 4 0.0000 0.0000 0.0000 42.3059 0.0000 0.0000
# 5 0.0000 0.0000 0.0000 0.0000 33.5800 0.0000
# 6 0.0000 0.0000 0.0000 0.0000 0.0000 84.1716
#
#
#
# Elastic Compliance Matrix: (Units=1/GPa)
#
#
# Indices 1 2 3 4 5 6 
#
# 1 0.039177 -0.008411 -0.003197 0.000000 0.000000 0.000000
# 2 -0.008411 0.015658 -0.011422 0.000000 0.000000 0.000000
# 3 -0.003197 -0.011422 0.018431 0.000000 0.000000 0.000000
# 4 0.000000 0.000000 0.000000 0.023637 0.000000 0.000000
# 5 0.000000 0.000000 0.000000 0.000000 0.029780 0.000000
# 6 0.000000 0.000000 0.000000 0.000000 0.000000 0.011880
#
#
# Mechanical properties :
#
#
# Convention : Reuss Voigt Hill
#
# Bulk Modulus (GPa) = 36.75733 81.96818 59.36275
# Shear Modulus (GPa) = 25.81420 41.73844 33.77632
#
# Velocity S-wave (km/s) = 3.74515 4.76220 4.28396
# Velocity P-wave (km/s) = 6.21881 8.64728 7.53156
#
# Compressibility (1/GPa) = 0.02720546
#
# Stress axis : x y z
#
# Youngs Moduli (GPa) = 25.52533 63.86599 54.25607
#
# Poissons Ratio (x) = 0.53715 0.17346
# Poissons Ratio (y) = 0.21468 0.61974
# Poissons Ratio (z) = 0.08161 0.72951
#
# Static dielectric constant tensor:
#      x y z
#    x 1.624610 0.000000 0.000000 
#    y 0.000000 1.650470 0.000000 
#    z 0.000000 0.000000 1.590960 
# 
# From -- ./inp_files/6031.got.cif
#   From: 2010.05.17/outbox.cif.g08.bks.cpg/sg51_4_cif.got.tgz:6031.got - 2010.06.03 11:52:47.
