data_PCOD9403633
_publ_section_title
;
Structure prediction by ZEFSAII (Michael W. Deem and Ramdas Pophale) SiO2 
 PCOD9403633
Probable space group: P M M A
;
_chemical_formula_sum "Si O2"
_cell_formula_units_Z 36
_cell_length_a 9.893927
_cell_length_b 7.375955
_cell_length_c 26.197712
_cell_angle_alpha 90.000000
_cell_angle_beta 90.000000
_cell_angle_gamma 90.000000
_cell_volume 1911.834629
_symmetry_space_group_name_H-M "P M M A"
_symmetry_group_IT_number 51
_symmetry_cell_setting 'orthorhombic'
loop_
_space_group_symop_operation_xyz
x,y,z
1/2-x,-y,z
1/2+x,-y,-z
-x,y,-z
-x,-y,-z
1/2+x,y,-z
1/2-x,y,z
x,-y,z
loop_
_atom_site_type_symbol
_atom_site_label
_atom_site_fract_x
_atom_site_fract_y
_atom_site_fract_z
Si Si1 0.914031 0.293982 0.865019
Si Si2 0.405992 0.279059 0.545992
Si Si3 0.594264 0.278530 0.752544
Si Si4 0.413322 0.000000 0.051171
Si Si5 0.406014 0.720844 0.660216
O O1 0.750000 0.296579 0.862187
O O2 0.961292 0.500000 0.871658
O O3 0.956069 0.224361 0.808972
O O4 0.948369 0.170757 0.912862
O O5 0.500000 0.216421 0.500000
O O6 0.250000 0.225474 0.538736
O O7 0.408460 0.500000 0.545582
O O8 0.448868 0.223332 0.603099
O O9 0.750000 0.221945 0.745788
O O10 0.594384 0.500000 0.753333
O O11 0.501559 0.218158 0.705926
O O12 0.250000 0.000000 0.041903
O O13 0.500000 0.000000 0.000000
O O14 0.250000 0.774891 0.667594
O O15 0.408189 0.500000 0.660685
#
# Coordination Sequence:
#
# PCOD9403633 Si02
#       5
#     8   8   8   4   8
#     4   8  15  29  48  69  93 121 153 188 226 268
#     4   8  13  19  25  35  56  89 128 168 209 253
#     4   8  13  22  37  55  73  97 133 173 210 253
#     4  10  20  34  52  72  96 126 155 186 225 264
#     4   8  13  20  29  44  68  96 128 170 218 262
#
# _framework density 18.830082000000001
#
# number of rings (size 3 to 8) (size 9 to 14) (size 15 to 20)
#    0.000    3.778    0.000    2.667    0.000    1.333 
#    0.000    5.556    0.000    1.333    0.000    0.000 
#    0.000    0.000    0.000    1.000    0.000   12.889 
#
# Total GULP energy -200599.228227 kJ/mol
# GULP energy per Si atom -5572.200784 kJ/mol
# Density = 1.878722 g / cm^3
# Si number density = 18.830082 Si / 1000 Ang^3
#
#
#
# Elastic Constant Matrix: (Units=GPa)
#
#
# Indices 1 2 3 4 5 6 
#
# 1 63.1604 19.6421 101.9586 0.0000 0.0000 0.0000
# 2 19.6421 74.6036 46.8707 0.0000 0.0000 0.0000
# 3 101.9586 46.8707 241.5321 0.0000 0.0000 0.0000
# 4 0.0000 0.0000 0.0000 173.5203 0.0000 0.0000
# 5 0.0000 0.0000 0.0000 0.0000 42.9620 0.0000
# 6 0.0000 0.0000 0.0000 0.0000 0.0000 -3.0482
#
#
#
# Elastic Compliance Matrix: (Units=1/GPa)
#
#
# Indices 1 2 3 4 5 6 
#
# 1 0.049702 0.000109 -0.021002 0.000000 0.000000 0.000000
# 2 0.000109 0.015266 -0.003008 0.000000 0.000000 0.000000
# 3 -0.021002 -0.003008 0.013590 0.000000 0.000000 0.000000
# 4 0.000000 0.000000 0.000000 0.005763 0.000000 0.000000
# 5 0.000000 0.000000 0.000000 0.000000 0.023276 0.000000
# 6 0.000000 0.000000 0.000000 0.000000 0.000000 -0.328062
#
#
# Mechanical properties :
#
#
# Convention : Reuss Voigt Hill
#
# Bulk Modulus (GPa) = 32.51578 79.58207 56.04893
# Shear Modulus (GPa) = -30.78595 56.74181 12.97793
#
# Velocity S-wave (km/s) = -4.04782 5.49536 2.62813
# Velocity P-wave (km/s) = 2.13095 9.08957 6.24818
#
# Compressibility (1/GPa) = 0.03075430
#
# Stress axis : x y z
#
# Youngs Moduli (GPa) = 20.12002 65.50708 73.58575
#
# Poissons Ratio (x) = -0.00713 1.54544
# Poissons Ratio (y) = -0.00219 0.22137
# Poissons Ratio (z) = 0.42256 0.19707
#
# Static dielectric constant tensor:
#      x y z
#    x 1.613960 0.000000 0.000000 
#    y 0.000000 1.821740 0.000000 
#    z 0.000000 0.000000 1.641990 
# 
# From -- ./inp_files/32771.got.cif
#   From: 2010.05.17/outbox.cif.g08.bks.cpg/sg51_17_cif.got.tgz:32771.got - 2010.06.03 11:52:47.
