data_PCOD9403732
_publ_section_title
;
Structure prediction by ZEFSAII (Michael W. Deem and Ramdas Pophale) SiO2 
 PCOD9403732
Probable space group: P M M A
;
_chemical_formula_sum "Si O2"
_cell_formula_units_Z 44
_cell_length_a 9.111220
_cell_length_b 15.249428
_cell_length_c 17.655869
_cell_angle_alpha 90.000000
_cell_angle_beta 90.000000
_cell_angle_gamma 90.000000
_cell_volume 2453.122212
_symmetry_space_group_name_H-M "P M M A"
_symmetry_group_IT_number 51
_symmetry_cell_setting 'orthorhombic'
loop_
_space_group_symop_operation_xyz
x,y,z
1/2-x,-y,z
1/2+x,-y,-z
-x,y,-z
-x,-y,-z
1/2+x,y,-z
1/2-x,y,z
x,-y,z
loop_
_atom_site_type_symbol
_atom_site_label
_atom_site_fract_x
_atom_site_fract_y
_atom_site_fract_z
Si Si1 0.920620 0.000000 0.419968
Si Si2 0.423261 0.600304 0.736203
Si Si3 0.076378 0.354835 0.421906
Si Si4 0.920096 0.238080 0.807042
Si Si5 0.414245 0.837690 0.362491
Si Si6 0.574261 0.899543 0.082422
O O1 0.000000 0.000000 0.500000
O O2 0.970617 0.087000 0.376969
O O3 0.750000 0.000000 0.431619
O O4 0.250000 0.620750 0.728965
O O5 0.438892 0.500000 0.762034
O O6 0.498602 0.608305 0.653349
O O7 0.500076 0.669338 0.792219
O O8 0.250000 0.375871 0.421554
O O9 0.062455 0.249251 0.412563
O O10 0.000000 0.382760 0.500000
O O11 0.750000 0.249913 0.829976
O O12 0.919684 0.193638 0.724042
O O13 0.004203 0.173421 0.863497
O O14 0.250000 0.871540 0.378746
O O15 0.750000 0.888683 0.076957
O O16 0.545935 0.000000 0.109711
O O17 0.500000 0.892240 0.000000
#
# Coordination Sequence:
#
# PCOD9403732 Si02
#       6
#     4   8   8   8   8   8
#     4  12  24  34  48  68  95 134 179 226 274 322
#     4  10  21  37  57  81 109 143 185 233 283 336
#     4  10  20  34  53  75 101 137 179 229 286 339
#     4  10  21  37  59  84 112 148 184 226 276 328
#     4   9  20  36  51  71  99 135 178 223 271 323
#     4  10  21  37  59  89 123 156 189 225 267 320
#
# _framework density 17.936326999999999
#
# number of rings (size 3 to 8) (size 9 to 14) (size 15 to 20)
#    0.000    2.000    0.000    4.636    1.273    8.727 
#    0.000    0.000    0.000    0.545    0.000    0.000 
#    0.000    0.000    0.000    0.000    0.000    0.000 
#
# Total GULP energy -245683.657036 kJ/mol
# GULP energy per Si atom -5583.719478 kJ/mol
# Density = 1.789550 g / cm^3
# Si number density = 17.936327 Si / 1000 Ang^3
#
#
#
# Elastic Constant Matrix: (Units=GPa)
#
#
# Indices 1 2 3 4 5 6 
#
# 1 154.9391 85.1223 43.8012 0.0000 0.0000 0.0000
# 2 85.1223 110.8100 45.7227 0.0000 0.0000 0.0000
# 3 43.8012 45.7227 65.4369 0.0000 0.0000 0.0000
# 4 0.0000 0.0000 0.0000 5.8661 0.0000 0.0000
# 5 0.0000 0.0000 0.0000 0.0000 31.9215 0.0000
# 6 0.0000 0.0000 0.0000 0.0000 0.0000 27.1374
#
#
#
# Elastic Compliance Matrix: (Units=1/GPa)
#
#
# Indices 1 2 3 4 5 6 
#
# 1 0.011372 -0.007862 -0.002119 0.000000 0.000000 0.000000
# 2 -0.007862 0.018115 -0.007395 0.000000 0.000000 0.000000
# 3 -0.002119 -0.007395 0.021868 0.000000 0.000000 0.000000
# 4 0.000000 0.000000 0.000000 0.170472 0.000000 0.000000
# 5 0.000000 0.000000 0.000000 0.000000 0.031327 0.000000
# 6 0.000000 0.000000 0.000000 0.000000 0.000000 0.036850
#
#
# Mechanical properties :
#
#
# Convention : Reuss Voigt Hill
#
# Bulk Modulus (GPa) = 60.22971 75.60871 67.91921
# Shear Modulus (GPa) = 15.13821 23.42097 19.27959
#
# Velocity S-wave (km/s) = 2.90831 3.61748 3.28211
# Velocity P-wave (km/s) = 6.70301 7.72617 7.23271
#
# Compressibility (1/GPa) = 0.01660310
#
# Stress axis : x y z
#
# Youngs Moduli (GPa) = 87.93263 55.20260 45.72972
#
# Poissons Ratio (x) = 0.43398 0.09690
# Poissons Ratio (y) = 0.69130 0.33818
# Poissons Ratio (z) = 0.18634 0.40824
#
# Static dielectric constant tensor:
#      x y z
#    x 1.611090 0.000000 0.000000 
#    y 0.000000 1.615090 0.000000 
#    z 0.000000 0.000000 1.581400 
# 
# From -- ./inp_files/27403.got.cif
#   From: 2010.05.17/outbox.cif.g08.bks.cpg/sg51_14_cif.got.tgz:27403.got - 2010.06.03 11:52:47.
