data_PCOD9403917
_publ_section_title
;
Structure prediction by ZEFSAII (Michael W. Deem and Ramdas Pophale) SiO2 
 PCOD9403917
Probable space group: P M M A
;
_chemical_formula_sum "Si O2"
_cell_formula_units_Z 48
_cell_length_a 9.349191
_cell_length_b 7.513565
_cell_length_c 32.560878
_cell_angle_alpha 90.000000
_cell_angle_beta 90.000000
_cell_angle_gamma 90.000000
_cell_volume 2287.263435
_symmetry_space_group_name_H-M "P M M A"
_symmetry_group_IT_number 51
_symmetry_cell_setting 'orthorhombic'
loop_
_space_group_symop_operation_xyz
x,y,z
1/2-x,-y,z
1/2+x,-y,-z
-x,y,-z
-x,-y,-z
1/2+x,y,-z
1/2-x,y,z
x,-y,z
loop_
_atom_site_type_symbol
_atom_site_label
_atom_site_fract_x
_atom_site_fract_y
_atom_site_fract_z
Si Si1 0.913285 0.788642 0.718918
Si Si2 0.087489 0.713250 0.960690
Si Si3 0.914532 0.218154 0.201902
Si Si4 0.082751 0.282956 0.459941
Si Si5 0.584405 0.286286 0.629166
Si Si6 0.587422 0.786439 0.878153
O O1 0.750000 0.716100 0.719867
O O2 0.977649 0.762293 0.673389
O O3 0.008990 0.721181 0.756241
O O4 0.901830 0.000000 0.724782
O O5 0.250000 0.782201 0.958927
O O6 0.096669 0.500000 0.965232
O O7 0.001674 0.747773 0.919026
O O8 0.000000 0.782324 0.000000
O O9 0.750000 0.274590 0.199558
O O10 0.004279 0.277365 0.162280
O O11 0.914277 0.000000 0.201889
O O12 0.250000 0.235100 0.462295
O O13 0.076625 0.500000 0.460524
O O14 0.025149 0.225888 0.415006
O O15 0.000000 0.218684 0.500000
O O16 0.750000 0.223613 0.630307
O O17 0.586521 0.500000 0.627855
O O18 0.750000 0.718391 0.880696
O O19 0.595606 0.000000 0.874528
#
# Coordination Sequence:
#
# PCOD9403917 Si02
#       6
#     8   8   8   8   8   8
#     4   9  16  27  45  66  85 110 148 187 219 261
#     4  10  21  37  56  77 103 136 170 202 240 288
#     4   9  17  30  48  69  94 124 155 189 232 279
#     4   8  13  22  37  56  77 103 136 172 210 255
#     4   8  14  25  41  61  85 111 139 175 220 265
#     4  10  20  34  54  79 103 128 163 206 246 284
#
# _framework density 20.985776000000001
#
# number of rings (size 3 to 8) (size 9 to 14) (size 15 to 20)
#    0.000    3.000    0.000    2.500    0.000    4.333 
#    0.000    1.667    0.000    5.000    0.000    0.000 
#    0.000    0.000    0.000    0.000    0.000    0.000 
#
# Total GULP energy -267714.358914 kJ/mol
# GULP energy per Si atom -5577.382477 kJ/mol
# Density = 2.093801 g / cm^3
# Si number density = 20.985776 Si / 1000 Ang^3
#
#
#
# Elastic Constant Matrix: (Units=GPa)
#
#
# Indices 1 2 3 4 5 6 
#
# 1 147.4383 6.5364 122.6119 0.0000 0.0000 0.0000
# 2 6.5364 52.9647 1.5148 0.0000 0.0000 0.0000
# 3 122.6119 1.5148 260.7885 0.0000 0.0000 0.0000
# 4 0.0000 0.0000 0.0000 20.2809 0.0000 0.0000
# 5 0.0000 0.0000 0.0000 0.0000 34.7446 0.0000
# 6 0.0000 0.0000 0.0000 0.0000 0.0000 -19.6351
#
#
#
# Elastic Compliance Matrix: (Units=1/GPa)
#
#
# Indices 1 2 3 4 5 6 
#
# 1 0.011217 -0.001234 -0.005267 0.000000 0.000000 0.000000
# 2 -0.001234 0.019019 0.000470 0.000000 0.000000 0.000000
# 3 -0.005267 0.000470 0.006308 0.000000 0.000000 0.000000
# 4 0.000000 0.000000 0.000000 0.049307 0.000000 0.000000
# 5 0.000000 0.000000 0.000000 0.000000 0.028781 0.000000
# 6 0.000000 0.000000 0.000000 0.000000 0.000000 -0.050929
#
#
# Mechanical properties :
#
#
# Convention : Reuss Voigt Hill
#
# Bulk Modulus (GPa) = 40.84499 80.27973 60.56236
# Shear Modulus (GPa) = 59.57619 29.11332 44.34475
#
# Velocity S-wave (km/s) = 5.33390 3.72867 4.60182
# Velocity P-wave (km/s) = 7.57888 7.54153 7.56023
#
# Compressibility (1/GPa) = 0.02448281
#
# Stress axis : x y z
#
# Youngs Moduli (GPa) = 89.15072 52.57810 158.53079
#
# Poissons Ratio (x) = 0.06486 0.83492
# Poissons Ratio (y) = 0.10998 -0.07444
# Poissons Ratio (z) = 0.46952 -0.02469
#
# Static dielectric constant tensor:
#      x y z
#    x 1.724170 0.000000 0.000000 
#    y 0.000000 1.814170 0.000000 
#    z 0.000000 0.000000 1.755570 
# 
# From -- ./inp_files/34539.got.cif
#   From: 2010.05.17/outbox.cif.g08.bks.cpg/sg51_18_cif.got.tgz:34539.got - 2010.06.03 11:52:47.
