data_PCOD9403331
_publ_section_title
;
Structure prediction by ZEFSAII (Michael W. Deem and Ramdas Pophale) SiO2 
 PCOD9403331
Probable space group: P M M A
;
_chemical_formula_sum "Si O2"
_cell_formula_units_Z 48
_cell_length_a 14.077692
_cell_length_b 8.753140
_cell_length_c 21.546282
_cell_angle_alpha 90.000000
_cell_angle_beta 90.000000
_cell_angle_gamma 90.000000
_cell_volume 2655.019246
_symmetry_space_group_name_H-M "P M M A"
_symmetry_group_IT_number 51
_symmetry_cell_setting 'orthorhombic'
loop_
_space_group_symop_operation_xyz
x,y,z
1/2-x,-y,z
1/2+x,-y,-z
-x,y,-z
-x,-y,-z
1/2+x,y,-z
1/2-x,y,z
x,-y,z
loop_
_atom_site_type_symbol
_atom_site_label
_atom_site_fract_x
_atom_site_fract_y
_atom_site_fract_z
Si Si1 0.359372 0.315915 0.780638
Si Si2 0.135503 0.323962 0.540089
Si Si3 0.640911 0.183878 0.592533
Si Si4 0.541526 0.181336 0.339930
Si Si5 0.459312 0.684113 0.908625
Si Si6 0.139880 0.816449 0.030295
O O1 0.250000 0.261925 0.782161
O O2 0.357490 0.500000 0.779912
O O3 0.411334 0.259828 0.718956
O O4 0.415411 0.269425 0.842697
O O5 0.250000 0.319081 0.543334
O O6 0.105059 0.500000 0.545875
O O7 0.109980 0.258312 0.472577
O O8 0.095280 0.227918 0.597009
O O9 0.750000 0.227604 0.604939
O O10 0.567679 0.226235 0.646468
O O11 0.637294 0.000000 0.584982
O O12 0.546428 0.000000 0.331601
O O13 0.460377 0.500000 0.912968
O O14 0.564904 0.747852 0.920811
O O15 0.394264 0.749879 0.964099
O O16 0.250000 0.777660 0.041939
O O17 0.130666 0.000000 0.029179
#
# Coordination Sequence:
#
# PCOD9403331 Si02
#       6
#     8   8   8   8   8   8
#     4  10  22  39  56  76 105 139 173 211 258 310
#     4  10  20  33  51  76 104 133 166 208 259 311
#     4   9  19  36  54  72  98 131 168 212 260 309
#     4  11  22  34  52  77 102 133 173 213 256 308
#     4  10  20  35  57  82 109 143 182 223 264 309
#     4  10  20  34  55  84 116 146 177 217 263 311
#
# _framework density 18.078965
#
# number of rings (size 3 to 8) (size 9 to 14) (size 15 to 20)
#    0.000    2.000    0.000    4.500    0.000   10.000 
#    0.000    0.833    0.000    3.000    0.000    0.000 
#    0.000    0.000    0.000    0.000    0.000    0.000 
#
# Total GULP energy -268037.284833 kJ/mol
# GULP energy per Si atom -5584.110101 kJ/mol
# Density = 1.803782 g / cm^3
# Si number density = 18.078965 Si / 1000 Ang^3
#
#
#
# Elastic Constant Matrix: (Units=GPa)
#
#
# Indices 1 2 3 4 5 6 
#
# 1 144.9096 37.0543 86.7637 0.0000 0.0000 0.0000
# 2 37.0543 30.7713 25.3312 0.0000 0.0000 0.0000
# 3 86.7637 25.3312 123.8624 0.0000 0.0000 0.0000
# 4 0.0000 0.0000 0.0000 54.2000 0.0000 0.0000
# 5 0.0000 0.0000 0.0000 0.0000 24.9877 0.0000
# 6 0.0000 0.0000 0.0000 0.0000 0.0000 24.9873
#
#
#
# Elastic Compliance Matrix: (Units=1/GPa)
#
#
# Indices 1 2 3 4 5 6 
#
# 1 0.014376 -0.010848 -0.007851 0.000000 0.000000 0.000000
# 2 -0.010848 0.047262 -0.002067 0.000000 0.000000 0.000000
# 3 -0.007851 -0.002067 0.013996 0.000000 0.000000 0.000000
# 4 0.000000 0.000000 0.000000 0.018450 0.000000 0.000000
# 5 0.000000 0.000000 0.000000 0.000000 0.040020 0.000000
# 6 0.000000 0.000000 0.000000 0.000000 0.000000 0.040020
#
#
# Mechanical properties :
#
#
# Convention : Reuss Voigt Hill
#
# Bulk Modulus (GPa) = 29.32429 66.42687 47.87558
# Shear Modulus (GPa) = 22.02420 30.86127 26.44273
#
# Velocity S-wave (km/s) = 3.49409 4.13610 3.82858
# Velocity P-wave (km/s) = 5.70382 7.72219 6.78844
#
# Compressibility (1/GPa) = 0.03410142
#
# Stress axis : x y z
#
# Youngs Moduli (GPa) = 69.56203 21.15875 71.44869
#
# Poissons Ratio (x) = 0.22952 0.56098
# Poissons Ratio (y) = 0.75457 0.14769
# Poissons Ratio (z) = 0.54617 0.04374
#
# Static dielectric constant tensor:
#      x y z
#    x 1.648970 0.000000 0.000000 
#    y 0.000000 1.611470 0.000000 
#    z 0.000000 0.000000 1.575580 
# 
# From -- ./inp_files/29450.got.cif
#   From: 2010.05.17/outbox.cif.g08.bks.cpg/sg51_15_cif.got.tgz:29450.got - 2010.06.03 11:52:47.
