data_PCOD9403216
_publ_section_title
;
Structure prediction by ZEFSAII (Michael W. Deem and Ramdas Pophale) SiO2 
 PCOD9403216
Probable space group: P M M A
;
_chemical_formula_sum "Si O2"
_cell_formula_units_Z 52
_cell_length_a 8.668762
_cell_length_b 27.393719
_cell_length_c 14.098264
_cell_angle_alpha 90.000000
_cell_angle_beta 90.000000
_cell_angle_gamma 90.000000
_cell_volume 3347.909540
_symmetry_space_group_name_H-M "P M M A"
_symmetry_group_IT_number 51
_symmetry_cell_setting 'orthorhombic'
loop_
_space_group_symop_operation_xyz
x,y,z
1/2-x,-y,z
1/2+x,-y,-z
-x,y,-z
-x,-y,-z
1/2+x,y,-z
1/2-x,y,z
x,-y,z
loop_
_atom_site_type_symbol
_atom_site_label
_atom_site_fract_x
_atom_site_fract_y
_atom_site_fract_z
Si Si1 0.435086 0.854309 0.717539
Si Si2 0.063411 0.606650 0.892988
Si Si3 0.935049 0.757711 0.396263
Si Si4 0.565989 0.199589 0.896197
Si Si5 0.563028 0.705686 0.206480
Si Si6 0.934662 0.943540 0.604843
Si Si7 0.936008 0.500000 0.106889
O O1 0.250000 0.854181 0.724280
O O2 0.480664 0.811155 0.643708
O O3 0.505228 0.838629 0.818108
O O4 0.495041 0.905371 0.678226
O O5 0.250000 0.607566 0.898188
O O6 0.014640 0.652443 0.829378
O O7 0.016177 0.553034 0.853813
O O8 0.000000 0.611918 0.000000
O O9 0.750000 0.756926 0.401682
O O10 0.982361 0.719650 0.313956
O O11 0.000000 0.748458 0.500000
O O12 0.750000 0.199759 0.898050
O O13 0.505158 0.252357 0.860858
O O14 0.500000 0.189366 0.000000
O O15 0.750000 0.708921 0.201324
O O16 0.750000 0.938911 0.602993
O O17 0.000000 0.932815 0.500000
O O18 0.973824 0.000000 0.626810
O O19 0.750000 0.500000 0.104864
O O20 0.000000 0.500000 0.000000
#
# Coordination Sequence:
#
# PCOD9403216 Si02
#       7
#     8   8   8   8   8   8   4
#     4  10  20  34  51  71  95 123 155 191 231 275
#     4   9  16  26  41  60  86 115 145 181 221 266
#     4   9  18  30  44  63  88 115 145 182 223 266
#     4  11  21  33  49  69  94 123 155 189 225 270
#     4   9  18  31  44  63  90 119 150 186 226 268
#     4  10  20  33  50  74 102 130 160 194 233 276
#     4   8  14  24  38  58  81 110 144 178 219 266
#
# _framework density 15.532080000000001
#
# number of rings (size 3 to 8) (size 9 to 14) (size 15 to 20)
#    0.000    2.462    0.000    4.154    0.000    7.077 
#    0.000    0.000    0.000    0.462    0.000    0.538 
#    0.000    0.000    0.000    0.000    0.000    0.000 
#
# Total GULP energy -289870.653732 kJ/mol
# GULP energy per Si atom -5574.435649 kJ/mol
# Density = 1.549673 g / cm^3
# Si number density = 15.532080 Si / 1000 Ang^3
#
#
#
# Elastic Constant Matrix: (Units=GPa)
#
#
# Indices 1 2 3 4 5 6 
#
# 1 38.4460 38.6838 34.6192 0.0000 0.0000 0.0000
# 2 38.6838 135.6135 81.3413 0.0000 0.0000 0.0000
# 3 34.6192 81.3413 120.3172 0.0000 0.0000 0.0000
# 4 0.0000 0.0000 0.0000 22.0036 0.0000 0.0000
# 5 0.0000 0.0000 0.0000 0.0000 26.7567 0.0000
# 6 0.0000 0.0000 0.0000 0.0000 0.0000 -15.8637
#
#
#
# Elastic Compliance Matrix: (Units=1/GPa)
#
#
# Indices 1 2 3 4 5 6 
#
# 1 0.039079 -0.007406 -0.006237 0.000000 0.000000 0.000000
# 2 -0.007406 0.013807 -0.007203 0.000000 0.000000 0.000000
# 3 -0.006237 -0.007203 0.014976 0.000000 0.000000 0.000000
# 4 0.000000 0.000000 0.000000 0.045447 0.000000 0.000000
# 5 0.000000 0.000000 0.000000 0.000000 0.037374 0.000000
# 6 0.000000 0.000000 0.000000 0.000000 0.000000 -0.063037
#
#
# Mechanical properties :
#
#
# Convention : Reuss Voigt Hill
#
# Bulk Modulus (GPa) = 38.21422 67.07392 52.64407
# Shear Modulus (GPa) = 36.21557 15.89483 26.05520
#
# Velocity S-wave (km/s) = 4.83397 3.20246 4.10018
# Velocity P-wave (km/s) = 7.47082 7.54667 7.50884
#
# Compressibility (1/GPa) = 0.02616827
#
# Stress axis : x y z
#
# Youngs Moduli (GPa) = 25.58929 72.42643 66.77356
#
# Poissons Ratio (x) = 0.53640 0.41649
# Poissons Ratio (y) = 0.18952 0.48100
# Poissons Ratio (z) = 0.15961 0.52172
#
# Static dielectric constant tensor:
#      x y z
#    x 1.521970 0.000000 0.000000 
#    y 0.000000 1.536740 0.000000 
#    z 0.000000 0.000000 1.488230 
# 
# From -- ./inp_files/14596.got.cif
#   From: 2010.05.17/outbox.cif.g08.bks.cpg/sg51_8_cif.got.tgz:14596.got - 2010.06.03 11:52:47.
