data_PCOD9403375
_publ_section_title
;
Structure prediction by ZEFSAII (Michael W. Deem and Ramdas Pophale) SiO2 
 PCOD9403375
Probable space group: P M M A
;
_chemical_formula_sum "Si O2"
_cell_formula_units_Z 48
_cell_length_a 15.623155
_cell_length_b 9.538594
_cell_length_c 18.669567
_cell_angle_alpha 90.000000
_cell_angle_beta 90.000000
_cell_angle_gamma 90.000000
_cell_volume 2782.193624
_symmetry_space_group_name_H-M "P M M A"
_symmetry_group_IT_number 51
_symmetry_cell_setting 'orthorhombic'
loop_
_space_group_symop_operation_xyz
x,y,z
1/2-x,-y,z
1/2+x,-y,-z
-x,y,-z
-x,-y,-z
1/2+x,y,-z
1/2-x,y,z
x,-y,z
loop_
_atom_site_type_symbol
_atom_site_label
_atom_site_fract_x
_atom_site_fract_y
_atom_site_fract_z
Si Si1 0.396807 0.343991 0.185542
Si Si2 0.957448 0.340382 0.305539
Si Si3 0.250000 0.839868 0.423073
Si Si4 0.999407 0.838840 0.085512
Si Si5 0.943941 0.834310 0.571903
Si Si6 0.150854 0.833932 0.802026
Si Si7 0.250000 0.159186 0.251278
O O1 0.362886 0.500000 0.173295
O O2 0.474156 0.352529 0.241595
O O3 0.432707 0.271194 0.115099
O O4 0.330225 0.241815 0.221955
O O5 0.933889 0.500000 0.327460
O O6 0.881776 0.253850 0.266728
O O7 0.005593 0.254990 0.368326
O O8 0.154582 0.782869 0.441530
O O9 0.250000 0.840037 0.336958
O O10 0.250000 0.000000 0.451033
O O11 0.910663 0.809636 0.128725
O O12 0.022501 0.000000 0.104983
O O13 0.000000 0.830742 0.000000
O O14 0.000000 0.827969 0.500000
O O15 0.937764 0.000000 0.594037
O O16 0.250000 0.802304 0.817831
O O17 0.143720 0.000000 0.785457
O O18 0.250000 0.000000 0.226411
#
# Coordination Sequence:
#
# PCOD9403375 Si02
#       7
#     8   8   4   8   8   8   4
#     4  10  20  33  51  77 107 139 176 218 268 324
#     4  10  20  34  54  78 107 139 175 221 271 324
#     4   9  18  33  55  81 105 138 181 224 275 327
#     4   9  18  34  54  78 108 142 181 223 271 321
#     4  10  20  36  57  80 110 145 183 228 273 326
#     4   9  18  34  56  78 103 140 186 229 268 318
#     4  11  19  31  55  79 105 136 177 228 269 315
#
# _framework density 17.252573000000002
#
# number of rings (size 3 to 8) (size 9 to 14) (size 15 to 20)
#    0.000    2.333    1.667    1.250    0.000    2.333 
#    3.000    0.417    0.000    0.000    0.000    0.000 
#    0.000    0.000    0.000    0.000    0.000    0.000 
#
# Total GULP energy -267206.308298 kJ/mol
# GULP energy per Si atom -5566.798090 kJ/mol
# Density = 1.721331 g / cm^3
# Si number density = 17.252573 Si / 1000 Ang^3
#
#
#
# Elastic Constant Matrix: (Units=GPa)
#
#
# Indices 1 2 3 4 5 6 
#
# 1 95.6177 38.0787 25.4995 0.0000 0.0000 0.0000
# 2 38.0787 87.2803 34.9300 0.0000 0.0000 0.0000
# 3 25.4995 34.9300 63.0644 0.0000 0.0000 0.0000
# 4 0.0000 0.0000 0.0000 18.5716 0.0000 0.0000
# 5 0.0000 0.0000 0.0000 0.0000 35.3777 0.0000
# 6 0.0000 0.0000 0.0000 0.0000 0.0000 62.0922
#
#
#
# Elastic Compliance Matrix: (Units=1/GPa)
#
#
# Indices 1 2 3 4 5 6 
#
# 1 0.013011 -0.004588 -0.002720 0.000000 0.000000 0.000000
# 2 -0.004588 0.016338 -0.007194 0.000000 0.000000 0.000000
# 3 -0.002720 -0.007194 0.020941 0.000000 0.000000 0.000000
# 4 0.000000 0.000000 0.000000 0.053846 0.000000 0.000000
# 5 0.000000 0.000000 0.000000 0.000000 0.028266 0.000000
# 6 0.000000 0.000000 0.000000 0.000000 0.000000 0.016105
#
#
# Mechanical properties :
#
#
# Convention : Reuss Voigt Hill
#
# Bulk Modulus (GPa) = 46.97819 49.21985 48.09902
# Shear Modulus (GPa) = 27.08468 33.03858 30.06163
#
# Velocity S-wave (km/s) = 3.96649 4.38081 4.17879
# Velocity P-wave (km/s) = 6.94738 7.36068 7.15702
#
# Compressibility (1/GPa) = 0.02128647
#
# Stress axis : x y z
#
# Youngs Moduli (GPa) = 76.86005 61.20649 47.75274
#
# Poissons Ratio (x) = 0.28081 0.12987
# Poissons Ratio (y) = 0.35263 0.34355
# Poissons Ratio (z) = 0.20903 0.44034
#
# Static dielectric constant tensor:
#      x y z
#    x 1.621330 0.000000 0.000000 
#    y 0.000000 1.614110 0.000000 
#    z 0.000000 0.000000 1.549270 
# 
# From -- ./inp_files/29613.got.cif
#   From: 2010.05.17/outbox.cif.g08.bks.cpg/sg51_15_cif.got.tgz:29613.got - 2010.06.03 11:52:47.
