data_PCOD9403486
_publ_section_title
;
Structure prediction by ZEFSAII (Michael W. Deem and Ramdas Pophale) SiO2 
 PCOD9403486
Probable space group: P M M A
;
_chemical_formula_sum "Si O2"
_cell_formula_units_Z 56
_cell_length_a 19.561672
_cell_length_b 9.042700
_cell_length_c 16.255530
_cell_angle_alpha 90.000000
_cell_angle_beta 90.000000
_cell_angle_gamma 90.000000
_cell_volume 2875.446089
_symmetry_space_group_name_H-M "P M M A"
_symmetry_group_IT_number 51
_symmetry_cell_setting 'orthorhombic'
loop_
_space_group_symop_operation_xyz
x,y,z
1/2-x,-y,z
1/2+x,-y,-z
-x,y,-z
-x,-y,-z
1/2+x,y,-z
1/2-x,y,z
x,-y,z
loop_
_atom_site_type_symbol
_atom_site_label
_atom_site_fract_x
_atom_site_fract_y
_atom_site_fract_z
Si Si1 0.832000 0.329335 0.822049
Si Si2 0.593335 0.176686 0.670122
Si Si3 0.329868 0.174710 0.494522
Si Si4 0.171493 0.323512 0.670159
Si Si5 0.169451 0.175340 0.004436
Si Si6 0.544724 0.175249 0.246698
Si Si7 0.046529 0.324187 0.920745
O O1 0.750000 0.326264 0.810673
O O2 0.853298 0.500000 0.834299
O O3 0.867003 0.260221 0.742429
O O4 0.846734 0.237067 0.904489
O O5 0.622286 0.219625 0.581187
O O6 0.513082 0.203193 0.684473
O O7 0.605331 0.000000 0.679133
O O8 0.250000 0.191318 0.470041
O O9 0.340767 0.266346 0.577309
O O10 0.341188 0.000000 0.512055
O O11 0.250000 0.283636 0.691343
O O12 0.164969 0.500000 0.673946
O O13 0.115921 0.247649 0.727715
O O14 0.250000 0.201766 0.989502
O O15 0.156845 0.000000 0.000807
O O16 0.121269 0.260347 0.941167
O O17 0.520081 0.246338 0.161368
O O18 0.552274 0.000000 0.236853
O O19 0.048500 0.500000 0.909392
O O20 0.000000 0.290779 0.000000
#
# Coordination Sequence:
#
# PCOD9403486 Si02
#       7
#     8   8   8   8   8   8   8
#     4  10  20  33  52  81 117 155 192 233 283 336
#     4  10  21  36  56  84 117 153 193 235 279 334
#     4   9  18  35  60  87 116 152 191 231 277 330
#     4  10  22  41  63  86 114 149 191 239 289 341
#     4  10  21  37  58  83 110 144 188 236 286 341
#     4  11  24  40  60  86 115 150 191 235 285 340
#     4  11  24  41  61  85 115 151 190 234 286 343
#
# _framework density 19.475238999999998
#
# number of rings (size 3 to 8) (size 9 to 14) (size 15 to 20)
#    0.000    1.857    0.000    3.429    0.000    9.429 
#    0.000    4.286    0.000    0.000    0.000    0.000 
#    0.000    0.000    0.000    0.000    0.000    0.000 
#
# Total GULP energy -313024.520820 kJ/mol
# GULP energy per Si atom -5589.723586 kJ/mol
# Density = 1.943091 g / cm^3
# Si number density = 19.475239 Si / 1000 Ang^3
#
#
#
# Elastic Constant Matrix: (Units=GPa)
#
#
# Indices 1 2 3 4 5 6 
#
# 1 70.3846 48.2910 41.7030 0.0000 0.0000 0.0000
# 2 48.2910 57.9082 33.9563 0.0000 0.0000 0.0000
# 3 41.7030 33.9563 62.8518 0.0000 0.0000 0.0000
# 4 0.0000 0.0000 0.0000 47.7628 0.0000 0.0000
# 5 0.0000 0.0000 0.0000 0.0000 33.5566 0.0000
# 6 0.0000 0.0000 0.0000 0.0000 0.0000 18.4251
#
#
#
# Elastic Compliance Matrix: (Units=1/GPa)
#
#
# Indices 1 2 3 4 5 6 
#
# 1 0.038550 -0.025101 -0.012017 0.000000 0.000000 0.000000
# 2 -0.025101 0.041620 -0.005831 0.000000 0.000000 0.000000
# 3 -0.012017 -0.005831 0.027034 0.000000 0.000000 0.000000
# 4 0.000000 0.000000 0.000000 0.020937 0.000000 0.000000
# 5 0.000000 0.000000 0.000000 0.000000 0.029800 0.000000
# 6 0.000000 0.000000 0.000000 0.000000 0.000000 0.054274
#
#
# Mechanical properties :
#
#
# Convention : Reuss Voigt Hill
#
# Bulk Modulus (GPa) = 46.93516 48.78282 47.85899
# Shear Modulus (GPa) = 16.38194 24.42852 20.40523
#
# Velocity S-wave (km/s) = 2.90343 3.54550 3.24041
# Velocity P-wave (km/s) = 5.94913 6.47023 6.21514
#
# Compressibility (1/GPa) = 0.02130599
#
# Stress axis : x y z
#
# Youngs Moduli (GPa) = 25.94067 24.02701 36.99006
#
# Poissons Ratio (x) = 0.60309 0.44452
# Poissons Ratio (y) = 0.65113 0.21569
# Poissons Ratio (z) = 0.31174 0.14010
#
# Static dielectric constant tensor:
#      x y z
#    x 1.691930 0.000000 0.000000 
#    y 0.000000 1.647340 0.000000 
#    z 0.000000 0.000000 1.653490 
# 
# From -- ./inp_files/25654.got.cif
#   From: 2010.05.17/outbox.cif.g08.bks.cpg/sg51_13_cif.got.tgz:25654.got - 2010.06.03 11:52:47.
