data_PCOD9403797
_publ_section_title
;
Structure prediction by ZEFSAII (Michael W. Deem and Ramdas Pophale) SiO2 
 PCOD9403797
Probable space group: P M M A
;
_chemical_formula_sum "Si O2"
_cell_formula_units_Z 56
_cell_length_a 19.210849
_cell_length_b 9.364437
_cell_length_c 18.162162
_cell_angle_alpha 90.000000
_cell_angle_beta 90.000000
_cell_angle_gamma 90.000000
_cell_volume 3267.350880
_symmetry_space_group_name_H-M "P M M A"
_symmetry_group_IT_number 51
_symmetry_cell_setting 'orthorhombic'
loop_
_space_group_symop_operation_xyz
x,y,z
1/2-x,-y,z
1/2+x,-y,-z
-x,y,-z
-x,-y,-z
1/2+x,y,-z
1/2-x,y,z
x,-y,z
loop_
_atom_site_type_symbol
_atom_site_label
_atom_site_fract_x
_atom_site_fract_y
_atom_site_fract_z
Si Si1 0.667294 0.331184 0.581846
Si Si2 0.168101 0.172356 0.132903
Si Si3 0.665378 0.835711 0.031464
Si Si4 0.933665 0.329003 0.309237
Si Si5 0.575976 0.169378 0.463684
Si Si6 0.907499 0.670018 0.735336
Si Si7 0.831298 0.670985 0.177053
O O1 0.750000 0.311334 0.583626
O O2 0.652774 0.500000 0.569366
O O3 0.631716 0.239763 0.518216
O O4 0.634192 0.293026 0.660753
O O5 0.250000 0.209863 0.141948
O O6 0.123349 0.245072 0.196065
O O7 0.163536 0.000000 0.136656
O O8 0.144752 0.214785 0.050191
O O9 0.750000 0.835059 0.030187
O O10 0.643830 0.743184 0.101344
O O11 0.643201 0.000000 0.040917
O O12 0.928137 0.500000 0.322737
O O13 0.922134 0.245166 0.384689
O O14 0.877990 0.288585 0.246764
O O15 0.011349 0.300856 0.279407
O O16 0.500000 0.192872 0.500000
O O17 0.586925 0.000000 0.456660
O O18 0.899194 0.500000 0.747713
O O19 0.750000 0.709256 0.188706
O O20 0.835110 0.500000 0.169025
#
# Coordination Sequence:
#
# PCOD9403797 Si02
#       7
#     8   8   8   8   8   8   8
#     4  10  21  37  58  82 107 140 182 223 265 317
#     4   9  18  32  51  76 106 140 177 218 265 315
#     4   8  15  30  51  74 102 138 176 213 261 318
#     4  10  21  37  57  78 106 143 178 216 267 322
#     4  11  23  38  57  81 108 140 179 220 266 322
#     4  10  20  34  53  77 106 141 180 218 260 315
#     4   9  18  33  54  80 105 131 172 223 268 310
#
# _framework density 17.139267
#
# number of rings (size 3 to 8) (size 9 to 14) (size 15 to 20)
#    0.000    2.429    1.429    1.714    0.000    4.571 
#    0.000    3.571    0.000    4.286    0.000    0.000 
#    0.000    0.000    0.000    0.000    0.000    0.000 
#
# Total GULP energy -312389.691249 kJ/mol
# GULP energy per Si atom -5578.387344 kJ/mol
# Density = 1.710026 g / cm^3
# Si number density = 17.139267 Si / 1000 Ang^3
#
#
#
# Elastic Constant Matrix: (Units=GPa)
#
#
# Indices 1 2 3 4 5 6 
#
# 1 78.5957 49.4743 83.4533 0.0000 0.0000 0.0000
# 2 49.4743 47.2521 84.1423 0.0000 0.0000 0.0000
# 3 83.4533 84.1423 204.3358 0.0000 0.0000 0.0000
# 4 0.0000 0.0000 0.0000 -46.2827 0.0000 0.0000
# 5 0.0000 0.0000 0.0000 0.0000 21.5274 0.0000
# 6 0.0000 0.0000 0.0000 0.0000 0.0000 21.5722
#
#
#
# Elastic Compliance Matrix: (Units=1/GPa)
#
#
# Indices 1 2 3 4 5 6 
#
# 1 0.037881 -0.045413 0.003229 0.000000 0.000000 0.000000
# 2 -0.045413 0.133784 -0.036543 0.000000 0.000000 0.000000
# 3 0.003229 -0.036543 0.018623 0.000000 0.000000 0.000000
# 4 0.000000 0.000000 0.000000 -0.021606 0.000000 0.000000
# 5 0.000000 0.000000 0.000000 0.000000 0.046452 0.000000
# 6 0.000000 0.000000 0.000000 0.000000 0.000000 0.046356
#
#
# Mechanical properties :
#
#
# Convention : Reuss Voigt Hill
#
# Bulk Modulus (GPa) = 30.45538 84.92483 57.69011
# Shear Modulus (GPa) = 11.63093 6.90431 9.26762
#
# Velocity S-wave (km/s) = 2.60785 2.00925 2.32787
# Velocity P-wave (km/s) = 5.18418 7.41891 6.39984
#
# Compressibility (1/GPa) = 0.03283492
#
# Stress axis : x y z
#
# Youngs Moduli (GPa) = 26.39865 7.47471 53.69695
#
# Poissons Ratio (x) = 0.33945 -0.17340
# Poissons Ratio (y) = 1.19883 1.96226
# Poissons Ratio (z) = -0.08525 0.27315
#
# Static dielectric constant tensor:
#      x y z
#    x 1.569370 0.000000 0.000000 
#    y 0.000000 1.571080 0.000000 
#    z 0.000000 0.000000 1.557380 
# 
# From -- ./inp_files/25690.got.cif
#   From: 2010.05.17/outbox.cif.g08.bks.cpg/sg51_13_cif.got.tgz:25690.got - 2010.06.03 11:52:47.
