data_PCOD9403441
_publ_section_title
;
Structure prediction by ZEFSAII (Michael W. Deem and Ramdas Pophale) SiO2 
 PCOD9403441
Probable space group: P M M A
;
_chemical_formula_sum "Si O2"
_cell_formula_units_Z 48
_cell_length_a 14.564530
_cell_length_b 8.855620
_cell_length_c 18.436943
_cell_angle_alpha 90.000000
_cell_angle_beta 90.000000
_cell_angle_gamma 90.000000
_cell_volume 2377.958986
_symmetry_space_group_name_H-M "P M M A"
_symmetry_group_IT_number 51
_symmetry_cell_setting 'orthorhombic'
loop_
_space_group_symop_operation_xyz
x,y,z
1/2-x,-y,z
1/2+x,-y,-z
-x,y,-z
-x,-y,-z
1/2+x,y,-z
1/2-x,y,z
x,-y,z
loop_
_atom_site_type_symbol
_atom_site_label
_atom_site_fract_x
_atom_site_fract_y
_atom_site_fract_z
Si Si1 0.533239 0.320068 0.679207
Si Si2 0.392173 0.827505 0.020360
Si Si3 0.141247 0.323536 0.465470
Si Si4 0.956439 0.819134 0.827701
Si Si5 0.649759 0.320610 0.126326
Si Si6 0.356319 0.820591 0.620230
O O1 0.536984 0.500000 0.685557
O O2 0.585947 0.275823 0.605562
O O3 0.574414 0.245314 0.750906
O O4 0.428692 0.265305 0.669903
O O5 0.393360 0.773920 0.103550
O O6 0.357034 0.000000 0.015313
O O7 0.500000 0.834978 0.000000
O O8 0.350267 0.722271 0.959050
O O9 0.250000 0.314730 0.450598
O O10 0.119005 0.500000 0.481230
O O11 0.122693 0.227144 0.537192
O O12 0.060297 0.760126 0.841404
O O13 0.958516 0.000000 0.827191
O O14 0.750000 0.274103 0.156322
O O15 0.639739 0.500000 0.135351
O O16 0.250000 0.779035 0.634020
O O17 0.366196 0.000000 0.629004
#
# Coordination Sequence:
#
# PCOD9403441 Si02
#       6
#     8   8   8   8   8   8
#     4  11  22  35  55  81 109 144 180 218 269 322
#     4   8  16  32  52  72  95 127 166 204 245 295
#     4   9  19  37  58  79 105 138 178 223 270 321
#     4  10  21  36  53  74 103 138 173 212 259 310
#     4  10  20  33  52  79 106 133 169 212 257 308
#     4  10  21  36  55  80 109 142 180 222 267 316
#
# _framework density 20.185378
#
# number of rings (size 3 to 8) (size 9 to 14) (size 15 to 20)
#    0.000    2.333    0.000    3.500    0.000   10.000 
#    0.000    0.833    0.000    3.000    0.000    0.000 
#    0.000    0.000    0.000    0.000    0.000    0.000 
#
# Total GULP energy -267987.389055 kJ/mol
# GULP energy per Si atom -5583.070605 kJ/mol
# Density = 2.013944 g / cm^3
# Si number density = 20.185378 Si / 1000 Ang^3
#
#
#
# Elastic Constant Matrix: (Units=GPa)
#
#
# Indices 1 2 3 4 5 6 
#
# 1 31.5031 1.6899 -1.1630 0.0000 0.0000 0.0000
# 2 1.6899 26.4938 5.2509 0.0000 0.0000 0.0000
# 3 -1.1630 5.2509 69.0692 0.0000 0.0000 0.0000
# 4 0.0000 0.0000 0.0000 44.2912 0.0000 0.0000
# 5 0.0000 0.0000 0.0000 0.0000 9.8242 0.0000
# 6 0.0000 0.0000 0.0000 0.0000 0.0000 24.1046
#
#
#
# Elastic Compliance Matrix: (Units=1/GPa)
#
#
# Indices 1 2 3 4 5 6 
#
# 1 0.031885 -0.002173 0.000702 0.000000 0.000000 0.000000
# 2 -0.002173 0.038470 -0.002961 0.000000 0.000000 0.000000
# 3 0.000702 -0.002961 0.014715 0.000000 0.000000 0.000000
# 4 0.000000 0.000000 0.000000 0.022578 0.000000 0.000000
# 5 0.000000 0.000000 0.000000 0.000000 0.101790 0.000000
# 6 0.000000 0.000000 0.000000 0.000000 0.000000 0.041486
#
#
# Mechanical properties :
#
#
# Convention : Reuss Voigt Hill
#
# Bulk Modulus (GPa) = 13.12224 15.40242 14.26233
# Shear Modulus (GPa) = 17.53212 23.72987 20.63099
#
# Velocity S-wave (km/s) = 2.95032 3.43242 3.20046
# Velocity P-wave (km/s) = 4.25686 4.83277 4.55393
#
# Compressibility (1/GPa) = 0.07620648
#
# Stress axis : x y z
#
# Youngs Moduli (GPa) = 31.36235 25.99412 67.95704
#
# Poissons Ratio (x) = 0.05648 -0.04771
# Poissons Ratio (y) = 0.06815 0.20124
# Poissons Ratio (z) = -0.02202 0.07698
#
# Static dielectric constant tensor:
#      x y z
#    x 1.735580 0.000000 0.000000 
#    y 0.000000 1.670860 0.000000 
#    z 0.000000 0.000000 1.738520 
# 
# From -- ./inp_files/29462.got.cif
#   From: 2010.05.17/outbox.cif.g08.bks.cpg/sg51_15_cif.got.tgz:29462.got - 2010.06.03 11:52:47.
