data_PCOD9403927
_publ_section_title
;
Structure prediction by ZEFSAII (Michael W. Deem and Ramdas Pophale) SiO2 
 PCOD9403927
Probable space group: P M M A
;
_chemical_formula_sum "Si O2"
_cell_formula_units_Z 40
_cell_length_a 9.394201
_cell_length_b 7.561801
_cell_length_c 26.703447
_cell_angle_alpha 90.000000
_cell_angle_beta 90.000000
_cell_angle_gamma 90.000000
_cell_volume 1896.934861
_symmetry_space_group_name_H-M "P M M A"
_symmetry_group_IT_number 51
_symmetry_cell_setting 'orthorhombic'
loop_
_space_group_symop_operation_xyz
x,y,z
1/2-x,-y,z
1/2+x,-y,-z
-x,y,-z
-x,-y,-z
1/2+x,y,-z
1/2-x,y,z
x,-y,z
loop_
_atom_site_type_symbol
_atom_site_label
_atom_site_fract_x
_atom_site_fract_y
_atom_site_fract_z
Si Si1 0.413859 0.283297 0.745263
Si Si2 0.587055 0.711649 0.841752
Si Si3 0.587884 0.787912 0.452173
Si Si4 0.588267 0.787655 0.952746
Si Si5 0.087861 0.712408 0.352004
O O1 0.250000 0.227110 0.742080
O O2 0.413689 0.500000 0.745163
O O3 0.489603 0.224055 0.796443
O O4 0.504813 0.224397 0.697303
O O5 0.750000 0.780369 0.838603
O O6 0.595059 0.500000 0.836682
O O7 0.529851 0.748914 0.897404
O O8 0.500000 0.719573 0.500000
O O9 0.750000 0.719844 0.450199
O O10 0.501893 0.752222 0.401543
O O11 0.596798 0.000000 0.457486
O O12 0.750000 0.719072 0.954089
O O13 0.594254 0.000000 0.957083
O O14 0.500000 0.720060 0.000000
O O15 0.250000 0.779578 0.355113
O O16 0.095860 0.500000 0.347844
#
# Coordination Sequence:
#
# PCOD9403927 Si02
#       5
#     8   8   8   8   8
#     4   9  17  30  49  73 100 129 161 200 246 292
#     4   9  17  30  48  69  93 122 157 196 237 284
#     4  10  21  37  56  77 103 136 172 210 254 302
#     4   9  18  32  48  66  91 123 156 191 235 285
#     4  10  20  34  54  79 105 135 171 209 250 298
#
# _framework density 21.086651
#
# number of rings (size 3 to 8) (size 9 to 14) (size 15 to 20)
#    0.000    2.600    0.000    1.800    0.000    6.400 
#    0.000    1.000    0.000    3.600    0.000    0.000 
#    0.000    0.000    0.000    0.000    0.000    0.000 
#
# Total GULP energy -223368.671717 kJ/mol
# GULP energy per Si atom -5584.216793 kJ/mol
# Density = 2.103866 g / cm^3
# Si number density = 21.086651 Si / 1000 Ang^3
#
#
#
# Elastic Constant Matrix: (Units=GPa)
#
#
# Indices 1 2 3 4 5 6 
#
# 1 187.4566 7.0210 141.0884 0.0000 0.0000 0.0000
# 2 7.0210 49.2223 -1.4713 0.0000 0.0000 0.0000
# 3 141.0884 -1.4713 246.9828 0.0000 0.0000 0.0000
# 4 0.0000 0.0000 0.0000 29.6482 0.0000 0.0000
# 5 0.0000 0.0000 0.0000 0.0000 41.4646 0.0000
# 6 0.0000 0.0000 0.0000 0.0000 0.0000 16.1565
#
#
#
# Elastic Compliance Matrix: (Units=1/GPa)
#
#
# Indices 1 2 3 4 5 6 
#
# 1 0.009469 -0.001513 -0.005418 0.000000 0.000000 0.000000
# 2 -0.001513 0.020561 0.000987 0.000000 0.000000 0.000000
# 3 -0.005418 0.000987 0.007150 0.000000 0.000000 0.000000
# 4 0.000000 0.000000 0.000000 0.033729 0.000000 0.000000
# 5 0.000000 0.000000 0.000000 0.000000 0.024117 0.000000
# 6 0.000000 0.000000 0.000000 0.000000 0.000000 0.061895
#
#
# Mechanical properties :
#
#
# Convention : Reuss Voigt Hill
#
# Bulk Modulus (GPa) = 39.53867 86.32644 62.93255
# Shear Modulus (GPa) = 28.21028 39.92209 34.06619
#
# Velocity S-wave (km/s) = 3.66160 4.35586 4.02373
# Velocity P-wave (km/s) = 6.05538 8.14406 7.17612
#
# Compressibility (1/GPa) = 0.02529170
#
# Stress axis : x y z
#
# Youngs Moduli (GPa) = 105.60434 48.63522 139.86103
#
# Poissons Ratio (x) = 0.07357 0.75781
# Poissons Ratio (y) = 0.15974 -0.13798
# Poissons Ratio (z) = 0.57220 -0.04798
#
# Static dielectric constant tensor:
#      x y z
#    x 1.738590 0.000000 0.000000 
#    y 0.000000 1.802960 0.000000 
#    z 0.000000 0.000000 1.720840 
# 
# From -- ./inp_files/27004.got.cif
#   From: 2010.05.17/outbox.cif.g08.bks.cpg/sg51_14_cif.got.tgz:27004.got - 2010.06.03 11:52:47.
