data_PCOD9403103
_publ_section_title
;
Structure prediction by ZEFSAII (Michael W. Deem and Ramdas Pophale) SiO2 
 PCOD9403103
Probable space group: P M M A
;
_chemical_formula_sum "Si O2"
_cell_formula_units_Z 56
_cell_length_a 8.781902
_cell_length_b 14.738620
_cell_length_c 24.474225
_cell_angle_alpha 90.000000
_cell_angle_beta 90.000000
_cell_angle_gamma 90.000000
_cell_volume 3167.775215
_symmetry_space_group_name_H-M "P M M A"
_symmetry_group_IT_number 51
_symmetry_cell_setting 'orthorhombic'
loop_
_space_group_symop_operation_xyz
x,y,z
1/2-x,-y,z
1/2+x,-y,-z
-x,y,-z
-x,-y,-z
1/2+x,y,-z
1/2-x,y,z
x,-y,z
loop_
_atom_site_type_symbol
_atom_site_label
_atom_site_fract_x
_atom_site_fract_y
_atom_site_fract_z
Si Si1 0.066880 0.104738 0.942493
Si Si2 0.066251 0.395073 0.649132
Si Si3 0.066166 0.894772 0.355651
Si Si4 0.066855 0.395209 0.942364
Si Si5 0.433900 0.249716 0.853431
Si Si6 0.432485 0.245717 0.560311
Si Si7 0.432093 0.745340 0.267071
O O1 0.250000 0.109009 0.946287
O O2 0.020775 0.163889 0.890602
O O3 0.020560 0.000000 0.935890
O O4 0.000000 0.138034 0.000000
O O5 0.250000 0.393615 0.653355
O O6 0.017582 0.500000 0.645766
O O7 0.024260 0.334492 0.596234
O O8 0.998254 0.341264 0.700615
O O9 0.250000 0.892323 0.360516
O O10 0.024189 0.834652 0.302509
O O11 0.995032 0.841294 0.406746
O O12 0.019327 0.000000 0.352161
O O13 0.250000 0.390842 0.946165
O O14 0.020910 0.500000 0.935534
O O15 0.020829 0.335747 0.890548
O O16 0.000000 0.362400 0.000000
O O17 0.250000 0.249946 0.847988
O O18 0.505634 0.249732 0.793975
O O19 0.500000 0.250095 0.500000
O O20 0.250000 0.241287 0.557926
O O21 0.250000 0.739832 0.266644
#
# Coordination Sequence:
#
# PCOD9403103 Si02
#       7
#     8   8   8   8   8   8   8
#     4   9  18  32  49  70  96 126 162 205 253 305
#     4   9  19  37  58  77 102 139 176 208 249 301
#     4   9  19  37  57  75 101 138 175 213 258 302
#     4   9  18  32  49  69  93 122 157 197 242 293
#     4  10  20  33  49  70  98 131 164 200 248 305
#     4  10  20  34  54  82 112 139 171 210 250 296
#     4  10  21  35  52  77 104 130 169 218 259 298
#
# _framework density 17.678021999999999
#
# number of rings (size 3 to 8) (size 9 to 14) (size 15 to 20)
#    0.000    2.571    0.000    1.286    0.000    4.571 
#    0.000    1.429    0.000    0.000    0.000    0.000 
#    0.000    0.000    0.000    0.000    0.000    0.000 
#
# Total GULP energy -312388.188974 kJ/mol
# GULP energy per Si atom -5578.360517 kJ/mol
# Density = 1.763779 g / cm^3
# Si number density = 17.678022 Si / 1000 Ang^3
#
#
#
# Elastic Constant Matrix: (Units=GPa)
#
#
# Indices 1 2 3 4 5 6 
#
# 1 15.0785 36.1571 41.2702 0.0000 0.0000 0.0000
# 2 36.1571 160.3444 98.1752 0.0000 0.0000 0.0000
# 3 41.2702 98.1752 195.2242 0.0000 0.0000 0.0000
# 4 0.0000 0.0000 0.0000 17.6453 0.0000 0.0000
# 5 0.0000 0.0000 0.0000 0.0000 30.8371 0.0000
# 6 0.0000 0.0000 0.0000 0.0000 0.0000 156.3628
#
#
#
# Elastic Compliance Matrix: (Units=1/GPa)
#
#
# Indices 1 2 3 4 5 6 
#
# 1 0.237185 -0.032921 -0.033585 0.000000 0.000000 0.000000
# 2 -0.032921 0.013581 0.000130 0.000000 0.000000 0.000000
# 3 -0.033585 0.000130 0.012157 0.000000 0.000000 0.000000
# 4 0.000000 0.000000 0.000000 0.056672 0.000000 0.000000
# 5 0.000000 0.000000 0.000000 0.000000 0.032428 0.000000
# 6 0.000000 0.000000 0.000000 0.000000 0.000000 0.006395
#
#
# Mechanical properties :
#
#
# Convention : Reuss Voigt Hill
#
# Bulk Modulus (GPa) = 7.68225 80.20578 43.94402
# Shear Modulus (GPa) = 9.35347 53.97202 31.66274
#
# Velocity S-wave (km/s) = 2.30272 5.53144 4.23671
# Velocity P-wave (km/s) = 3.38010 9.28788 6.98891
#
# Compressibility (1/GPa) = 0.13017017
#
# Stress axis : x y z
#
# Youngs Moduli (GPa) = 4.21611 73.63467 82.25848
#
# Poissons Ratio (x) = 2.42413 2.76267
# Poissons Ratio (y) = 0.13880 -0.01070
# Poissons Ratio (z) = 0.14160 -0.00957
#
# Static dielectric constant tensor:
#      x y z
#    x 1.601680 0.000000 0.000000 
#    y 0.000000 1.614010 0.000000 
#    z 0.000000 0.000000 1.565410 
# 
# From -- ./inp_files/31930.got.cif
#   From: 2010.05.17/outbox.cif.g08.bks.cpg/sg51_16_cif.got.tgz:31930.got - 2010.06.03 11:52:47.
