data_PCOD9403253
_publ_section_title
;
Structure prediction by ZEFSAII (Michael W. Deem and Ramdas Pophale) SiO2 
 PCOD9403253
Probable space group: P M M A
;
_chemical_formula_sum "Si O2"
_cell_formula_units_Z 56
_cell_length_a 8.887048
_cell_length_b 14.262493
_cell_length_c 23.834582
_cell_angle_alpha 90.000000
_cell_angle_beta 90.000000
_cell_angle_gamma 90.000000
_cell_volume 3021.068064
_symmetry_space_group_name_H-M "P M M A"
_symmetry_group_IT_number 51
_symmetry_cell_setting 'orthorhombic'
loop_
_space_group_symop_operation_xyz
x,y,z
1/2-x,-y,z
1/2+x,-y,-z
-x,y,-z
-x,-y,-z
1/2+x,y,-z
1/2-x,y,z
x,-y,z
loop_
_atom_site_type_symbol
_atom_site_label
_atom_site_fract_x
_atom_site_fract_y
_atom_site_fract_z
Si Si1 0.428949 0.394227 0.167226
Si Si2 0.070469 0.781586 0.441041
Si Si3 0.431019 0.900138 0.937659
Si Si4 0.569312 0.692834 0.062104
Si Si5 0.570839 0.279554 0.266472
Si Si6 0.431266 0.891749 0.328243
Si Si7 0.930553 0.391543 0.380464
O O1 0.250000 0.382869 0.163282
O O2 0.462006 0.500000 0.186888
O O3 0.501733 0.378558 0.106468
O O4 0.497038 0.321392 0.211135
O O5 0.250000 0.779002 0.445414
O O6 0.029448 0.851429 0.390009
O O7 0.000000 0.810323 0.500000
O O8 0.009621 0.679102 0.423426
O O9 0.250000 0.900305 0.941779
O O10 0.472078 0.797814 0.915037
O O11 0.476184 0.000000 0.910306
O O12 0.500000 0.901340 0.000000
O O13 0.750000 0.685501 0.058885
O O14 0.500000 0.682648 0.000000
O O15 0.750000 0.274681 0.259774
O O16 0.506710 0.178695 0.284266
O O17 0.537052 0.349743 0.318594
O O18 0.250000 0.885702 0.322853
O O19 0.475904 0.000000 0.322166
O O20 0.750000 0.386478 0.388484
O O21 0.976757 0.500000 0.385217
#
# Coordination Sequence:
#
# PCOD9403253 Si02
#       7
#     8   8   8   8   8   8   8
#     4  11  24  40  58  80 107 142 183 225 271 327
#     4  10  20  33  50  75 108 146 187 229 272 320
#     4   8  14  26  46  72 100 130 164 201 243 293
#     4  10  20  35  56  81 111 146 182 224 272 323
#     4  10  20  36  59  85 110 136 173 224 278 331
#     4   9  19  37  59  82 111 147 184 224 272 325
#     4   9  18  33  53  76 103 137 177 223 276 330
#
# _framework density 18.536491000000002
#
# number of rings (size 3 to 8) (size 9 to 14) (size 15 to 20)
#    0.000    2.429    0.000    2.143    0.000    4.857 
#    0.000    0.714    0.000    2.571    0.000    0.000 
#    0.000    0.000    0.000    0.000    0.000    0.000 
#
# Total GULP energy -312316.007223 kJ/mol
# GULP energy per Si atom -5577.071558 kJ/mol
# Density = 1.849430 g / cm^3
# Si number density = 18.536491 Si / 1000 Ang^3
#
#
#
# Elastic Constant Matrix: (Units=GPa)
#
#
# Indices 1 2 3 4 5 6 
#
# 1 36.8277 46.7806 41.9188 0.0000 0.0000 0.0000
# 2 46.7806 132.6662 50.0896 0.0000 0.0000 0.0000
# 3 41.9188 50.0896 93.4306 0.0000 0.0000 0.0000
# 4 0.0000 0.0000 0.0000 15.4266 0.0000 0.0000
# 5 0.0000 0.0000 0.0000 0.0000 28.9342 0.0000
# 6 0.0000 0.0000 0.0000 0.0000 0.0000 24.3768
#
#
#
# Elastic Compliance Matrix: (Units=1/GPa)
#
#
# Indices 1 2 3 4 5 6 
#
# 1 0.080409 -0.018472 -0.026174 0.000000 0.000000 0.000000
# 2 -0.018472 0.013694 0.000946 0.000000 0.000000 0.000000
# 3 -0.026174 0.000946 0.021939 0.000000 0.000000 0.000000
# 4 0.000000 0.000000 0.000000 0.064823 0.000000 0.000000
# 5 0.000000 0.000000 0.000000 0.000000 0.034561 0.000000
# 6 0.000000 0.000000 0.000000 0.000000 0.000000 0.041023
#
#
# Mechanical properties :
#
#
# Convention : Reuss Voigt Hill
#
# Bulk Modulus (GPa) = 34.91182 60.05582 47.48382
# Shear Modulus (GPa) = 14.14848 22.02324 18.08586
#
# Velocity S-wave (km/s) = 2.76574 3.45063 3.12699
# Velocity P-wave (km/s) = 5.39204 6.95304 6.22169
#
# Compressibility (1/GPa) = 0.02864359
#
# Stress axis : x y z
#
# Youngs Moduli (GPa) = 12.43644 73.02481 45.58075
#
# Poissons Ratio (x) = 1.34888 1.19301
# Poissons Ratio (y) = 0.22972 -0.04312
# Poissons Ratio (z) = 0.32551 -0.06908
#
# Static dielectric constant tensor:
#      x y z
#    x 1.617740 0.000000 0.000000 
#    y 0.000000 1.672220 0.000000 
#    z 0.000000 0.000000 1.611790 
# 
# From -- ./inp_files/31873.got.cif
#   From: 2010.05.17/outbox.cif.g08.bks.cpg/sg51_16_cif.got.tgz:31873.got - 2010.06.03 11:52:47.
