data_PCOD9403229
_publ_section_title
;
Structure prediction by ZEFSAII (Michael W. Deem and Ramdas Pophale) SiO2 
 PCOD9403229
Probable space group: P M M A
;
_chemical_formula_sum "Si O2"
_cell_formula_units_Z 40
_cell_length_a 9.064879
_cell_length_b 9.279497
_cell_length_c 26.704943
_cell_angle_alpha 90.000000
_cell_angle_beta 90.000000
_cell_angle_gamma 90.000000
_cell_volume 2246.353510
_symmetry_space_group_name_H-M "P M M A"
_symmetry_group_IT_number 51
_symmetry_cell_setting 'orthorhombic'
loop_
_space_group_symop_operation_xyz
x,y,z
1/2-x,-y,z
1/2+x,-y,-z
-x,y,-z
-x,-y,-z
1/2+x,y,-z
1/2-x,y,z
x,-y,z
loop_
_atom_site_type_symbol
_atom_site_label
_atom_site_fract_x
_atom_site_fract_y
_atom_site_fract_z
Si Si1 0.572488 0.169597 0.747312
Si Si2 0.070240 0.665660 0.151893
Si Si3 0.425497 0.671424 0.654145
Si Si4 0.080078 0.675595 0.449281
Si Si5 0.572821 0.830427 0.947938
O O1 0.750000 0.186504 0.742769
O O2 0.525146 0.246615 0.798842
O O3 0.496152 0.243587 0.700078
O O4 0.540112 0.000000 0.749459
O O5 0.250000 0.667319 0.151405
O O6 0.022420 0.500000 0.154598
O O7 0.022673 0.741222 0.100413
O O8 0.250000 0.691225 0.652545
O O9 0.455137 0.500000 0.660383
O O10 0.496373 0.718025 0.601336
O O11 0.250000 0.721719 0.448201
O O12 0.078542 0.500000 0.450244
O O13 0.000000 0.724448 0.500000
O O14 0.750000 0.817354 0.952069
O O15 0.538820 0.000000 0.940493
O O16 0.500000 0.783371 0.000000
#
# Coordination Sequence:
#
# PCOD9403229 Si02
#       5
#     8   8   8   8   8
#     4  10  20  34  53  75  98 128 168 211 255 306
#     4   9  17  30  50  74  98 126 163 207 252 298
#     4  10  20  33  50  74 104 136 170 209 253 301
#     4   9  16  27  46  73 104 136 170 209 252 298
#     4   9  17  30  48  70  97 129 164 201 243 294
#
# _framework density 17.806636000000001
#
# number of rings (size 3 to 8) (size 9 to 14) (size 15 to 20)
#    0.000    2.600    0.000    2.400    0.000    7.600 
#    0.000    1.000    0.000    4.200    0.000    0.000 
#    0.000    0.000    0.000    0.000    0.000    0.000 
#
# Total GULP energy -223141.334123 kJ/mol
# GULP energy per Si atom -5578.533353 kJ/mol
# Density = 1.776611 g / cm^3
# Si number density = 17.806636 Si / 1000 Ang^3
#
#
#
# Elastic Constant Matrix: (Units=GPa)
#
#
# Indices 1 2 3 4 5 6 
#
# 1 47.1147 51.6863 71.2796 0.0000 0.0000 0.0000
# 2 51.6863 85.7926 102.1549 0.0000 0.0000 0.0000
# 3 71.2796 102.1549 232.1671 0.0000 0.0000 0.0000
# 4 0.0000 0.0000 0.0000 -53.9169 0.0000 0.0000
# 5 0.0000 0.0000 0.0000 0.0000 34.4165 0.0000
# 6 0.0000 0.0000 0.0000 0.0000 0.0000 16.1991
#
#
#
# Elastic Compliance Matrix: (Units=1/GPa)
#
#
# Indices 1 2 3 4 5 6 
#
# 1 0.066144 -0.032912 -0.005826 0.000000 0.000000 0.000000
# 2 -0.032912 0.040859 -0.007874 0.000000 0.000000 0.000000
# 3 -0.005826 -0.007874 0.009561 0.000000 0.000000 0.000000
# 4 0.000000 0.000000 0.000000 -0.018547 0.000000 0.000000
# 5 0.000000 0.000000 0.000000 0.000000 0.029056 0.000000
# 6 0.000000 0.000000 0.000000 0.000000 0.000000 0.061732
#
#
# Mechanical properties :
#
#
# Convention : Reuss Voigt Hill
#
# Bulk Modulus (GPa) = 42.84346 90.59068 66.71707
# Shear Modulus (GPa) = 17.25273 8.66997 12.96135
#
# Velocity S-wave (km/s) = 3.11608 2.20896 2.70088
# Velocity P-wave (km/s) = 6.08763 7.58229 6.87570
#
# Compressibility (1/GPa) = 0.02334079
#
# Stress axis : x y z
#
# Youngs Moduli (GPa) = 15.11843 24.47413 104.59635
#
# Poissons Ratio (x) = 0.80549 0.60940
# Poissons Ratio (y) = 0.49757 0.82358
# Poissons Ratio (z) = 0.08808 0.19271
#
# Static dielectric constant tensor:
#      x y z
#    x 1.597620 0.000000 0.000000 
#    y 0.000000 1.597210 0.000000 
#    z 0.000000 0.000000 1.582820 
# 
# From -- ./inp_files/34319.got.cif
#   From: 2010.05.17/outbox.cif.g08.bks.cpg/sg51_18_cif.got.tgz:34319.got - 2010.06.03 11:52:47.
