data_PCOD9403988
_publ_section_title
;
Structure prediction by ZEFSAII (Michael W. Deem and Ramdas Pophale) SiO2 
 PCOD9403988
Probable space group: P M M A
;
_chemical_formula_sum "Si O2"
_cell_formula_units_Z 64
_cell_length_a 29.663158
_cell_length_b 7.576779
_cell_length_c 12.936568
_cell_angle_alpha 90.000000
_cell_angle_beta 90.000000
_cell_angle_gamma 90.000000
_cell_volume 2907.509086
_symmetry_space_group_name_H-M "P M M A"
_symmetry_group_IT_number 51
_symmetry_cell_setting 'orthorhombic'
loop_
_space_group_symop_operation_xyz
x,y,z
1/2-x,-y,z
1/2+x,-y,-z
-x,y,-z
-x,-y,-z
1/2+x,y,-z
1/2-x,y,z
x,-y,z
loop_
_atom_site_type_symbol
_atom_site_label
_atom_site_fract_x
_atom_site_fract_y
_atom_site_fract_z
Si Si1 0.377914 0.217544 0.334512
Si Si2 0.060347 0.286535 0.744307
Si Si3 0.299367 0.794682 0.483769
Si Si4 0.022907 0.207883 0.396569
Si Si5 0.156869 0.707515 0.691861
Si Si6 0.637588 0.204614 0.895399
Si Si7 0.302058 0.213760 0.915653
Si Si8 0.051173 0.286343 0.979186
O O1 0.340958 0.277362 0.417646
O O2 0.428171 0.278714 0.364947
O O3 0.363511 0.278532 0.220104
O O4 0.379407 0.000000 0.332430
O O5 0.060532 0.500000 0.743201
O O6 0.105445 0.223882 0.686435
O O7 0.063813 0.230746 0.863357
O O8 0.014016 0.227530 0.693131
O O9 0.250000 0.714852 0.465768
O O10 0.311674 0.787965 0.604551
O O11 0.296676 0.000000 0.454057
O O12 0.000000 0.284827 0.500000
O O13 0.029936 0.000000 0.416107
O O14 0.155746 0.500000 0.670407
O O15 0.175214 0.732419 0.807668
O O16 0.650985 0.000000 0.884978
O O17 0.669858 0.280321 0.985016
O O18 0.587071 0.214886 0.940072
O O19 0.250000 0.270464 0.918917
O O20 0.302982 0.000000 0.917359
O O21 0.053113 0.500000 0.984491
O O22 0.000000 0.232231 0.000000
#
# Coordination Sequence:
#
# PCOD9403988 Si02
#       8
#     8   8   8   8   8   8   8   8
#     4   9  19  36  56  82 115 146 184 231 280 334
#     4  10  21  35  52  78 110 144 184 227 275 331
#     4  10  21  38  61  85 110 145 187 232 284 340
#     4  10  20  34  54  80 110 147 187 229 277 329
#     4  11  22  37  57  82 114 147 183 233 285 336
#     4  10  20  35  56  81 110 145 186 232 276 331
#     4  10  21  36  55  81 111 144 185 232 283 337
#     4  10  20  35  54  77 109 147 185 227 275 329
#
# _framework density 22.011969000000001
#
# number of rings (size 3 to 8) (size 9 to 14) (size 15 to 20)
#    0.000    2.000    1.250    2.250    0.000    5.500 
#    0.000    3.750    0.000    0.000    0.000    1.750 
#    0.000    0.000    0.000    0.000    0.000    0.000 
#
# Total GULP energy -357632.430770 kJ/mol
# GULP energy per Si atom -5588.006731 kJ/mol
# Density = 2.196187 g / cm^3
# Si number density = 22.011969 Si / 1000 Ang^3
#
#
#
# Elastic Constant Matrix: (Units=GPa)
#
#
# Indices 1 2 3 4 5 6 
#
# 1 171.8714 -0.8162 59.2609 0.0000 0.0000 0.0000
# 2 -0.8162 46.7619 -4.1480 0.0000 0.0000 0.0000
# 3 59.2609 -4.1480 129.7322 0.0000 0.0000 0.0000
# 4 0.0000 0.0000 0.0000 3.7012 0.0000 0.0000
# 5 0.0000 0.0000 0.0000 0.0000 31.6004 0.0000
# 6 0.0000 0.0000 0.0000 0.0000 0.0000 31.1356
#
#
#
# Elastic Compliance Matrix: (Units=1/GPa)
#
#
# Indices 1 2 3 4 5 6 
#
# 1 0.006907 -0.000160 -0.003160 0.000000 0.000000 0.000000
# 2 -0.000160 0.021449 0.000759 0.000000 0.000000 0.000000
# 3 -0.003160 0.000759 0.009176 0.000000 0.000000 0.000000
# 4 0.000000 0.000000 0.000000 0.270181 0.000000 0.000000
# 5 0.000000 0.000000 0.000000 0.000000 0.031645 0.000000
# 6 0.000000 0.000000 0.000000 0.000000 0.000000 0.032118
#
#
# Mechanical properties :
#
#
# Convention : Reuss Voigt Hill
#
# Bulk Modulus (GPa) = 30.85446 50.77320 40.81383
# Shear Modulus (GPa) = 12.90647 32.89203 22.89925
#
# Velocity S-wave (km/s) = 2.42407 3.86978 3.22888
# Velocity P-wave (km/s) = 4.67786 6.56378 5.69937
#
# Compressibility (1/GPa) = 0.03241023
#
# Stress axis : x y z
#
# Youngs Moduli (GPa) = 144.77638 46.62121 108.97942
#
# Poissons Ratio (x) = 0.00745 0.34441
# Poissons Ratio (y) = 0.02313 -0.08269
# Poissons Ratio (z) = 0.45753 -0.03538
#
# Static dielectric constant tensor:
#      x y z
#    x 1.791550 0.000000 0.000000 
#    y 0.000000 1.822510 0.000000 
#    z 0.000000 0.000000 1.778630 
# 
# From -- ./inp_files/19620.got.cif
#   From: 2010.05.17/outbox.cif.g08.bks.cpg/sg51_10_cif.got.tgz:19620.got - 2010.06.03 11:52:47.
