data_PCOD9403817
_publ_section_title
;
Structure prediction by ZEFSAII (Michael W. Deem and Ramdas Pophale) SiO2 
 PCOD9403817
Probable space group: P M M A
;
_chemical_formula_sum "Si O2"
_cell_formula_units_Z 40
_cell_length_a 21.181248
_cell_length_b 8.787821
_cell_length_c 11.930584
_cell_angle_alpha 90.000000
_cell_angle_beta 90.000000
_cell_angle_gamma 90.000000
_cell_volume 2220.723305
_symmetry_space_group_name_H-M "P M M A"
_symmetry_group_IT_number 51
_symmetry_cell_setting 'orthorhombic'
loop_
_space_group_symop_operation_xyz
x,y,z
1/2-x,-y,z
1/2+x,-y,-z
-x,y,-z
-x,-y,-z
1/2+x,y,-z
1/2-x,y,z
x,-y,z
loop_
_atom_site_type_symbol
_atom_site_label
_atom_site_fract_x
_atom_site_fract_y
_atom_site_fract_z
Si Si1 0.823220 0.316948 0.450412
Si Si2 0.554481 0.316845 0.590789
Si Si3 0.825377 0.827519 0.211921
Si Si4 0.030450 0.180902 0.166020
Si Si5 0.089778 0.320249 0.961413
O O1 0.750000 0.273846 0.476184
O O2 0.824422 0.500000 0.437412
O O3 0.876532 0.276894 0.541028
O O4 0.842601 0.242618 0.332294
O O5 0.500000 0.279318 0.500000
O O6 0.552341 0.500000 0.607472
O O7 0.541975 0.235650 0.708202
O O8 0.750000 0.832209 0.209737
O O9 0.850036 0.726191 0.110668
O O10 0.850170 0.000000 0.201678
O O11 0.968387 0.261107 0.114861
O O12 0.023514 0.000000 0.160159
O O13 0.084765 0.236103 0.080366
O O14 0.084826 0.500000 0.977741
#
# Coordination Sequence:
#
# PCOD9403817 Si02
#       5
#     8   8   8   8   8
#     4   9  18  33  53  77 107 143 180 218 263 316
#     4  10  20  34  53  78 107 140 180 223 264 313
#     4  10  20  34  54  81 111 140 174 218 265 312
#     4  11  22  36  55  79 107 137 173 219 271 320
#     4  11  21  36  57  78 105 139 176 217 263 318
#
# _framework density 18.012149999999998
#
# number of rings (size 3 to 8) (size 9 to 14) (size 15 to 20)
#    0.000    1.800    0.000    6.600    0.000    4.000 
#    0.000    1.000    0.000    3.600    0.000    0.000 
#    0.000    0.000    0.000    0.000    0.000    0.000 
#
# Total GULP energy -223325.581332 kJ/mol
# GULP energy per Si atom -5583.139533 kJ/mol
# Density = 1.797115 g / cm^3
# Si number density = 18.012150 Si / 1000 Ang^3
#
#
#
# Elastic Constant Matrix: (Units=GPa)
#
#
# Indices 1 2 3 4 5 6 
#
# 1 43.6368 21.7867 36.4977 0.0000 0.0000 0.0000
# 2 21.7867 72.1719 44.0892 0.0000 0.0000 0.0000
# 3 36.4977 44.0892 127.0059 0.0000 0.0000 0.0000
# 4 0.0000 0.0000 0.0000 156.6848 0.0000 0.0000
# 5 0.0000 0.0000 0.0000 0.0000 29.0365 0.0000
# 6 0.0000 0.0000 0.0000 0.0000 0.0000 19.3697
#
#
#
# Elastic Compliance Matrix: (Units=1/GPa)
#
#
# Indices 1 2 3 4 5 6 
#
# 1 0.031559 -0.005059 -0.007313 0.000000 0.000000 0.000000
# 2 -0.005059 0.018396 -0.004932 0.000000 0.000000 0.000000
# 3 -0.007313 -0.004932 0.011687 0.000000 0.000000 0.000000
# 4 0.000000 0.000000 0.000000 0.006382 0.000000 0.000000
# 5 0.000000 0.000000 0.000000 0.000000 0.034439 0.000000
# 6 0.000000 0.000000 0.000000 0.000000 0.000000 0.051627
#
#
# Mechanical properties :
#
#
# Convention : Reuss Voigt Hill
#
# Bulk Modulus (GPa) = 36.99102 49.72908 43.36005
# Shear Modulus (GPa) = 25.28947 50.38092 37.83520
#
# Velocity S-wave (km/s) = 3.75109 5.29445 4.58813
# Velocity P-wave (km/s) = 6.27234 8.06496 7.22446
#
# Compressibility (1/GPa) = 0.02703359
#
# Stress axis : x y z
#
# Youngs Moduli (GPa) = 31.68687 54.35928 85.56318
#
# Poissons Ratio (x) = 0.27503 0.62570
# Poissons Ratio (y) = 0.16032 0.42201
# Poissons Ratio (z) = 0.23172 0.26811
#
# Static dielectric constant tensor:
#      x y z
#    x 1.656020 0.000000 0.000000 
#    y 0.000000 1.615180 0.000000 
#    z 0.000000 0.000000 1.592320 
# 
# From -- ./inp_files/11446.got.cif
#   From: 2010.05.17/outbox.cif.g08.bks.cpg/sg51_6_cif.got.tgz:11446.got - 2010.06.03 11:52:47.
