data_PCOD9403830
_publ_section_title
;
Structure prediction by ZEFSAII (Michael W. Deem and Ramdas Pophale) SiO2 
 PCOD9403830
Probable space group: P M M A
;
_chemical_formula_sum "Si O2"
_cell_formula_units_Z 38
_cell_length_a 7.660209
_cell_length_b 18.536153
_cell_length_c 13.751580
_cell_angle_alpha 90.000000
_cell_angle_beta 90.000000
_cell_angle_gamma 90.000000
_cell_volume 1952.597928
_symmetry_space_group_name_H-M "P M M A"
_symmetry_group_IT_number 51
_symmetry_cell_setting 'orthorhombic'
loop_
_space_group_symop_operation_xyz
x,y,z
1/2-x,-y,z
1/2+x,-y,-z
-x,y,-z
-x,-y,-z
1/2+x,y,-z
1/2-x,y,z
x,-y,z
loop_
_atom_site_type_symbol
_atom_site_label
_atom_site_fract_x
_atom_site_fract_y
_atom_site_fract_z
Si Si1 0.951821 0.876121 0.307214
Si Si2 0.540152 0.500000 0.113585
Si Si3 0.453168 0.196079 0.110378
Si Si4 0.961545 0.348437 0.196478
Si Si5 0.457996 0.723426 0.608880
Si Si6 0.250000 0.000000 0.322836
O O1 0.750000 0.895475 0.333016
O O2 0.010771 0.805718 0.368748
O O3 0.951134 0.848327 0.195003
O O4 0.094435 0.937545 0.320578
O O5 0.750000 0.500000 0.125453
O O6 0.473629 0.574322 0.160428
O O7 0.500000 0.500000 0.000000
O O8 0.250000 0.182177 0.125351
O O9 0.488525 0.280922 0.128603
O O10 0.500000 0.177006 0.000000
O O11 0.750000 0.350837 0.196708
O O12 0.025070 0.327159 0.304416
O O13 0.500000 0.701132 0.500000
O O14 0.250000 0.723846 0.618852
#
# Coordination Sequence:
#
# PCOD9403830 Si02
#       6
#     8   4   8   8   8   2
#     4  10  22  40  60  85 117 151 190 244 290 354
#     4  10  20  34  53  78 122 158 195 240 299 347
#     4  11  20  34  57  83 110 149 199 243 286 343
#     4   9  19  35  53  82 112 155 194 243 295 347
#     4   9  19  35  60  83 110 147 195 243 292 340
#     4  12  22  40  64  86 116 156 188 226 320 344
#
# _framework density 19.461251000000001
#
# number of rings (size 3 to 8) (size 9 to 14) (size 15 to 20)
#    0.000    2.105    1.053    4.105    1.474    3.368 
#    0.000    1.579    0.000    0.000    0.000    0.000 
#    0.000    0.000    0.000    0.000    0.000    0.000 
#
# Total GULP energy -211535.687592 kJ/mol
# GULP energy per Si atom -5566.728621 kJ/mol
# Density = 1.941696 g / cm^3
# Si number density = 19.461251 Si / 1000 Ang^3
#
#
#
# Elastic Constant Matrix: (Units=GPa)
#
#
# Indices 1 2 3 4 5 6 
#
# 1 89.7510 34.1980 -2.2491 0.0000 0.0000 0.0000
# 2 34.1980 103.2956 19.5548 0.0000 0.0000 0.0000
# 3 -2.2491 19.5548 82.7797 0.0000 0.0000 0.0000
# 4 0.0000 0.0000 0.0000 -48.3057 0.0000 0.0000
# 5 0.0000 0.0000 0.0000 0.0000 23.6379 0.0000
# 6 0.0000 0.0000 0.0000 0.0000 0.0000 24.0236
#
#
#
# Elastic Compliance Matrix: (Units=1/GPa)
#
#
# Indices 1 2 3 4 5 6 
#
# 1 0.012909 -0.004543 0.001424 0.000000 0.000000 0.000000
# 2 -0.004543 0.011733 -0.002895 0.000000 0.000000 0.000000
# 3 0.001424 -0.002895 0.012803 0.000000 0.000000 0.000000
# 4 0.000000 0.000000 0.000000 -0.020702 0.000000 0.000000
# 5 0.000000 0.000000 0.000000 0.000000 0.042305 0.000000
# 6 0.000000 0.000000 0.000000 0.000000 0.000000 0.041626
#
#
# Mechanical properties :
#
#
# Convention : Reuss Voigt Hill
#
# Bulk Modulus (GPa) = 39.34542 42.09264 40.71903
# Shear Modulus (GPa) = 41.26276 14.82602 28.04439
#
# Velocity S-wave (km/s) = 4.60961 2.76311 3.80022
# Velocity P-wave (km/s) = 6.97084 5.64408 6.34225
#
# Compressibility (1/GPa) = 0.02541592
#
# Stress axis : x y z
#
# Youngs Moduli (GPa) = 77.46686 85.22855 78.10753
#
# Poissons Ratio (x) = 0.38722 -0.11122
# Poissons Ratio (y) = 0.35195 0.22613
# Poissons Ratio (z) = -0.11031 0.24675
#
# Static dielectric constant tensor:
#      x y z
#    x 1.708130 0.000000 0.000000 
#    y 0.000000 1.663360 0.000000 
#    z 0.000000 0.000000 1.706610 
# 
# From -- ./inp_files/14067.got.cif
#   From: 2010.05.17/outbox.cif.g08.bks.cpg/sg51_8_cif.got.tgz:14067.got - 2010.06.03 11:52:47.
