data_PCOD9403493
_publ_section_title
;
Structure prediction by ZEFSAII (Michael W. Deem and Ramdas Pophale) SiO2 
 PCOD9403493
Probable space group: P M M A
;
_chemical_formula_sum "Si O2"
_cell_formula_units_Z 64
_cell_length_a 14.216135
_cell_length_b 8.978637
_cell_length_c 26.640850
_cell_angle_alpha 90.000000
_cell_angle_beta 90.000000
_cell_angle_gamma 90.000000
_cell_volume 3400.478474
_symmetry_space_group_name_H-M "P M M A"
_symmetry_group_IT_number 51
_symmetry_cell_setting 'orthorhombic'
loop_
_space_group_symop_operation_xyz
x,y,z
1/2-x,-y,z
1/2+x,-y,-z
-x,y,-z
-x,-y,-z
1/2+x,y,-z
1/2-x,y,z
x,-y,z
loop_
_atom_site_type_symbol
_atom_site_label
_atom_site_fract_x
_atom_site_fract_y
_atom_site_fract_z
Si Si1 0.363304 0.672055 0.531797
Si Si2 0.635523 0.328368 0.973198
Si Si3 0.141561 0.177740 0.426118
Si Si4 0.957291 0.821941 0.180521
Si Si5 0.042931 0.822987 0.626989
Si Si6 0.139796 0.321543 0.723057
Si Si7 0.856947 0.178862 0.869296
Si Si8 0.136752 0.323661 0.915304
O O1 0.250000 0.677170 0.536189
O O2 0.393154 0.500000 0.536359
O O3 0.386168 0.736620 0.476933
O O4 0.406458 0.769308 0.576145
O O5 0.750000 0.326741 0.975053
O O6 0.606224 0.500000 0.966941
O O7 0.610511 0.237716 0.923722
O O8 0.604618 0.277248 0.028583
O O9 0.250000 0.214079 0.414070
O O10 0.067204 0.210844 0.382533
O O11 0.136279 0.000000 0.436198
O O12 0.909102 0.744260 0.227611
O O13 0.906401 0.769979 0.129561
O O14 0.066506 0.778260 0.172179
O O15 0.951183 0.000000 0.185971
O O16 0.087940 0.740206 0.673969
O O17 0.054002 0.000000 0.633255
O O18 0.250000 0.278652 0.721890
O O19 0.134868 0.500000 0.723941
O O20 0.750000 0.231684 0.860086
O O21 0.855203 0.000000 0.871469
O O22 0.250000 0.310447 0.913315
O O23 0.114924 0.500000 0.909386
#
# Coordination Sequence:
#
# PCOD9403493 Si02
#       8
#     8   8   8   8   8   8   8   8
#     4  10  20  33  52  82 119 156 191 228 273 322
#     4   8  15  29  50  76 105 139 178 216 257 311
#     4   9  19  36  56  81 116 154 189 225 267 317
#     4  11  23  37  56  81 105 135 178 224 269 317
#     4  11  22  36  58  85 111 145 188 230 273 320
#     4  11  25  44  63  82 107 139 174 217 271 326
#     4   9  19  36  55  76 106 141 175 215 264 316
#     4   9  18  33  52  76 109 145 177 213 263 321
#
# _framework density 18.820881
#
# number of rings (size 3 to 8) (size 9 to 14) (size 15 to 20)
#    0.000    2.250    0.000    3.375    0.000    9.500 
#    0.000    4.375    0.000    3.750    0.000    0.000 
#    0.000    0.000    0.000    0.000    0.000    0.000 
#
# Total GULP energy -357398.411036 kJ/mol
# GULP energy per Si atom -5584.350172 kJ/mol
# Density = 1.877804 g / cm^3
# Si number density = 18.820881 Si / 1000 Ang^3
#
#
#
# Elastic Constant Matrix: (Units=GPa)
#
#
# Indices 1 2 3 4 5 6 
#
# 1 105.4414 47.1359 83.8209 0.0000 0.0000 0.0000
# 2 47.1359 43.7588 46.1486 0.0000 0.0000 0.0000
# 3 83.8209 46.1486 123.4516 0.0000 0.0000 0.0000
# 4 0.0000 0.0000 0.0000 34.4859 0.0000 0.0000
# 5 0.0000 0.0000 0.0000 0.0000 34.4133 0.0000
# 6 0.0000 0.0000 0.0000 0.0000 0.0000 18.4534
#
#
#
# Elastic Compliance Matrix: (Units=1/GPa)
#
#
# Indices 1 2 3 4 5 6 
#
# 1 0.025570 -0.015243 -0.011663 0.000000 0.000000 0.000000
# 2 -0.015243 0.046812 -0.007150 0.000000 0.000000 0.000000
# 3 -0.011663 -0.007150 0.018692 0.000000 0.000000 0.000000
# 4 0.000000 0.000000 0.000000 0.028997 0.000000 0.000000
# 5 0.000000 0.000000 0.000000 0.000000 0.029059 0.000000
# 6 0.000000 0.000000 0.000000 0.000000 0.000000 0.054191
#
#
# Mechanical properties :
#
#
# Convention : Reuss Voigt Hill
#
# Bulk Modulus (GPa) = 43.54967 69.65138 56.60053
# Shear Modulus (GPa) = 17.91565 23.84028 20.87797
#
# Velocity S-wave (km/s) = 3.08864 3.56292 3.33423
# Velocity P-wave (km/s) = 5.99240 7.34940 6.70532
#
# Compressibility (1/GPa) = 0.02296229
#
# Stress axis : x y z
#
# Youngs Moduli (GPa) = 39.10874 21.36208 53.49878
#
# Poissons Ratio (x) = 0.32562 0.62397
# Poissons Ratio (y) = 0.59613 0.38249
# Poissons Ratio (z) = 0.45613 0.15273
#
# Static dielectric constant tensor:
#      x y z
#    x 1.708170 0.000000 0.000000 
#    y 0.000000 1.628050 0.000000 
#    z 0.000000 0.000000 1.609690 
# 
# From -- ./inp_files/35874.got.cif
#   From: 2010.05.17/outbox.cif.g08.bks.cpg/sg51_18_cif.got.tgz:35874.got - 2010.06.03 11:52:47.
