data_PCOD9403723
_publ_section_title
;
Structure prediction by ZEFSAII (Michael W. Deem and Ramdas Pophale) SiO2 
 PCOD9403723
Probable space group: P M M A
;
_chemical_formula_sum "Si O2"
_cell_formula_units_Z 36
_cell_length_a 8.668979
_cell_length_b 18.796121
_cell_length_c 14.534736
_cell_angle_alpha 90.000000
_cell_angle_beta 90.000000
_cell_angle_gamma 90.000000
_cell_volume 2368.336079
_symmetry_space_group_name_H-M "P M M A"
_symmetry_group_IT_number 51
_symmetry_cell_setting 'orthorhombic'
loop_
_space_group_symop_operation_xyz
x,y,z
1/2-x,-y,z
1/2+x,-y,-z
-x,y,-z
-x,-y,-z
1/2+x,y,-z
1/2-x,y,z
x,-y,z
loop_
_atom_site_type_symbol
_atom_site_label
_atom_site_fract_x
_atom_site_fract_y
_atom_site_fract_z
Si Si1 0.935396 0.641062 0.214439
Si Si2 0.065956 0.774400 0.104035
Si Si3 0.435743 0.500000 0.897454
Si Si4 0.064957 0.922214 0.895943
Si Si5 0.065202 0.583492 0.399978
O O1 0.750000 0.645288 0.213108
O O2 0.983945 0.570860 0.156917
O O3 0.005426 0.709925 0.165630
O O4 0.994045 0.629094 0.317792
O O5 0.250000 0.774234 0.098838
O O6 0.007579 0.850304 0.143375
O O7 0.000000 0.766739 0.000000
O O8 0.250000 0.500000 0.901232
O O9 0.500000 0.500000 0.000000
O O10 0.250000 0.915273 0.898973
O O11 0.027638 0.000000 0.854182
O O12 0.000000 0.924365 0.000000
O O13 0.250000 0.588946 0.399690
O O14 0.023634 0.500000 0.384517
O O15 0.000000 0.603226 0.500000
#
# Coordination Sequence:
#
# PCOD9403723 Si02
#       5
#     8   8   4   8   8
#     4  11  21  35  50  68  93 124 161 200 241 284
#     4  11  21  32  46  67  95 129 164 198 239 282
#     4  10  22  34  47  64  87 122 161 198 234 274
#     4   9  16  27  44  65  89 120 157 195 235 278
#     4  10  20  34  53  74  94 119 152 195 243 291
#
# _framework density 15.200544000000001
#
# number of rings (size 3 to 8) (size 9 to 14) (size 15 to 20)
#    0.000    1.778    1.111    6.000    0.000    5.778 
#    0.000    0.000    0.000    0.000    0.000    0.000 
#    0.000    0.889    0.000    3.333    0.000    5.556 
#
# Total GULP energy -200864.348858 kJ/mol
# GULP energy per Si atom -5579.565246 kJ/mol
# Density = 1.516595 g / cm^3
# Si number density = 15.200544 Si / 1000 Ang^3
#
#
#
# Elastic Constant Matrix: (Units=GPa)
#
#
# Indices 1 2 3 4 5 6 
#
# 1 85.4579 58.1840 38.0593 0.0000 0.0000 0.0000
# 2 58.1840 154.8660 64.0535 0.0000 0.0000 0.0000
# 3 38.0593 64.0535 92.3805 0.0000 0.0000 0.0000
# 4 0.0000 0.0000 0.0000 3.3493 0.0000 0.0000
# 5 0.0000 0.0000 0.0000 0.0000 24.9851 0.0000
# 6 0.0000 0.0000 0.0000 0.0000 0.0000 22.0329
#
#
#
# Elastic Compliance Matrix: (Units=1/GPa)
#
#
# Indices 1 2 3 4 5 6 
#
# 1 0.016495 -0.004748 -0.003503 0.000000 0.000000 0.000000
# 2 -0.004748 0.010420 -0.005269 0.000000 0.000000 0.000000
# 3 -0.003503 -0.005269 0.015921 0.000000 0.000000 0.000000
# 4 0.000000 0.000000 0.000000 0.298570 0.000000 0.000000
# 5 0.000000 0.000000 0.000000 0.000000 0.040024 0.000000
# 6 0.000000 0.000000 0.000000 0.000000 0.000000 0.045387
#
#
# Mechanical properties :
#
#
# Convention : Reuss Voigt Hill
#
# Bulk Modulus (GPa) = 63.30885 72.58866 67.94876
# Shear Modulus (GPa) = 10.89033 21.56729 16.22881
#
# Velocity S-wave (km/s) = 2.67955 3.77085 3.27103
# Velocity P-wave (km/s) = 7.16330 8.17415 7.68536
#
# Compressibility (1/GPa) = 0.01579558
#
# Stress axis : x y z
#
# Youngs Moduli (GPa) = 60.62561 95.96583 62.80827
#
# Poissons Ratio (x) = 0.45566 0.22004
# Poissons Ratio (y) = 0.28786 0.33094
# Poissons Ratio (z) = 0.21239 0.50564
#
# Static dielectric constant tensor:
#      x y z
#    x 1.504980 0.000000 0.000000 
#    y 0.000000 1.533640 0.000000 
#    z 0.000000 0.000000 1.471770 
# 
# From -- ./inp_files/14016.got.cif
#   From: 2010.05.17/outbox.cif.g08.bks.cpg/sg51_8_cif.got.tgz:14016.got - 2010.06.03 11:52:47.
