data_PCOD9403440
_publ_section_title
;
Structure prediction by ZEFSAII (Michael W. Deem and Ramdas Pophale) SiO2 
 PCOD9403440
Probable space group: P M M A
;
_chemical_formula_sum "Si O2"
_cell_formula_units_Z 52
_cell_length_a 7.527982
_cell_length_b 13.355742
_cell_length_c 22.626982
_cell_angle_alpha 90.000000
_cell_angle_beta 90.000000
_cell_angle_gamma 90.000000
_cell_volume 2274.957168
_symmetry_space_group_name_H-M "P M M A"
_symmetry_group_IT_number 51
_symmetry_cell_setting 'orthorhombic'
loop_
_space_group_symop_operation_xyz
x,y,z
1/2-x,-y,z
1/2+x,-y,-z
-x,y,-z
-x,-y,-z
1/2+x,y,-z
1/2-x,y,z
x,-y,z
loop_
_atom_site_type_symbol
_atom_site_label
_atom_site_fract_x
_atom_site_fract_y
_atom_site_fract_z
Si Si1 0.538382 0.500000 0.431620
Si Si2 0.965721 0.107768 0.809269
Si Si3 0.047775 0.324986 0.770422
Si Si4 0.543840 0.391242 0.899546
Si Si5 0.031583 0.691977 0.639525
Si Si6 0.462050 0.177687 0.064414
Si Si7 0.463018 0.886669 0.569117
O O1 0.750000 0.500000 0.422152
O O2 0.500000 0.500000 0.500000
O O3 0.473050 0.397629 0.402706
O O4 0.750000 0.114454 0.806032
O O5 0.019604 0.116643 0.878228
O O6 0.043258 0.205068 0.778923
O O7 0.019724 0.000000 0.785150
O O8 0.250000 0.362000 0.771077
O O9 0.970989 0.337792 0.705330
O O10 0.960361 0.371527 0.828749
O O11 0.750000 0.395064 0.917379
O O12 0.463885 0.500000 0.912823
O O13 0.464497 0.291262 0.928704
O O14 0.250000 0.695672 0.641875
O O15 0.972763 0.798836 0.612783
O O16 0.250000 0.184335 0.069767
O O17 0.500000 0.136110 0.000000
O O18 0.500000 0.862663 0.500000
O O19 0.250000 0.889745 0.575198
O O20 0.530697 0.000000 0.580604
#
# Coordination Sequence:
#
# PCOD9403440 Si02
#       7
#     4   8   8   8   8   8   8
#     4  10  20  36  54  74 104 138 173 210 255 310
#     4   9  19  37  56  73 102 143 175 206 258 313
#     4  10  20  33  52  79 104 130 170 217 259 303
#     4   9  19  36  54  71  99 139 173 208 258 312
#     4   9  19  33  51  74 102 136 166 204 259 311
#     4   9  18  32  50  74 103 133 169 211 256 308
#     4   9  17  31  50  71  96 127 163 202 247 298
#
# _framework density 22.857575000000001
#
# number of rings (size 3 to 8) (size 9 to 14) (size 15 to 20)
#    0.000    2.769    0.000    1.846    1.077    4.308 
#    0.000    4.615    0.000    1.846    0.000    0.000 
#    0.000    0.000    0.000    0.000    0.000    0.000 
#
# Total GULP energy -290244.108164 kJ/mol
# GULP energy per Si atom -5581.617465 kJ/mol
# Density = 2.280555 g / cm^3
# Si number density = 22.857575 Si / 1000 Ang^3
#
#
#
# Elastic Constant Matrix: (Units=GPa)
#
#
# Indices 1 2 3 4 5 6 
#
# 1 57.4454 0.4042 -12.7565 0.0000 0.0000 0.0000
# 2 0.4042 73.7402 -8.2240 0.0000 0.0000 0.0000
# 3 -12.7565 -8.2240 77.9642 0.0000 0.0000 0.0000
# 4 0.0000 0.0000 0.0000 -8.2246 0.0000 0.0000
# 5 0.0000 0.0000 0.0000 0.0000 19.5094 0.0000
# 6 0.0000 0.0000 0.0000 0.0000 0.0000 6.9638
#
#
#
# Elastic Compliance Matrix: (Units=1/GPa)
#
#
# Indices 1 2 3 4 5 6 
#
# 1 0.018068 0.000233 0.002981 0.000000 0.000000 0.000000
# 2 0.000233 0.013726 0.001486 0.000000 0.000000 0.000000
# 3 0.002981 0.001486 0.013471 0.000000 0.000000 0.000000
# 4 0.000000 0.000000 0.000000 -0.121586 0.000000 0.000000
# 5 0.000000 0.000000 0.000000 0.000000 0.051257 0.000000
# 6 0.000000 0.000000 0.000000 0.000000 0.000000 0.143600
#
#
# Mechanical properties :
#
#
# Convention : Reuss Voigt Hill
#
# Bulk Modulus (GPa) = 18.29313 18.66637 18.47975
# Shear Modulus (GPa) = 39.25973 18.96477 29.11225
#
# Velocity S-wave (km/s) = 4.14887 2.88356 3.57268
# Velocity P-wave (km/s) = 5.56518 4.38984 5.01208
#
# Compressibility (1/GPa) = 0.05466532
#
# Stress axis : x y z
#
# Youngs Moduli (GPa) = 55.34601 72.85670 74.23413
#
# Poissons Ratio (x) = -0.01701 -0.22129
# Poissons Ratio (y) = -0.01292 -0.11031
# Poissons Ratio (z) = -0.16498 -0.10827
#
# Static dielectric constant tensor:
#      x y z
#    x 2.029530 0.000000 0.000000 
#    y 0.000000 1.847070 0.000000 
#    z 0.000000 0.000000 1.817330 
# 
# From -- ./inp_files/31754.got.cif
#   From: 2010.05.17/outbox.cif.g08.bks.cpg/sg51_16_cif.got.tgz:31754.got - 2010.06.03 11:52:47.
