data_PCOD9403627
_publ_section_title
;
Structure prediction by ZEFSAII (Michael W. Deem and Ramdas Pophale) SiO2 
 PCOD9403627
Probable space group: P M M A
;
_chemical_formula_sum "Si O2"
_cell_formula_units_Z 48
_cell_length_a 25.480575
_cell_length_b 9.103078
_cell_length_c 12.854684
_cell_angle_alpha 90.000000
_cell_angle_beta 90.000000
_cell_angle_gamma 90.000000
_cell_volume 2981.665315
_symmetry_space_group_name_H-M "P M M A"
_symmetry_group_IT_number 51
_symmetry_cell_setting 'orthorhombic'
loop_
_space_group_symop_operation_xyz
x,y,z
1/2-x,-y,z
1/2+x,-y,-z
-x,y,-z
-x,-y,-z
1/2+x,y,-z
1/2-x,y,z
x,-y,z
loop_
_atom_site_type_symbol
_atom_site_label
_atom_site_fract_x
_atom_site_fract_y
_atom_site_fract_z
Si Si1 0.187040 0.173155 0.766563
Si Si2 0.108989 0.823000 0.376637
Si Si3 0.188546 0.824124 0.192995
Si Si4 0.313755 0.331240 0.979557
Si Si5 0.992575 0.832466 0.374588
Si Si6 0.387042 0.674865 0.601832
O O1 0.250000 0.191290 0.756984
O O2 0.170483 0.239664 0.877993
O O3 0.157435 0.257892 0.675361
O O4 0.175447 0.000000 0.761786
O O5 0.152693 0.786297 0.291512
O O6 0.117734 0.741909 0.485821
O O7 0.050237 0.788111 0.335437
O O8 0.109820 0.000000 0.395121
O O9 0.250000 0.788959 0.212033
O O10 0.185110 0.000000 0.176822
O O11 0.170677 0.742967 0.088176
O O12 0.250000 0.330610 0.979915
O O13 0.331146 0.500000 0.972380
O O14 0.943575 0.728203 0.354341
O O15 0.000000 0.834699 0.500000
O O16 0.980619 0.000000 0.341918
O O17 0.384384 0.500000 0.598222
#
# Coordination Sequence:
#
# PCOD9403627 Si02
#       6
#     8   8   8   8   8   8
#     4  10  20  34  52  71  93 125 162 195 231 281
#     4   9  18  32  49  70  97 130 166 200 233 275
#     4   9  17  30  49  72  97 126 160 194 230 277
#     4   9  17  30  48  70  96 124 156 194 234 276
#     4   8  15  30  49  66  89 124 165 202 233 274
#     4  11  21  31  47  72 100 126 155 196 245 290
#
# _framework density 16.098386999999999
#
# number of rings (size 3 to 8) (size 9 to 14) (size 15 to 20)
#    0.000    2.667    0.000    3.500    0.000    7.333 
#    0.000    1.667    0.000    1.000    0.000    7.000 
#    0.000    0.000    0.000    0.000    0.000    0.000 
#
# Total GULP energy -267488.492725 kJ/mol
# GULP energy per Si atom -5572.676932 kJ/mol
# Density = 1.606175 g / cm^3
# Si number density = 16.098387 Si / 1000 Ang^3
#
#
#
# Elastic Constant Matrix: (Units=GPa)
#
#
# Indices 1 2 3 4 5 6 
#
# 1 61.1810 55.5516 51.7555 0.0000 0.0000 0.0000
# 2 55.5516 101.9475 70.0921 0.0000 0.0000 0.0000
# 3 51.7555 70.0921 100.2745 0.0000 0.0000 0.0000
# 4 0.0000 0.0000 0.0000 11.1378 0.0000 0.0000
# 5 0.0000 0.0000 0.0000 0.0000 -3.8428 0.0000
# 6 0.0000 0.0000 0.0000 0.0000 0.0000 15.0328
#
#
#
# Elastic Compliance Matrix: (Units=1/GPa)
#
#
# Indices 1 2 3 4 5 6 
#
# 1 0.036524 -0.013363 -0.009510 0.000000 0.000000 0.000000
# 2 -0.013363 0.023774 -0.009721 0.000000 0.000000 0.000000
# 3 -0.009510 -0.009721 0.021676 0.000000 0.000000 0.000000
# 4 0.000000 0.000000 0.000000 0.089784 0.000000 0.000000
# 5 0.000000 0.000000 0.000000 0.000000 -0.260229 0.000000
# 6 0.000000 0.000000 0.000000 0.000000 0.000000 0.066521
#
#
# Mechanical properties :
#
#
# Convention : Reuss Voigt Hill
#
# Bulk Modulus (GPa) = 59.57667 68.68904 64.13285
# Shear Modulus (GPa) = 102.38598 10.19914 56.29256
#
# Velocity S-wave (km/s) = 7.98362 2.51977 5.91978
# Velocity P-wave (km/s) = 11.04864 7.15727 9.30857
#
# Compressibility (1/GPa) = 0.01678509
#
# Stress axis : x y z
#
# Youngs Moduli (GPa) = 27.37931 42.06267 46.13364
#
# Poissons Ratio (x) = 0.56210 0.43875
# Poissons Ratio (y) = 0.36588 0.44845
# Poissons Ratio (z) = 0.26039 0.40888
#
# Static dielectric constant tensor:
#      x y z
#    x 1.551940 0.000000 0.000000 
#    y 0.000000 1.537760 0.000000 
#    z 0.000000 0.000000 1.514630 
# 
# From -- ./inp_files/18601.got.cif
#   From: 2010.05.17/outbox.cif.g08.bks.cpg/sg51_10_cif.got.tgz:18601.got - 2010.06.03 11:52:47.
