data_PCOD9403522
_publ_section_title
;
Structure prediction by ZEFSAII (Michael W. Deem and Ramdas Pophale) SiO2 
 PCOD9403522
Probable space group: P M M A
;
_chemical_formula_sum "Si O2"
_cell_formula_units_Z 48
_cell_length_a 8.750432
_cell_length_b 14.651481
_cell_length_c 21.199880
_cell_angle_alpha 90.000000
_cell_angle_beta 90.000000
_cell_angle_gamma 90.000000
_cell_volume 2717.968525
_symmetry_space_group_name_H-M "P M M A"
_symmetry_group_IT_number 51
_symmetry_cell_setting 'orthorhombic'
loop_
_space_group_symop_operation_xyz
x,y,z
1/2-x,-y,z
1/2+x,-y,-z
-x,y,-z
-x,-y,-z
1/2+x,y,-z
1/2-x,y,z
x,-y,z
loop_
_atom_site_type_symbol
_atom_site_label
_atom_site_fract_x
_atom_site_fract_y
_atom_site_fract_z
Si Si1 0.934089 0.105763 0.932638
Si Si2 0.932629 0.892372 0.311019
Si Si3 0.066562 0.215160 0.191349
Si Si4 0.565799 0.398381 0.620048
Si Si5 0.432546 0.396341 0.760778
Si Si6 0.066819 0.205860 0.433511
O O1 0.750000 0.107923 0.935793
O O2 0.982509 0.166949 0.873574
O O3 0.980687 0.000000 0.922253
O O4 0.000000 0.135299 0.000000
O O5 0.750000 0.879884 0.312200
O O6 0.000546 0.840037 0.250886
O O7 0.003253 0.850875 0.374633
O O8 0.966233 0.000000 0.306534
O O9 0.250000 0.213245 0.194885
O O10 0.008012 0.318265 0.197479
O O11 0.750000 0.396394 0.626416
O O12 0.522005 0.500000 0.596896
O O13 0.494228 0.385952 0.689340
O O14 0.521081 0.311962 0.578123
O O15 0.250000 0.385483 0.760225
O O16 0.469146 0.500000 0.780759
O O17 0.250000 0.200381 0.434330
O O18 0.000000 0.174192 0.500000
#
# Coordination Sequence:
#
# PCOD9403522 Si02
#       6
#     8   8   8   8   8   8
#     4   9  19  35  55  82 116 151 186 223 268 323
#     4  11  24  40  58  81 108 140 183 233 279 328
#     4  11  21  35  58  86 115 148 183 225 274 327
#     4   9  18  34  55  79 107 140 178 220 272 331
#     4  10  20  33  53  82 113 145 182 226 273 322
#     4  11  23  38  57  79 107 145 183 228 280 333
#
# _framework density 17.660249
#
# number of rings (size 3 to 8) (size 9 to 14) (size 15 to 20)
#    0.000    1.833    1.667    2.500    0.000    5.667 
#    0.000    1.667    0.000    0.500    0.000    0.000 
#    0.000    0.000    0.000    0.000    0.000    0.000 
#
# Total GULP energy -268060.755214 kJ/mol
# GULP energy per Si atom -5584.599067 kJ/mol
# Density = 1.762005 g / cm^3
# Si number density = 17.660249 Si / 1000 Ang^3
#
#
#
# Elastic Constant Matrix: (Units=GPa)
#
#
# Indices 1 2 3 4 5 6 
#
# 1 32.5855 42.2768 34.0082 0.0000 0.0000 0.0000
# 2 42.2768 107.8302 74.0664 0.0000 0.0000 0.0000
# 3 34.0082 74.0664 140.3379 0.0000 0.0000 0.0000
# 4 0.0000 0.0000 0.0000 21.7225 0.0000 0.0000
# 5 0.0000 0.0000 0.0000 0.0000 27.8481 0.0000
# 6 0.0000 0.0000 0.0000 0.0000 0.0000 27.8956
#
#
#
# Elastic Compliance Matrix: (Units=1/GPa)
#
#
# Indices 1 2 3 4 5 6 
#
# 1 0.063556 -0.022494 -0.003530 0.000000 0.000000 0.000000
# 2 -0.022494 0.022508 -0.006428 0.000000 0.000000 0.000000
# 3 -0.003530 -0.006428 0.011374 0.000000 0.000000 0.000000
# 4 0.000000 0.000000 0.000000 0.046035 0.000000 0.000000
# 5 0.000000 0.000000 0.000000 0.000000 0.035909 0.000000
# 6 0.000000 0.000000 0.000000 0.000000 0.000000 0.035848
#
#
# Mechanical properties :
#
#
# Convention : Reuss Voigt Hill
#
# Bulk Modulus (GPa) = 30.73692 64.60625 47.67159
# Shear Modulus (GPa) = 17.18332 24.18670 20.68501
#
# Velocity S-wave (km/s) = 3.12267 3.70477 3.42610
# Velocity P-wave (km/s) = 5.51759 7.41368 6.53477
#
# Compressibility (1/GPa) = 0.03253417
#
# Stress axis : x y z
#
# Youngs Moduli (GPa) = 15.73411 44.42788 87.92093
#
# Poissons Ratio (x) = 0.99934 0.31038
# Poissons Ratio (y) = 0.35392 0.56519
# Poissons Ratio (z) = 0.05554 0.28560
#
# Static dielectric constant tensor:
#      x y z
#    x 1.590240 0.000000 0.000000 
#    y 0.000000 1.619480 0.000000 
#    z 0.000000 0.000000 1.563660 
# 
# From -- ./inp_files/27558.got.cif
#   From: 2010.05.17/outbox.cif.g08.bks.cpg/sg51_14_cif.got.tgz:27558.got - 2010.06.03 11:52:47.
