data_PCOD9403464
_publ_section_title
;
Structure prediction by ZEFSAII (Michael W. Deem and Ramdas Pophale) SiO2 
 PCOD9403464
Probable space group: P M M A
;
_chemical_formula_sum "Si O2"
_cell_formula_units_Z 64
_cell_length_a 19.106313
_cell_length_b 7.701033
_cell_length_c 20.288373
_cell_angle_alpha 90.000000
_cell_angle_beta 90.000000
_cell_angle_gamma 90.000000
_cell_volume 2985.197665
_symmetry_space_group_name_H-M "P M M A"
_symmetry_group_IT_number 51
_symmetry_cell_setting 'orthorhombic'
loop_
_space_group_symop_operation_xyz
x,y,z
1/2-x,-y,z
1/2+x,-y,-z
-x,y,-z
-x,-y,-z
1/2+x,y,-z
1/2-x,y,z
x,-y,z
loop_
_atom_site_type_symbol
_atom_site_label
_atom_site_fract_x
_atom_site_fract_y
_atom_site_fract_z
Si Si1 0.829740 0.709212 0.895467
Si Si2 0.174639 0.793719 0.332484
Si Si3 0.445599 0.290171 0.596743
Si Si4 0.082965 0.795797 0.746398
Si Si5 0.327888 0.296297 0.862621
Si Si6 0.597325 0.709084 0.543646
Si Si7 0.078035 0.712126 0.980325
Si Si8 0.930514 0.207498 0.774344
O O1 0.750000 0.774185 0.887378
O O2 0.826443 0.500000 0.895962
O O3 0.882196 0.760390 0.837148
O O4 0.866339 0.762890 0.963485
O O5 0.250000 0.720608 0.313327
O O6 0.158966 0.766306 0.408946
O O7 0.112181 0.720783 0.288276
O O8 0.176361 0.000000 0.320359
O O9 0.446074 0.500000 0.598542
O O10 0.420072 0.229591 0.667777
O O11 0.401660 0.234098 0.532325
O O12 0.524706 0.232041 0.578438
O O13 0.146411 0.717634 0.787580
O O14 0.009258 0.722613 0.774716
O O15 0.086564 0.000000 0.759415
O O16 0.250000 0.221209 0.872206
O O17 0.322850 0.500000 0.878996
O O18 0.388715 0.226938 0.911172
O O19 0.595325 0.500000 0.543006
O O20 0.073822 0.500000 0.979243
O O21 0.000000 0.772959 0.000000
O O22 0.938038 0.000000 0.766281
#
# Coordination Sequence:
#
# PCOD9403464 Si02
#       8
#     8   8   8   8   8   8   8   8
#     4  10  20  33  52  80 110 140 180 228 271 317
#     4  10  20  34  51  73 108 151 188 223 269 328
#     4   9  18  34  56  81 108 138 175 224 279 331
#     4  11  22  36  57  84 110 142 185 232 274 318
#     4  10  21  38  60  84 113 150 185 222 279 341
#     4   9  18  33  54  80 107 136 177 228 277 327
#     4   9  17  32  56  84 111 141 179 226 277 328
#     4  10  21  36  52  75 109 148 185 221 269 326
#
# _framework density 21.439115999999999
#
# number of rings (size 3 to 8) (size 9 to 14) (size 15 to 20)
#    0.000    2.250    1.250    2.625    0.000    5.750 
#    0.000    2.500    0.000    4.500    0.000    0.000 
#    0.000    0.000    0.000    0.000    0.000    0.000 
#
# Total GULP energy -357207.136995 kJ/mol
# GULP energy per Si atom -5581.361516 kJ/mol
# Density = 2.139032 g / cm^3
# Si number density = 21.439116 Si / 1000 Ang^3
#
#
#
# Elastic Constant Matrix: (Units=GPa)
#
#
# Indices 1 2 3 4 5 6 
#
# 1 93.8703 7.5832 37.6628 0.0000 0.0000 0.0000
# 2 7.5832 33.6393 -11.6651 0.0000 0.0000 0.0000
# 3 37.6628 -11.6651 111.1211 0.0000 0.0000 0.0000
# 4 0.0000 0.0000 0.0000 4.6208 0.0000 0.0000
# 5 0.0000 0.0000 0.0000 0.0000 -1.4451 0.0000
# 6 0.0000 0.0000 0.0000 0.0000 0.0000 274.3439
#
#
#
# Elastic Compliance Matrix: (Units=1/GPa)
#
#
# Indices 1 2 3 4 5 6 
#
# 1 0.012987 -0.004622 -0.004887 0.000000 0.000000 0.000000
# 2 -0.004622 0.032495 0.004978 0.000000 0.000000 0.000000
# 3 -0.004887 0.004978 0.011178 0.000000 0.000000 0.000000
# 4 0.000000 0.000000 0.000000 0.216415 0.000000 0.000000
# 5 0.000000 0.000000 0.000000 0.000000 -0.691985 0.000000
# 6 0.000000 0.000000 0.000000 0.000000 0.000000 0.003645
#
#
# Mechanical properties :
#
#
# Convention : Reuss Voigt Hill
#
# Bulk Modulus (GPa) = 21.00940 33.97695 27.49317
# Shear Modulus (GPa) = -12.80948 69.17389 28.18220
#
# Velocity S-wave (km/s) = -2.44700 5.68642 3.62957
# Velocity P-wave (km/s) = 1.35540 7.68090 5.51513
#
# Compressibility (1/GPa) = 0.04759774
#
# Stress axis : x y z
#
# Youngs Moduli (GPa) = 76.99893 30.77362 89.46031
#
# Poissons Ratio (x) = 0.14225 0.43720
# Poissons Ratio (y) = 0.35592 -0.44533
# Poissons Ratio (z) = 0.37630 -0.15319
#
# Static dielectric constant tensor:
#      x y z
#    x 1.800620 0.000000 0.000000 
#    y 0.000000 1.793040 0.000000 
#    z 0.000000 0.000000 1.782830 
# 
# From -- ./inp_files/30536.got.cif
#   From: 2010.05.17/outbox.cif.g08.bks.cpg/sg51_16_cif.got.tgz:30536.got - 2010.06.03 11:52:47.
