data_PCOD9403113
_publ_section_title
;
Structure prediction by ZEFSAII (Michael W. Deem and Ramdas Pophale) SiO2 
 PCOD9403113
Probable space group: P M M A
;
_chemical_formula_sum "Si O2"
_cell_formula_units_Z 48
_cell_length_a 9.008476
_cell_length_b 13.976804
_cell_length_c 19.988253
_cell_angle_alpha 90.000000
_cell_angle_beta 90.000000
_cell_angle_gamma 90.000000
_cell_volume 2516.715007
_symmetry_space_group_name_H-M "P M M A"
_symmetry_group_IT_number 51
_symmetry_cell_setting 'orthorhombic'
loop_
_space_group_symop_operation_xyz
x,y,z
1/2-x,-y,z
1/2+x,-y,-z
-x,y,-z
-x,-y,-z
1/2+x,y,-z
1/2-x,y,z
x,-y,z
loop_
_atom_site_type_symbol
_atom_site_label
_atom_site_fract_x
_atom_site_fract_y
_atom_site_fract_z
Si Si1 0.072389 0.890406 0.573036
Si Si2 0.081277 0.116366 0.067871
Si Si3 0.416856 0.114373 0.798612
Si Si4 0.572007 0.611721 0.790442
Si Si5 0.074605 0.226321 0.311712
Si Si6 0.580616 0.383466 0.068960
O O1 0.250000 0.882994 0.568830
O O2 0.000000 0.880923 0.500000
O O3 0.009175 0.809973 0.622489
O O4 0.038266 0.000000 0.596957
O O5 0.250000 0.152361 0.072914
O O6 0.979250 0.144427 0.129767
O O7 0.089304 0.000000 0.068579
O O8 0.000000 0.143216 0.000000
O O9 0.250000 0.151291 0.785409
O O10 0.532813 0.147626 0.743612
O O11 0.408947 0.000000 0.798268
O O12 0.750000 0.621377 0.797631
O O13 0.537327 0.500000 0.779017
O O14 0.527406 0.676472 0.726913
O O15 0.499356 0.641116 0.861120
O O16 0.250000 0.230671 0.324667
O O17 0.750000 0.349235 0.069072
O O18 0.582522 0.500000 0.067977
O O19 0.500000 0.354909 0.000000
#
# Coordination Sequence:
#
# PCOD9403113 Si02
#       6
#     8   8   8   8   8   8
#     4  10  21  38  61  89 120 151 180 213 257 311
#     4   9  16  27  44  65  91 127 171 216 261 310
#     4  10  20  33  49  71 101 136 172 212 260 313
#     4   9  19  36  55  76 106 144 185 229 277 327
#     4  11  22  35  55  82 110 141 177 218 265 317
#     4   9  16  27  47  74 102 135 177 227 283 337
#
# _framework density 19.072482999999998
#
# number of rings (size 3 to 8) (size 9 to 14) (size 15 to 20)
#    0.000    2.333    0.000    3.000    0.000    9.333 
#    0.000    0.833    0.000    4.500    0.000    0.000 
#    0.000    0.000    0.000    0.000    0.000    0.000 
#
# Total GULP energy -268015.707295 kJ/mol
# GULP energy per Si atom -5583.660569 kJ/mol
# Density = 1.902907 g / cm^3
# Si number density = 19.072483 Si / 1000 Ang^3
#
#
#
# Elastic Constant Matrix: (Units=GPa)
#
#
# Indices 1 2 3 4 5 6 
#
# 1 65.7004 42.9709 37.4071 0.0000 0.0000 0.0000
# 2 42.9709 97.6616 53.4390 0.0000 0.0000 0.0000
# 3 37.4071 53.4390 118.3199 0.0000 0.0000 0.0000
# 4 0.0000 0.0000 0.0000 45.9964 0.0000 0.0000
# 5 0.0000 0.0000 0.0000 0.0000 33.0092 0.0000
# 6 0.0000 0.0000 0.0000 0.0000 0.0000 14.4063
#
#
#
# Elastic Compliance Matrix: (Units=1/GPa)
#
#
# Indices 1 2 3 4 5 6 
#
# 1 0.022408 -0.007947 -0.003495 0.000000 0.000000 0.000000
# 2 -0.007947 0.016419 -0.004903 0.000000 0.000000 0.000000
# 3 -0.003495 -0.004903 0.011771 0.000000 0.000000 0.000000
# 4 0.000000 0.000000 0.000000 0.021741 0.000000 0.000000
# 5 0.000000 0.000000 0.000000 0.000000 0.030295 0.000000
# 6 0.000000 0.000000 0.000000 0.000000 0.000000 0.069414
#
#
# Mechanical properties :
#
#
# Convention : Reuss Voigt Hill
#
# Bulk Modulus (GPa) = 55.84174 61.03510 58.43842
# Shear Modulus (GPa) = 23.72951 28.54004 26.13478
#
# Velocity S-wave (km/s) = 3.53111 3.87253 3.70575
# Velocity P-wave (km/s) = 6.77992 7.21571 7.00120
#
# Compressibility (1/GPa) = 0.01790775
#
# Stress axis : x y z
#
# Youngs Moduli (GPa) = 44.62618 60.90473 84.95338
#
# Poissons Ratio (x) = 0.48402 0.29692
# Poissons Ratio (y) = 0.35465 0.41654
# Poissons Ratio (z) = 0.15598 0.29862
#
# Static dielectric constant tensor:
#      x y z
#    x 1.654950 0.000000 0.000000 
#    y 0.000000 1.730840 0.000000 
#    z 0.000000 0.000000 1.695840 
# 
# From -- ./inp_files/27509.got.cif
#   From: 2010.05.17/outbox.cif.g08.bks.cpg/sg51_14_cif.got.tgz:27509.got - 2010.06.03 11:52:47.
