data_PCOD9403310
_publ_section_title
;
Structure prediction by ZEFSAII (Michael W. Deem and Ramdas Pophale) SiO2 
 PCOD9403310
Probable space group: P M M A
;
_chemical_formula_sum "Si O2"
_cell_formula_units_Z 64
_cell_length_a 14.456093
_cell_length_b 9.026843
_cell_length_c 26.506922
_cell_angle_alpha 90.000000
_cell_angle_beta 90.000000
_cell_angle_gamma 90.000000
_cell_volume 3458.964642
_symmetry_space_group_name_H-M "P M M A"
_symmetry_group_IT_number 51
_symmetry_cell_setting 'orthorhombic'
loop_
_space_group_symop_operation_xyz
x,y,z
1/2-x,-y,z
1/2+x,-y,-z
-x,y,-z
-x,-y,-z
1/2+x,y,-z
1/2-x,y,z
x,-y,z
loop_
_atom_site_type_symbol
_atom_site_label
_atom_site_fract_x
_atom_site_fract_y
_atom_site_fract_z
Si Si1 0.643394 0.822769 0.678563
Si Si2 0.955088 0.822070 0.276609
Si Si3 0.043834 0.319940 0.923815
Si Si4 0.103483 0.166729 0.520821
Si Si5 0.643431 0.337982 0.578228
Si Si6 0.355299 0.319502 0.027211
Si Si7 0.359042 0.679121 0.820146
Si Si8 0.638778 0.674283 0.373729
O O1 0.750000 0.777586 0.690030
O O2 0.564542 0.783707 0.718911
O O3 0.607912 0.758015 0.624942
O O4 0.644654 0.000000 0.673213
O O5 0.906896 0.752484 0.227987
O O6 0.906106 0.756767 0.326348
O O7 0.946464 0.000000 0.276227
O O8 0.043260 0.500000 0.923757
O O9 0.088517 0.273035 0.871222
O O10 0.937946 0.272616 0.934994
O O11 0.107849 0.276827 0.971481
O O12 0.146551 0.259765 0.475516
O O13 0.109221 0.251127 0.573558
O O14 0.000000 0.154892 0.500000
O O15 0.140852 0.000000 0.525933
O O16 0.750000 0.356313 0.592346
O O17 0.598596 0.500000 0.574630
O O18 0.250000 0.268728 0.036644
O O19 0.353329 0.500000 0.028328
O O20 0.250000 0.715744 0.822588
O O21 0.365749 0.500000 0.816104
O O22 0.750000 0.686237 0.370482
O O23 0.614963 0.500000 0.373050
#
# Coordination Sequence:
#
# PCOD9403310 Si02
#       8
#     8   8   8   8   8   8   8   8
#     4   9  19  37  58  77  99 129 165 206 255 312
#     4  11  23  38  57  79 101 130 172 218 261 307
#     4   8  14  24  40  66 100 137 175 213 256 308
#     4  11  23  36  51  74 103 134 168 205 248 302
#     4  10  20  33  51  76 101 124 155 196 243 298
#     4   8  12  20  38  66 101 138 174 214 259 304
#     4  10  20  34  52  74 103 139 176 215 261 310
#     4  11  24  40  57  78 105 137 172 212 261 312
#
# _framework density 18.502645000000001
#
# number of rings (size 3 to 8) (size 9 to 14) (size 15 to 20)
#    0.000    2.250    0.000    4.125    0.000   11.500 
#    0.000    0.625    0.000    0.750    0.000    1.750 
#    0.000    1.000    0.000    0.000    0.000    0.000 
#
# Total GULP energy -356773.561075 kJ/mol
# GULP energy per Si atom -5574.586892 kJ/mol
# Density = 1.846053 g / cm^3
# Si number density = 18.502645 Si / 1000 Ang^3
#
#
#
# Elastic Constant Matrix: (Units=GPa)
#
#
# Indices 1 2 3 4 5 6 
#
# 1 150.5071 44.6341 92.8051 0.0000 0.0000 0.0000
# 2 44.6341 43.5867 39.3063 0.0000 0.0000 0.0000
# 3 92.8051 39.3063 148.5263 0.0000 0.0000 0.0000
# 4 0.0000 0.0000 0.0000 -69.2717 0.0000 0.0000
# 5 0.0000 0.0000 0.0000 0.0000 29.4601 0.0000
# 6 0.0000 0.0000 0.0000 0.0000 0.0000 20.8230
#
#
#
# Elastic Compliance Matrix: (Units=1/GPa)
#
#
# Indices 1 2 3 4 5 6 
#
# 1 0.012442 -0.007526 -0.005782 0.000000 0.000000 0.000000
# 2 -0.007526 0.034687 -0.004477 0.000000 0.000000 0.000000
# 3 -0.005782 -0.004477 0.011531 0.000000 0.000000 0.000000
# 4 0.000000 0.000000 0.000000 -0.014436 0.000000 0.000000
# 5 0.000000 0.000000 0.000000 0.000000 0.033944 0.000000
# 6 0.000000 0.000000 0.000000 0.000000 0.000000 0.048024
#
#
# Mechanical properties :
#
#
# Convention : Reuss Voigt Hill
#
# Bulk Modulus (GPa) = 43.31173 77.34566 60.32869
# Shear Modulus (GPa) = 29.50579 7.26061 18.38320
#
# Velocity S-wave (km/s) = 3.99768 1.98308 3.15547
# Velocity P-wave (km/s) = 6.69087 6.86562 6.77881
#
# Compressibility (1/GPa) = 0.02308843
#
# Stress axis : x y z
#
# Youngs Moduli (GPa) = 80.37580 28.82918 86.72569
#
# Poissons Ratio (x) = 0.21697 0.50147
# Poissons Ratio (y) = 0.60492 0.38828
# Poissons Ratio (z) = 0.46475 0.12907
#
# Static dielectric constant tensor:
#      x y z
#    x 1.670760 0.000000 0.000000 
#    y 0.000000 1.659320 0.000000 
#    z 0.000000 0.000000 1.603620 
# 
# From -- ./inp_files/35613.got.cif
#   From: 2010.05.17/outbox.cif.g08.bks.cpg/sg51_18_cif.got.tgz:35613.got - 2010.06.03 11:52:47.
