data_PCOD9403178
_publ_section_title
;
Structure prediction by ZEFSAII (Michael W. Deem and Ramdas Pophale) SiO2 
 PCOD9403178
Probable space group: P M M A
;
_chemical_formula_sum "Si O2"
_cell_formula_units_Z 64
_cell_length_a 9.174746
_cell_length_b 18.624082
_cell_length_c 21.378365
_cell_angle_alpha 90.000000
_cell_angle_beta 90.000000
_cell_angle_gamma 90.000000
_cell_volume 3652.947348
_symmetry_space_group_name_H-M "P M M A"
_symmetry_group_IT_number 51
_symmetry_cell_setting 'orthorhombic'
loop_
_space_group_symop_operation_xyz
x,y,z
1/2-x,-y,z
1/2+x,-y,-z
-x,y,-z
-x,-y,-z
1/2+x,y,-z
1/2-x,y,z
x,-y,z
loop_
_atom_site_type_symbol
_atom_site_label
_atom_site_fract_x
_atom_site_fract_y
_atom_site_fract_z
Si Si1 0.417640 0.087562 0.062466
Si Si2 0.581644 0.412505 0.063070
Si Si3 0.426196 0.662972 0.692117
Si Si4 0.927109 0.829923 0.312590
Si Si5 0.077782 0.413701 0.191269
Si Si6 0.575587 0.914955 0.189597
Si Si7 0.075634 0.415552 0.563718
Si Si8 0.424834 0.915505 0.565004
O O1 0.250000 0.110153 0.061911
O O2 0.497610 0.109287 0.126139
O O3 0.420431 0.000000 0.061752
O O4 0.500000 0.111856 0.000000
O O5 0.750000 0.389462 0.063904
O O6 0.580961 0.500000 0.062116
O O7 0.498269 0.391093 0.126245
O O8 0.500000 0.388693 0.000000
O O9 0.250000 0.656999 0.698695
O O10 0.466519 0.746662 0.690184
O O11 0.502176 0.623980 0.750022
O O12 0.467115 0.626401 0.626244
O O13 0.750000 0.833806 0.313136
O O14 0.974730 0.871935 0.250535
O O15 0.975841 0.868909 0.376037
O O16 0.250000 0.398571 0.189228
O O17 0.059699 0.500000 0.197177
O O18 0.750000 0.906154 0.182496
O O19 0.548320 0.000000 0.198628
O O20 0.250000 0.409340 0.556677
O O21 0.040079 0.500000 0.571699
O O22 0.000000 0.389984 0.500000
O O23 0.500000 0.894834 0.500000
O O24 0.250000 0.907829 0.558896
O O25 0.454924 0.000000 0.576583
#
# Coordination Sequence:
#
# PCOD9403178 Si02
#       8
#     8   8   8   8   8   8   8   8
#     4   9  16  26  42  67  97 125 155 195 242 288
#     4   9  16  27  46  73 103 132 163 202 247 292
#     4  10  20  34  51  71  97 129 165 204 246 293
#     4   9  18  32  50  71  96 129 166 202 242 290
#     4  10  20  33  50  73 100 130 165 204 246 294
#     4   9  16  28  48  71  94 124 162 200 238 283
#     4   9  18  32  50  71  94 121 154 193 238 288
#     4   9  17  31  51  74 100 130 165 204 245 291
#
# _framework density 17.520098999999998
#
# number of rings (size 3 to 8) (size 9 to 14) (size 15 to 20)
#    0.000    2.750    0.000    1.875    0.000    6.750 
#    0.000    3.125    0.000    3.750    0.000    3.500 
#    0.000    0.000    0.000    0.000    0.000    0.000 
#
# Total GULP energy -356880.209215 kJ/mol
# GULP energy per Si atom -5576.253269 kJ/mol
# Density = 1.748022 g / cm^3
# Si number density = 17.520099 Si / 1000 Ang^3
#
#
#
# Elastic Constant Matrix: (Units=GPa)
#
#
# Indices 1 2 3 4 5 6 
#
# 1 66.5556 43.5513 85.4535 0.0000 0.0000 0.0000
# 2 43.5513 49.9895 80.7632 0.0000 0.0000 0.0000
# 3 85.4535 80.7632 228.8566 0.0000 0.0000 0.0000
# 4 0.0000 0.0000 0.0000 -4.9377 0.0000 0.0000
# 5 0.0000 0.0000 0.0000 0.0000 36.4929 0.0000
# 6 0.0000 0.0000 0.0000 0.0000 0.0000 12.1881
#
#
#
# Elastic Compliance Matrix: (Units=1/GPa)
#
#
# Indices 1 2 3 4 5 6 
#
# 1 0.038026 -0.023704 -0.005834 0.000000 0.000000 0.000000
# 2 -0.023704 0.061313 -0.012786 0.000000 0.000000 0.000000
# 3 -0.005834 -0.012786 0.011060 0.000000 0.000000 0.000000
# 4 0.000000 0.000000 0.000000 -0.202524 0.000000 0.000000
# 5 0.000000 0.000000 0.000000 0.000000 0.027403 0.000000
# 6 0.000000 0.000000 0.000000 0.000000 0.000000 0.082048
#
#
# Mechanical properties :
#
#
# Convention : Reuss Voigt Hill
#
# Bulk Modulus (GPa) = 38.83294 84.99307 61.91301
# Shear Modulus (GPa) = 45.22596 17.79091 31.50844
#
# Velocity S-wave (km/s) = 5.08624 3.19008 4.24537
# Velocity P-wave (km/s) = 7.53034 7.88580 7.71012
#
# Compressibility (1/GPa) = 0.02575133
#
# Stress axis : x y z
#
# Youngs Moduli (GPa) = 26.29806 16.30981 90.41534
#
# Poissons Ratio (x) = 0.38660 0.52744
# Poissons Ratio (y) = 0.62336 1.15609
# Poissons Ratio (z) = 0.15341 0.20854
#
# Static dielectric constant tensor:
#      x y z
#    x 1.586880 0.000000 0.000000 
#    y 0.000000 1.578900 0.000000 
#    z 0.000000 0.000000 1.574410 
# 
# From -- ./inp_files/32307.got.cif
#   From: 2010.05.17/outbox.cif.g08.bks.cpg/sg51_17_cif.got.tgz:32307.got - 2010.06.03 11:52:47.
