data_PCOD9403162
_publ_section_title
;
Structure prediction by ZEFSAII (Michael W. Deem and Ramdas Pophale) SiO2 
 PCOD9403162
Probable space group: P M M A
;
_chemical_formula_sum "Si O2"
_cell_formula_units_Z 40
_cell_length_a 9.419864
_cell_length_b 7.355351
_cell_length_c 26.762242
_cell_angle_alpha 90.000000
_cell_angle_beta 90.000000
_cell_angle_gamma 90.000000
_cell_volume 1854.259567
_symmetry_space_group_name_H-M "P M M A"
_symmetry_group_IT_number 51
_symmetry_cell_setting 'orthorhombic'
loop_
_space_group_symop_operation_xyz
x,y,z
1/2-x,-y,z
1/2+x,-y,-z
-x,y,-z
-x,-y,-z
1/2+x,y,-z
1/2-x,y,z
x,-y,z
loop_
_atom_site_type_symbol
_atom_site_label
_atom_site_fract_x
_atom_site_fract_y
_atom_site_fract_z
Si Si1 0.911373 0.783051 0.547317
Si Si2 0.586551 0.722270 0.744016
Si Si3 0.585358 0.721240 0.048093
Si Si4 0.914854 0.721386 0.158892
Si Si5 0.411428 0.282502 0.647569
O O1 0.750000 0.712470 0.549894
O O2 0.000000 0.711668 0.500000
O O3 0.998005 0.752654 0.598004
O O4 0.900769 0.000000 0.540856
O O5 0.750000 0.779234 0.740452
O O6 0.586131 0.500000 0.743833
O O7 0.512338 0.780711 0.795451
O O8 0.494871 0.783471 0.696479
O O9 0.750000 0.771681 0.043610
O O10 0.579091 0.500000 0.047798
O O11 0.536363 0.778391 0.103443
O O12 0.500000 0.785671 0.000000
O O13 0.750000 0.775459 0.165729
O O14 0.915391 0.500000 0.159183
O O15 0.250000 0.213173 0.643842
O O16 0.402131 0.500000 0.652721
#
# Coordination Sequence:
#
# PCOD9403162 Si02
#       5
#     8   8   8   8   8
#     4  10  21  37  56  76  98 125 156 189 226 270
#     4   9  16  25  38  57  80 106 138 178 222 266
#     4   8  13  19  26  37  55  82 119 164 210 254
#     4   8  13  21  31  43  63  93 128 167 213 263
#     4  10  20  33  50  72  97 125 156 191 231 273
#
# _framework density 21.571952
#
# number of rings (size 3 to 8) (size 9 to 14) (size 15 to 20)
#    0.000    3.000    0.000    3.000    0.000    6.000 
#    0.000    4.000    0.000    0.000    0.000    0.000 
#    0.000    0.000    0.000    0.000    0.000    1.000 
#
# Total GULP energy -223375.287031 kJ/mol
# GULP energy per Si atom -5584.382176 kJ/mol
# Density = 2.152285 g / cm^3
# Si number density = 21.571952 Si / 1000 Ang^3
#
#
#
# Elastic Constant Matrix: (Units=GPa)
#
#
# Indices 1 2 3 4 5 6 
#
# 1 201.6953 8.0229 154.9172 0.0000 0.0000 0.0000
# 2 8.0229 80.4222 2.5790 0.0000 0.0000 0.0000
# 3 154.9172 2.5790 259.4195 0.0000 0.0000 0.0000
# 4 0.0000 0.0000 0.0000 46.8975 0.0000 0.0000
# 5 0.0000 0.0000 0.0000 0.0000 46.9997 0.0000
# 6 0.0000 0.0000 0.0000 0.0000 0.0000 -3.8935
#
#
#
# Elastic Compliance Matrix: (Units=1/GPa)
#
#
# Indices 1 2 3 4 5 6 
#
# 1 0.009203 -0.000742 -0.005488 0.000000 0.000000 0.000000
# 2 -0.000742 0.012498 0.000319 0.000000 0.000000 0.000000
# 3 -0.005488 0.000319 0.007129 0.000000 0.000000 0.000000
# 4 0.000000 0.000000 0.000000 0.021323 0.000000 0.000000
# 5 0.000000 0.000000 0.000000 0.000000 0.021277 0.000000
# 6 0.000000 0.000000 0.000000 0.000000 0.000000 -0.256836
#
#
# Mechanical properties :
#
#
# Convention : Reuss Voigt Hill
#
# Bulk Modulus (GPa) = 58.79882 96.95282 77.87582
# Shear Modulus (GPa) = -29.77711 43.06858 6.64574
#
# Velocity S-wave (km/s) = -3.71935 4.47308 1.75711
# Velocity P-wave (km/s) = 2.97850 8.46873 6.34787
#
# Compressibility (1/GPa) = 0.01700715
#
# Stress axis : x y z
#
# Youngs Moduli (GPa) = 108.66088 80.01160 140.27114
#
# Poissons Ratio (x) = 0.05938 0.76985
# Poissons Ratio (y) = 0.08064 -0.04473
# Poissons Ratio (z) = 0.59637 -0.02552
#
# Static dielectric constant tensor:
#      x y z
#    x 1.734780 0.000000 0.000000 
#    y 0.000000 1.862910 0.000000 
#    z 0.000000 0.000000 1.743170 
# 
# From -- ./inp_files/34332.got.cif
#   From: 2010.05.17/outbox.cif.g08.bks.cpg/sg51_18_cif.got.tgz:34332.got - 2010.06.03 11:52:47.
