data_PCOD9403997
_publ_section_title
;
Structure prediction by ZEFSAII (Michael W. Deem and Ramdas Pophale) SiO2 
 PCOD9403997
Probable space group: P M M A
;
_chemical_formula_sum "Si O2"
_cell_formula_units_Z 24
_cell_length_a 7.828682
_cell_length_b 8.226867
_cell_length_c 19.578181
_cell_angle_alpha 90.000000
_cell_angle_beta 90.000000
_cell_angle_gamma 90.000000
_cell_volume 1260.943038
_symmetry_space_group_name_H-M "P M M A"
_symmetry_group_IT_number 51
_symmetry_cell_setting 'orthorhombic'
loop_
_space_group_symop_operation_xyz
x,y,z
1/2-x,-y,z
1/2+x,-y,-z
-x,y,-z
-x,-y,-z
1/2+x,y,-z
1/2-x,y,z
x,-y,z
loop_
_atom_site_type_symbol
_atom_site_label
_atom_site_fract_x
_atom_site_fract_y
_atom_site_fract_z
Si Si1 0.750000 0.692396 0.828511
Si Si2 0.443494 0.803599 0.924220
Si Si3 0.056499 0.801436 0.576293
Si Si4 0.750000 0.803715 0.672760
O O1 0.750000 0.500000 0.828187
O O2 0.582883 0.751362 0.869304
O O3 0.750000 0.754011 0.751124
O O4 0.250000 0.748109 0.909877
O O5 0.442171 0.000000 0.925457
O O6 0.500000 0.748495 0.000000
O O7 0.250000 0.748203 0.590145
O O8 0.000000 0.752781 0.500000
O O9 0.917764 0.747047 0.631598
O O10 0.056315 0.000000 0.576700
O O11 0.750000 0.000000 0.669819
#
# Coordination Sequence:
#
# PCOD9403997 Si02
#       4
#     4   8   8   4
#     4  12  26  40  56  84 127 164 195 236 287 350
#     4  10  20  39  67  92 114 146 194 247 295 346
#     4   9  15  26  49  82 111 136 176 237 298 340
#     4  10  20  34  54  80 113 148 189 238 289 342
#
# _framework density 19.033376000000001
#
# number of rings (size 3 to 8) (size 9 to 14) (size 15 to 20)
#    0.000    2.000    3.333    1.500    0.000    2.667 
#    0.000    3.333    0.000    1.000    0.000    0.000 
#    0.000    0.000    0.000    0.000    0.000    0.000 
#
# Total GULP energy -134008.424721 kJ/mol
# GULP energy per Si atom -5583.684363 kJ/mol
# Density = 1.899006 g / cm^3
# Si number density = 19.033376 Si / 1000 Ang^3
#
#
#
# Elastic Constant Matrix: (Units=GPa)
#
#
# Indices 1 2 3 4 5 6 
#
# 1 244.2325 23.4981 132.3701 0.0000 0.0000 0.0000
# 2 23.4981 11.9425 13.7506 0.0000 0.0000 0.0000
# 3 132.3701 13.7506 197.4879 0.0000 0.0000 0.0000
# 4 0.0000 0.0000 0.0000 -30.6648 0.0000 0.0000
# 5 0.0000 0.0000 0.0000 0.0000 35.8539 0.0000
# 6 0.0000 0.0000 0.0000 0.0000 0.0000 -3.4036
#
#
#
# Elastic Compliance Matrix: (Units=1/GPa)
#
#
# Indices 1 2 3 4 5 6 
#
# 1 0.007302 -0.009494 -0.004234 0.000000 0.000000 0.000000
# 2 -0.009494 0.103376 -0.000834 0.000000 0.000000 0.000000
# 3 -0.004234 -0.000834 0.007959 0.000000 0.000000 0.000000
# 4 0.000000 0.000000 0.000000 -0.032611 0.000000 0.000000
# 5 0.000000 0.000000 0.000000 0.000000 0.027891 0.000000
# 6 0.000000 0.000000 0.000000 0.000000 0.000000 -0.293806
#
#
# Mechanical properties :
#
#
# Convention : Reuss Voigt Hill
#
# Bulk Modulus (GPa) = 11.17145 88.10005 49.63575
# Shear Modulus (GPa) = -41.34734 19.29335 -11.02700
#
# Velocity S-wave (km/s) = -4.66591 3.18726 -2.40958
# Velocity P-wave (km/s) = 4.81098 7.74160 4.28876
#
# Compressibility (1/GPa) = 0.08951387
#
# Stress axis : x y z
#
# Youngs Moduli (GPa) = 136.94167 9.67347 125.63893
#
# Poissons Ratio (x) = 0.09184 0.53190
# Poissons Ratio (y) = 1.30008 0.10484
# Poissons Ratio (z) = 0.57975 0.00807
#
# Static dielectric constant tensor:
#      x y z
#    x 1.669590 0.000000 0.000000 
#    y 0.000000 1.653010 0.000000 
#    z 0.000000 0.000000 1.629350 
# 
# From -- ./inp_files/19889.got.cif
#   From: 2010.05.17/outbox.cif.g08.bks.cpg/sg51_10_cif.got.tgz:19889.got - 2010.06.03 11:52:47.
