data_PCOD9403034
_publ_section_title
;
Structure prediction by ZEFSAII (Michael W. Deem and Ramdas Pophale) SiO2 
 PCOD9403034
Probable space group: P M M A
;
_chemical_formula_sum "Si O2"
_cell_formula_units_Z 64
_cell_length_a 7.578675
_cell_length_b 16.591301
_cell_length_c 23.340453
_cell_angle_alpha 90.000000
_cell_angle_beta 90.000000
_cell_angle_gamma 90.000000
_cell_volume 2934.830383
_symmetry_space_group_name_H-M "P M M A"
_symmetry_group_IT_number 51
_symmetry_cell_setting 'orthorhombic'
loop_
_space_group_symop_operation_xyz
x,y,z
1/2-x,-y,z
1/2+x,-y,-z
-x,y,-z
-x,-y,-z
1/2+x,y,-z
1/2-x,y,z
x,-y,z
loop_
_atom_site_type_symbol
_atom_site_label
_atom_site_fract_x
_atom_site_fract_y
_atom_site_fract_z
Si Si1 0.962279 0.084703 0.903918
Si Si2 0.038414 0.769294 0.436670
Si Si3 0.045204 0.264490 0.936614
Si Si4 0.464062 0.133255 0.221763
Si Si5 0.534505 0.909784 0.649696
Si Si6 0.547814 0.406522 0.288017
Si Si7 0.048293 0.409297 0.417122
Si Si8 0.045266 0.689235 0.816016
O O1 0.750000 0.084953 0.906526
O O2 0.012655 0.087421 0.836627
O O3 0.018199 0.168191 0.932102
O O4 0.027901 0.000000 0.928845
O O5 0.250000 0.762218 0.428419
O O6 0.975240 0.833768 0.389051
O O7 0.966818 0.676683 0.435595
O O8 0.000000 0.801913 0.500000
O O9 0.250000 0.278276 0.929755
O O10 0.963072 0.304278 0.879524
O O11 0.000000 0.292913 0.000000
O O12 0.250000 0.136720 0.222611
O O13 0.519003 0.101066 0.283708
O O14 0.538327 0.221543 0.210028
O O15 0.750000 0.908560 0.648545
O O16 0.480551 0.000000 0.630302
O O17 0.750000 0.376326 0.297317
O O18 0.558448 0.500000 0.274258
O O19 0.451698 0.399984 0.348367
O O20 0.462645 0.363983 0.233718
O O21 0.250000 0.411972 0.438560
O O22 0.971564 0.500000 0.429106
O O23 0.250000 0.662209 0.820695
#
# Coordination Sequence:
#
# PCOD9403034 Si02
#       8
#     8   8   8   8   8   8   8   8
#     4   9  17  29  46  69  94 117 145 186 234 282
#     4  10  21  35  50  69  94 127 165 201 237 277
#     4  10  20  33  47  63  86 120 160 196 229 267
#     4   9  16  28  49  73  93 117 152 190 231 282
#     4   9  17  30  49  71  94 122 158 200 242 282
#     4   9  17  30  50  76 102 125 149 179 222 280
#     4   9  18  33  52  75 102 127 152 188 235 285
#     4   9  18  31  47  69  97 125 151 186 233 278
#
# _framework density 21.807053
#
# number of rings (size 3 to 8) (size 9 to 14) (size 15 to 20)
#    0.000    2.750    0.000    1.500    0.000    5.000 
#    0.000    0.625    0.000    2.250    0.000    0.000 
#    0.000    0.000    0.000    0.000    0.000    0.375 
#
# Total GULP energy -356633.287822 kJ/mol
# GULP energy per Si atom -5572.395122 kJ/mol
# Density = 2.175742 g / cm^3
# Si number density = 21.807053 Si / 1000 Ang^3
#
#
#
# Elastic Constant Matrix: (Units=GPa)
#
#
# Indices 1 2 3 4 5 6 
#
# 1 48.1218 3.1719 0.2788 0.0000 0.0000 0.0000
# 2 3.1719 56.3614 45.4771 0.0000 0.0000 0.0000
# 3 0.2788 45.4771 117.7236 0.0000 0.0000 0.0000
# 4 0.0000 0.0000 0.0000 14.6523 0.0000 0.0000
# 5 0.0000 0.0000 0.0000 0.0000 6.4650 0.0000
# 6 0.0000 0.0000 0.0000 0.0000 0.0000 -2.0989
#
#
#
# Elastic Compliance Matrix: (Units=1/GPa)
#
#
# Indices 1 2 3 4 5 6 
#
# 1 0.020886 -0.001650 0.000588 0.000000 0.000000 0.000000
# 2 -0.001650 0.025908 -0.010004 0.000000 0.000000 0.000000
# 3 0.000588 -0.010004 0.012358 0.000000 0.000000 0.000000
# 4 0.000000 0.000000 0.000000 0.068249 0.000000 0.000000
# 5 0.000000 0.000000 0.000000 0.000000 0.154680 0.000000
# 6 0.000000 0.000000 0.000000 0.000000 0.000000 -0.476448
#
#
# Mechanical properties :
#
#
# Convention : Reuss Voigt Hill
#
# Bulk Modulus (GPa) = 27.01314 35.56249 31.28782
# Shear Modulus (GPa) = -31.27037 15.35561 -7.95738
#
# Velocity S-wave (km/s) = -3.79087 2.65648 -1.91231
# Velocity P-wave (km/s) = 2.59744 5.07468 3.08267
#
# Compressibility (1/GPa) = 0.03701902
#
# Stress axis : x y z
#
# Youngs Moduli (GPa) = 47.87913 38.59832 80.92042
#
# Poissons Ratio (x) = 0.06368 -0.04757
# Poissons Ratio (y) = 0.07899 0.80956
# Poissons Ratio (z) = -0.02814 0.38615
#
# Static dielectric constant tensor:
#      x y z
#    x 1.813270 0.000000 0.000000 
#    y 0.000000 1.822120 0.000000 
#    z 0.000000 0.000000 1.925640 
# 
# From -- ./inp_files/32423.got.cif
#   From: 2010.05.17/outbox.cif.g08.bks.cpg/sg51_17_cif.got.tgz:32423.got - 2010.06.03 11:52:47.
