data_PCOD9403545
_publ_section_title
;
Structure prediction by ZEFSAII (Michael W. Deem and Ramdas Pophale) SiO2 
 PCOD9403545
Probable space group: P M M A
;
_chemical_formula_sum "Si O2"
_cell_formula_units_Z 40
_cell_length_a 13.601520
_cell_length_b 15.818695
_cell_length_c 9.463172
_cell_angle_alpha 90.000000
_cell_angle_beta 90.000000
_cell_angle_gamma 90.000000
_cell_volume 2036.079966
_symmetry_space_group_name_H-M "P M M A"
_symmetry_group_IT_number 51
_symmetry_cell_setting 'orthorhombic'
loop_
_space_group_symop_operation_xyz
x,y,z
1/2-x,-y,z
1/2+x,-y,-z
-x,y,-z
-x,-y,-z
1/2+x,y,-z
1/2-x,y,z
x,-y,z
loop_
_atom_site_type_symbol
_atom_site_label
_atom_site_fract_x
_atom_site_fract_y
_atom_site_fract_z
Si Si1 0.632398 0.404445 0.351603
Si Si2 0.029437 0.275877 0.837034
Si Si3 0.634212 0.725821 0.598162
Si Si4 0.135246 0.909784 0.394680
Si Si5 0.965127 0.909248 0.162423
O O1 0.750000 0.408494 0.346109
O O2 0.593576 0.500000 0.360108
O O3 0.594335 0.352972 0.217186
O O4 0.608563 0.346919 0.487693
O O5 0.932976 0.277970 0.736601
O O6 0.080603 0.183590 0.815427
O O7 0.000000 0.283532 0.000000
O O8 0.750000 0.718301 0.632395
O O9 0.618812 0.819805 0.530813
O O10 0.250000 0.908948 0.350452
O O11 0.061233 0.910171 0.263013
O O12 0.119310 0.000000 0.471713
O O13 0.912609 0.000000 0.186055
O O14 0.000000 0.909202 0.000000
#
# Coordination Sequence:
#
# PCOD9403545 Si02
#       5
#     8   8   8   8   8
#     4  10  22  40  58  74  97 133 174 215 261 313
#     4  10  20  33  54  82 108 136 170 212 259 302
#     4   9  18  33  53  77 104 136 174 210 249 305
#     4   8  13  23  42  68  96 126 162 205 248 289
#     4   8  14  26  43  66 100 137 168 197 236 293
#
# _framework density 19.645593999999999
#
# number of rings (size 3 to 8) (size 9 to 14) (size 15 to 20)
#    0.000    3.000    0.000    0.600    0.000    2.800 
#    0.000    4.000    0.000   10.200    0.000    0.000 
#    0.000    0.000    0.000    0.000    0.000    0.000 
#
# Total GULP energy -222705.137654 kJ/mol
# GULP energy per Si atom -5567.628441 kJ/mol
# Density = 1.960088 g / cm^3
# Si number density = 19.645594 Si / 1000 Ang^3
#
#
#
# Elastic Constant Matrix: (Units=GPa)
#
#
# Indices 1 2 3 4 5 6 
#
# 1 41.6546 22.5954 6.9042 0.0000 0.0000 0.0000
# 2 22.5954 231.6991 61.6522 0.0000 0.0000 0.0000
# 3 6.9042 61.6522 96.8891 0.0000 0.0000 0.0000
# 4 0.0000 0.0000 0.0000 19.3970 0.0000 0.0000
# 5 0.0000 0.0000 0.0000 0.0000 10.0384 0.0000
# 6 0.0000 0.0000 0.0000 0.0000 0.0000 -8.6064
#
#
#
# Elastic Compliance Matrix: (Units=1/GPa)
#
#
# Indices 1 2 3 4 5 6 
#
# 1 0.025354 -0.002398 -0.000281 0.000000 0.000000 0.000000
# 2 -0.002398 0.005422 -0.003280 0.000000 0.000000 0.000000
# 3 -0.000281 -0.003280 0.012428 0.000000 0.000000 0.000000
# 4 0.000000 0.000000 0.000000 0.051554 0.000000 0.000000
# 5 0.000000 0.000000 0.000000 0.000000 0.099617 0.000000
# 6 0.000000 0.000000 0.000000 0.000000 0.000000 -0.116192
#
#
# Mechanical properties :
#
#
# Convention : Reuss Voigt Hill
#
# Bulk Modulus (GPa) = 31.96113 61.39405 46.67759
# Shear Modulus (GPa) = 49.73650 22.77186 36.25418
#
# Velocity S-wave (km/s) = 5.03705 3.40830 4.30048
# Velocity P-wave (km/s) = 7.08049 6.84159 6.96206
#
# Compressibility (1/GPa) = 0.03128800
#
# Stress axis : x y z
#
# Youngs Moduli (GPa) = 39.44123 184.41961 80.46402
#
# Poissons Ratio (x) = 0.44220 0.02261
# Poissons Ratio (y) = 0.09457 0.26388
# Poissons Ratio (z) = 0.01108 0.60481
#
# Static dielectric constant tensor:
#      x y z
#    x 1.716240 0.000000 0.000000 
#    y 0.000000 1.778540 0.000000 
#    z 0.000000 0.000000 1.668770 
# 
# From -- ./inp_files/7912.got.cif
#   From: 2010.05.17/outbox.cif.g08.bks.cpg/sg51_4_cif.got.tgz:7912.got - 2010.06.03 11:52:47.
