data_PCOD9403517
_publ_section_title
;
Structure prediction by ZEFSAII (Michael W. Deem and Ramdas Pophale) SiO2 
 PCOD9403517
Probable space group: P M M A
;
_chemical_formula_sum "Si O2"
_cell_formula_units_Z 32
_cell_length_a 14.250722
_cell_length_b 10.799966
_cell_length_c 9.863466
_cell_angle_alpha 90.000000
_cell_angle_beta 90.000000
_cell_angle_gamma 90.000000
_cell_volume 1518.059550
_symmetry_space_group_name_H-M "P M M A"
_symmetry_group_IT_number 51
_symmetry_cell_setting 'orthorhombic'
loop_
_space_group_symop_operation_xyz
x,y,z
1/2-x,-y,z
1/2+x,-y,-z
-x,y,-z
-x,-y,-z
1/2+x,y,-z
1/2-x,y,z
x,-y,z
loop_
_atom_site_type_symbol
_atom_site_label
_atom_site_fract_x
_atom_site_fract_y
_atom_site_fract_z
Si Si1 0.646589 0.709021 0.783011
Si Si2 0.389054 0.865667 0.977189
Si Si3 0.936827 0.360198 0.199638
Si Si4 0.141939 0.642082 0.510543
O O1 0.750000 0.647402 0.798113
O O2 0.548934 0.645540 0.829974
O O3 0.633938 0.726256 0.621983
O O4 0.650172 0.829965 0.876169
O O5 0.380497 0.746588 0.879572
O O6 0.356367 0.000000 0.927194
O O7 0.500000 0.874987 0.000000
O O8 0.903528 0.500000 0.171108
O O9 0.922283 0.336089 0.359930
O O10 0.250000 0.647904 0.557934
O O11 0.124675 0.500000 0.462761
#
# Coordination Sequence:
#
# PCOD9403517 Si02
#       4
#     8   8   8   8
#     4  10  20  33  53  81 113 148 185 227 278 335
#     4   9  20  38  56  76 107 146 187 232 281 332
#     4  10  20  35  57  84 113 146 185 230 281 336
#     4   9  18  33  53  80 114 148 184 230 282 333
#
# _framework density 21.079542
#
# number of rings (size 3 to 8) (size 9 to 14) (size 15 to 20)
#    0.000    2.500    0.000    1.500    0.000   10.500 
#    0.000    1.250    0.000    7.500    0.000    0.000 
#    0.000    0.000    0.000    0.000    0.000    0.000 
#
# Total GULP energy -178192.877696 kJ/mol
# GULP energy per Si atom -5568.527428 kJ/mol
# Density = 2.103156 g / cm^3
# Si number density = 21.079542 Si / 1000 Ang^3
#
#
#
# Elastic Constant Matrix: (Units=GPa)
#
#
# Indices 1 2 3 4 5 6 
#
# 1 101.2345 21.9088 21.3580 0.0000 0.0000 0.0000
# 2 21.9088 139.9675 74.2292 0.0000 0.0000 0.0000
# 3 21.3580 74.2292 103.2791 0.0000 0.0000 0.0000
# 4 0.0000 0.0000 0.0000 -2.5397 0.0000 0.0000
# 5 0.0000 0.0000 0.0000 0.0000 -339.3076 0.0000
# 6 0.0000 0.0000 0.0000 0.0000 0.0000 -19.9508
#
#
#
# Elastic Compliance Matrix: (Units=1/GPa)
#
#
# Indices 1 2 3 4 5 6 
#
# 1 0.010382 -0.000786 -0.001582 0.000000 0.000000 0.000000
# 2 -0.000786 0.011605 -0.008178 0.000000 0.000000 0.000000
# 3 -0.001582 -0.008178 0.015887 0.000000 0.000000 0.000000
# 4 0.000000 0.000000 0.000000 -0.393755 0.000000 0.000000
# 5 0.000000 0.000000 0.000000 0.000000 -0.002947 0.000000
# 6 0.000000 0.000000 0.000000 0.000000 0.000000 -0.050123
#
#
# Mechanical properties :
#
#
# Convention : Reuss Voigt Hill
#
# Bulk Modulus (GPa) = 59.58827 64.38591 61.98709
# Shear Modulus (GPa) = -13.07993 -57.22727 -35.15360
#
# Velocity S-wave (km/s) = -2.49369 -5.21605 -4.08813
# Velocity P-wave (km/s) = 4.47642 2.38027 2.68073
#
# Compressibility (1/GPa) = 0.01678183
#
# Stress axis : x y z
#
# Youngs Moduli (GPa) = 96.32116 86.17291 62.94323
#
# Poissons Ratio (x) = 0.06774 0.09958
# Poissons Ratio (y) = 0.07572 0.51475
# Poissons Ratio (z) = 0.15238 0.70472
#
# Static dielectric constant tensor:
#      x y z
#    x 1.860910 0.000000 0.000000 
#    y 0.000000 1.774710 0.000000 
#    z 0.000000 0.000000 1.759870 
# 
# From -- ./inp_files/7567.got.cif
#   From: 2010.05.17/outbox.cif.g08.bks.cpg/sg51_4_cif.got.tgz:7567.got - 2010.06.03 11:52:47.
