data_PCOD9403378
_publ_section_title
;
Structure prediction by ZEFSAII (Michael W. Deem and Ramdas Pophale) SiO2 
 PCOD9403378
Probable space group: P M M A
;
_chemical_formula_sum "Si O2"
_cell_formula_units_Z 64
_cell_length_a 19.546955
_cell_length_b 9.215879
_cell_length_c 20.516833
_cell_angle_alpha 90.000000
_cell_angle_beta 90.000000
_cell_angle_gamma 90.000000
_cell_volume 3695.950965
_symmetry_space_group_name_H-M "P M M A"
_symmetry_group_IT_number 51
_symmetry_cell_setting 'orthorhombic'
loop_
_space_group_symop_operation_xyz
x,y,z
1/2-x,-y,z
1/2+x,-y,-z
-x,y,-z
-x,-y,-z
1/2+x,y,-z
1/2-x,y,z
x,-y,z
loop_
_atom_site_type_symbol
_atom_site_label
_atom_site_fract_x
_atom_site_fract_y
_atom_site_fract_z
Si Si1 0.572775 0.827552 0.243310
Si Si2 0.070992 0.327357 0.235656
Si Si3 0.581129 0.327867 0.611224
Si Si4 0.668990 0.174125 0.866064
Si Si5 0.170880 0.825744 0.493729
Si Si6 0.938151 0.827629 0.395567
Si Si7 0.667759 0.669307 0.142848
Si Si8 0.333124 0.166608 0.986955
O O1 0.501638 0.750529 0.224987
O O2 0.583198 0.801713 0.320593
O O3 0.631983 0.759676 0.199602
O O4 0.568035 0.000000 0.233154
O O5 0.064797 0.500000 0.226314
O O6 0.090089 0.301373 0.311489
O O7 0.126077 0.259214 0.187241
O O8 0.580168 0.500000 0.600238
O O9 0.639660 0.252801 0.568972
O O10 0.507948 0.259052 0.591847
O O11 0.750000 0.204875 0.860030
O O12 0.646365 0.211652 0.940071
O O13 0.660430 0.000000 0.858850
O O14 0.250000 0.787162 0.504904
O O15 0.121972 0.788607 0.554647
O O16 0.167174 0.000000 0.484903
O O17 0.952467 0.000000 0.402539
O O18 0.750000 0.683682 0.146850
O O19 0.650384 0.500000 0.148271
O O20 0.645513 0.732476 0.072611
O O21 0.250000 0.165685 0.987907
O O22 0.355023 0.000000 0.975552
#
# Coordination Sequence:
#
# PCOD9403378 Si02
#       8
#     8   8   8   8   8   8   8   8
#     4  10  20  35  56  78 102 135 174 216 259 305
#     4  10  21  36  53  75 106 139 171 212 259 308
#     4  10  21  36  54  76 103 137 174 209 250 305
#     4   9  18  33  54  79 105 134 172 217 260 305
#     4  10  21  36  54  78 107 135 166 210 258 300
#     4   9  19  36  57  78 100 132 174 214 254 304
#     4  10  20  33  51  77 108 139 171 210 256 307
#     4   8  15  30  51  74 101 134 172 212 254 303
#
# _framework density 17.316246
#
# number of rings (size 3 to 8) (size 9 to 14) (size 15 to 20)
#    0.000    2.500    0.000    2.625    0.000    6.750 
#    0.000    5.625    0.000    3.750    0.000    0.000 
#    0.000    0.000    0.000    0.000    0.000    0.000 
#
# Total GULP energy -357061.647642 kJ/mol
# GULP energy per Si atom -5579.088244 kJ/mol
# Density = 1.727683 g / cm^3
# Si number density = 17.316246 Si / 1000 Ang^3
#
#
#
# Elastic Constant Matrix: (Units=GPa)
#
#
# Indices 1 2 3 4 5 6 
#
# 1 47.3877 33.5732 34.7258 0.0000 0.0000 0.0000
# 2 33.5732 55.0837 43.4651 0.0000 0.0000 0.0000
# 3 34.7258 43.4651 61.2035 0.0000 0.0000 0.0000
# 4 0.0000 0.0000 0.0000 27.6301 0.0000 0.0000
# 5 0.0000 0.0000 0.0000 0.0000 40.5040 0.0000
# 6 0.0000 0.0000 0.0000 0.0000 0.0000 23.9893
#
#
#
# Elastic Compliance Matrix: (Units=1/GPa)
#
#
# Indices 1 2 3 4 5 6 
#
# 1 0.040975 -0.015079 -0.012539 0.000000 0.000000 0.000000
# 2 -0.015079 0.046845 -0.024712 0.000000 0.000000 0.000000
# 3 -0.012539 -0.024712 0.041003 0.000000 0.000000 0.000000
# 4 0.000000 0.000000 0.000000 0.036192 0.000000 0.000000
# 5 0.000000 0.000000 0.000000 0.000000 0.024689 0.000000
# 6 0.000000 0.000000 0.000000 0.000000 0.000000 0.041685
#
#
# Mechanical properties :
#
#
# Convention : Reuss Voigt Hill
#
# Bulk Modulus (GPa) = 41.38870 43.02258 42.20564
# Shear Modulus (GPa) = 14.53043 21.88537 18.20790
#
# Velocity S-wave (km/s) = 2.89990 3.55894 3.24619
# Velocity P-wave (km/s) = 5.93010 6.46430 6.20296
#
# Compressibility (1/GPa) = 0.02416118
#
# Stress axis : x y z
#
# Youngs Moduli (GPa) = 24.40515 21.34715 24.38818
#
# Poissons Ratio (x) = 0.32190 0.30581
# Poissons Ratio (y) = 0.36802 0.60268
# Poissons Ratio (z) = 0.30603 0.52753
#
# Static dielectric constant tensor:
#      x y z
#    x 1.562170 0.000000 0.000000 
#    y 0.000000 1.573260 0.000000 
#    z 0.000000 0.000000 1.584850 
# 
# From -- ./inp_files/33900.got.cif
#   From: 2010.05.17/outbox.cif.g08.bks.cpg/sg51_17_cif.got.tgz:33900.got - 2010.06.03 11:52:47.
