data_PCOD9403858
_publ_section_title
;
Structure prediction by ZEFSAII (Michael W. Deem and Ramdas Pophale) SiO2 
 PCOD9403858
Probable space group: P M M A
;
_chemical_formula_sum "Si O2"
_cell_formula_units_Z 64
_cell_length_a 14.177575
_cell_length_b 8.948804
_cell_length_c 26.745026
_cell_angle_alpha 90.000000
_cell_angle_beta 90.000000
_cell_angle_gamma 90.000000
_cell_volume 3393.204029
_symmetry_space_group_name_H-M "P M M A"
_symmetry_group_IT_number 51
_symmetry_cell_setting 'orthorhombic'
loop_
_space_group_symop_operation_xyz
x,y,z
1/2-x,-y,z
1/2+x,-y,-z
-x,y,-z
-x,-y,-z
1/2+x,y,-z
1/2-x,y,z
x,-y,z
loop_
_atom_site_type_symbol
_atom_site_label
_atom_site_fract_x
_atom_site_fract_y
_atom_site_fract_z
Si Si1 0.465459 0.678360 0.374740
Si Si2 0.641364 0.819996 0.419141
Si Si3 0.864753 0.328951 0.025273
Si Si4 0.635828 0.825389 0.922193
Si Si5 0.358397 0.682013 0.274598
Si Si6 0.636402 0.172995 0.532873
Si Si7 0.139705 0.178107 0.869879
Si Si8 0.463763 0.679376 0.173039
O O1 0.471596 0.500000 0.373592
O O2 0.568681 0.748078 0.381134
O O3 0.412084 0.730309 0.324720
O O4 0.407555 0.730159 0.423404
O O5 0.750000 0.775162 0.411304
O O6 0.612972 0.778758 0.476235
O O7 0.637448 0.000000 0.416760
O O8 0.750000 0.331412 0.023345
O O9 0.897188 0.500000 0.030061
O O10 0.887952 0.235282 0.074674
O O11 0.895668 0.254441 0.973454
O O12 0.750000 0.816473 0.919982
O O13 0.593097 0.745476 0.873976
O O14 0.609605 0.000000 0.923009
O O15 0.250000 0.733382 0.274084
O O16 0.356613 0.500000 0.275194
O O17 0.413114 0.725896 0.224384
O O18 0.750000 0.175901 0.536084
O O19 0.605743 0.000000 0.539058
O O20 0.250000 0.215548 0.861982
O O21 0.069331 0.257714 0.831805
O O22 0.129601 0.000000 0.867509
O O23 0.464385 0.500000 0.170142
#
# Coordination Sequence:
#
# PCOD9403858 Si02
#       8
#     8   8   8   8   8   8   8   8
#     4  11  21  33  54  83 112 143 181 228 280 327
#     4   9  19  36  55  76 109 152 190 224 266 319
#     4   9  17  31  53  81 111 143 181 220 258 312
#     4  10  20  34  53  80 115 148 177 217 272 327
#     4   9  20  39  59  80 109 142 175 217 271 325
#     4   9  18  33  53  78 110 149 189 225 266 322
#     4  10  21  38  58  80 110 143 173 215 273 327
#     4  11  22  37  59  81 102 137 185 229 268 316
#
# _framework density 18.861229000000002
#
# number of rings (size 3 to 8) (size 9 to 14) (size 15 to 20)
#    0.000    2.250    0.000    3.750    0.000    7.000 
#    0.000    6.875    0.000    8.250    0.000    0.000 
#    0.000    0.000    0.000    0.000    0.000    0.000 
#
# Total GULP energy -357560.508735 kJ/mol
# GULP energy per Si atom -5586.882949 kJ/mol
# Density = 1.881830 g / cm^3
# Si number density = 18.861229 Si / 1000 Ang^3
#
#
#
# Elastic Constant Matrix: (Units=GPa)
#
#
# Indices 1 2 3 4 5 6 
#
# 1 114.3033 40.0725 87.3641 0.0000 0.0000 0.0000
# 2 40.0725 64.1733 46.5454 0.0000 0.0000 0.0000
# 3 87.3641 46.5454 134.1336 0.0000 0.0000 0.0000
# 4 0.0000 0.0000 0.0000 99.9921 0.0000 0.0000
# 5 0.0000 0.0000 0.0000 0.0000 34.0622 0.0000
# 6 0.0000 0.0000 0.0000 0.0000 0.0000 30.4082
#
#
#
# Elastic Compliance Matrix: (Units=1/GPa)
#
#
# Indices 1 2 3 4 5 6 
#
# 1 0.018044 -0.003666 -0.010481 0.000000 0.000000 0.000000
# 2 -0.003666 0.021569 -0.005097 0.000000 0.000000 0.000000
# 3 -0.010481 -0.005097 0.016050 0.000000 0.000000 0.000000
# 4 0.000000 0.000000 0.000000 0.010001 0.000000 0.000000
# 5 0.000000 0.000000 0.000000 0.000000 0.029358 0.000000
# 6 0.000000 0.000000 0.000000 0.000000 0.000000 0.032886
#
#
# Mechanical properties :
#
#
# Convention : Reuss Voigt Hill
#
# Bulk Modulus (GPa) = 58.21906 73.39717 65.80811
# Shear Modulus (GPa) = 29.04948 42.13437 35.59193
#
# Velocity S-wave (km/s) = 3.92876 4.73156 4.34872
# Velocity P-wave (km/s) = 7.17734 8.29753 7.75768
#
# Compressibility (1/GPa) = 0.01717651
#
# Stress axis : x y z
#
# Youngs Moduli (GPa) = 55.41897 46.36339 62.30504
#
# Poissons Ratio (x) = 0.16997 0.65299
# Poissons Ratio (y) = 0.20317 0.31755
# Poissons Ratio (z) = 0.58082 0.23630
#
# Static dielectric constant tensor:
#      x y z
#    x 1.693890 0.000000 0.000000 
#    y 0.000000 1.632090 0.000000 
#    z 0.000000 0.000000 1.618340 
# 
# From -- ./inp_files/35839.got.cif
#   From: 2010.05.17/outbox.cif.g08.bks.cpg/sg51_18_cif.got.tgz:35839.got - 2010.06.03 11:52:47.
