data_PCOD9403945
_publ_section_title
;
Structure prediction by ZEFSAII (Michael W. Deem and Ramdas Pophale) SiO2 
 PCOD9403945
Probable space group: P M M A
;
_chemical_formula_sum "Si O2"
_cell_formula_units_Z 48
_cell_length_a 8.702204
_cell_length_b 31.312964
_cell_length_c 9.520713
_cell_angle_alpha 90.000000
_cell_angle_beta 90.000000
_cell_angle_gamma 90.000000
_cell_volume 2594.316228
_symmetry_space_group_name_H-M "P M M A"
_symmetry_group_IT_number 51
_symmetry_cell_setting 'orthorhombic'
loop_
_space_group_symop_operation_xyz
x,y,z
1/2-x,-y,z
1/2+x,-y,-z
-x,y,-z
-x,-y,-z
1/2+x,y,-z
1/2-x,y,z
x,-y,z
loop_
_atom_site_type_symbol
_atom_site_label
_atom_site_fract_x
_atom_site_fract_y
_atom_site_fract_z
Si Si1 0.566758 0.449575 0.153120
Si Si2 0.434018 0.217886 0.656506
Si Si3 0.935312 0.047393 0.843654
Si Si4 0.066664 0.377139 0.343709
Si Si5 0.434852 0.127242 0.343709
Si Si6 0.065624 0.699684 0.843023
O O1 0.750000 0.442787 0.153260
O O2 0.536911 0.500000 0.174309
O O3 0.489410 0.420894 0.271618
O O4 0.500000 0.437767 0.000000
O O5 0.500000 0.225910 0.500000
O O6 0.250000 0.214272 0.645697
O O7 0.502513 0.172868 0.708052
O O8 0.471960 0.256589 0.760359
O O9 0.750000 0.048361 0.849543
O O10 0.985495 0.086997 0.748955
O O11 0.980882 0.000000 0.790626
O O12 0.000000 0.051844 0.000000
O O13 0.250000 0.375647 0.348837
O O14 0.000000 0.372979 0.500000
O O15 0.003738 0.339184 0.245939
O O16 0.500000 0.122070 0.500000
O O17 0.250000 0.128693 0.347733
O O18 0.250000 0.695309 0.847935
O O19 0.000000 0.700000 0.000000
#
# Coordination Sequence:
#
# PCOD9403945 Si02
#       6
#     8   8   8   8   8   8
#     4  10  21  39  63  90 121 157 196 238 285 337
#     4  10  21  37  58  82 110 144 182 225 274 329
#     4   9  19  35  53  75 104 139 179 222 269 321
#     4  12  25  41  62  87 118 154 193 238 286 338
#     4  10  20  34  54  79 108 141 178 222 270 324
#     4  11  24  41  61  86 115 149 189 232 280 334
#
# _framework density 18.501984
#
# number of rings (size 3 to 8) (size 9 to 14) (size 15 to 20)
#    0.000    1.667    0.000    5.500    0.000    7.667 
#    0.000    3.333    0.000    0.000    0.000    0.000 
#    0.000    0.000    0.000    0.000    0.000    0.000 
#
# Total GULP energy -268241.754404 kJ/mol
# GULP energy per Si atom -5588.369883 kJ/mol
# Density = 1.845987 g / cm^3
# Si number density = 18.501984 Si / 1000 Ang^3
#
#
#
# Elastic Constant Matrix: (Units=GPa)
#
#
# Indices 1 2 3 4 5 6 
#
# 1 83.0563 69.0721 57.2254 0.0000 0.0000 0.0000
# 2 69.0721 134.1208 95.3367 0.0000 0.0000 0.0000
# 3 57.2254 95.3367 127.3056 0.0000 0.0000 0.0000
# 4 0.0000 0.0000 0.0000 37.6881 0.0000 0.0000
# 5 0.0000 0.0000 0.0000 0.0000 34.5843 0.0000
# 6 0.0000 0.0000 0.0000 0.0000 0.0000 27.4985
#
#
#
# Elastic Compliance Matrix: (Units=1/GPa)
#
#
# Indices 1 2 3 4 5 6 
#
# 1 0.021563 -0.009013 -0.002943 0.000000 0.000000 0.000000
# 2 -0.009013 0.019710 -0.010709 0.000000 0.000000 0.000000
# 3 -0.002943 -0.010709 0.017198 0.000000 0.000000 0.000000
# 4 0.000000 0.000000 0.000000 0.026534 0.000000 0.000000
# 5 0.000000 0.000000 0.000000 0.000000 0.028915 0.000000
# 6 0.000000 0.000000 0.000000 0.000000 0.000000 0.036366
#
#
# Mechanical properties :
#
#
# Convention : Reuss Voigt Hill
#
# Bulk Modulus (GPa) = 76.09941 87.52790 81.81366
# Shear Modulus (GPa) = 25.00053 28.14406 26.57229
#
# Velocity S-wave (km/s) = 3.67990 3.90441 3.79382
# Velocity P-wave (km/s) = 7.69904 8.23018 7.96904
#
# Compressibility (1/GPa) = 0.01314071
#
# Stress axis : x y z
#
# Youngs Moduli (GPa) = 46.37480 50.73634 58.14673
#
# Poissons Ratio (x) = 0.45728 0.17115
# Poissons Ratio (y) = 0.41797 0.62268
# Poissons Ratio (z) = 0.13650 0.54333
#
# Static dielectric constant tensor:
#      x y z
#    x 1.621440 0.000000 0.000000 
#    y 0.000000 1.647120 0.000000 
#    z 0.000000 0.000000 1.594350 
# 
# From -- ./inp_files/6002.got.cif
#   From: 2010.05.17/outbox.cif.g08.bks.cpg/sg51_4_cif.got.tgz:6002.got - 2010.06.03 11:52:47.
