data_PCOD9403700
_publ_section_title
;
Structure prediction by ZEFSAII (Michael W. Deem and Ramdas Pophale) SiO2 
 PCOD9403700
Probable space group: P M M A
;
_chemical_formula_sum "Si O2"
_cell_formula_units_Z 56
_cell_length_a 20.918829
_cell_length_b 7.514047
_cell_length_c 15.125275
_cell_angle_alpha 90.000000
_cell_angle_beta 90.000000
_cell_angle_gamma 90.000000
_cell_volume 2377.467323
_symmetry_space_group_name_H-M "P M M A"
_symmetry_group_IT_number 51
_symmetry_cell_setting 'orthorhombic'
loop_
_space_group_symop_operation_xyz
x,y,z
1/2-x,-y,z
1/2+x,-y,-z
-x,y,-z
-x,-y,-z
1/2+x,y,-z
1/2-x,y,z
x,-y,z
loop_
_atom_site_type_symbol
_atom_site_label
_atom_site_fract_x
_atom_site_fract_y
_atom_site_fract_z
Si Si1 0.821119 0.709572 0.483037
Si Si2 0.955914 0.283963 0.418352
Si Si3 0.180461 0.711512 0.003623
Si Si4 0.177649 0.784823 0.311338
Si Si5 0.043355 0.206215 0.774642
Si Si6 0.084445 0.212797 0.157615
Si Si7 0.319172 0.795573 0.800053
O O1 0.750000 0.785185 0.465649
O O2 0.818132 0.500000 0.462758
O O3 0.883127 0.781274 0.433036
O O4 0.834399 0.727295 0.587996
O O5 0.955954 0.500000 0.416304
O O6 0.981761 0.215773 0.325348
O O7 0.000000 0.228663 0.500000
O O8 0.250000 0.763399 0.043084
O O9 0.180476 0.500000 0.990579
O O10 0.122808 0.756670 0.067958
O O11 0.177069 0.795161 0.906753
O O12 0.250000 0.728090 0.288452
O O13 0.127518 0.718689 0.238992
O O14 0.176467 0.000000 0.310670
O O15 0.113878 0.290229 0.772331
O O16 0.987855 0.283147 0.836267
O O17 0.053255 0.000000 0.800804
O O18 0.079358 0.000000 0.169273
O O19 0.250000 0.714816 0.775522
O O20 0.317704 0.000000 0.768222
#
# Coordination Sequence:
#
# PCOD9403700 Si02
#       7
#     8   8   8   8   8   8   8
#     4   9  18  32  49  70  97 130 169 213 261 312
#     4  10  21  36  53  74 103 139 175 212 262 321
#     4  10  21  36  56  83 110 138 176 216 254 305
#     4   9  17  29  47  72 100 132 170 209 254 309
#     4  10  22  37  55  81 106 135 179 223 264 313
#     4  10  20  34  52  76 109 143 174 213 262 315
#     4   9  19  38  60  79 105 141 178 219 268 317
#
# _framework density 23.554478
#
# number of rings (size 3 to 8) (size 9 to 14) (size 15 to 20)
#    0.000    2.429    0.000    1.714    0.000    5.143 
#    0.000    4.286    0.000    0.000    0.000    0.000 
#    0.000    0.000    0.000    0.000    0.000    0.000 
#
# Total GULP energy -312820.690372 kJ/mol
# GULP energy per Si atom -5586.083757 kJ/mol
# Density = 2.350087 g / cm^3
# Si number density = 23.554478 Si / 1000 Ang^3
#
#
#
# Elastic Constant Matrix: (Units=GPa)
#
#
# Indices 1 2 3 4 5 6 
#
# 1 118.2852 15.0728 24.8451 0.0000 0.0000 0.0000
# 2 15.0728 68.4580 -12.4252 0.0000 0.0000 0.0000
# 3 24.8451 -12.4252 44.1676 0.0000 0.0000 0.0000
# 4 0.0000 0.0000 0.0000 15.0457 0.0000 0.0000
# 5 0.0000 0.0000 0.0000 0.0000 39.4262 0.0000
# 6 0.0000 0.0000 0.0000 0.0000 0.0000 -10.5623
#
#
#
# Elastic Compliance Matrix: (Units=1/GPa)
#
#
# Indices 1 2 3 4 5 6 
#
# 1 0.010329 -0.003508 -0.006797 0.000000 0.000000 0.000000
# 2 -0.003508 0.016585 0.006639 0.000000 0.000000 0.000000
# 3 -0.006797 0.006639 0.028332 0.000000 0.000000 0.000000
# 4 0.000000 0.000000 0.000000 0.066464 0.000000 0.000000
# 5 0.000000 0.000000 0.000000 0.000000 0.025364 0.000000
# 6 0.000000 0.000000 0.000000 0.000000 0.000000 -0.094676
#
#
# Mechanical properties :
#
#
# Convention : Reuss Voigt Hill
#
# Bulk Modulus (GPa) = 20.87082 31.76626 26.31854
# Shear Modulus (GPa) = 66.04976 22.34313 44.19645
#
# Velocity S-wave (km/s) = 5.30115 3.08323 4.33638
# Velocity P-wave (km/s) = 6.80804 5.11768 6.02246
#
# Compressibility (1/GPa) = 0.04791378
#
# Stress axis : x y z
#
# Youngs Moduli (GPa) = 96.81674 60.29624 35.29571
#
# Poissons Ratio (x) = 0.21151 0.23990
# Poissons Ratio (y) = 0.33961 -0.23432
# Poissons Ratio (z) = 0.65806 -0.40030
#
# Static dielectric constant tensor:
#      x y z
#    x 1.963010 0.000000 0.000000 
#    y 0.000000 1.870860 0.000000 
#    z 0.000000 0.000000 1.835920 
# 
# From -- ./inp_files/25621.got.cif
#   From: 2010.05.17/outbox.cif.g08.bks.cpg/sg51_13_cif.got.tgz:25621.got - 2010.06.03 11:52:47.
