data_PCOD9403251
_publ_section_title
;
Structure prediction by ZEFSAII (Michael W. Deem and Ramdas Pophale) SiO2 
 PCOD9403251
Probable space group: P M M A
;
_chemical_formula_sum "Si O2"
_cell_formula_units_Z 48
_cell_length_a 8.310594
_cell_length_b 14.409780
_cell_length_c 19.493553
_cell_angle_alpha 90.000000
_cell_angle_beta 90.000000
_cell_angle_gamma 90.000000
_cell_volume 2334.427656
_symmetry_space_group_name_H-M "P M M A"
_symmetry_group_IT_number 51
_symmetry_cell_setting 'orthorhombic'
loop_
_space_group_symop_operation_xyz
x,y,z
1/2-x,-y,z
1/2+x,-y,-z
-x,y,-z
-x,-y,-z
1/2+x,y,-z
1/2-x,y,z
x,-y,z
loop_
_atom_site_type_symbol
_atom_site_label
_atom_site_fract_x
_atom_site_fract_y
_atom_site_fract_z
Si Si1 0.056658 0.303850 0.421611
Si Si2 0.932735 0.744919 0.817788
Si Si3 0.944676 0.107857 0.924584
Si Si4 0.940462 0.602102 0.290877
Si Si5 0.555837 0.900879 0.579108
Si Si6 0.563817 0.392391 0.076895
O O1 0.250000 0.307240 0.420151
O O2 0.002807 0.200430 0.396055
O O3 0.000000 0.315414 0.500000
O O4 0.987377 0.378179 0.369275
O O5 0.750000 0.768495 0.799576
O O6 0.004102 0.833443 0.858828
O O7 0.005047 0.690794 0.753343
O O8 0.947705 0.666966 0.876293
O O9 0.750000 0.112862 0.924228
O O10 0.993348 0.000000 0.919492
O O11 0.000000 0.142684 0.000000
O O12 0.750000 0.597824 0.283586
O O13 0.006308 0.500000 0.269793
O O14 0.500000 0.902601 0.500000
O O15 0.750000 0.900686 0.581227
O O16 0.501118 0.000000 0.610301
O O17 0.750000 0.360291 0.082375
O O18 0.561754 0.500000 0.097691
O O19 0.500000 0.386731 0.000000
#
# Coordination Sequence:
#
# PCOD9403251 Si02
#       6
#     8   8   8   8   8   8
#     4  10  20  36  60  87 114 146 186 234 287 344
#     4  11  22  36  57  82 109 144 184 228 279 333
#     4   9  19  36  58  86 119 154 192 232 275 325
#     4  11  25  43  60  79 107 145 188 236 291 349
#     4   8  14  26  47  77 110 140 169 204 252 311
#     4  10  20  33  50  75 108 144 181 222 267 316
#
# _framework density 20.561786000000001
#
# number of rings (size 3 to 8) (size 9 to 14) (size 15 to 20)
#    0.000    2.167    0.000    3.000    0.000    8.000 
#    0.000    0.833    0.000    5.000    0.000    0.000 
#    0.000    0.000    0.000    0.000    0.000    0.000 
#
# Total GULP energy -267521.459092 kJ/mol
# GULP energy per Si atom -5573.363731 kJ/mol
# Density = 2.051499 g / cm^3
# Si number density = 20.561786 Si / 1000 Ang^3
#
#
#
# Elastic Constant Matrix: (Units=GPa)
#
#
# Indices 1 2 3 4 5 6 
#
# 1 23.6365 14.9045 3.6932 0.0000 0.0000 0.0000
# 2 14.9045 88.5315 51.3671 0.0000 0.0000 0.0000
# 3 3.6932 51.3671 84.9125 0.0000 0.0000 0.0000
# 4 0.0000 0.0000 0.0000 54.3377 0.0000 0.0000
# 5 0.0000 0.0000 0.0000 0.0000 28.4635 0.0000
# 6 0.0000 0.0000 0.0000 0.0000 0.0000 11.1065
#
#
#
# Elastic Compliance Matrix: (Units=1/GPa)
#
#
# Indices 1 2 3 4 5 6 
#
# 1 0.048352 -0.010662 0.004347 0.000000 0.000000 0.000000
# 2 -0.010662 0.019755 -0.011487 0.000000 0.000000 0.000000
# 3 0.004347 -0.011487 0.018537 0.000000 0.000000 0.000000
# 4 0.000000 0.000000 0.000000 0.018403 0.000000 0.000000
# 5 0.000000 0.000000 0.000000 0.000000 0.035133 0.000000
# 6 0.000000 0.000000 0.000000 0.000000 0.000000 0.090037
#
#
# Mechanical properties :
#
#
# Convention : Reuss Voigt Hill
#
# Bulk Modulus (GPa) = 19.59285 37.44556 28.51921
# Shear Modulus (GPa) = 17.67817 27.25593 22.46705
#
# Velocity S-wave (km/s) = 2.93534 3.64478 3.30913
# Velocity P-wave (km/s) = 4.58670 5.99694 5.33859
#
# Compressibility (1/GPa) = 0.05103903
#
# Stress axis : x y z
#
# Youngs Moduli (GPa) = 20.68185 50.61908 53.94679
#
# Poissons Ratio (x) = 0.53972 -0.23451
# Poissons Ratio (y) = 0.22052 0.61969
# Poissons Ratio (z) = -0.08991 0.58147
#
# Static dielectric constant tensor:
#      x y z
#    x 1.727960 0.000000 0.000000 
#    y 0.000000 1.802180 0.000000 
#    z 0.000000 0.000000 1.721240 
# 
# From -- ./inp_files/27598.got.cif
#   From: 2010.05.17/outbox.cif.g08.bks.cpg/sg51_14_cif.got.tgz:27598.got - 2010.06.03 11:52:47.
