data_PCOD9403027
_publ_section_title
;
Structure prediction by ZEFSAII (Michael W. Deem and Ramdas Pophale) SiO2 
 PCOD9403027
Probable space group: P M M A
;
_chemical_formula_sum "Si O2"
_cell_formula_units_Z 64
_cell_length_a 15.743133
_cell_length_b 14.721365
_cell_length_c 17.270093
_cell_angle_alpha 90.000000
_cell_angle_beta 90.000000
_cell_angle_gamma 90.000000
_cell_volume 4002.523785
_symmetry_space_group_name_H-M "P M M A"
_symmetry_group_IT_number 51
_symmetry_cell_setting 'orthorhombic'
loop_
_space_group_symop_operation_xyz
x,y,z
1/2-x,-y,z
1/2+x,-y,-z
-x,y,-z
-x,-y,-z
1/2+x,y,-z
1/2-x,y,z
x,-y,z
loop_
_atom_site_type_symbol
_atom_site_label
_atom_site_fract_x
_atom_site_fract_y
_atom_site_fract_z
Si Si1 0.146446 0.898731 0.068909
Si Si2 0.492503 0.391473 0.408487
Si Si3 0.083294 0.394885 0.855941
Si Si4 0.381582 0.605425 0.159402
Si Si5 0.349438 0.288195 0.000447
Si Si6 0.347412 0.710339 0.316572
Si Si7 0.655288 0.389590 0.308401
Si Si8 0.353129 0.898742 0.248260
O O1 0.250000 0.896908 0.068705
O O2 0.118522 0.813411 0.018482
O O3 0.120502 0.885687 0.158634
O O4 0.120316 0.000000 0.043907
O O5 0.500000 0.376415 0.500000
O O6 0.482492 0.500000 0.395247
O O7 0.411927 0.341100 0.372321
O O8 0.578609 0.361683 0.364445
O O9 0.107001 0.500000 0.872205
O O10 0.133917 0.363305 0.779957
O O11 0.983882 0.393008 0.835917
O O12 0.101071 0.336331 0.931535
O O13 0.354812 0.500000 0.159519
O O14 0.356412 0.654676 0.079895
O O15 0.347924 0.658964 0.233721
O O16 0.250000 0.284414 0.979016
O O17 0.250000 0.711500 0.345040
O O18 0.378273 0.813065 0.299533
O O19 0.750000 0.359214 0.330650
O O20 0.655243 0.500000 0.309271
O O21 0.250000 0.897894 0.247657
O O22 0.380048 0.000000 0.273053
#
# Coordination Sequence:
#
# PCOD9403027 Si02
#       8
#     8   8   8   8   8   8   8   8
#     4   8  14  26  43  63  90 123 160 205 253 295
#     4  10  21  36  52  74 106 137 164 200 246 299
#     4  10  20  33  46  62  91 131 171 210 245 284
#     4  11  21  32  44  64  99 136 162 196 250 298
#     4  11  20  29  44  68  92 123 170 210 243 288
#     4  11  20  32  53  80 106 133 165 202 251 307
#     4   9  17  32  52  69  89 126 174 213 242 279
#     4   8  14  27  48  73 100 130 165 204 248 299
#
# _framework density 15.989910999999999
#
# number of rings (size 3 to 8) (size 9 to 14) (size 15 to 20)
#    0.000    2.250    2.500    2.625    0.000    4.500 
#    0.000    1.250    0.000    2.625    0.000    0.000 
#    0.000    0.500    0.000    0.500    0.000    0.000 
#
# Total GULP energy -356890.102036 kJ/mol
# GULP energy per Si atom -5576.407844 kJ/mol
# Density = 1.595352 g / cm^3
# Si number density = 15.989911 Si / 1000 Ang^3
#
#
#
# Elastic Constant Matrix: (Units=GPa)
#
#
# Indices 1 2 3 4 5 6 
#
# 1 72.3101 31.0873 36.1528 0.0000 0.0000 0.0000
# 2 31.0873 99.6683 50.6370 0.0000 0.0000 0.0000
# 3 36.1528 50.6370 78.1768 0.0000 0.0000 0.0000
# 4 0.0000 0.0000 0.0000 12.7574 0.0000 0.0000
# 5 0.0000 0.0000 0.0000 0.0000 5.0452 0.0000
# 6 0.0000 0.0000 0.0000 0.0000 0.0000 0.5719
#
#
#
# Elastic Compliance Matrix: (Units=1/GPa)
#
#
# Indices 1 2 3 4 5 6 
#
# 1 0.018278 -0.002097 -0.007095 0.000000 0.000000 0.000000
# 2 -0.002097 0.015195 -0.008873 0.000000 0.000000 0.000000
# 3 -0.007095 -0.008873 0.021819 0.000000 0.000000 0.000000
# 4 0.000000 0.000000 0.000000 0.078386 0.000000 0.000000
# 5 0.000000 0.000000 0.000000 0.000000 0.198210 0.000000
# 6 0.000000 0.000000 0.000000 0.000000 0.000000 1.748408
#
#
# Mechanical properties :
#
#
# Convention : Reuss Voigt Hill
#
# Bulk Modulus (GPa) = 52.17923 53.98991 53.08457
# Shear Modulus (GPa) = 2.35537 12.49344 7.42441
#
# Velocity S-wave (km/s) = 1.21500 2.79827 2.15714
# Velocity P-wave (km/s) = 5.88827 6.65422 6.28293
#
# Compressibility (1/GPa) = 0.01916471
#
# Stress axis : x y z
#
# Youngs Moduli (GPa) = 54.71143 65.81122 45.83079
#
# Poissons Ratio (x) = 0.13798 0.32515
# Poissons Ratio (y) = 0.11470 0.40664
# Poissons Ratio (z) = 0.38815 0.58392
#
# Static dielectric constant tensor:
#      x y z
#    x 1.551790 0.000000 0.000000 
#    y 0.000000 1.547510 0.000000 
#    z 0.000000 0.000000 1.509950 
# 
# From -- ./inp_files/29992.got.cif
#   From: 2010.05.17/outbox.cif.g08.bks.cpg/sg51_15_cif.got.tgz:29992.got - 2010.06.03 11:52:47.
