data_PCOD9403551
_publ_section_title
;
Structure prediction by ZEFSAII (Michael W. Deem and Ramdas Pophale) SiO2 
 PCOD9403551
Probable space group: P M M A
;
_chemical_formula_sum "Si O2"
_cell_formula_units_Z 64
_cell_length_a 8.852147
_cell_length_b 19.861832
_cell_length_c 21.095519
_cell_angle_alpha 90.000000
_cell_angle_beta 90.000000
_cell_angle_gamma 90.000000
_cell_volume 3709.011124
_symmetry_space_group_name_H-M "P M M A"
_symmetry_group_IT_number 51
_symmetry_cell_setting 'orthorhombic'
loop_
_space_group_symop_operation_xyz
x,y,z
1/2-x,-y,z
1/2+x,-y,-z
-x,y,-z
-x,-y,-z
1/2+x,y,-z
1/2-x,y,z
x,-y,z
loop_
_atom_site_type_symbol
_atom_site_label
_atom_site_fract_x
_atom_site_fract_y
_atom_site_fract_z
Si Si1 0.428174 0.076963 0.246090
Si Si2 0.568937 0.576075 0.883571
Si Si3 0.569734 0.710741 0.315548
Si Si4 0.429678 0.788714 0.434190
Si Si5 0.930890 0.576637 0.732977
Si Si6 0.930405 0.289241 0.065935
Si Si7 0.069762 0.923073 0.614695
Si Si8 0.568377 0.204087 0.189199
O O1 0.250000 0.087032 0.258626
O O2 0.518209 0.084492 0.312159
O O3 0.488910 0.132603 0.198177
O O4 0.449570 0.000000 0.224223
O O5 0.750000 0.582105 0.891521
O O6 0.524861 0.500000 0.902206
O O7 0.536826 0.583630 0.808287
O O8 0.486888 0.635133 0.920470
O O9 0.750000 0.714098 0.323519
O O10 0.490594 0.745967 0.374913
O O11 0.515815 0.634520 0.304849
O O12 0.530189 0.751404 0.251197
O O13 0.500000 0.763783 0.500000
O O14 0.250000 0.786509 0.436477
O O15 0.485392 0.865359 0.423607
O O16 0.750000 0.584346 0.725440
O O17 0.971002 0.500000 0.714812
O O18 0.750000 0.288853 0.062279
O O19 0.976924 0.243593 0.125858
O O20 0.000000 0.265287 0.000000
O O21 0.250000 0.913500 0.610196
O O22 0.033429 0.000000 0.595479
O O23 0.750000 0.195588 0.188533
#
# Coordination Sequence:
#
# PCOD9403551 Si02
#       8
#     8   8   8   8   8   8   8   8
#     4  10  20  33  54  85 114 142 181 227 275 327
#     4   9  18  33  53  78 109 146 186 225 268 322
#     4  11  21  36  58  85 114 145 186 232 277 330
#     4  12  25  40  58  81 112 150 189 231 278 330
#     4   9  18  33  55  84 115 146 184 229 277 327
#     4  11  23  38  54  78 109 146 187 229 276 329
#     4  10  20  35  55  80 113 151 188 226 270 323
#     4  10  21  36  56  81 111 145 184 228 277 329
#
# _framework density 17.255274
#
# number of rings (size 3 to 8) (size 9 to 14) (size 15 to 20)
#    0.000    1.750    2.500    3.375    0.000    4.000 
#    0.000    1.250    0.000    0.750    0.000    0.000 
#    0.000    0.000    0.000    0.000    0.000    0.000 
#
# Total GULP energy -357479.666441 kJ/mol
# GULP energy per Si atom -5585.619788 kJ/mol
# Density = 1.721600 g / cm^3
# Si number density = 17.255274 Si / 1000 Ang^3
#
#
#
# Elastic Constant Matrix: (Units=GPa)
#
#
# Indices 1 2 3 4 5 6 
#
# 1 65.8848 47.0563 52.6580 0.0000 0.0000 0.0000
# 2 47.0563 95.7300 56.5713 0.0000 0.0000 0.0000
# 3 52.6580 56.5713 113.0561 0.0000 0.0000 0.0000
# 4 0.0000 0.0000 0.0000 19.3391 0.0000 0.0000
# 5 0.0000 0.0000 0.0000 0.0000 25.9971 0.0000
# 6 0.0000 0.0000 0.0000 0.0000 0.0000 33.7273
#
#
#
# Elastic Compliance Matrix: (Units=1/GPa)
#
#
# Indices 1 2 3 4 5 6 
#
# 1 0.028573 -0.008775 -0.008917 0.000000 0.000000 0.000000
# 2 -0.008775 0.017527 -0.004683 0.000000 0.000000 0.000000
# 3 -0.008917 -0.004683 0.015342 0.000000 0.000000 0.000000
# 4 0.000000 0.000000 0.000000 0.051709 0.000000 0.000000
# 5 0.000000 0.000000 0.000000 0.000000 0.038466 0.000000
# 6 0.000000 0.000000 0.000000 0.000000 0.000000 0.029650
#
#
# Mechanical properties :
#
#
# Convention : Reuss Voigt Hill
#
# Bulk Modulus (GPa) = 59.91462 65.24911 62.58186
# Shear Modulus (GPa) = 21.59085 23.70505 22.64795
#
# Velocity S-wave (km/s) = 3.54115 3.71048 3.62681
# Velocity P-wave (km/s) = 7.17757 7.50020 7.34066
#
# Compressibility (1/GPa) = 0.01669042
#
# Stress axis : x y z
#
# Youngs Moduli (GPa) = 34.99863 57.05511 65.18171
#
# Poissons Ratio (x) = 0.50068 0.58124
# Poissons Ratio (y) = 0.30712 0.30524
# Poissons Ratio (z) = 0.31209 0.26718
#
# Static dielectric constant tensor:
#      x y z
#    x 1.574030 0.000000 0.000000 
#    y 0.000000 1.583820 0.000000 
#    z 0.000000 0.000000 1.576260 
# 
# From -- ./inp_files/32334.got.cif
#   From: 2010.05.17/outbox.cif.g08.bks.cpg/sg51_17_cif.got.tgz:32334.got - 2010.06.03 11:52:47.
