data_PCOD9403002
_publ_section_title
;
Structure prediction by ZEFSAII (Michael W. Deem and Ramdas Pophale) SiO2 
 PCOD9403002
Probable space group: P M M A
;
_chemical_formula_sum "Si O2"
_cell_formula_units_Z 48
_cell_length_a 7.959425
_cell_length_b 9.523151
_cell_length_c 35.234107
_cell_angle_alpha 90.000000
_cell_angle_beta 90.000000
_cell_angle_gamma 90.000000
_cell_volume 2670.703246
_symmetry_space_group_name_H-M "P M M A"
_symmetry_group_IT_number 51
_symmetry_cell_setting 'orthorhombic'
loop_
_space_group_symop_operation_xyz
x,y,z
1/2-x,-y,z
1/2+x,-y,-z
-x,y,-z
-x,-y,-z
1/2+x,y,-z
1/2-x,y,z
x,-y,z
loop_
_atom_site_type_symbol
_atom_site_label
_atom_site_fract_x
_atom_site_fract_y
_atom_site_fract_z
Si Si1 0.548077 0.659336 0.113027
Si Si2 0.750000 0.831111 0.324323
Si Si3 0.438206 0.833213 0.270141
Si Si4 0.048700 0.667601 0.802953
Si Si5 0.558523 0.329303 0.542082
Si Si6 0.050248 0.840930 0.041000
Si Si7 0.750000 0.670178 0.403496
O O1 0.750000 0.652676 0.115570
O O2 0.485504 0.500000 0.107458
O O3 0.490797 0.710366 0.154661
O O4 0.504330 0.753619 0.077342
O O5 0.585038 0.795270 0.299521
O O6 0.750000 0.747051 0.363372
O O7 0.750000 0.000000 0.330744
O O8 0.250000 0.806693 0.285031
O O9 0.463651 0.750149 0.231074
O O10 0.454225 0.000000 0.262714
O O11 0.250000 0.691195 0.800111
O O12 0.020919 0.500000 0.799763
O O13 0.500000 0.284651 0.500000
O O14 0.750000 0.282507 0.549877
O O15 0.561152 0.500000 0.541584
O O16 0.416437 0.289927 0.572461
O O17 0.250000 0.848712 0.041604
O O18 0.979916 0.000000 0.042913
O O19 0.000000 0.779965 0.000000
O O20 0.750000 0.500000 0.399178
#
# Coordination Sequence:
#
# PCOD9403002 Si02
#       7
#     8   4   8   8   8   8   4
#     4   9  19  35  54  78 107 137 169 205 253 315
#     4  10  22  40  56  74 110 150 182 224 278 326
#     4  10  21  37  58  81 104 139 187 227 266 326
#     4   9  18  34  56  81 109 139 171 214 268 321
#     4   9  15  26  47  77 110 140 174 221 274 321
#     4  10  21  36  53  73  99 133 174 217 259 304
#     4  10  20  32  52  82 108 138 182 228 270 320
#
# _framework density 17.972795000000001
#
# number of rings (size 3 to 8) (size 9 to 14) (size 15 to 20)
#    0.000    2.500    1.667    1.500    0.000    4.667 
#    0.000    5.000    0.000    0.500    0.000    0.000 
#    0.000    0.000    0.000    0.000    0.000    0.000 
#
# Total GULP energy -267639.479333 kJ/mol
# GULP energy per Si atom -5575.822486 kJ/mol
# Density = 1.793189 g / cm^3
# Si number density = 17.972795 Si / 1000 Ang^3
#
#
#
# Elastic Constant Matrix: (Units=GPa)
#
#
# Indices 1 2 3 4 5 6 
#
# 1 119.6452 30.4201 77.5681 0.0000 0.0000 0.0000
# 2 30.4201 25.2781 54.2611 0.0000 0.0000 0.0000
# 3 77.5681 54.2611 174.8216 0.0000 0.0000 0.0000
# 4 0.0000 0.0000 0.0000 75.0458 0.0000 0.0000
# 5 0.0000 0.0000 0.0000 0.0000 19.7627 0.0000
# 6 0.0000 0.0000 0.0000 0.0000 0.0000 15.3841
#
#
#
# Elastic Compliance Matrix: (Units=1/GPa)
#
#
# Indices 1 2 3 4 5 6 
#
# 1 0.012429 -0.009347 -0.002614 0.000000 0.000000 0.000000
# 2 -0.009347 0.125561 -0.034824 0.000000 0.000000 0.000000
# 3 -0.002614 -0.034824 0.017689 0.000000 0.000000 0.000000
# 4 0.000000 0.000000 0.000000 0.013325 0.000000 0.000000
# 5 0.000000 0.000000 0.000000 0.000000 0.050600 0.000000
# 6 0.000000 0.000000 0.000000 0.000000 0.000000 0.065002
#
#
# Mechanical properties :
#
#
# Convention : Reuss Voigt Hill
#
# Bulk Modulus (GPa) = 16.10080 71.58262 43.84171
# Shear Modulus (GPa) = 12.53511 32.53821 22.53666
#
# Velocity S-wave (km/s) = 2.64379 4.25951 3.54493
# Velocity P-wave (km/s) = 4.27754 8.00663 6.41886
#
# Compressibility (1/GPa) = 0.06210873
#
# Stress axis : x y z
#
# Youngs Moduli (GPa) = 80.45713 7.96424 56.53356
#
# Poissons Ratio (x) = 0.07444 0.14776
# Poissons Ratio (y) = 0.75203 1.96875
# Poissons Ratio (z) = 0.21028 0.27735
#
# Static dielectric constant tensor:
#      x y z
#    x 1.642010 0.000000 0.000000 
#    y 0.000000 1.608500 0.000000 
#    z 0.000000 0.000000 1.596930 
# 
# From -- ./inp_files/37113.got.cif
#   From: 2010.05.17/outbox.cif.g08.bks.cpg/sg51_19_cif.got.tgz:37113.got - 2010.06.03 11:52:47.
