data_PCOD9403880
_publ_section_title
;
Structure prediction by ZEFSAII (Michael W. Deem and Ramdas Pophale) SiO2 
 PCOD9403880
Probable space group: P M M A
;
_chemical_formula_sum "Si O2"
_cell_formula_units_Z 48
_cell_length_a 8.436714
_cell_length_b 8.019055
_cell_length_c 36.012635
_cell_angle_alpha 90.000000
_cell_angle_beta 90.000000
_cell_angle_gamma 90.000000
_cell_volume 2436.415863
_symmetry_space_group_name_H-M "P M M A"
_symmetry_group_IT_number 51
_symmetry_cell_setting 'orthorhombic'
loop_
_space_group_symop_operation_xyz
x,y,z
1/2-x,-y,z
1/2+x,-y,-z
-x,y,-z
-x,-y,-z
1/2+x,y,-z
1/2-x,y,z
x,-y,z
loop_
_atom_site_type_symbol
_atom_site_label
_atom_site_fract_x
_atom_site_fract_y
_atom_site_fract_z
Si Si1 0.558083 0.000000 0.457965
Si Si2 0.060727 0.306409 0.675762
Si Si3 0.943669 0.694358 0.406507
Si Si4 0.072658 0.198536 0.246746
Si Si5 0.442049 0.000000 0.957985
Si Si6 0.441126 0.317448 0.910620
Si Si7 0.442146 0.194651 0.167172
O O1 0.500000 0.000000 0.500000
O O2 0.505242 0.832233 0.436264
O O3 0.750000 0.000000 0.457557
O O4 0.250000 0.294672 0.674592
O O5 0.015572 0.500000 0.678207
O O6 0.004277 0.249511 0.635020
O O7 0.007736 0.224820 0.713867
O O8 0.750000 0.692666 0.406656
O O9 0.991841 0.500000 0.412741
O O10 0.250000 0.268711 0.249911
O O11 0.000408 0.259101 0.207622
O O12 0.083347 0.000000 0.241173
O O13 0.497704 0.835598 0.935881
O O14 0.250000 0.000000 0.957794
O O15 0.500000 0.000000 0.000000
O O16 0.250000 0.313171 0.910878
O O17 0.493243 0.500000 0.923972
O O18 0.496852 0.290997 0.868456
O O19 0.250000 0.200650 0.168283
O O20 0.489154 0.000000 0.162435
#
# Coordination Sequence:
#
# PCOD9403880 Si02
#       7
#     4   8   8   8   4   8   8
#     4  10  20  34  54  77 100 129 163 202 255 310
#     4   9  18  32  50  73  99 130 174 220 256 300
#     4   8  16  32  52  74 101 132 167 208 252 302
#     4   9  19  33  48  72 106 142 177 215 259 306
#     4  10  22  40  60  83 112 143 173 214 267 318
#     4  10  21  37  58  84 112 142 178 220 266 314
#     4   9  18  34  54  75 105 145 186 222 260 311
#
# _framework density 19.701070000000001
#
# number of rings (size 3 to 8) (size 9 to 14) (size 15 to 20)
#    0.000    2.833    0.833    2.000    1.167    3.667 
#    0.000    5.833    0.000    1.000    0.000    0.000 
#    0.000    0.000    0.000    0.000    0.000    0.000 
#
# Total GULP energy -267432.383132 kJ/mol
# GULP energy per Si atom -5571.507982 kJ/mol
# Density = 1.965623 g / cm^3
# Si number density = 19.701070 Si / 1000 Ang^3
#
#
#
# Elastic Constant Matrix: (Units=GPa)
#
#
# Indices 1 2 3 4 5 6 
#
# 1 -413.0789 90.0416 -284.9578 0.0000 0.0000 0.0000
# 2 90.0416 99.5590 144.0736 0.0000 0.0000 0.0000
# 3 -284.9578 144.0736 -31.5912 0.0000 0.0000 0.0000
# 4 0.0000 0.0000 0.0000 -15.4172 0.0000 0.0000
# 5 0.0000 0.0000 0.0000 0.0000 31.1944 0.0000
# 6 0.0000 0.0000 0.0000 0.0000 0.0000 2.0026
#
#
#
# Elastic Compliance Matrix: (Units=1/GPa)
#
#
# Indices 1 2 3 4 5 6 
#
# 1 0.004470 0.007145 -0.007731 0.000000 0.000000 0.000000
# 2 0.007145 0.012744 -0.006331 0.000000 0.000000 0.000000
# 3 -0.007731 -0.006331 0.009206 0.000000 0.000000 0.000000
# 4 0.000000 0.000000 0.000000 -0.064863 0.000000 0.000000
# 5 0.000000 0.000000 0.000000 0.000000 0.032057 0.000000
# 6 0.000000 0.000000 0.000000 0.000000 0.000000 0.499340
#
#
# Mechanical properties :
#
#
# Convention : Reuss Voigt Hill
#
# Bulk Modulus (GPa) = 79.45060 -49.64401 14.90330
# Shear Modulus (GPa) = 9.78509 -16.06193 -3.13842
#
# Velocity S-wave (km/s) = 2.23105 -2.85841 -1.26352
# Velocity P-wave (km/s) = 6.85947 6.01227 2.33506
#
# Compressibility (1/GPa) = 0.01258644
#
# Stress axis : x y z
#
# Youngs Moduli (GPa) = 223.73802 78.47072 108.62338
#
# Poissons Ratio (x) = -0.56067 0.83973
# Poissons Ratio (y) = -1.59860 0.68766
# Poissons Ratio (z) = 1.72965 0.49677
#
# Static dielectric constant tensor:
#      x y z
#    x 1.693930 0.000000 0.000000 
#    y 0.000000 1.705100 0.000000 
#    z 0.000000 0.000000 1.652960 
# 
# From -- ./inp_files/37093.got.cif
#   From: 2010.05.17/outbox.cif.g08.bks.cpg/sg51_19_cif.got.tgz:37093.got - 2010.06.03 11:52:47.
