data_PCOD9403694
_publ_section_title
;
Structure prediction by ZEFSAII (Michael W. Deem and Ramdas Pophale) SiO2 
 PCOD9403694
Probable space group: P M M A
;
_chemical_formula_sum "Si O2"
_cell_formula_units_Z 40
_cell_length_a 8.452709
_cell_length_b 26.343867
_cell_length_c 9.828378
_cell_angle_alpha 90.000000
_cell_angle_beta 90.000000
_cell_angle_gamma 90.000000
_cell_volume 2188.554138
_symmetry_space_group_name_H-M "P M M A"
_symmetry_group_IT_number 51
_symmetry_cell_setting 'orthorhombic'
loop_
_space_group_symop_operation_xyz
x,y,z
1/2-x,-y,z
1/2+x,-y,-z
-x,y,-z
-x,-y,-z
1/2+x,y,-z
1/2-x,y,z
x,-y,z
loop_
_atom_site_type_symbol
_atom_site_label
_atom_site_fract_x
_atom_site_fract_y
_atom_site_fract_z
Si Si1 0.558870 0.408716 0.152549
Si Si2 0.441421 0.500000 0.654032
Si Si3 0.060199 0.907508 0.346296
Si Si4 0.441233 0.000000 0.154533
Si Si5 0.559996 0.796340 0.347307
Si Si6 0.059011 0.293789 0.848170
O O1 0.750000 0.409539 0.149471
O O2 0.505638 0.450456 0.261157
O O3 0.507583 0.351214 0.188158
O O4 0.500000 0.420286 0.000000
O O5 0.250000 0.500000 0.652423
O O6 0.500000 0.500000 0.500000
O O7 0.250000 0.907260 0.351073
O O8 0.000000 0.917567 0.500000
O O9 0.001308 0.851723 0.304179
O O10 0.007355 0.950587 0.240622
O O11 0.250000 0.000000 0.152117
O O12 0.500000 0.000000 0.000000
O O13 0.500000 0.788068 0.500000
O O14 0.750000 0.797552 0.347375
O O15 0.504341 0.750363 0.252361
O O16 0.250000 0.293550 0.847625
O O17 0.000000 0.283626 0.000000
#
# Coordination Sequence:
#
# PCOD9403694 Si02
#       6
#     8   4   8   4   8   8
#     4   9  18  34  53  74  99 131 169 209 249 298
#     4  10  21  34  50  74 104 132 165 208 254 300
#     4  10  20  36  56  78 102 133 171 208 247 298
#     4  10  23  38  54  78 106 134 167 206 252 300
#     4  10  20  34  52  76 103 134 169 207 249 296
#     4   9  19  34  52  74 102 133 168 207 251 298
#
# _framework density 18.276907000000001
#
# number of rings (size 3 to 8) (size 9 to 14) (size 15 to 20)
#    0.000    2.400    0.000    3.000    0.000    5.600 
#    0.000    4.000    0.000    0.000    0.000    0.000 
#    0.000    0.000    0.000    0.000    0.000    0.000 
#
# Total GULP energy -223208.993129 kJ/mol
# GULP energy per Si atom -5580.224828 kJ/mol
# Density = 1.823531 g / cm^3
# Si number density = 18.276907 Si / 1000 Ang^3
#
#
#
# Elastic Constant Matrix: (Units=GPa)
#
#
# Indices 1 2 3 4 5 6 
#
# 1 22.6359 30.1387 20.9862 0.0000 0.0000 0.0000
# 2 30.1387 197.8384 143.6734 0.0000 0.0000 0.0000
# 3 20.9862 143.6734 136.6620 0.0000 0.0000 0.0000
# 4 0.0000 0.0000 0.0000 39.9233 0.0000 0.0000
# 5 0.0000 0.0000 0.0000 0.0000 32.4796 0.0000
# 6 0.0000 0.0000 0.0000 0.0000 0.0000 23.7407
#
#
#
# Elastic Compliance Matrix: (Units=1/GPa)
#
#
# Indices 1 2 3 4 5 6 
#
# 1 0.055496 -0.009578 0.001547 0.000000 0.000000 0.000000
# 2 -0.009578 0.023023 -0.022734 0.000000 0.000000 0.000000
# 3 0.001547 -0.022734 0.030980 0.000000 0.000000 0.000000
# 4 0.000000 0.000000 0.000000 0.025048 0.000000 0.000000
# 5 0.000000 0.000000 0.000000 0.000000 0.030789 0.000000
# 6 0.000000 0.000000 0.000000 0.000000 0.000000 0.042122
#
#
# Mechanical properties :
#
#
# Convention : Reuss Voigt Hill
#
# Bulk Modulus (GPa) = 20.84644 82.97034 51.90839
# Shear Modulus (GPa) = 17.54538 30.05125 23.79831
#
# Velocity S-wave (km/s) = 3.10171 4.05930 3.61237
# Velocity P-wave (km/s) = 4.92525 8.21373 6.77213
#
# Compressibility (1/GPa) = 0.04796983
#
# Stress axis : x y z
#
# Youngs Moduli (GPa) = 18.01946 43.43448 32.27915
#
# Poissons Ratio (x) = 0.41599 -0.04993
# Poissons Ratio (y) = 0.17258 0.73382
# Poissons Ratio (z) = -0.02787 0.98742
#
# Static dielectric constant tensor:
#      x y z
#    x 1.629330 0.000000 0.000000 
#    y 0.000000 1.645820 0.000000 
#    z 0.000000 0.000000 1.584210 
# 
# From -- ./inp_files/5523.got.cif
#   From: 2010.05.17/outbox.cif.g08.bks.cpg/sg51_3_cif.got.tgz:5523.got - 2010.06.03 11:52:47.
