data_PCOD9403687
_publ_section_title
;
Structure prediction by ZEFSAII (Michael W. Deem and Ramdas Pophale) SiO2 
 PCOD9403687
Probable space group: P M M A
;
_chemical_formula_sum "Si O2"
_cell_formula_units_Z 48
_cell_length_a 8.799067
_cell_length_b 14.226996
_cell_length_c 19.743254
_cell_angle_alpha 90.000000
_cell_angle_beta 90.000000
_cell_angle_gamma 90.000000
_cell_volume 2471.545254
_symmetry_space_group_name_H-M "P M M A"
_symmetry_group_IT_number 51
_symmetry_cell_setting 'orthorhombic'
loop_
_space_group_symop_operation_xyz
x,y,z
1/2-x,-y,z
1/2+x,-y,-z
-x,y,-z
-x,-y,-z
1/2+x,y,-z
1/2-x,y,z
x,-y,z
loop_
_atom_site_type_symbol
_atom_site_label
_atom_site_fract_x
_atom_site_fract_y
_atom_site_fract_z
Si Si1 0.078732 0.112374 0.207005
Si Si2 0.568136 0.389705 0.784070
Si Si3 0.073103 0.236427 0.687625
Si Si4 0.927233 0.613735 0.071388
Si Si5 0.932256 0.106787 0.575278
Si Si6 0.423706 0.113958 0.930595
O O1 0.250000 0.145009 0.224080
O O2 0.956102 0.156349 0.256264
O O3 0.031714 0.139003 0.131411
O O4 0.078030 0.000000 0.212032
O O5 0.750000 0.382471 0.785442
O O6 0.527422 0.500000 0.775658
O O7 0.502343 0.327372 0.722876
O O8 0.504504 0.357437 0.857608
O O9 0.250000 0.253135 0.675646
O O10 0.996045 0.190215 0.621764
O O11 0.750000 0.638053 0.072708
O O12 0.939361 0.500000 0.071056
O O13 0.000000 0.645053 0.000000
O O14 0.750000 0.112260 0.573400
O O15 0.000000 0.113971 0.500000
O O16 0.971082 0.000000 0.600679
O O17 0.250000 0.146091 0.922530
O O18 0.418109 0.000000 0.931893
O O19 0.500000 0.144594 0.000000
#
# Coordination Sequence:
#
# PCOD9403687 Si02
#       6
#     8   8   8   8   8   8
#     4  10  20  34  52  75 105 141 181 226 275 327
#     4  10  21  38  59  82 111 150 196 245 296 348
#     4  12  24  37  57  85 117 151 187 229 279 337
#     4   9  16  28  49  77 108 143 186 237 294 353
#     4  10  21  39  64  94 127 160 193 230 274 328
#     4   9  16  27  44  66  94 132 178 224 271 325
#
# _framework density 19.421047000000002
#
# number of rings (size 3 to 8) (size 9 to 14) (size 15 to 20)
#    0.000    2.000    0.000    4.500    0.000    9.000 
#    0.000    0.833    0.000    0.500    0.000    0.000 
#    0.000    0.000    0.000    0.000    0.000    0.000 
#
# Total GULP energy -268115.454146 kJ/mol
# GULP energy per Si atom -5585.738628 kJ/mol
# Density = 1.937684 g / cm^3
# Si number density = 19.421047 Si / 1000 Ang^3
#
#
#
# Elastic Constant Matrix: (Units=GPa)
#
#
# Indices 1 2 3 4 5 6 
#
# 1 104.7970 34.1176 41.7528 0.0000 0.0000 0.0000
# 2 34.1176 120.5856 49.2523 0.0000 0.0000 0.0000
# 3 41.7528 49.2523 110.8374 0.0000 0.0000 0.0000
# 4 0.0000 0.0000 0.0000 57.4643 0.0000 0.0000
# 5 0.0000 0.0000 0.0000 0.0000 34.5103 0.0000
# 6 0.0000 0.0000 0.0000 0.0000 0.0000 16.3243
#
#
#
# Elastic Compliance Matrix: (Units=1/GPa)
#
#
# Indices 1 2 3 4 5 6 
#
# 1 0.011545 -0.001821 -0.003540 0.000000 0.000000 0.000000
# 2 -0.001821 0.010419 -0.003944 0.000000 0.000000 0.000000
# 3 -0.003540 -0.003944 0.012108 0.000000 0.000000 0.000000
# 4 0.000000 0.000000 0.000000 0.017402 0.000000 0.000000
# 5 0.000000 0.000000 0.000000 0.000000 0.028977 0.000000
# 6 0.000000 0.000000 0.000000 0.000000 0.000000 0.061258
#
#
# Mechanical properties :
#
#
# Convention : Reuss Voigt Hill
#
# Bulk Modulus (GPa) = 64.66978 65.16282 64.91630
# Shear Modulus (GPa) = 30.21625 35.73294 32.97459
#
# Velocity S-wave (km/s) = 3.94871 4.29407 4.12500
# Velocity P-wave (km/s) = 7.35940 7.62961 7.49572
#
# Compressibility (1/GPa) = 0.01546317
#
# Stress axis : x y z
#
# Youngs Moduli (GPa) = 86.61430 95.97985 82.58747
#
# Poissons Ratio (x) = 0.17474 0.29237
# Poissons Ratio (y) = 0.15769 0.32572
# Poissons Ratio (z) = 0.30663 0.37854
#
# Static dielectric constant tensor:
#      x y z
#    x 1.670210 0.000000 0.000000 
#    y 0.000000 1.740510 0.000000 
#    z 0.000000 0.000000 1.554820 
# 
# From -- ./inp_files/27600.got.cif
#   From: 2010.05.17/outbox.cif.g08.bks.cpg/sg51_14_cif.got.tgz:27600.got - 2010.06.03 11:52:47.
