data_PCOD9403957
_publ_section_title
;
Structure prediction by ZEFSAII (Michael W. Deem and Ramdas Pophale) SiO2 
 PCOD9403957
Probable space group: P M M A
;
_chemical_formula_sum "Si O2"
_cell_formula_units_Z 64
_cell_length_a 19.056050
_cell_length_b 8.740744
_cell_length_c 21.699239
_cell_angle_alpha 90.000000
_cell_angle_beta 90.000000
_cell_angle_gamma 90.000000
_cell_volume 3614.313232
_symmetry_space_group_name_H-M "P M M A"
_symmetry_group_IT_number 51
_symmetry_cell_setting 'orthorhombic'
loop_
_space_group_symop_operation_xyz
x,y,z
1/2-x,-y,z
1/2+x,-y,-z
-x,y,-z
-x,-y,-z
1/2+x,y,-z
1/2-x,y,z
x,-y,z
loop_
_atom_site_type_symbol
_atom_site_label
_atom_site_fract_x
_atom_site_fract_y
_atom_site_fract_z
Si Si1 0.830418 0.317002 0.247392
Si Si2 0.668917 0.686553 0.879456
Si Si3 0.329629 0.315614 0.377345
Si Si4 0.918393 0.314999 0.000047
Si Si5 0.536729 0.182918 0.309039
Si Si6 0.402140 0.684686 0.248638
Si Si7 0.463979 0.815532 0.436779
Si Si8 0.668192 0.182130 0.112891
O O1 0.750000 0.270319 0.261116
O O2 0.834005 0.500000 0.248313
O O3 0.887518 0.248272 0.293052
O O4 0.847278 0.258023 0.178699
O O5 0.750000 0.736797 0.883994
O O6 0.669703 0.500000 0.878994
O O7 0.633412 0.734669 0.815122
O O8 0.622672 0.733936 0.938165
O O9 0.250000 0.264316 0.388064
O O10 0.331336 0.500000 0.380688
O O11 0.354801 0.273502 0.308072
O O12 0.386608 0.249060 0.424208
O O13 0.915256 0.500000 0.002857
O O14 0.879837 0.247750 0.059287
O O15 0.000000 0.270247 0.000000
O O16 0.478646 0.246440 0.261431
O O17 0.509994 0.228995 0.377044
O O18 0.537725 0.000000 0.305686
O O19 0.407839 0.500000 0.247475
O O20 0.500000 0.763686 0.500000
O O21 0.460003 0.000000 0.437886
O O22 0.750000 0.215238 0.098393
O O23 0.659916 0.000000 0.118114
#
# Coordination Sequence:
#
# PCOD9403957 Si02
#       8
#     8   8   8   8   8   8   8   8
#     4  10  21  37  58  81 104 134 174 219 267 320
#     4   9  17  30  49  72  99 134 174 214 256 305
#     4   9  17  30  50  78 108 136 173 221 267 309
#     4  10  21  34  50  75 105 138 178 221 262 309
#     4  10  20  34  54  80 108 137 170 212 261 308
#     4   9  17  30  51  76 102 136 174 213 258 311
#     4   9  19  36  55  76 106 145 184 216 251 305
#     4  10  21  37  56  77 102 135 174 219 272 321
#
# _framework density 17.707376
#
# number of rings (size 3 to 8) (size 9 to 14) (size 15 to 20)
#    0.000    2.500    0.000    1.875    1.750    4.750 
#    0.000    1.250    0.000    5.625    0.000    0.000 
#    0.000    0.000    0.000    0.000    0.000    0.000 
#
# Total GULP energy -357120.769985 kJ/mol
# GULP energy per Si atom -5580.012031 kJ/mol
# Density = 1.766707 g / cm^3
# Si number density = 17.707376 Si / 1000 Ang^3
#
#
#
# Elastic Constant Matrix: (Units=GPa)
#
#
# Indices 1 2 3 4 5 6 
#
# 1 153.4306 35.0398 95.5964 0.0000 0.0000 0.0000
# 2 35.0398 14.0570 24.1805 0.0000 0.0000 0.0000
# 3 95.5964 24.1805 95.6270 0.0000 0.0000 0.0000
# 4 0.0000 0.0000 0.0000 22.5070 0.0000 0.0000
# 5 0.0000 0.0000 0.0000 0.0000 28.4138 0.0000
# 6 0.0000 0.0000 0.0000 0.0000 0.0000 7.8700
#
#
#
# Elastic Compliance Matrix: (Units=1/GPa)
#
#
# Indices 1 2 3 4 5 6 
#
# 1 0.023258 -0.031821 -0.015204 0.000000 0.000000 0.000000
# 2 -0.031821 0.169439 -0.011034 0.000000 0.000000 0.000000
# 3 -0.015204 -0.011034 0.028446 0.000000 0.000000 0.000000
# 4 0.000000 0.000000 0.000000 0.044431 0.000000 0.000000
# 5 0.000000 0.000000 0.000000 0.000000 0.035194 0.000000
# 6 0.000000 0.000000 0.000000 0.000000 0.000000 0.127065
#
#
# Mechanical properties :
#
#
# Convention : Reuss Voigt Hill
#
# Bulk Modulus (GPa) = 9.52154 63.63867 36.58010
# Shear Modulus (GPa) = 8.63620 18.97801 13.80711
#
# Velocity S-wave (km/s) = 2.21083 3.27732 2.79541
# Velocity P-wave (km/s) = 3.45049 7.09494 5.57871
#
# Compressibility (1/GPa) = 0.10502504
#
# Stress axis : x y z
#
# Youngs Moduli (GPa) = 42.99676 5.90184 35.15378
#
# Poissons Ratio (x) = 0.18780 0.53447
# Poissons Ratio (y) = 1.36818 0.38790
# Poissons Ratio (z) = 0.65372 0.06512
#
# Static dielectric constant tensor:
#      x y z
#    x 1.593900 0.000000 0.000000 
#    y 0.000000 1.595100 0.000000 
#    z 0.000000 0.000000 1.583560 
# 
# From -- ./inp_files/33797.got.cif
#   From: 2010.05.17/outbox.cif.g08.bks.cpg/sg51_17_cif.got.tgz:33797.got - 2010.06.03 11:52:47.
