data_PCOD9403269
_publ_section_title
;
Structure prediction by ZEFSAII (Michael W. Deem and Ramdas Pophale) SiO2 
 PCOD9403269
Probable space group: P M M A
;
_chemical_formula_sum "Si O2"
_cell_formula_units_Z 40
_cell_length_a 10.349222
_cell_length_b 25.090461
_cell_length_c 8.627568
_cell_angle_alpha 90.000000
_cell_angle_beta 90.000000
_cell_angle_gamma 90.000000
_cell_volume 2240.292551
_symmetry_space_group_name_H-M "P M M A"
_symmetry_group_IT_number 51
_symmetry_cell_setting 'orthorhombic'
loop_
_space_group_symop_operation_xyz
x,y,z
1/2-x,-y,z
1/2+x,-y,-z
-x,y,-z
-x,-y,-z
1/2+x,y,-z
1/2-x,y,z
x,-y,z
loop_
_atom_site_type_symbol
_atom_site_label
_atom_site_fract_x
_atom_site_fract_y
_atom_site_fract_z
Si Si1 0.250000 0.937392 0.196314
Si Si2 0.750000 0.939585 0.182464
Si Si3 0.902907 0.239496 0.144396
Si Si4 0.399461 0.561537 0.862031
Si Si5 0.496062 0.126842 0.810615
Si Si6 0.103419 0.658596 0.633221
O O1 0.125348 0.902686 0.242817
O O2 0.250000 0.000000 0.245303
O O3 0.250000 0.939177 0.006827
O O4 0.623633 0.909310 0.236330
O O5 0.750000 0.000000 0.233908
O O6 0.750000 0.228530 0.101906
O O7 0.904085 0.291819 0.249181
O O8 0.962284 0.187660 0.230694
O O9 0.000000 0.248244 0.000000
O O10 0.250000 0.567940 0.915047
O O11 0.414766 0.500000 0.810805
O O12 0.420570 0.604214 0.727613
O O13 0.500000 0.571087 0.000000
O O14 0.500000 0.127639 0.000000
O O15 0.250000 0.656711 0.571267
O O16 0.000000 0.665076 0.500000
#
# Coordination Sequence:
#
# PCOD9403269 Si02
#       6
#     4   4   8   8   8   8
#     4   9  16  24  36  58  91 127 160 197 246 305
#     4   9  14  22  36  56  87 125 156 191 244 305
#     4  10  20  33  51  73 100 133 173 218 260 309
#     4   9  18  34  57  84 113 143 177 216 257 305
#     4   9  16  25  38  60  90 124 162 201 246 306
#     4  10  22  38  53  76 108 140 178 220 262 308
#
# _framework density 17.854810000000001
#
# number of rings (size 3 to 8) (size 9 to 14) (size 15 to 20)
#    0.000    2.600    1.000    1.200    4.200    4.400 
#    0.000    0.000    0.000    0.000    0.000    0.000 
#    0.000    4.800    0.000    0.000    0.000    0.000 
#
# Total GULP energy -222858.674152 kJ/mol
# GULP energy per Si atom -5571.466854 kJ/mol
# Density = 1.781417 g / cm^3
# Si number density = 17.854810 Si / 1000 Ang^3
#
#
#
# Elastic Constant Matrix: (Units=GPa)
#
#
# Indices 1 2 3 4 5 6 
#
# 1 154.3882 71.9663 44.5282 0.0000 0.0000 0.0000
# 2 71.9663 105.9074 33.8342 0.0000 0.0000 0.0000
# 3 44.5282 33.8342 25.0307 0.0000 0.0000 0.0000
# 4 0.0000 0.0000 0.0000 -6.9382 0.0000 0.0000
# 5 0.0000 0.0000 0.0000 0.0000 3.6519 0.0000
# 6 0.0000 0.0000 0.0000 0.0000 0.0000 33.2517
#
#
#
# Elastic Compliance Matrix: (Units=1/GPa)
#
#
# Indices 1 2 3 4 5 6 
#
# 1 0.013723 -0.002686 -0.020782 0.000000 0.000000 0.000000
# 2 -0.002686 0.017144 -0.018396 0.000000 0.000000 0.000000
# 3 -0.020782 -0.018396 0.101788 0.000000 0.000000 0.000000
# 4 0.000000 0.000000 0.000000 -0.144129 0.000000 0.000000
# 5 0.000000 0.000000 0.000000 0.000000 0.273832 0.000000
# 6 0.000000 0.000000 0.000000 0.000000 0.000000 0.030074
#
#
# Mechanical properties :
#
#
# Convention : Reuss Voigt Hill
#
# Bulk Modulus (GPa) = 20.43875 65.10929 42.77402
# Shear Modulus (GPa) = 12.73987 14.99290 13.86639
#
# Velocity S-wave (km/s) = 2.67409 2.90092 2.78981
# Velocity P-wave (km/s) = 4.58327 6.91127 5.86396
#
# Compressibility (1/GPa) = 0.04892668
#
# Stress axis : x y z
#
# Youngs Moduli (GPa) = 72.86991 58.32836 9.82439
#
# Poissons Ratio (x) = 0.15666 0.20417
# Poissons Ratio (y) = 0.19572 0.18073
# Poissons Ratio (z) = 1.51439 1.07302
#
# Static dielectric constant tensor:
#      x y z
#    x 1.629510 0.000000 0.000000 
#    y 0.000000 1.615920 0.000000 
#    z 0.000000 0.000000 1.576470 
# 
# From -- ./inp_files/5528.got.cif
#   From: 2010.05.17/outbox.cif.g08.bks.cpg/sg51_3_cif.got.tgz:5528.got - 2010.06.03 11:52:47.
