data_PCOD9403453
_publ_section_title
;
Structure prediction by ZEFSAII (Michael W. Deem and Ramdas Pophale) SiO2 
 PCOD9403453
Probable space group: P M M A
;
_chemical_formula_sum "Si O2"
_cell_formula_units_Z 64
_cell_length_a 18.822241
_cell_length_b 8.791069
_cell_length_c 21.936028
_cell_angle_alpha 90.000000
_cell_angle_beta 90.000000
_cell_angle_gamma 90.000000
_cell_volume 3629.702331
_symmetry_space_group_name_H-M "P M M A"
_symmetry_group_IT_number 51
_symmetry_cell_setting 'orthorhombic'
loop_
_space_group_symop_operation_xyz
x,y,z
1/2-x,-y,z
1/2+x,-y,-z
-x,y,-z
-x,-y,-z
1/2+x,y,-z
1/2-x,y,z
x,-y,z
loop_
_atom_site_type_symbol
_atom_site_label
_atom_site_fract_x
_atom_site_fract_y
_atom_site_fract_z
Si Si1 0.473829 0.316518 0.434094
Si Si2 0.463328 0.817242 0.686920
Si Si3 0.110580 0.182035 0.250039
Si Si4 0.831645 0.816687 0.232694
Si Si5 0.334666 0.322088 0.899231
Si Si6 0.170997 0.316783 0.372777
Si Si7 0.081609 0.181426 0.010250
Si Si8 0.667086 0.317491 0.876236
O O1 0.500000 0.262473 0.500000
O O2 0.476723 0.500000 0.433949
O O3 0.520830 0.256173 0.378233
O O4 0.392881 0.271081 0.417659
O O5 0.529105 0.778666 0.731964
O O6 0.389162 0.770756 0.717090
O O7 0.463771 0.000000 0.680017
O O8 0.156031 0.242245 0.307243
O O9 0.136875 0.255293 0.187532
O O10 0.116221 0.000000 0.245728
O O11 0.750000 0.777679 0.248236
O O12 0.849574 0.740665 0.168164
O O13 0.835583 0.000000 0.225666
O O14 0.250000 0.307598 0.909083
O O15 0.353233 0.500000 0.903616
O O16 0.375362 0.228463 0.950243
O O17 0.250000 0.276952 0.394264
O O18 0.167487 0.500000 0.365538
O O19 0.119454 0.256645 0.068336
O O20 0.082688 0.000000 0.018539
O O21 0.000000 0.229704 0.000000
O O22 0.750000 0.271009 0.883515
O O23 0.664881 0.500000 0.875835
#
# Coordination Sequence:
#
# PCOD9403453 Si02
#       8
#     8   8   8   8   8   8   8   8
#     4   9  18  33  52  75 104 139 177 214 257 310
#     4   9  19  34  53  78 107 138 174 216 259 307
#     4  10  20  33  52  79 109 138 171 216 264 312
#     4   9  18  34  56  79 105 139 177 218 264 313
#     4  10  21  37  57  81 107 136 174 220 268 319
#     4   9  17  31  51  74 102 137 177 217 257 307
#     4  11  25  41  57  78 105 138 178 222 265 315
#     4  11  24  40  57  79 108 140 175 216 264 319
#
# _framework density 17.632300000000001
#
# number of rings (size 3 to 8) (size 9 to 14) (size 15 to 20)
#    0.000    2.250    0.000    2.250    1.750    7.250 
#    0.000    0.625    0.000    0.750    0.000    0.000 
#    0.000    0.000    0.000    0.000    0.000    0.000 
#
# Total GULP energy -357214.951326 kJ/mol
# GULP energy per Si atom -5581.483614 kJ/mol
# Density = 1.759217 g / cm^3
# Si number density = 17.632300 Si / 1000 Ang^3
#
#
#
# Elastic Constant Matrix: (Units=GPa)
#
#
# Indices 1 2 3 4 5 6 
#
# 1 113.1079 37.1656 105.5646 0.0000 0.0000 0.0000
# 2 37.1656 25.6741 36.6523 0.0000 0.0000 0.0000
# 3 105.5646 36.6523 142.6912 0.0000 0.0000 0.0000
# 4 0.0000 0.0000 0.0000 35.0051 0.0000 0.0000
# 5 0.0000 0.0000 0.0000 0.0000 20.5759 0.0000
# 6 0.0000 0.0000 0.0000 0.0000 0.0000 22.2427
#
#
#
# Elastic Compliance Matrix: (Units=1/GPa)
#
#
# Indices 1 2 3 4 5 6 
#
# 1 0.034724 -0.021463 -0.020176 0.000000 0.000000 0.000000
# 2 -0.021463 0.074768 -0.003327 0.000000 0.000000 0.000000
# 3 -0.020176 -0.003327 0.022789 0.000000 0.000000 0.000000
# 4 0.000000 0.000000 0.000000 0.028567 0.000000 0.000000
# 5 0.000000 0.000000 0.000000 0.000000 0.048601 0.000000
# 6 0.000000 0.000000 0.000000 0.000000 0.000000 0.044959
#
#
# Mechanical properties :
#
#
# Convention : Reuss Voigt Hill
#
# Bulk Modulus (GPa) = 23.61276 71.13759 47.37518
# Shear Modulus (GPa) = 13.94866 22.37079 18.15972
#
# Velocity S-wave (km/s) = 2.81568 3.56580 3.21271
# Velocity P-wave (km/s) = 4.89812 7.57535 6.37877
#
# Compressibility (1/GPa) = 0.04234998
#
# Stress axis : x y z
#
# Youngs Moduli (GPa) = 28.79832 13.37462 43.87993
#
# Poissons Ratio (x) = 0.28706 0.88534
# Poissons Ratio (y) = 0.61809 0.14599
# Poissons Ratio (z) = 0.58105 0.04450
#
# Static dielectric constant tensor:
#      x y z
#    x 1.597720 0.000000 0.000000 
#    y 0.000000 1.594740 0.000000 
#    z 0.000000 0.000000 1.555400 
# 
# From -- ./inp_files/33749.got.cif
#   From: 2010.05.17/outbox.cif.g08.bks.cpg/sg51_17_cif.got.tgz:33749.got - 2010.06.03 11:52:47.
