data_PCOD9403989
_publ_section_title
;
Structure prediction by ZEFSAII (Michael W. Deem and Ramdas Pophale) SiO2 
 PCOD9403989
Probable space group: P M M A
;
_chemical_formula_sum "Si O2"
_cell_formula_units_Z 52
_cell_length_a 8.539400
_cell_length_b 13.533714
_cell_length_c 23.042862
_cell_angle_alpha 90.000000
_cell_angle_beta 90.000000
_cell_angle_gamma 90.000000
_cell_volume 2663.058891
_symmetry_space_group_name_H-M "P M M A"
_symmetry_group_IT_number 51
_symmetry_cell_setting 'orthorhombic'
loop_
_space_group_symop_operation_xyz
x,y,z
1/2-x,-y,z
1/2+x,-y,-z
-x,y,-z
-x,-y,-z
1/2+x,y,-z
1/2-x,y,z
x,-y,z
loop_
_atom_site_type_symbol
_atom_site_label
_atom_site_fract_x
_atom_site_fract_y
_atom_site_fract_z
Si Si1 0.438099 0.189581 0.133287
Si Si2 0.560691 0.387460 0.934302
Si Si3 0.559543 0.606295 0.317100
Si Si4 0.563383 0.306079 0.437558
Si Si5 0.938404 0.189781 0.261887
Si Si6 0.062962 0.000000 0.935162
Si Si7 0.937392 0.109825 0.619029
O O1 0.250000 0.188825 0.133046
O O2 0.489968 0.296471 0.107025
O O3 0.498593 0.170222 0.198204
O O4 0.500621 0.099246 0.095136
O O5 0.750000 0.386357 0.935597
O O6 0.511997 0.500000 0.916910
O O7 0.500000 0.371020 0.000000
O O8 0.750000 0.606052 0.317026
O O9 0.503449 0.500000 0.296785
O O10 0.510106 0.626994 0.383381
O O11 0.511957 0.698489 0.278508
O O12 0.500000 0.335134 0.500000
O O13 0.750000 0.309086 0.439201
O O14 0.510678 0.195732 0.420012
O O15 0.750000 0.182425 0.262833
O O16 0.005134 0.125210 0.314757
O O17 0.250000 0.000000 0.933690
O O18 0.000000 0.000000 0.000000
O O19 0.750000 0.119291 0.617621
O O20 0.981587 0.000000 0.599402
#
# Coordination Sequence:
#
# PCOD9403989 Si02
#       7
#     8   8   8   8   8   4   8
#     4  11  23  39  60  86 119 156 196 240 286 343
#     4   9  19  36  58  84 114 149 188 233 284 338
#     4   8  16  33  55  79 110 148 188 231 281 334
#     4  10  20  34  54  80 111 145 184 231 280 336
#     4  10  21  36  56  83 113 146 185 231 280 332
#     4  12  26  44  64  88 120 156 197 244 295 352
#     4  10  21  37  57  78 104 141 182 229 283 338
#
# _framework density 19.526416999999999
#
# number of rings (size 3 to 8) (size 9 to 14) (size 15 to 20)
#    0.000    2.154    0.000    3.923    1.077    4.923 
#    0.000    0.000    0.000   15.692    0.000    0.000 
#    0.000    0.000    0.000    0.000    0.000    0.000 
#
# Total GULP energy -290280.681399 kJ/mol
# GULP energy per Si atom -5582.320796 kJ/mol
# Density = 1.948197 g / cm^3
# Si number density = 19.526417 Si / 1000 Ang^3
#
#
#
# Elastic Constant Matrix: (Units=GPa)
#
#
# Indices 1 2 3 4 5 6 
#
# 1 35.3153 0.6787 0.7657 0.0000 0.0000 0.0000
# 2 0.6787 59.1734 -10.2890 0.0000 0.0000 0.0000
# 3 0.7657 -10.2890 68.5917 0.0000 0.0000 0.0000
# 4 0.0000 0.0000 0.0000 2.7699 0.0000 0.0000
# 5 0.0000 0.0000 0.0000 0.0000 33.3344 0.0000
# 6 0.0000 0.0000 0.0000 0.0000 0.0000 11.2590
#
#
#
# Elastic Compliance Matrix: (Units=1/GPa)
#
#
# Indices 1 2 3 4 5 6 
#
# 1 0.028332 -0.000390 -0.000375 0.000000 0.000000 0.000000
# 2 -0.000390 0.017357 0.002608 0.000000 0.000000 0.000000
# 3 -0.000375 0.002608 0.014974 0.000000 0.000000 0.000000
# 4 0.000000 0.000000 0.000000 0.361023 0.000000 0.000000
# 5 0.000000 0.000000 0.000000 0.000000 0.029999 0.000000
# 6 0.000000 0.000000 0.000000 0.000000 0.000000 0.088818
#
#
# Mechanical properties :
#
#
# Convention : Reuss Voigt Hill
#
# Bulk Modulus (GPa) = 15.54000 16.15458 15.84729
# Shear Modulus (GPa) = 8.95629 20.93432 14.94530
#
# Velocity S-wave (km/s) = 2.14399 3.27785 2.76957
# Velocity P-wave (km/s) = 3.75562 4.75572 4.28495
#
# Compressibility (1/GPa) = 0.06435006
#
# Stress axis : x y z
#
# Youngs Moduli (GPa) = 35.29578 57.61222 66.78054
#
# Poissons Ratio (x) = 0.02248 0.02503
# Poissons Ratio (y) = 0.01377 -0.17417
# Poissons Ratio (z) = 0.01323 -0.15025
#
# Static dielectric constant tensor:
#      x y z
#    x 1.661710 0.000000 0.000000 
#    y 0.000000 1.697310 0.000000 
#    z 0.000000 0.000000 1.648130 
# 
# From -- ./inp_files/31731.got.cif
#   From: 2010.05.17/outbox.cif.g08.bks.cpg/sg51_16_cif.got.tgz:31731.got - 2010.06.03 11:52:47.
