data_PCOD9403831
_publ_section_title
;
Structure prediction by ZEFSAII (Michael W. Deem and Ramdas Pophale) SiO2 
 PCOD9403831
Probable space group: P M M A
;
_chemical_formula_sum "Si O2"
_cell_formula_units_Z 64
_cell_length_a 32.181552
_cell_length_b 7.716161
_cell_length_c 12.511613
_cell_angle_alpha 90.000000
_cell_angle_beta 90.000000
_cell_angle_gamma 90.000000
_cell_volume 3106.859173
_symmetry_space_group_name_H-M "P M M A"
_symmetry_group_IT_number 51
_symmetry_cell_setting 'orthorhombic'
loop_
_space_group_symop_operation_xyz
x,y,z
1/2-x,-y,z
1/2+x,-y,-z
-x,y,-z
-x,-y,-z
1/2+x,y,-z
1/2-x,y,z
x,-y,z
loop_
_atom_site_type_symbol
_atom_site_label
_atom_site_fract_x
_atom_site_fract_y
_atom_site_fract_z
Si Si1 0.203083 0.294840 0.004467
Si Si2 0.453172 0.797896 0.998900
Si Si3 0.384793 0.200327 0.373539
Si Si4 0.020303 0.289836 0.385816
Si Si5 0.796555 0.790721 0.241594
Si Si6 0.629603 0.789534 0.391651
Si Si7 0.553431 0.294992 0.238090
Si Si8 0.377066 0.794003 0.140397
O O1 0.250000 0.225241 0.025975
O O2 0.204478 0.500000 0.021119
O O3 0.193857 0.260685 0.879848
O O4 0.165203 0.226094 0.074277
O O5 0.437786 0.787650 0.876469
O O6 0.457757 0.000000 0.028422
O O7 0.500000 0.720929 0.000000
O O8 0.417494 0.723279 0.076644
O O9 0.434685 0.208764 0.375718
O O10 0.370707 0.276988 0.486902
O O11 0.372218 0.279704 0.259882
O O12 0.370673 0.000000 0.374106
O O13 0.024061 0.500000 0.382817
O O14 0.000000 0.244809 0.500000
O O15 0.989780 0.234367 0.290504
O O16 0.750000 0.729435 0.266409
O O17 0.830854 0.728782 0.324324
O O18 0.796529 0.000000 0.245122
O O19 0.588773 0.737665 0.325858
O O20 0.629682 0.000000 0.394995
O O21 0.550444 0.500000 0.220317
O O22 0.384369 0.000000 0.152158
#
# Coordination Sequence:
#
# PCOD9403831 Si02
#       8
#     8   8   8   8   8   8   8   8
#     4  10  21  37  58  84 110 138 178 225 271 323
#     4  10  21  37  55  76 108 145 180 222 271 322
#     4  10  21  36  55  79 106 140 184 224 260 313
#     4  10  20  35  51  72 105 142 180 219 264 313
#     4   9  18  34  56  80 107 137 166 205 262 319
#     4  10  20  34  53  79 107 134 170 214 259 309
#     4  11  22  34  52  77 105 136 175 220 263 312
#     4  10  21  37  56  80 110 145 184 225 273 326
#
# _framework density 20.599582999999999
#
# number of rings (size 3 to 8) (size 9 to 14) (size 15 to 20)
#    0.000    2.000    1.250    2.250    0.000    7.750 
#    0.000    0.625    0.000    2.250    0.000    1.750 
#    0.000    0.000    0.000    0.000    0.000    0.000 
#
# Total GULP energy -357411.057615 kJ/mol
# GULP energy per Si atom -5584.547775 kJ/mol
# Density = 2.055270 g / cm^3
# Si number density = 20.599583 Si / 1000 Ang^3
#
#
#
# Elastic Constant Matrix: (Units=GPa)
#
#
# Indices 1 2 3 4 5 6 
#
# 1 101.4673 -3.3210 71.1118 0.0000 0.0000 0.0000
# 2 -3.3210 33.9913 -6.0171 0.0000 0.0000 0.0000
# 3 71.1118 -6.0171 130.9057 0.0000 0.0000 0.0000
# 4 0.0000 0.0000 0.0000 -103.3527 0.0000 0.0000
# 5 0.0000 0.0000 0.0000 0.0000 37.1159 0.0000
# 6 0.0000 0.0000 0.0000 0.0000 0.0000-1309.2365
#
#
#
# Elastic Compliance Matrix: (Units=1/GPa)
#
#
# Indices 1 2 3 4 5 6 
#
# 1 0.015914 0.000025 -0.008644 0.000000 0.000000 0.000000
# 2 0.000025 0.029661 0.001350 0.000000 0.000000 0.000000
# 3 -0.008644 0.001350 0.012397 0.000000 0.000000 0.000000
# 4 0.000000 0.000000 0.000000 -0.009676 0.000000 0.000000
# 5 0.000000 0.000000 0.000000 0.000000 0.026943 0.000000
# 6 0.000000 0.000000 0.000000 0.000000 0.000000 -0.000764
#
#
# Mechanical properties :
#
#
# Convention : Reuss Voigt Hill
#
# Bulk Modulus (GPa) = 23.02393 43.32353 33.17373
# Shear Modulus (GPa) = 48.31336 -261.45528 -106.57096
#
# Velocity S-wave (km/s) = 4.84814 -11.27822 -7.20047
# Velocity P-wave (km/s) = 6.52230 12.18690 7.27943
#
# Compressibility (1/GPa) = 0.04343307
#
# Stress axis : x y z
#
# Youngs Moduli (GPa) = 62.83716 33.71466 80.66620
#
# Poissons Ratio (x) = -0.00083 0.69727
# Poissons Ratio (y) = -0.00155 -0.10890
# Poissons Ratio (z) = 0.54316 -0.04551
#
# Static dielectric constant tensor:
#      x y z
#    x 1.728390 0.000000 0.000000 
#    y 0.000000 1.760380 0.000000 
#    z 0.000000 0.000000 1.743720 
# 
# From -- ./inp_files/19486.got.cif
#   From: 2010.05.17/outbox.cif.g08.bks.cpg/sg51_10_cif.got.tgz:19486.got - 2010.06.03 11:52:47.
