data_PCOD9403039
_publ_section_title
;
Structure prediction by ZEFSAII (Michael W. Deem and Ramdas Pophale) SiO2 
 PCOD9403039
Probable space group: P M M A
;
_chemical_formula_sum "Si O2"
_cell_formula_units_Z 52
_cell_length_a 7.661086
_cell_length_b 23.490223
_cell_length_c 14.326950
_cell_angle_alpha 90.000000
_cell_angle_beta 90.000000
_cell_angle_gamma 90.000000
_cell_volume 2578.286784
_symmetry_space_group_name_H-M "P M M A"
_symmetry_group_IT_number 51
_symmetry_cell_setting 'orthorhombic'
loop_
_space_group_symop_operation_xyz
x,y,z
1/2-x,-y,z
1/2+x,-y,-z
-x,y,-z
-x,-y,-z
1/2+x,y,-z
1/2-x,y,z
x,-y,z
loop_
_atom_site_type_symbol
_atom_site_label
_atom_site_fract_x
_atom_site_fract_y
_atom_site_fract_z
Si Si1 0.539386 0.811743 0.390432
Si Si2 0.959837 0.062227 0.389417
Si Si3 0.054218 0.724347 0.757027
Si Si4 0.458689 0.500000 0.890380
Si Si5 0.041646 0.939057 0.889606
Si Si6 0.538919 0.625537 0.110520
Si Si7 0.947264 0.183804 0.891797
O O1 0.500000 0.805483 0.500000
O O2 0.750000 0.812207 0.378909
O O3 0.476149 0.874995 0.358920
O O4 0.471086 0.758435 0.329912
O O5 0.750000 0.062099 0.375081
O O6 0.000000 0.062134 0.500000
O O7 0.024295 0.000000 0.355155
O O8 0.250000 0.706332 0.728250
O O9 0.973195 0.672268 0.815515
O O10 0.064603 0.774272 0.833594
O O11 0.250000 0.500000 0.876183
O O12 0.523635 0.562220 0.860154
O O13 0.500000 0.500000 0.000000
O O14 0.250000 0.935586 0.877558
O O15 0.961779 0.880665 0.855562
O O16 0.981064 0.000000 0.852232
O O17 0.000000 0.940271 0.000000
O O18 0.750000 0.626549 0.114862
O O19 0.500000 0.636272 0.000000
O O20 0.750000 0.203948 0.883486
O O21 0.000000 0.183659 0.000000
#
# Coordination Sequence:
#
# PCOD9403039 Si02
#       7
#     8   8   8   4   8   8   8
#     4   9  18  32  49  67  90 118 151 193 237 283
#     4   8  13  23  41  63  83 105 135 174 224 278
#     4  10  20  33  47  67  95 125 156 191 232 279
#     4   8  14  26  44  68  95 124 156 188 225 270
#     4   9  16  27  44  63  83 112 151 193 235 277
#     4   9  17  29  47  70  98 128 157 190 228 272
#     4  11  21  32  47  66  91 122 154 191 232 278
#
# _framework density 20.168431999999999
#
# number of rings (size 3 to 8) (size 9 to 14) (size 15 to 20)
#    0.000    2.769    0.000    3.231    0.000    3.385 
#    0.000    0.769    0.000    2.769    0.000    2.692 
#    0.000    0.000    0.000    0.000    0.000    0.000 
#
# Total GULP energy -289653.418133 kJ/mol
# GULP energy per Si atom -5570.258041 kJ/mol
# Density = 2.012253 g / cm^3
# Si number density = 20.168432 Si / 1000 Ang^3
#
#
#
# Elastic Constant Matrix: (Units=GPa)
#
#
# Indices 1 2 3 4 5 6 
#
# 1 58.5651 1.9891 -2.8642 0.0000 0.0000 0.0000
# 2 1.9891 185.6147 62.5358 0.0000 0.0000 0.0000
# 3 -2.8642 62.5358 106.7543 0.0000 0.0000 0.0000
# 4 0.0000 0.0000 0.0000 61.6331 0.0000 0.0000
# 5 0.0000 0.0000 0.0000 0.0000 4.7024 0.0000
# 6 0.0000 0.0000 0.0000 0.0000 0.0000 -218.1460
#
#
#
# Elastic Compliance Matrix: (Units=1/GPa)
#
#
# Indices 1 2 3 4 5 6 
#
# 1 0.017124 -0.000421 0.000706 0.000000 0.000000 0.000000
# 2 -0.000421 0.006723 -0.003949 0.000000 0.000000 0.000000
# 3 0.000706 -0.003949 0.011700 0.000000 0.000000 0.000000
# 4 0.000000 0.000000 0.000000 0.016225 0.000000 0.000000
# 5 0.000000 0.000000 0.000000 0.000000 0.212656 0.000000
# 6 0.000000 0.000000 0.000000 0.000000 0.000000 -0.004584
#
#
# Mechanical properties :
#
#
# Convention : Reuss Voigt Hill
#
# Bulk Modulus (GPa) = 35.43935 52.69505 44.06720
# Shear Modulus (GPa) = 18.07812 -11.07719 3.50047
#
# Velocity S-wave (km/s) = 2.99717 -2.34612 1.31886
# Velocity P-wave (km/s) = 5.43941 4.34111 4.92100
#
# Compressibility (1/GPa) = 0.02821722
#
# Stress axis : x y z
#
# Youngs Moduli (GPa) = 58.39801 148.75187 85.47187
#
# Poissons Ratio (x) = 0.06269 -0.06037
# Poissons Ratio (y) = 0.02461 0.33756
# Poissons Ratio (z) = -0.04125 0.58747
#
# Static dielectric constant tensor:
#      x y z
#    x 80.015970 0.000000 0.000000 
#    y 0.000000 1.773330 0.000000 
#    z 0.000000 0.000000 1.726050 
# 
# From -- ./inp_files/22100.got.cif
#   From: 2010.05.17/outbox.cif.g08.bks.cpg/sg51_12_cif.got.tgz:22100.got - 2010.06.03 11:52:47.
