data_PCOD9403272
_publ_section_title
;
Structure prediction by ZEFSAII (Michael W. Deem and Ramdas Pophale) SiO2 
 PCOD9403272
Probable space group: P M M A
;
_chemical_formula_sum "Si O2"
_cell_formula_units_Z 64
_cell_length_a 30.461172
_cell_length_b 8.671151
_cell_length_c 15.398028
_cell_angle_alpha 90.000000
_cell_angle_beta 90.000000
_cell_angle_gamma 90.000000
_cell_volume 4067.133828
_symmetry_space_group_name_H-M "P M M A"
_symmetry_group_IT_number 51
_symmetry_cell_setting 'orthorhombic'
loop_
_space_group_symop_operation_xyz
x,y,z
1/2-x,-y,z
1/2+x,-y,-z
-x,y,-z
-x,-y,-z
1/2+x,y,-z
1/2-x,y,z
x,-y,z
loop_
_atom_site_type_symbol
_atom_site_label
_atom_site_fract_x
_atom_site_fract_y
_atom_site_fract_z
Si Si1 0.893588 0.315386 0.960894
Si Si2 0.200995 0.686168 0.985408
Si Si3 0.469056 0.187077 0.373668
Si Si4 0.884488 0.681744 0.291545
Si Si5 0.934477 0.813767 0.445661
Si Si6 0.538987 0.813523 0.823259
Si Si7 0.199664 0.182570 0.790915
Si Si8 0.939916 0.184822 0.132757
O O1 0.895496 0.500000 0.958592
O O2 0.922214 0.248541 0.882761
O O3 0.842173 0.268183 0.960761
O O4 0.915343 0.258619 0.050929
O O5 0.250000 0.729055 0.017858
O O6 0.200098 0.500000 0.976954
O O7 0.195793 0.758092 0.889767
O O8 0.518731 0.227489 0.401254
O O9 0.438099 0.234898 0.453701
O O10 0.458367 0.240543 0.276858
O O11 0.467996 0.000000 0.372201
O O12 0.890608 0.500000 0.282697
O O13 0.897638 0.737545 0.387067
O O14 0.835340 0.729210 0.266888
O O15 0.915734 0.765580 0.221125
O O16 0.930502 0.000000 0.442286
O O17 0.491109 0.769121 0.861023
O O18 0.540312 0.000000 0.823665
O O19 0.250000 0.208026 0.763810
O O20 0.190481 0.000000 0.789028
O O21 0.937935 0.000000 0.124727
#
# Coordination Sequence:
#
# PCOD9403272 Si02
#       8
#     8   8   8   8   8   8   8   8
#     4  11  22  33  47  71  99 130 164 202 249 295
#     4   9  18  33  50  68  94 126 159 198 246 293
#     4   8  15  30  52  73  92 122 165 206 244 280
#     4  12  22  31  47  73 104 134 161 196 247 299
#     4   9  16  31  53  72  93 124 163 203 239 288
#     4  10  20  34  50  69  95 132 171 205 243 286
#     4  10  20  33  51  73  95 124 164 204 241 288
#     4  11  21  34  50  67  94 134 175 206 233 281
#
# _framework density 15.735898000000001
#
# number of rings (size 3 to 8) (size 9 to 14) (size 15 to 20)
#    0.000    2.000    2.500    3.375    0.000    3.750 
#    0.000    1.875    0.000    0.000    0.000    0.875 
#    0.000    5.000    0.000    0.000    0.000    0.000 
#
# Total GULP energy -357006.291531 kJ/mol
# GULP energy per Si atom -5578.223305 kJ/mol
# Density = 1.570008 g / cm^3
# Si number density = 15.735898 Si / 1000 Ang^3
#
#
#
# Elastic Constant Matrix: (Units=GPa)
#
#
# Indices 1 2 3 4 5 6 
#
# 1 102.4859 23.3495 49.0049 0.0000 0.0000 0.0000
# 2 23.3495 15.4600 9.8823 0.0000 0.0000 0.0000
# 3 49.0049 9.8823 77.1153 0.0000 0.0000 0.0000
# 4 0.0000 0.0000 0.0000 -17.4682 0.0000 0.0000
# 5 0.0000 0.0000 0.0000 0.0000 23.1913 0.0000
# 6 0.0000 0.0000 0.0000 0.0000 0.0000 20.7197
#
#
#
# Elastic Compliance Matrix: (Units=1/GPa)
#
#
# Indices 1 2 3 4 5 6 
#
# 1 0.019679 -0.023666 -0.009473 0.000000 0.000000 0.000000
# 2 -0.023666 0.098916 0.002363 0.000000 0.000000 0.000000
# 3 -0.009473 0.002363 0.018684 0.000000 0.000000 0.000000
# 4 0.000000 0.000000 0.000000 -0.057247 0.000000 0.000000
# 5 0.000000 0.000000 0.000000 0.000000 0.043120 0.000000
# 6 0.000000 0.000000 0.000000 0.000000 0.000000 0.048263
#
#
# Mechanical properties :
#
#
# Convention : Reuss Voigt Hill
#
# Bulk Modulus (GPa) = 13.20517 39.94830 26.57673
# Shear Modulus (GPa) = 19.36420 12.81019 16.08720
#
# Velocity S-wave (km/s) = 3.51176 2.85629 3.20085
# Velocity P-wave (km/s) = 4.98530 6.02659 5.53051
#
# Compressibility (1/GPa) = 0.07572794
#
# Stress axis : x y z
#
# Youngs Moduli (GPa) = 50.81620 10.10961 53.52082
#
# Poissons Ratio (x) = 0.23926 0.50698
# Poissons Ratio (y) = 1.20262 -0.12648
# Poissons Ratio (z) = 0.48136 -0.02389
#
# Static dielectric constant tensor:
#      x y z
#    x 1.534600 0.000000 0.000000 
#    y 0.000000 1.530250 0.000000 
#    z 0.000000 0.000000 1.513010 
# 
# From -- ./inp_files/26634.got.cif
#   From: 2010.05.17/outbox.cif.g08.bks.cpg/sg51_14_cif.got.tgz:26634.got - 2010.06.03 11:52:47.
