data_PCOD9403390
_publ_section_title
;
Structure prediction by ZEFSAII (Michael W. Deem and Ramdas Pophale) SiO2 
 PCOD9403390
Probable space group: P M M A
;
_chemical_formula_sum "Si O2"
_cell_formula_units_Z 48
_cell_length_a 15.789968
_cell_length_b 9.042699
_cell_length_c 19.475676
_cell_angle_alpha 90.000000
_cell_angle_beta 90.000000
_cell_angle_gamma 90.000000
_cell_volume 2780.813517
_symmetry_space_group_name_H-M "P M M A"
_symmetry_group_IT_number 51
_symmetry_cell_setting 'orthorhombic'
loop_
_space_group_symop_operation_xyz
x,y,z
1/2-x,-y,z
1/2+x,-y,-z
-x,y,-z
-x,-y,-z
1/2+x,y,-z
1/2-x,y,z
x,-y,z
loop_
_atom_site_type_symbol
_atom_site_label
_atom_site_fract_x
_atom_site_fract_y
_atom_site_fract_z
Si Si1 0.250000 0.332723 0.454107
Si Si2 0.848575 0.175820 0.075972
Si Si3 0.346012 0.676897 0.072613
Si Si4 0.992559 0.322912 0.167057
Si Si5 0.750000 0.668867 0.712512
Si Si6 0.076362 0.822643 0.451246
Si Si7 0.926282 0.176896 0.709523
O O1 0.250000 0.500000 0.479502
O O2 0.250000 0.336871 0.370702
O O3 0.335463 0.249240 0.473659
O O4 0.750000 0.201304 0.094847
O O5 0.913160 0.257381 0.126267
O O6 0.864095 0.000000 0.076275
O O7 0.859518 0.239505 0.999167
O O8 0.250000 0.711029 0.097475
O O9 0.349526 0.500000 0.060235
O O10 0.421793 0.713391 0.124170
O O11 0.986670 0.500000 0.172350
O O12 0.004573 0.249235 0.241197
O O13 0.750000 0.500000 0.739215
O O14 0.664484 0.754255 0.730710
O O15 0.060498 0.786935 0.370992
O O16 0.000000 0.774715 0.500000
O O17 0.084362 0.000000 0.455483
O O18 0.924570 0.000000 0.716766
#
# Coordination Sequence:
#
# PCOD9403390 Si02
#       7
#     4   8   8   8   4   8   8
#     4   9  17  29  49  79 107 135 168 209 258 307
#     4  10  21  37  56  76 100 134 177 226 270 309
#     4   9  19  35  53  76 106 139 173 208 254 316
#     4  11  22  34  53  78 107 142 176 214 263 318
#     4   9  17  31  49  71 105 141 170 201 254 319
#     4   9  18  34  56  78 105 141 180 217 259 315
#     4  10  20  33  51  78 108 138 176 219 263 312
#
# _framework density 17.261136
#
# number of rings (size 3 to 8) (size 9 to 14) (size 15 to 20)
#    0.000    2.333    0.000    2.500    1.167    7.333 
#    0.000    0.000    1.833    0.000    0.000    0.000 
#    0.000    0.000    0.000    0.000    0.000    0.000 
#
# Total GULP energy -267887.489478 kJ/mol
# GULP energy per Si atom -5580.989364 kJ/mol
# Density = 1.722185 g / cm^3
# Si number density = 17.261136 Si / 1000 Ang^3
#
#
#
# Elastic Constant Matrix: (Units=GPa)
#
#
# Indices 1 2 3 4 5 6 
#
# 1 115.3982 59.5844 71.4258 0.0000 0.0000 0.0000
# 2 59.5844 61.8545 50.2698 0.0000 0.0000 0.0000
# 3 71.4258 50.2698 80.3154 0.0000 0.0000 0.0000
# 4 0.0000 0.0000 0.0000 23.4361 0.0000 0.0000
# 5 0.0000 0.0000 0.0000 0.0000 30.1128 0.0000
# 6 0.0000 0.0000 0.0000 0.0000 0.0000 19.1415
#
#
#
# Elastic Compliance Matrix: (Units=1/GPa)
#
#
# Indices 1 2 3 4 5 6 
#
# 1 0.022425 -0.010979 -0.013071 0.000000 0.000000 0.000000
# 2 -0.010979 0.038280 -0.014196 0.000000 0.000000 0.000000
# 3 -0.013071 -0.014196 0.032961 0.000000 0.000000 0.000000
# 4 0.000000 0.000000 0.000000 0.042669 0.000000 0.000000
# 5 0.000000 0.000000 0.000000 0.000000 0.033208 0.000000
# 6 0.000000 0.000000 0.000000 0.000000 0.000000 0.052242
#
#
# Mechanical properties :
#
#
# Convention : Reuss Voigt Hill
#
# Bulk Modulus (GPa) = 58.22877 68.90312 63.56595
# Shear Modulus (GPa) = 16.44727 19.62395 18.03561
#
# Velocity S-wave (km/s) = 3.09017 3.37543 3.23595
# Velocity P-wave (km/s) = 6.82199 7.42941 7.13217
#
# Compressibility (1/GPa) = 0.01717364
#
# Stress axis : x y z
#
# Youngs Moduli (GPa) = 44.59379 26.12319 30.33927
#
# Poissons Ratio (x) = 0.28680 0.39656
# Poissons Ratio (y) = 0.48958 0.43070
# Poissons Ratio (z) = 0.58288 0.37085
#
# Static dielectric constant tensor:
#      x y z
#    x 1.575720 0.000000 0.000000 
#    y 0.000000 1.575160 0.000000 
#    z 0.000000 0.000000 1.579370 
# 
# From -- ./inp_files/29547.got.cif
#   From: 2010.05.17/outbox.cif.g08.bks.cpg/sg51_15_cif.got.tgz:29547.got - 2010.06.03 11:52:47.
