data_PCOD9403418
_publ_section_title
;
Structure prediction by ZEFSAII (Michael W. Deem and Ramdas Pophale) SiO2 
 PCOD9403418
Probable space group: P M M A
;
_chemical_formula_sum "Si O2"
_cell_formula_units_Z 44
_cell_length_a 9.338523
_cell_length_b 8.034836
_cell_length_c 31.353567
_cell_angle_alpha 90.000000
_cell_angle_beta 90.000000
_cell_angle_gamma 90.000000
_cell_volume 2352.567894
_symmetry_space_group_name_H-M "P M M A"
_symmetry_group_IT_number 51
_symmetry_cell_setting 'orthorhombic'
loop_
_space_group_symop_operation_xyz
x,y,z
1/2-x,-y,z
1/2+x,-y,-z
-x,y,-z
-x,-y,-z
1/2+x,y,-z
1/2-x,y,z
x,-y,z
loop_
_atom_site_type_symbol
_atom_site_label
_atom_site_fract_x
_atom_site_fract_y
_atom_site_fract_z
Si Si1 0.413492 0.697911 0.223322
Si Si2 0.586253 0.700057 0.959074
Si Si3 0.912206 0.800184 0.306444
Si Si4 0.078335 0.195358 0.392495
Si Si5 0.078041 0.500000 0.454885
Si Si6 0.585569 0.801998 0.868085
O O1 0.250000 0.766476 0.226632
O O2 0.404673 0.500000 0.223512
O O3 0.505793 0.751404 0.263585
O O4 0.476875 0.750269 0.177450
O O5 0.750000 0.763886 0.960136
O O6 0.591635 0.500000 0.961852
O O7 0.521212 0.742691 0.912827
O O8 0.500000 0.762719 0.000000
O O9 0.750000 0.734278 0.307193
O O10 0.999674 0.753638 0.348819
O O11 0.905495 0.000000 0.307074
O O12 0.250000 0.201990 0.386028
O O13 0.041607 0.332146 0.428291
O O14 0.042801 0.000000 0.402503
O O15 0.250000 0.500000 0.460707
O O16 0.000000 0.500000 0.500000
O O17 0.750000 0.734434 0.867613
O O18 0.590757 0.000000 0.869256
#
# Coordination Sequence:
#
# PCOD9403418 Si02
#       6
#     8   8   8   8   4   8
#     4  10  20  33  52  77 103 135 175 216 260 314
#     4   9  17  30  48  69  93 121 156 200 250 304
#     4  10  21  36  54  79 110 142 177 220 272 325
#     4   9  19  37  59  82 112 150 190 233 276 324
#     4  10  22  38  58  86 116 148 190 234 279 330
#     4   9  17  30  49  71  95 126 166 210 252 300
#
# _framework density 18.702969
#
# number of rings (size 3 to 8) (size 9 to 14) (size 15 to 20)
#    0.000    2.545    0.000    1.636    1.273    5.818 
#    0.000    0.909    0.000    3.273    0.000    0.000 
#    0.000    0.000    0.000    0.000    0.000    0.000 
#
# Total GULP energy -245276.483242 kJ/mol
# GULP energy per Si atom -5574.465528 kJ/mol
# Density = 1.866040 g / cm^3
# Si number density = 18.702969 Si / 1000 Ang^3
#
#
#
# Elastic Constant Matrix: (Units=GPa)
#
#
# Indices 1 2 3 4 5 6 
#
# 1 48.2638 26.6660 72.0068 0.0000 0.0000 0.0000
# 2 26.6660 48.6557 57.6934 0.0000 0.0000 0.0000
# 3 72.0068 57.6934 219.6576 0.0000 0.0000 0.0000
# 4 0.0000 0.0000 0.0000 52.6521 0.0000 0.0000
# 5 0.0000 0.0000 0.0000 0.0000 175.7567 0.0000
# 6 0.0000 0.0000 0.0000 0.0000 0.0000 12.6285
#
#
#
# Elastic Compliance Matrix: (Units=1/GPa)
#
#
# Indices 1 2 3 4 5 6 
#
# 1 0.043736 -0.010121 -0.011679 0.000000 0.000000 0.000000
# 2 -0.010121 0.032191 -0.005137 0.000000 0.000000 0.000000
# 3 -0.011679 -0.005137 0.009730 0.000000 0.000000 0.000000
# 4 0.000000 0.000000 0.000000 0.018993 0.000000 0.000000
# 5 0.000000 0.000000 0.000000 0.000000 0.005690 0.000000
# 6 0.000000 0.000000 0.000000 0.000000 0.000000 0.079186
#
#
# Mechanical properties :
#
#
# Convention : Reuss Voigt Hill
#
# Bulk Modulus (GPa) = 31.46406 69.92328 50.69367
# Shear Modulus (GPa) = 19.68556 58.88819 39.28687
#
# Velocity S-wave (km/s) = 3.24780 5.61733 4.58817
# Velocity P-wave (km/s) = 5.56092 8.91851 7.43181
#
# Compressibility (1/GPa) = 0.03178230
#
# Stress axis : x y z
#
# Youngs Moduli (GPa) = 22.86466 31.06466 102.77243
#
# Poissons Ratio (x) = 0.31442 1.20025
# Poissons Ratio (y) = 0.23142 0.52795
# Poissons Ratio (z) = 0.26703 0.15958
#
# Static dielectric constant tensor:
#      x y z
#    x 1.667390 0.000000 0.000000 
#    y 0.000000 1.654710 0.000000 
#    z 0.000000 0.000000 1.643350 
# 
# From -- ./inp_files/36803.got.cif
#   From: 2010.05.17/outbox.cif.g08.bks.cpg/sg51_19_cif.got.tgz:36803.got - 2010.06.03 11:52:47.
