data_PCOD9403072
_publ_section_title
;
Structure prediction by ZEFSAII (Michael W. Deem and Ramdas Pophale) SiO2 
 PCOD9403072
Probable space group: P M M A
;
_chemical_formula_sum "Si O2"
_cell_formula_units_Z 64
_cell_length_a 9.095106
_cell_length_b 20.240000
_cell_length_c 20.415675
_cell_angle_alpha 90.000000
_cell_angle_beta 90.000000
_cell_angle_gamma 90.000000
_cell_volume 3758.218418
_symmetry_space_group_name_H-M "P M M A"
_symmetry_group_IT_number 51
_symmetry_cell_setting 'orthorhombic'
loop_
_space_group_symop_operation_xyz
x,y,z
1/2-x,-y,z
1/2+x,-y,-z
-x,y,-z
-x,-y,-z
1/2+x,y,-z
1/2-x,y,z
x,-y,z
loop_
_atom_site_type_symbol
_atom_site_label
_atom_site_fract_x
_atom_site_fract_y
_atom_site_fract_z
Si Si1 0.923292 0.426672 0.100302
Si Si2 0.076842 0.921285 0.568775
Si Si3 0.926435 0.751134 0.791606
Si Si4 0.074073 0.176678 0.332976
Si Si5 0.924020 0.293073 0.565141
Si Si6 0.574514 0.426949 0.391049
Si Si7 0.426264 0.289738 0.066004
Si Si8 0.919981 0.382168 0.246046
O O1 0.750000 0.416850 0.084065
O O2 0.968143 0.500000 0.078413
O O3 0.935145 0.423313 0.179380
O O4 0.017432 0.365308 0.074703
O O5 0.250000 0.907337 0.563969
O O6 0.000000 0.903168 0.500000
O O7 0.006753 0.881221 0.628526
O O8 0.056739 0.000000 0.577814
O O9 0.750000 0.752140 0.791331
O O10 0.975223 0.808179 0.741467
O O11 0.972973 0.748863 0.867684
O O12 0.978975 0.681687 0.761589
O O13 0.250000 0.164755 0.333639
O O14 0.047318 0.243587 0.374829
O O15 0.750000 0.297832 0.555806
O O16 0.000000 0.265746 0.500000
O O17 0.990920 0.365252 0.578293
O O18 0.750000 0.420467 0.402770
O O19 0.527700 0.500000 0.413232
O O20 0.550888 0.420971 0.312657
O O21 0.250000 0.289001 0.061185
O O22 0.500000 0.263408 0.000000
O O23 0.750000 0.359554 0.249004
#
# Coordination Sequence:
#
# PCOD9403072 Si02
#       8
#     8   8   8   8   8   8   8   8
#     4   9  17  29  45  65  89 117 153 197 247 307
#     4  10  21  36  55  82 116 151 183 211 244 290
#     4   9  18  33  51  73  99 126 160 205 251 295
#     4  10  20  35  56  80 105 134 171 212 252 297
#     4  11  23  37  52  70  94 124 162 207 254 304
#     4  10  20  33  49  68  90 118 156 204 259 314
#     4  10  20  33  49  67  94 127 160 201 250 305
#     4   9  16  28  47  69  91 117 151 197 252 306
#
# _framework density 17.029343999999998
#
# number of rings (size 3 to 8) (size 9 to 14) (size 15 to 20)
#    0.000    2.250    1.250    1.875    0.000    6.250 
#    0.000    0.000    0.000    2.250    0.000    0.000 
#    0.000    0.500    0.000    1.125    0.000    2.000 
#
# Total GULP energy -357044.332864 kJ/mol
# GULP energy per Si atom -5578.817701 kJ/mol
# Density = 1.699058 g / cm^3
# Si number density = 17.029344 Si / 1000 Ang^3
#
#
#
# Elastic Constant Matrix: (Units=GPa)
#
#
# Indices 1 2 3 4 5 6 
#
# 1 36.3640 34.1644 46.9573 0.0000 0.0000 0.0000
# 2 34.1644 58.1756 40.5353 0.0000 0.0000 0.0000
# 3 46.9573 40.5353 121.4006 0.0000 0.0000 0.0000
# 4 0.0000 0.0000 0.0000 -137.3443 0.0000 0.0000
# 5 0.0000 0.0000 0.0000 0.0000 23.7501 0.0000
# 6 0.0000 0.0000 0.0000 0.0000 0.0000 21.9884
#
#
#
# Elastic Compliance Matrix: (Units=1/GPa)
#
#
# Indices 1 2 3 4 5 6 
#
# 1 0.094820 -0.039264 -0.023566 0.000000 0.000000 0.000000
# 2 -0.039264 0.038660 0.002279 0.000000 0.000000 0.000000
# 3 -0.023566 0.002279 0.016591 0.000000 0.000000 0.000000
# 4 0.000000 0.000000 0.000000 -0.007281 0.000000 0.000000
# 5 0.000000 0.000000 0.000000 0.000000 0.042105 0.000000
# 6 0.000000 0.000000 0.000000 0.000000 0.000000 0.045479
#
#
# Mechanical properties :
#
#
# Convention : Reuss Voigt Hill
#
# Bulk Modulus (GPa) = 34.51977 51.02827 42.77402
# Shear Modulus (GPa) = 13.84534 -12.03562 0.90486
#
# Velocity S-wave (km/s) = 2.85446 -2.66138 0.72973
# Velocity P-wave (km/s) = 5.58379 4.53719 5.08747
#
# Compressibility (1/GPa) = 0.02896891
#
# Stress axis : x y z
#
# Youngs Moduli (GPa) = 10.54633 25.86658 60.27197
#
# Poissons Ratio (x) = 1.01563 1.42035
# Poissons Ratio (y) = 0.41409 -0.13735
# Poissons Ratio (z) = 0.24853 -0.05894
#
# Static dielectric constant tensor:
#      x y z
#    x 1.570100 0.000000 0.000000 
#    y 0.000000 1.553420 0.000000 
#    z 0.000000 0.000000 1.619270 
# 
# From -- ./inp_files/32609.got.cif
#   From: 2010.05.17/outbox.cif.g08.bks.cpg/sg51_17_cif.got.tgz:32609.got - 2010.06.03 11:52:47.
