data_PCOD9403352
_publ_section_title
;
Structure prediction by ZEFSAII (Michael W. Deem and Ramdas Pophale) SiO2 
 PCOD9403352
Probable space group: P M M A
;
_chemical_formula_sum "Si O2"
_cell_formula_units_Z 48
_cell_length_a 15.820728
_cell_length_b 8.987559
_cell_length_c 19.530977
_cell_angle_alpha 90.000000
_cell_angle_beta 90.000000
_cell_angle_gamma 90.000000
_cell_volume 2777.104274
_symmetry_space_group_name_H-M "P M M A"
_symmetry_group_IT_number 51
_symmetry_cell_setting 'orthorhombic'
loop_
_space_group_symop_operation_xyz
x,y,z
1/2-x,-y,z
1/2+x,-y,-z
-x,y,-z
-x,-y,-z
1/2+x,y,-z
1/2-x,y,z
x,-y,z
loop_
_atom_site_type_symbol
_atom_site_label
_atom_site_fract_x
_atom_site_fract_y
_atom_site_fract_z
Si Si1 0.846858 0.823719 0.567004
Si Si2 0.750000 0.170438 0.212220
Si Si3 0.424213 0.321230 0.950973
Si Si4 0.001348 0.822226 0.665952
Si Si5 0.750000 0.831135 0.045996
Si Si6 0.573407 0.322116 0.208720
Si Si7 0.652869 0.677941 0.419390
O O1 0.750000 0.801762 0.590587
O O2 0.858770 0.729793 0.497943
O O3 0.916830 0.786102 0.623361
O O4 0.856651 0.000000 0.550226
O O5 0.750000 0.166638 0.129142
O O6 0.664700 0.256686 0.230689
O O7 0.750000 0.000000 0.237220
O O8 0.417475 0.500000 0.954020
O O9 0.335545 0.251938 0.973769
O O10 0.439769 0.282533 0.871136
O O11 0.500000 0.272832 0.000000
O O12 0.005481 0.748663 0.740580
O O13 0.081730 0.758737 0.624731
O O14 0.007957 0.000000 0.671641
O O15 0.750000 0.000000 0.021408
O O16 0.574844 0.500000 0.214879
O O17 0.750000 0.717415 0.400028
O O18 0.643961 0.500000 0.413404
#
# Coordination Sequence:
#
# PCOD9403352 Si02
#       7
#     8   4   8   8   4   8   8
#     4   9  19  37  57  74  96 132 177 218 258 308
#     4   9  17  31  49  71 103 137 166 199 248 313
#     4   9  18  34  56  78 103 140 179 214 257 312
#     4  11  22  34  52  76 104 138 174 212 258 312
#     4   9  17  29  49  79 107 133 166 207 256 305
#     4  10  20  33  51  76 106 136 171 214 259 307
#     4  10  21  35  52  77 107 136 168 210 260 310
#
# _framework density 17.284191
#
# number of rings (size 3 to 8) (size 9 to 14) (size 15 to 20)
#    0.000    2.333    0.000    2.500    1.167    7.333 
#    0.000    0.000    1.833    0.000    0.000    0.000 
#    0.000    0.000    0.000    0.000    0.000    0.000 
#
# Total GULP energy -267879.287203 kJ/mol
# GULP energy per Si atom -5580.818483 kJ/mol
# Density = 1.724485 g / cm^3
# Si number density = 17.284191 Si / 1000 Ang^3
#
#
#
# Elastic Constant Matrix: (Units=GPa)
#
#
# Indices 1 2 3 4 5 6 
#
# 1 115.4938 46.9806 70.3554 0.0000 0.0000 0.0000
# 2 46.9806 50.8628 38.5223 0.0000 0.0000 0.0000
# 3 70.3554 38.5223 81.0389 0.0000 0.0000 0.0000
# 4 0.0000 0.0000 0.0000 24.0922 0.0000 0.0000
# 5 0.0000 0.0000 0.0000 0.0000 28.9996 0.0000
# 6 0.0000 0.0000 0.0000 0.0000 0.0000 22.9994
#
#
#
# Elastic Compliance Matrix: (Units=1/GPa)
#
#
# Indices 1 2 3 4 5 6 
#
# 1 0.020498 -0.008525 -0.013744 0.000000 0.000000 0.000000
# 2 -0.008525 0.034266 -0.008888 0.000000 0.000000 0.000000
# 3 -0.013744 -0.008888 0.028497 0.000000 0.000000 0.000000
# 4 0.000000 0.000000 0.000000 0.041507 0.000000 0.000000
# 5 0.000000 0.000000 0.000000 0.000000 0.034483 0.000000
# 6 0.000000 0.000000 0.000000 0.000000 0.000000 0.043479
#
#
# Mechanical properties :
#
#
# Convention : Reuss Voigt Hill
#
# Bulk Modulus (GPa) = 47.73591 62.12355 54.92973
# Shear Modulus (GPa) = 18.38056 21.32072 19.85064
#
# Velocity S-wave (km/s) = 3.26457 3.51599 3.39261
# Velocity P-wave (km/s) = 6.47210 7.24592 6.86991
#
# Compressibility (1/GPa) = 0.02094859
#
# Stress axis : x y z
#
# Youngs Moduli (GPa) = 48.78409 29.18342 35.09178
#
# Poissons Ratio (x) = 0.24878 0.48230
# Poissons Ratio (y) = 0.41586 0.31189
# Poissons Ratio (z) = 0.67049 0.25938
#
# Static dielectric constant tensor:
#      x y z
#    x 1.573780 0.000000 0.000000 
#    y 0.000000 1.580000 0.000000 
#    z 0.000000 0.000000 1.592110 
# 
# From -- ./inp_files/29659.got.cif
#   From: 2010.05.17/outbox.cif.g08.bks.cpg/sg51_15_cif.got.tgz:29659.got - 2010.06.03 11:52:47.
