data_PCOD9403688
_publ_section_title
;
Structure prediction by ZEFSAII (Michael W. Deem and Ramdas Pophale) SiO2 
 PCOD9403688
Probable space group: P M M A
;
_chemical_formula_sum "Si O2"
_cell_formula_units_Z 64
_cell_length_a 20.371178
_cell_length_b 8.820635
_cell_length_c 20.172412
_cell_angle_alpha 90.000000
_cell_angle_beta 90.000000
_cell_angle_gamma 90.000000
_cell_volume 3624.714661
_symmetry_space_group_name_H-M "P M M A"
_symmetry_group_IT_number 51
_symmetry_cell_setting 'orthorhombic'
loop_
_space_group_symop_operation_xyz
x,y,z
1/2-x,-y,z
1/2+x,-y,-z
-x,y,-z
-x,-y,-z
1/2+x,y,-z
1/2-x,y,z
x,-y,z
loop_
_atom_site_type_symbol
_atom_site_label
_atom_site_fract_x
_atom_site_fract_y
_atom_site_fract_z
Si Si1 0.175289 0.181651 0.029222
Si Si2 0.039130 0.679175 0.069572
Si Si3 0.178102 0.824739 0.436604
Si Si4 0.959469 0.681849 0.710101
Si Si5 0.051027 0.819863 0.817281
Si Si6 0.954062 0.319829 0.557585
Si Si7 0.177370 0.823376 0.275792
Si Si8 0.325088 0.678632 0.882586
O O1 0.250000 0.222213 0.051514
O O2 0.170152 0.234172 0.952588
O O3 0.168856 0.000000 0.033864
O O4 0.113631 0.260456 0.064552
O O5 0.039229 0.500000 0.085081
O O6 0.997979 0.769464 0.123940
O O7 0.000000 0.698544 0.000000
O O8 0.250000 0.780584 0.460753
O O9 0.120382 0.719077 0.460299
O O10 0.179822 0.818690 0.356231
O O11 0.165586 0.000000 0.454025
O O12 0.962637 0.500000 0.712423
O O13 0.964105 0.734325 0.633222
O O14 0.888845 0.733262 0.740211
O O15 0.017668 0.755349 0.751428
O O16 0.120936 0.745001 0.833606
O O17 0.056801 0.000000 0.815120
O O18 0.963386 0.500000 0.560093
O O19 0.000000 0.255561 0.500000
O O20 0.250000 0.770333 0.252521
O O21 0.170321 0.000000 0.256050
O O22 0.250000 0.694337 0.858890
O O23 0.337973 0.500000 0.894686
#
# Coordination Sequence:
#
# PCOD9403688 Si02
#       8
#     8   8   8   8   8   8   8   8
#     4  10  20  34  54  81 111 142 178 220 265 313
#     4  11  22  36  56  80 107 140 177 218 263 311
#     4   8  14  25  43  69  99 129 163 204 249 298
#     4  10  20  34  52  75 106 139 175 218 262 314
#     4  12  24  37  56  79 108 141 176 220 266 316
#     4   9  18  32  51  76 104 135 172 214 260 311
#     4   8  14  27  47  70  98 131 167 207 250 300
#     4  10  20  35  56  81 107 136 174 219 265 313
#
# _framework density 17.656562999999998
#
# number of rings (size 3 to 8) (size 9 to 14) (size 15 to 20)
#    0.000    2.250    1.250    3.375    0.000    3.250 
#    0.000    3.125    0.000    4.500    0.000    1.750 
#    0.000    0.000    0.000    0.000    0.000    0.000 
#
# Total GULP energy -356884.732892 kJ/mol
# GULP energy per Si atom -5576.323951 kJ/mol
# Density = 1.761638 g / cm^3
# Si number density = 17.656563 Si / 1000 Ang^3
#
#
#
# Elastic Constant Matrix: (Units=GPa)
#
#
# Indices 1 2 3 4 5 6 
#
# 1 96.3281 24.9576 23.1585 0.0000 0.0000 0.0000
# 2 24.9576 44.1233 7.7661 0.0000 0.0000 0.0000
# 3 23.1585 7.7661 33.0143 0.0000 0.0000 0.0000
# 4 0.0000 0.0000 0.0000 14.0270 0.0000 0.0000
# 5 0.0000 0.0000 0.0000 0.0000 22.0854 0.0000
# 6 0.0000 0.0000 0.0000 0.0000 0.0000 34.9105
#
#
#
# Elastic Compliance Matrix: (Units=1/GPa)
#
#
# Indices 1 2 3 4 5 6 
#
# 1 0.014068 -0.006489 -0.008342 0.000000 0.000000 0.000000
# 2 -0.006489 0.026636 -0.001714 0.000000 0.000000 0.000000
# 3 -0.008342 -0.001714 0.036544 0.000000 0.000000 0.000000
# 4 0.000000 0.000000 0.000000 0.071291 0.000000 0.000000
# 5 0.000000 0.000000 0.000000 0.000000 0.045279 0.000000
# 6 0.000000 0.000000 0.000000 0.000000 0.000000 0.028645
#
#
# Mechanical properties :
#
#
# Convention : Reuss Voigt Hill
#
# Bulk Modulus (GPa) = 22.64540 31.69222 27.16881
# Shear Modulus (GPa) = 18.49990 22.04348 20.27169
#
# Velocity S-wave (km/s) = 3.24043 3.53719 3.39205
# Velocity P-wave (km/s) = 5.18207 5.88816 5.54636
#
# Compressibility (1/GPa) = 0.04415908
#
# Stress axis : x y z
#
# Youngs Moduli (GPa) = 71.08391 37.54337 27.36392
#
# Poissons Ratio (x) = 0.24362 0.22826
# Poissons Ratio (y) = 0.46127 0.04690
# Poissons Ratio (z) = 0.59296 0.06434
#
# Static dielectric constant tensor:
#      x y z
#    x 1.618830 0.000000 0.000000 
#    y 0.000000 1.590580 0.000000 
#    z 0.000000 0.000000 1.610340 
# 
# From -- ./inp_files/33838.got.cif
#   From: 2010.05.17/outbox.cif.g08.bks.cpg/sg51_17_cif.got.tgz:33838.got - 2010.06.03 11:52:47.
