data_PCOD9403470
_publ_section_title
;
Structure prediction by ZEFSAII (Michael W. Deem and Ramdas Pophale) SiO2 
 PCOD9403470
Probable space group: P M M A
;
_chemical_formula_sum "Si O2"
_cell_formula_units_Z 48
_cell_length_a 9.488286
_cell_length_b 13.582182
_cell_length_c 18.626754
_cell_angle_alpha 90.000000
_cell_angle_beta 90.000000
_cell_angle_gamma 90.000000
_cell_volume 2400.460100
_symmetry_space_group_name_H-M "P M M A"
_symmetry_group_IT_number 51
_symmetry_cell_setting 'orthorhombic'
loop_
_space_group_symop_operation_xyz
x,y,z
1/2-x,-y,z
1/2+x,-y,-z
-x,y,-z
-x,-y,-z
1/2+x,y,-z
1/2-x,y,z
x,-y,z
loop_
_atom_site_type_symbol
_atom_site_label
_atom_site_fract_x
_atom_site_fract_y
_atom_site_fract_z
Si Si1 0.089859 0.741925 0.809808
Si Si2 0.913986 0.119983 0.429920
Si Si3 0.417669 0.385062 0.075493
Si Si4 0.250000 0.619127 0.382077
Si Si5 0.250000 0.380443 0.544050
Si Si6 0.415196 0.881800 0.285361
Si Si7 0.048017 0.382387 0.670723
O O1 0.250000 0.766190 0.833335
O O2 0.999151 0.683954 0.868711
O O3 0.999512 0.833474 0.780302
O O4 0.102974 0.671695 0.740161
O O5 0.750000 0.151839 0.428669
O O6 0.000000 0.153500 0.500000
O O7 0.999649 0.145244 0.358010
O O8 0.910663 0.000000 0.432923
O O9 0.250000 0.362546 0.069115
O O10 0.428051 0.500000 0.098570
O O11 0.500000 0.376894 0.000000
O O12 0.250000 0.500000 0.388531
O O13 0.250000 0.658303 0.463393
O O14 0.386278 0.644259 0.337640
O O15 0.250000 0.500000 0.537987
O O16 0.381424 0.355592 0.594688
O O17 0.250000 0.853547 0.288677
O O18 0.419576 0.000000 0.280111
O O19 0.065942 0.500000 0.678766
#
# Coordination Sequence:
#
# PCOD9403470 Si02
#       7
#     8   8   8   4   4   8   8
#     4  12  24  38  60  88 123 159 199 246 301 365
#     4   9  16  29  52  79 107 143 190 247 312 375
#     4  10  22  41  67  99 134 169 202 238 287 350
#     4   9  18  30  50  72 102 152 202 245 290 344
#     4   9  16  32  50  70 104 150 198 241 290 348
#     4  10  22  40  61  84 113 152 202 260 318 373
#     4  10  20  33  52  80 112 149 194 242 294 348
#
# _framework density 19.996165999999999
#
# number of rings (size 3 to 8) (size 9 to 14) (size 15 to 20)
#    0.000    2.000    0.833    3.000    2.333    6.667 
#    0.000    1.667    0.000    0.500    0.000    0.000 
#    0.000    0.000    0.000    0.000    0.000    0.000 
#
# Total GULP energy -268304.580600 kJ/mol
# GULP energy per Si atom -5589.678763 kJ/mol
# Density = 1.995065 g / cm^3
# Si number density = 19.996166 Si / 1000 Ang^3
#
#
#
# Elastic Constant Matrix: (Units=GPa)
#
#
# Indices 1 2 3 4 5 6 
#
# 1 211.3696 45.9690 57.9216 0.0000 0.0000 0.0000
# 2 45.9690 78.7307 31.7407 0.0000 0.0000 0.0000
# 3 57.9216 31.7407 81.8660 0.0000 0.0000 0.0000
# 4 0.0000 0.0000 0.0000 30.5379 0.0000 0.0000
# 5 0.0000 0.0000 0.0000 0.0000 20.6369 0.0000
# 6 0.0000 0.0000 0.0000 0.0000 0.0000 37.6059
#
#
#
# Elastic Compliance Matrix: (Units=1/GPa)
#
#
# Indices 1 2 3 4 5 6 
#
# 1 0.006170 -0.002184 -0.003519 0.000000 0.000000 0.000000
# 2 -0.002184 0.015828 -0.004591 0.000000 0.000000 0.000000
# 3 -0.003519 -0.004591 0.016485 0.000000 0.000000 0.000000
# 4 0.000000 0.000000 0.000000 0.032746 0.000000 0.000000
# 5 0.000000 0.000000 0.000000 0.000000 0.048457 0.000000
# 6 0.000000 0.000000 0.000000 0.000000 0.000000 0.026592
#
#
# Mechanical properties :
#
#
# Convention : Reuss Voigt Hill
#
# Bulk Modulus (GPa) = 55.88343 71.46989 63.67666
# Shear Modulus (GPa) = 28.92999 33.51180 31.22090
#
# Velocity S-wave (km/s) = 3.80778 4.09823 3.95567
# Velocity P-wave (km/s) = 6.88041 7.62977 7.26476
#
# Compressibility (1/GPa) = 0.01789439
#
# Stress axis : x y z
#
# Youngs Moduli (GPa) = 162.06669 63.17995 60.66175
#
# Poissons Ratio (x) = 0.13799 0.21346
# Poissons Ratio (y) = 0.35397 0.27852
# Poissons Ratio (z) = 0.57028 0.29009
#
# Static dielectric constant tensor:
#      x y z
#    x 1.730400 0.000000 0.000000 
#    y 0.000000 1.765850 0.000000 
#    z 0.000000 0.000000 1.650860 
# 
# From -- ./inp_files/27666.got.cif
#   From: 2010.05.17/outbox.cif.g08.bks.cpg/sg51_14_cif.got.tgz:27666.got - 2010.06.03 11:52:47.
