data_PCOD9403434
_publ_section_title
;
Structure prediction by ZEFSAII (Michael W. Deem and Ramdas Pophale) SiO2 
 PCOD9403434
Probable space group: P M M A
;
_chemical_formula_sum "Si O2"
_cell_formula_units_Z 64
_cell_length_a 19.292526
_cell_length_b 7.834275
_cell_length_c 21.686247
_cell_angle_alpha 90.000000
_cell_angle_beta 90.000000
_cell_angle_gamma 90.000000
_cell_volume 3277.723436
_symmetry_space_group_name_H-M "P M M A"
_symmetry_group_IT_number 51
_symmetry_cell_setting 'orthorhombic'
loop_
_space_group_symop_operation_xyz
x,y,z
1/2-x,-y,z
1/2+x,-y,-z
-x,y,-z
-x,-y,-z
1/2+x,y,-z
1/2-x,y,z
x,-y,z
loop_
_atom_site_type_symbol
_atom_site_label
_atom_site_fract_x
_atom_site_fract_y
_atom_site_fract_z
Si Si1 0.672199 0.206126 0.378124
Si Si2 0.828057 0.705773 0.757034
Si Si3 0.828960 0.795987 0.898845
Si Si4 0.393253 0.796445 0.750794
Si Si5 0.328292 0.703289 0.880824
Si Si6 0.423959 0.299613 0.989893
Si Si7 0.034717 0.294062 0.308282
Si Si8 0.030813 0.704824 0.564090
O O1 0.750000 0.265882 0.392124
O O2 0.647961 0.266511 0.310065
O O3 0.611828 0.258118 0.425071
O O4 0.673185 0.000000 0.376489
O O5 0.750000 0.769139 0.743015
O O6 0.826428 0.500000 0.752192
O O7 0.843871 0.750194 0.828019
O O8 0.890568 0.769113 0.714254
O O9 0.750000 0.738958 0.911895
O O10 0.831839 0.000000 0.905268
O O11 0.880985 0.715728 0.947332
O O12 0.361607 0.728743 0.813839
O O13 0.473466 0.750711 0.739389
O O14 0.386941 0.000000 0.752179
O O15 0.250000 0.773767 0.883183
O O16 0.322958 0.500000 0.891274
O O17 0.378237 0.774961 0.934140
O O18 0.434013 0.500000 0.974892
O O19 0.500000 0.222904 0.000000
O O20 0.037909 0.500000 0.311358
O O21 0.009620 0.229535 0.375199
O O22 0.022728 0.500000 0.563875
O O23 0.000000 0.771295 0.500000
#
# Coordination Sequence:
#
# PCOD9403434 Si02
#       8
#     8   8   8   8   8   8   8   8
#     4   9  18  33  52  75 104 138 177 215 251 300
#     4   9  18  33  54  76  98 131 174 215 256 305
#     4  10  21  36  54  76 102 131 165 211 264 311
#     4  10  20  33  52  78 106 136 169 210 259 308
#     4  10  21  36  53  74 102 135 170 210 256 306
#     4  10  22  38  55  75 100 134 174 213 253 304
#     4   9  18  33  53  76 105 138 172 211 253 304
#     4   9  18  33  52  77 108 140 174 212 256 303
#
# _framework density 19.525749000000001
#
# number of rings (size 3 to 8) (size 9 to 14) (size 15 to 20)
#    0.000    2.500    0.000    1.500    1.750    4.250 
#    0.000    0.625    0.000    2.250    0.000    1.750 
#    0.000    0.000    0.000    0.000    0.000    0.000 
#
# Total GULP energy -357133.981730 kJ/mol
# GULP energy per Si atom -5580.218465 kJ/mol
# Density = 1.948131 g / cm^3
# Si number density = 19.525749 Si / 1000 Ang^3
#
#
#
# Elastic Constant Matrix: (Units=GPa)
#
#
# Indices 1 2 3 4 5 6 
#
# 1 179.1022 -1.4363 111.6282 0.0000 0.0000 0.0000
# 2 -1.4363 18.9197 -0.8118 0.0000 0.0000 0.0000
# 3 111.6282 -0.8118 106.6674 0.0000 0.0000 0.0000
# 4 0.0000 0.0000 0.0000 -4.0025 0.0000 0.0000
# 5 0.0000 0.0000 0.0000 0.0000 22.3173 0.0000
# 6 0.0000 0.0000 0.0000 0.0000 0.0000 -0.4918
#
#
#
# Elastic Compliance Matrix: (Units=1/GPa)
#
#
# Indices 1 2 3 4 5 6 
#
# 1 0.016061 0.000498 -0.016804 0.000000 0.000000 0.000000
# 2 0.000498 0.052888 -0.000119 0.000000 0.000000 0.000000
# 3 -0.016804 -0.000119 0.026959 0.000000 0.000000 0.000000
# 4 0.000000 0.000000 0.000000 -0.249844 0.000000 0.000000
# 5 0.000000 0.000000 0.000000 0.000000 0.044808 0.000000
# 6 0.000000 0.000000 0.000000 0.000000 0.000000 -2.033489
#
#
# Mechanical properties :
#
#
# Convention : Reuss Voigt Hill
#
# Bulk Modulus (GPa) = 15.85825 58.16106 37.00966
# Shear Modulus (GPa) = -2.39378 16.58523 7.09573
#
# Velocity S-wave (km/s) = -1.10843 2.91761 1.90838
# Velocity P-wave (km/s) = 2.54974 6.41884 4.88378
#
# Compressibility (1/GPa) = 0.06305864
#
# Stress axis : x y z
#
# Youngs Moduli (GPa) = 62.26431 18.90802 37.09304
#
# Poissons Ratio (x) = -0.00942 0.62330
# Poissons Ratio (y) = -0.03102 0.00441
# Poissons Ratio (z) = 1.04627 0.00225
#
# Static dielectric constant tensor:
#      x y z
#    x 1.694670 0.000000 0.000000 
#    y 0.000000 1.704750 0.000000 
#    z 0.000000 0.000000 1.658130 
# 
# From -- ./inp_files/33983.got.cif
#   From: 2010.05.17/outbox.cif.g08.bks.cpg/sg51_17_cif.got.tgz:33983.got - 2010.06.03 11:52:47.
