data_PCOD9403029
_publ_section_title
;
Structure prediction by ZEFSAII (Michael W. Deem and Ramdas Pophale) SiO2 
 PCOD9403029
Probable space group: P M M A
;
_chemical_formula_sum "Si O2"
_cell_formula_units_Z 40
_cell_length_a 8.782115
_cell_length_b 13.872394
_cell_length_c 20.466937
_cell_angle_alpha 90.000000
_cell_angle_beta 90.000000
_cell_angle_gamma 90.000000
_cell_volume 2493.465637
_symmetry_space_group_name_H-M "P M M A"
_symmetry_group_IT_number 51
_symmetry_cell_setting 'orthorhombic'
loop_
_space_group_symop_operation_xyz
x,y,z
1/2-x,-y,z
1/2+x,-y,-z
-x,y,-z
-x,-y,-z
1/2+x,y,-z
1/2-x,y,z
x,-y,z
loop_
_atom_site_type_symbol
_atom_site_label
_atom_site_fract_x
_atom_site_fract_y
_atom_site_fract_z
Si Si1 0.564851 0.613064 0.212436
Si Si2 0.571269 0.732342 0.671511
Si Si3 0.576995 0.614455 0.433863
Si Si4 0.076718 0.383166 0.933518
Si Si5 0.567301 0.112182 0.427732
O O1 0.750000 0.614267 0.213828
O O2 0.522280 0.500000 0.227474
O O3 0.502917 0.693962 0.261510
O O4 0.511424 0.636645 0.138446
O O5 0.750000 0.748898 0.679415
O O6 0.533707 0.643460 0.623751
O O7 0.497325 0.820525 0.630299
O O8 0.500000 0.650199 0.500000
O O9 0.750000 0.651319 0.424630
O O10 0.587593 0.500000 0.437608
O O11 0.250000 0.348945 0.933576
O O12 0.078920 0.500000 0.936827
O O13 0.000000 0.348043 0.000000
O O14 0.500000 0.134724 0.500000
O O15 0.750000 0.121076 0.430647
O O16 0.529154 0.000000 0.414723
#
# Coordination Sequence:
#
# PCOD9403029 Si02
#       5
#     8   8   8   8   8
#     4   9  18  32  47  65  94 131 166 197 230 270
#     4  12  23  32  46  68  94 121 150 188 232 277
#     4  10  20  33  47  62  84 116 153 190 224 263
#     4   8  14  25  42  63  88 121 159 196 231 266
#     4  10  21  38  58  75  91 114 147 189 236 285
#
# _framework density 16.041930000000001
#
# number of rings (size 3 to 8) (size 9 to 14) (size 15 to 20)
#    0.000    2.200    0.000    5.400    0.000    6.000 
#    0.000    2.000    0.000    0.000    0.000    0.000 
#    0.000    0.800    0.000    2.600    0.000    3.200 
#
# Total GULP energy -222746.245587 kJ/mol
# GULP energy per Si atom -5568.656140 kJ/mol
# Density = 1.600542 g / cm^3
# Si number density = 16.041930 Si / 1000 Ang^3
#
#
#
# Elastic Constant Matrix: (Units=GPa)
#
#
# Indices 1 2 3 4 5 6 
#
# 1 59.1547 30.7447 41.1984 0.0000 0.0000 0.0000
# 2 30.7447 82.0781 47.6639 0.0000 0.0000 0.0000
# 3 41.1984 47.6639 142.2706 0.0000 0.0000 0.0000
# 4 0.0000 0.0000 0.0000 -14.9062 0.0000 0.0000
# 5 0.0000 0.0000 0.0000 0.0000 25.9074 0.0000
# 6 0.0000 0.0000 0.0000 0.0000 0.0000 21.3169
#
#
#
# Elastic Compliance Matrix: (Units=1/GPa)
#
#
# Indices 1 2 3 4 5 6 
#
# 1 0.023319 -0.005976 -0.004751 0.000000 0.000000 0.000000
# 2 -0.005976 0.016658 -0.003850 0.000000 0.000000 0.000000
# 3 -0.004751 -0.003850 0.009694 0.000000 0.000000 0.000000
# 4 0.000000 0.000000 0.000000 -0.067086 0.000000 0.000000
# 5 0.000000 0.000000 0.000000 0.000000 0.038599 0.000000
# 6 0.000000 0.000000 0.000000 0.000000 0.000000 0.046911
#
#
# Mechanical properties :
#
#
# Convention : Reuss Voigt Hill
#
# Bulk Modulus (GPa) = 48.73833 58.07972 53.40902
# Shear Modulus (GPa) = 48.03577 17.39005 32.71291
#
# Velocity S-wave (km/s) = 5.47804 3.29604 4.52066
# Velocity P-wave (km/s) = 8.39402 7.12522 7.78551
#
# Compressibility (1/GPa) = 0.02051773
#
# Stress axis : x y z
#
# Youngs Moduli (GPa) = 42.88266 60.03140 103.15182
#
# Poissons Ratio (x) = 0.35876 0.49004
# Poissons Ratio (y) = 0.25628 0.39716
# Poissons Ratio (z) = 0.20372 0.23113
#
# Static dielectric constant tensor:
#      x y z
#    x 1.557000 0.000000 0.000000 
#    y 0.000000 1.549410 0.000000 
#    z 0.000000 0.000000 1.548920 
# 
# From -- ./inp_files/31515.got.cif
#   From: 2010.05.17/outbox.cif.g08.bks.cpg/sg51_16_cif.got.tgz:31515.got - 2010.06.03 11:52:47.
