data_PCOD9403408
_publ_section_title
;
Structure prediction by ZEFSAII (Michael W. Deem and Ramdas Pophale) SiO2 
 PCOD9403408
Probable space group: P M M A
;
_chemical_formula_sum "Si O2"
_cell_formula_units_Z 56
_cell_length_a 15.606184
_cell_length_b 9.520433
_cell_length_c 21.467421
_cell_angle_alpha 90.000000
_cell_angle_beta 90.000000
_cell_angle_gamma 90.000000
_cell_volume 3189.578516
_symmetry_space_group_name_H-M "P M M A"
_symmetry_group_IT_number 51
_symmetry_cell_setting 'orthorhombic'
loop_
_space_group_symop_operation_xyz
x,y,z
1/2-x,-y,z
1/2+x,-y,-z
-x,y,-z
-x,-y,-z
1/2+x,y,-z
1/2-x,y,z
x,-y,z
loop_
_atom_site_type_symbol
_atom_site_label
_atom_site_fract_x
_atom_site_fract_y
_atom_site_fract_z
Si Si1 0.750000 0.830779 0.755152
Si Si2 0.509692 0.333908 0.426741
Si Si3 0.101184 0.337393 0.311577
Si Si4 0.847803 0.662403 0.116226
Si Si5 0.652161 0.835546 0.355161
Si Si6 0.101123 0.830755 0.003344
Si Si7 0.582619 0.337256 0.245505
Si Si8 0.250000 0.829818 0.098987
O O1 0.668772 0.765830 0.719314
O O2 0.750000 0.786819 0.828425
O O3 0.750000 0.000000 0.752667
O O4 0.500000 0.310432 0.500000
O O5 0.527349 0.500000 0.416544
O O6 0.427745 0.302693 0.382516
O O7 0.587539 0.243281 0.400729
O O8 0.131163 0.500000 0.309990
O O9 0.013328 0.329285 0.271970
O O10 0.750000 0.670213 0.139548
O O11 0.863889 0.500000 0.097806
O O12 0.909415 0.700174 0.173278
O O13 0.858673 0.762725 0.057966
O O14 0.750000 0.819475 0.375470
O O15 0.639005 0.763245 0.288243
O O16 0.631594 0.000000 0.351346
O O17 0.163264 0.786873 0.061159
O O18 0.104353 0.000000 0.001111
O O19 0.000000 0.790688 0.000000
O O20 0.611118 0.500000 0.251594
O O21 0.250000 0.000000 0.098925
#
# Coordination Sequence:
#
# PCOD9403408 Si02
#       8
#     4   8   8   8   8   8   8   4
#     4  11  23  37  57  81 111 150 191 232 279 335
#     4   9  19  38  62  84 109 146 188 227 272 325
#     4   9  19  37  58  82 111 140 182 233 274 322
#     4  10  20  34  53  80 111 139 173 223 282 336
#     4  10  20  33  51  81 116 145 177 219 267 322
#     4  10  21  37  57  77 102 142 186 231 283 338
#     4   9  19  35  56  79 107 144 181 222 272 329
#     4   9  20  39  55  77 111 144 189 238 279 337
#
# _framework density 17.557179000000001
#
# number of rings (size 3 to 8) (size 9 to 14) (size 15 to 20)
#    0.000    2.429    0.714    1.929    2.000    5.143 
#    1.286    1.429    0.000    0.000    0.000    0.000 
#    0.000    0.000    0.000    0.000    0.000    0.000 
#
# Total GULP energy -312106.502216 kJ/mol
# GULP energy per Si atom -5573.330397 kJ/mol
# Density = 1.751722 g / cm^3
# Si number density = 17.557179 Si / 1000 Ang^3
#
#
#
# Elastic Constant Matrix: (Units=GPa)
#
#
# Indices 1 2 3 4 5 6 
#
# 1 82.3683 45.0822 55.1085 0.0000 0.0000 0.0000
# 2 45.0822 55.4375 54.1021 0.0000 0.0000 0.0000
# 3 55.1085 54.1021 135.7215 0.0000 0.0000 0.0000
# 4 0.0000 0.0000 0.0000 22.0580 0.0000 0.0000
# 5 0.0000 0.0000 0.0000 0.0000 16.4819 0.0000
# 6 0.0000 0.0000 0.0000 0.0000 0.0000 26.5610
#
#
#
# Elastic Compliance Matrix: (Units=1/GPa)
#
#
# Indices 1 2 3 4 5 6 
#
# 1 0.022615 -0.015433 -0.003031 0.000000 0.000000 0.000000
# 2 -0.015433 0.040056 -0.009701 0.000000 0.000000 0.000000
# 3 -0.003031 -0.009701 0.012466 0.000000 0.000000 0.000000
# 4 0.000000 0.000000 0.000000 0.045335 0.000000 0.000000
# 5 0.000000 0.000000 0.000000 0.000000 0.060673 0.000000
# 6 0.000000 0.000000 0.000000 0.000000 0.000000 0.037649
#
#
# Mechanical properties :
#
#
# Convention : Reuss Voigt Hill
#
# Bulk Modulus (GPa) = 53.17067 64.67921 58.92494
# Shear Modulus (GPa) = 17.76882 20.96915 19.36899
#
# Velocity S-wave (km/s) = 3.18473 3.45966 3.32504
# Velocity P-wave (km/s) = 6.62370 7.27174 6.95527
#
# Compressibility (1/GPa) = 0.01880736
#
# Stress axis : x y z
#
# Youngs Moduli (GPa) = 44.21794 24.96515 80.22103
#
# Poissons Ratio (x) = 0.38529 0.24312
# Poissons Ratio (y) = 0.68243 0.77820
# Poissons Ratio (z) = 0.13401 0.24218
#
# Static dielectric constant tensor:
#      x y z
#    x 1.618050 0.000000 0.000000 
#    y 0.000000 1.582100 0.000000 
#    z 0.000000 0.000000 1.595570 
# 
# From -- ./inp_files/33570.got.cif
#   From: 2010.05.17/outbox.cif.g08.bks.cpg/sg51_17_cif.got.tgz:33570.got - 2010.06.03 11:52:47.
