data_PCOD9403690
_publ_section_title
;
Structure prediction by ZEFSAII (Michael W. Deem and Ramdas Pophale) SiO2 
 PCOD9403690
Probable space group: P M M A
;
_chemical_formula_sum "Si O2"
_cell_formula_units_Z 48
_cell_length_a 24.403830
_cell_length_b 7.955189
_cell_length_c 13.109206
_cell_angle_alpha 90.000000
_cell_angle_beta 90.000000
_cell_angle_gamma 90.000000
_cell_volume 2544.982974
_symmetry_space_group_name_H-M "P M M A"
_symmetry_group_IT_number 51
_symmetry_cell_setting 'orthorhombic'
loop_
_space_group_symop_operation_xyz
x,y,z
1/2-x,-y,z
1/2+x,-y,-z
-x,y,-z
-x,-y,-z
1/2+x,y,-z
1/2-x,y,z
x,-y,z
loop_
_atom_site_type_symbol
_atom_site_label
_atom_site_fract_x
_atom_site_fract_y
_atom_site_fract_z
Si Si1 0.379928 0.202370 0.803584
Si Si2 0.496031 0.798497 0.883485
Si Si3 0.187294 0.705335 0.377753
Si Si4 0.188075 0.702284 0.609342
Si Si5 0.886376 0.700354 0.807558
Si Si6 0.312317 0.796749 0.999680
O O1 0.441230 0.264919 0.827860
O O2 0.355025 0.247610 0.694715
O O3 0.380984 0.000000 0.809116
O O4 0.340026 0.262385 0.894490
O O5 0.552149 0.762632 0.825060
O O6 0.490573 0.000000 0.891079
O O7 0.500000 0.733095 0.000000
O O8 0.250000 0.754964 0.352722
O O9 0.186521 0.500000 0.376792
O O10 0.175308 0.759177 0.493854
O O11 0.144559 0.765682 0.293315
O O12 0.250000 0.761652 0.635319
O O13 0.189818 0.500000 0.606610
O O14 0.888632 0.500000 0.800159
O O15 0.849933 0.746307 0.905642
O O16 0.250000 0.735678 0.010494
O O17 0.311063 0.000000 0.996895
#
# Coordination Sequence:
#
# PCOD9403690 Si02
#       6
#     8   8   8   8   8   8
#     4  10  20  35  55  76 101 137 178 217 258 306
#     4  10  20  38  57  71 100 146 183 212 258 316
#     4   8  16  33  54  76 106 142 172 205 260 318
#     4   9  18  34  56  79 105 138 173 211 259 314
#     4  11  21  33  54  81 107 134 175 224 264 306
#     4  10  20  34  52  75 106 141 173 209 261 322
#
# _framework density 18.860637000000001
#
# number of rings (size 3 to 8) (size 9 to 14) (size 15 to 20)
#    0.000    2.333    1.667    2.500    0.000    3.667 
#    0.000    2.500    0.000    7.000    0.000    0.000 
#    0.000    0.000    0.000    0.000    0.000    0.000 
#
# Total GULP energy -267876.536187 kJ/mol
# GULP energy per Si atom -5580.761171 kJ/mol
# Density = 1.881771 g / cm^3
# Si number density = 18.860637 Si / 1000 Ang^3
#
#
#
# Elastic Constant Matrix: (Units=GPa)
#
#
# Indices 1 2 3 4 5 6 
#
# 1 132.1136 0.2118 77.3103 0.0000 0.0000 0.0000
# 2 0.2118 12.0966 0.4218 0.0000 0.0000 0.0000
# 3 77.3103 0.4218 130.8095 0.0000 0.0000 0.0000
# 4 0.0000 0.0000 0.0000 28.3666 0.0000 0.0000
# 5 0.0000 0.0000 0.0000 0.0000 21.0797 0.0000
# 6 0.0000 0.0000 0.0000 0.0000 0.0000 18.2231
#
#
#
# Elastic Compliance Matrix: (Units=1/GPa)
#
#
# Indices 1 2 3 4 5 6 
#
# 1 0.011571 0.000036 -0.006839 0.000000 0.000000 0.000000
# 2 0.000036 0.082677 -0.000288 0.000000 0.000000 0.000000
# 3 -0.006839 -0.000288 0.011687 0.000000 0.000000 0.000000
# 4 0.000000 0.000000 0.000000 0.035253 0.000000 0.000000
# 5 0.000000 0.000000 0.000000 0.000000 0.047439 0.000000
# 6 0.000000 0.000000 0.000000 0.000000 0.000000 0.054876
#
#
# Mechanical properties :
#
#
# Convention : Reuss Voigt Hill
#
# Bulk Modulus (GPa) = 10.89864 47.87861 29.38863
# Shear Modulus (GPa) = 17.34487 26.67226 22.00857
#
# Velocity S-wave (km/s) = 3.03584 3.76463 3.41970
# Velocity P-wave (km/s) = 4.25199 6.65862 5.58644
#
# Compressibility (1/GPa) = 0.09175454
#
# Stress axis : x y z
#
# Youngs Moduli (GPa) = 86.42202 12.09519 85.56172
#
# Poissons Ratio (x) = -0.00043 0.58514
# Poissons Ratio (y) = -0.00310 0.02463
# Poissons Ratio (z) = 0.59102 0.00348
#
# Static dielectric constant tensor:
#      x y z
#    x 1.903250 0.000000 0.000000 
#    y 0.000000 1.688980 0.000000 
#    z 0.000000 0.000000 1.639040 
# 
# From -- ./inp_files/18540.got.cif
#   From: 2010.05.17/outbox.cif.g08.bks.cpg/sg51_10_cif.got.tgz:18540.got - 2010.06.03 11:52:47.
