data_PCOD9403842
_publ_section_title
;
Structure prediction by ZEFSAII (Michael W. Deem and Ramdas Pophale) SiO2 
 PCOD9403842
Probable space group: P M M A
;
_chemical_formula_sum "Si O2"
_cell_formula_units_Z 48
_cell_length_a 18.939538
_cell_length_b 8.678606
_cell_length_c 14.887267
_cell_angle_alpha 90.000000
_cell_angle_beta 90.000000
_cell_angle_gamma 90.000000
_cell_volume 2447.002035
_symmetry_space_group_name_H-M "P M M A"
_symmetry_group_IT_number 51
_symmetry_cell_setting 'orthorhombic'
loop_
_space_group_symop_operation_xyz
x,y,z
1/2-x,-y,z
1/2+x,-y,-z
-x,y,-z
-x,-y,-z
1/2+x,y,-z
1/2-x,y,z
x,-y,z
loop_
_atom_site_type_symbol
_atom_site_label
_atom_site_fract_x
_atom_site_fract_y
_atom_site_fract_z
Si Si1 0.750000 0.310931 0.217707
Si Si2 0.852134 0.820742 0.866950
Si Si3 0.825999 0.812087 0.665218
Si Si4 0.250000 0.683112 0.989862
Si Si5 0.979951 0.813847 0.600827
Si Si6 0.903639 0.683189 0.262931
Si Si7 0.004608 0.676188 0.106673
O O1 0.750000 0.500000 0.217234
O O2 0.750000 0.260606 0.112947
O O3 0.677145 0.260524 0.264690
O O4 0.825964 0.766003 0.769931
O O5 0.935388 0.793409 0.864316
O O6 0.835227 0.000000 0.875517
O O7 0.816807 0.736373 0.950926
O O8 0.750000 0.764028 0.624974
O O9 0.900286 0.759267 0.623793
O O10 0.827595 0.000000 0.662938
O O11 0.250000 0.500000 0.985653
O O12 0.000000 0.766956 0.500000
O O13 0.039334 0.756236 0.670186
O O14 0.979509 0.000000 0.605034
O O15 0.902930 0.500000 0.280049
O O16 0.933369 0.705425 0.161575
O O17 0.026664 0.500000 0.129372
O O18 0.000000 0.685437 0.000000
#
# Coordination Sequence:
#
# PCOD9403842 Si02
#       7
#     4   8   8   4   8   8   8
#     4   9  20  39  59  80 111 158 200 238 290 346
#     4  11  20  32  52  79 112 149 191 234 288 344
#     4   9  17  33  56  79 110 148 181 223 281 344
#     4  11  21  35  55  80 117 158 200 242 280 336
#     4  10  21  39  62  88 116 148 190 239 298 358
#     4  10  20  37  61  83 111 152 198 242 292 347
#     4  10  20  34  53  79 110 149 196 238 285 351
#
# _framework density 19.615839999999999
#
# number of rings (size 3 to 8) (size 9 to 14) (size 15 to 20)
#    0.000    2.000    2.500    1.750    0.000    3.333 
#    1.500    3.750    0.000    0.000    0.000    0.000 
#    0.000    0.000    0.000    0.000    0.000    0.000 
#
# Total GULP energy -267697.461570 kJ/mol
# GULP energy per Si atom -5577.030449 kJ/mol
# Density = 1.957119 g / cm^3
# Si number density = 19.615840 Si / 1000 Ang^3
#
#
#
# Elastic Constant Matrix: (Units=GPa)
#
#
# Indices 1 2 3 4 5 6 
#
# 1 180.5194 21.8664 62.1825 0.0000 0.0000 0.0000
# 2 21.8664 9.1587 15.4704 0.0000 0.0000 0.0000
# 3 62.1825 15.4704 94.6722 0.0000 0.0000 0.0000
# 4 0.0000 0.0000 0.0000 19.2904 0.0000 0.0000
# 5 0.0000 0.0000 0.0000 0.0000 11.2924 0.0000
# 6 0.0000 0.0000 0.0000 0.0000 0.0000 26.0259
#
#
#
# Elastic Compliance Matrix: (Units=1/GPa)
#
#
# Indices 1 2 3 4 5 6 
#
# 1 0.008402 -0.014833 -0.003095 0.000000 0.000000 0.000000
# 2 -0.014833 0.176999 -0.019181 0.000000 0.000000 0.000000
# 3 -0.003095 -0.019181 0.015730 0.000000 0.000000 0.000000
# 4 0.000000 0.000000 0.000000 0.051839 0.000000 0.000000
# 5 0.000000 0.000000 0.000000 0.000000 0.088555 0.000000
# 6 0.000000 0.000000 0.000000 0.000000 0.000000 0.038423
#
#
# Mechanical properties :
#
#
# Convention : Reuss Voigt Hill
#
# Bulk Modulus (GPa) = 7.87934 53.70988 30.79461
# Shear Modulus (GPa) = 10.07106 23.64381 16.85744
#
# Velocity S-wave (km/s) = 2.26832 3.47557 2.93470
# Velocity P-wave (km/s) = 3.29938 6.59897 5.21691
#
# Compressibility (1/GPa) = 0.12691411
#
# Stress axis : x y z
#
# Youngs Moduli (GPa) = 119.01349 5.64974 63.57277
#
# Poissons Ratio (x) = 0.08380 0.19676
# Poissons Ratio (y) = 1.76531 1.21939
# Poissons Ratio (z) = 0.36835 0.10837
#
# Static dielectric constant tensor:
#      x y z
#    x 1.741760 0.000000 0.000000 
#    y 0.000000 1.679990 0.000000 
#    z 0.000000 0.000000 1.673630 
# 
# From -- ./inp_files/24958.got.cif
#   From: 2010.05.17/outbox.cif.g08.bks.cpg/sg51_13_cif.got.tgz:24958.got - 2010.06.03 11:52:47.
