data_PCOD9403978
_publ_section_title
;
Structure prediction by ZEFSAII (Michael W. Deem and Ramdas Pophale) SiO2 
 PCOD9403978
Probable space group: P M M A
;
_chemical_formula_sum "Si O2"
_cell_formula_units_Z 64
_cell_length_a 29.596448
_cell_length_b 7.550366
_cell_length_c 13.121500
_cell_angle_alpha 90.000000
_cell_angle_beta 90.000000
_cell_angle_gamma 90.000000
_cell_volume 2932.183069
_symmetry_space_group_name_H-M "P M M A"
_symmetry_group_IT_number 51
_symmetry_cell_setting 'orthorhombic'
loop_
_space_group_symop_operation_xyz
x,y,z
1/2-x,-y,z
1/2+x,-y,-z
-x,y,-z
-x,-y,-z
1/2+x,y,-z
1/2-x,y,z
x,-y,z
loop_
_atom_site_type_symbol
_atom_site_label
_atom_site_fract_x
_atom_site_fract_y
_atom_site_fract_z
Si Si1 0.048852 0.203598 0.521380
Si Si2 0.354248 0.787607 0.471359
Si Si3 0.801831 0.782745 0.729458
Si Si4 0.801203 0.712856 0.320821
Si Si5 0.471169 0.787448 0.096587
Si Si6 0.048504 0.710457 0.753106
Si Si7 0.869135 0.791911 0.903724
Si Si8 0.137942 0.714026 0.866276
O O1 0.094416 0.283040 0.474120
O O2 0.054894 0.205027 0.643033
O O3 0.000000 0.287333 0.500000
O O4 0.046201 0.000000 0.484040
O O5 0.324535 0.724853 0.376603
O O6 0.329722 0.752409 0.578228
O O7 0.357676 0.000000 0.461971
O O8 0.750000 0.724933 0.737931
O O9 0.833429 0.721248 0.822312
O O10 0.801077 0.000000 0.729692
O O11 0.750000 0.780251 0.328804
O O12 0.799191 0.500000 0.312908
O O13 0.827094 0.776290 0.219780
O O14 0.500310 0.749108 0.196868
O O15 0.420126 0.717077 0.101098
O O16 0.468408 0.000000 0.084783
O O17 0.500000 0.718346 0.000000
O O18 0.053544 0.500000 0.739488
O O19 0.087906 0.771332 0.830099
O O20 0.873426 0.000000 0.879794
O O21 0.852670 0.774055 0.019591
O O22 0.138345 0.500000 0.867149
#
# Coordination Sequence:
#
# PCOD9403978 Si02
#       8
#     8   8   8   8   8   8   8   8
#     4  10  22  37  57  85 116 149 184 226 279 339
#     4  10  20  36  60  86 112 145 186 231 279 337
#     4   9  19  36  57  82 112 144 183 236 288 328
#     4  10  21  38  59  82 111 148 187 231 286 340
#     4  10  20  34  54  80 109 144 186 229 271 327
#     4  11  22  36  56  80 113 151 185 227 280 337
#     4  10  21  36  58  83 110 148 192 234 279 334
#     4  10  21  37  55  80 115 149 183 229 283 337
#
# _framework density 21.826740999999998
#
# number of rings (size 3 to 8) (size 9 to 14) (size 15 to 20)
#    0.000    2.000    2.500    0.750    1.750    3.250 
#    0.000    0.625    0.000    0.750    0.000    0.000 
#    0.000    0.000    0.000    0.000    0.000    0.000 
#
# Total GULP energy -357629.274569 kJ/mol
# GULP energy per Si atom -5587.957415 kJ/mol
# Density = 2.177706 g / cm^3
# Si number density = 21.826741 Si / 1000 Ang^3
#
#
#
# Elastic Constant Matrix: (Units=GPa)
#
#
# Indices 1 2 3 4 5 6 
#
# 1 212.6529 13.1488 85.3871 0.0000 0.0000 0.0000
# 2 13.1488 53.8615 -5.6540 0.0000 0.0000 0.0000
# 3 85.3871 -5.6540 98.4092 0.0000 0.0000 0.0000
# 4 0.0000 0.0000 0.0000 24.3847 0.0000 0.0000
# 5 0.0000 0.0000 0.0000 0.0000 28.8502 0.0000
# 6 0.0000 0.0000 0.0000 0.0000 0.0000 2.7154
#
#
#
# Elastic Compliance Matrix: (Units=1/GPa)
#
#
# Indices 1 2 3 4 5 6 
#
# 1 0.007549 -0.002546 -0.006696 0.000000 0.000000 0.000000
# 2 -0.002546 0.019537 0.003331 0.000000 0.000000 0.000000
# 3 -0.006696 0.003331 0.016163 0.000000 0.000000 0.000000
# 4 0.000000 0.000000 0.000000 0.041009 0.000000 0.000000
# 5 0.000000 0.000000 0.000000 0.000000 0.034662 0.000000
# 6 0.000000 0.000000 0.000000 0.000000 0.000000 0.368265
#
#
# Mechanical properties :
#
#
# Convention : Reuss Voigt Hill
#
# Bulk Modulus (GPa) = 31.81863 61.18751 46.50307
# Shear Modulus (GPa) = 9.81390 29.32617 19.57003
#
# Velocity S-wave (km/s) = 2.12274 3.66948 2.99759
# Velocity P-wave (km/s) = 4.54065 6.78583 5.77343
#
# Compressibility (1/GPa) = 0.03142813
#
# Stress axis : x y z
#
# Youngs Moduli (GPa) = 132.47608 51.18424 61.87002
#
# Poissons Ratio (x) = 0.13030 0.41428
# Poissons Ratio (y) = 0.33724 -0.20611
# Poissons Ratio (z) = 0.88705 -0.17051
#
# Static dielectric constant tensor:
#      x y z
#    x 1.801320 0.000000 0.000000 
#    y 0.000000 1.911540 0.000000 
#    z 0.000000 0.000000 1.745200 
# 
# From -- ./inp_files/19537.got.cif
#   From: 2010.05.17/outbox.cif.g08.bks.cpg/sg51_10_cif.got.tgz:19537.got - 2010.06.03 11:52:47.
