data_PCOD9403247
_publ_section_title
;
Structure prediction by ZEFSAII (Michael W. Deem and Ramdas Pophale) SiO2 
 PCOD9403247
Probable space group: P M M A
;
_chemical_formula_sum "Si O2"
_cell_formula_units_Z 44
_cell_length_a 9.345069
_cell_length_b 16.588534
_cell_length_c 14.966244
_cell_angle_alpha 90.000000
_cell_angle_beta 90.000000
_cell_angle_gamma 90.000000
_cell_volume 2320.082034
_symmetry_space_group_name_H-M "P M M A"
_symmetry_group_IT_number 51
_symmetry_cell_setting 'orthorhombic'
loop_
_space_group_symop_operation_xyz
x,y,z
1/2-x,-y,z
1/2+x,-y,-z
-x,y,-z
-x,-y,-z
1/2+x,y,-z
1/2-x,y,z
x,-y,z
loop_
_atom_site_type_symbol
_atom_site_label
_atom_site_fract_x
_atom_site_fract_y
_atom_site_fract_z
Si Si1 0.077040 0.230939 0.090947
Si Si2 0.080132 0.410042 0.158069
Si Si3 0.413464 0.143749 0.269446
Si Si4 0.414441 0.591400 0.654982
Si Si5 0.588500 0.731107 0.575353
Si Si6 0.073445 0.000000 0.401214
O O1 0.250000 0.223991 0.084887
O O2 0.046751 0.326664 0.107301
O O3 0.026726 0.175425 0.174837
O O4 0.000000 0.206339 0.000000
O O5 0.250000 0.406242 0.180035
O O6 0.056248 0.500000 0.116255
O O7 0.987065 0.408186 0.247718
O O8 0.250000 0.117751 0.250181
O O9 0.409593 0.222323 0.331683
O O10 0.469962 0.075460 0.337251
O O11 0.250000 0.618092 0.661339
O O12 0.417300 0.500000 0.621682
O O13 0.505805 0.649475 0.594099
O O14 0.500000 0.777947 0.500000
O O15 0.750000 0.718777 0.545258
O O16 0.000000 0.000000 0.500000
O O17 0.250000 0.000000 0.412880
#
# Coordination Sequence:
#
# PCOD9403247 Si02
#       6
#     8   8   8   8   8   4
#     4  10  20  36  55  81 113 149 193 232 277 334
#     4   9  17  32  54  76 105 147 190 235 285 333
#     4   9  19  37  59  83 114 148 181 223 281 340
#     4  10  20  33  50  75 106 141 185 232 277 327
#     4  11  21  35  54  78 107 143 184 227 276 336
#     4  10  20  38  65  92 118 148 181 224 277 338
#
# _framework density 18.964846999999999
#
# number of rings (size 3 to 8) (size 9 to 14) (size 15 to 20)
#    0.000    2.182    1.818    1.636    0.000    2.545 
#    0.000    2.273    0.000    0.000    0.000    0.000 
#    0.000    0.000    0.000    0.000    0.000    0.000 
#
# Total GULP energy -244980.874598 kJ/mol
# GULP energy per Si atom -5567.747150 kJ/mol
# Density = 1.892168 g / cm^3
# Si number density = 18.964847 Si / 1000 Ang^3
#
#
#
# Elastic Constant Matrix: (Units=GPa)
#
#
# Indices 1 2 3 4 5 6 
#
# 1 55.7813 30.6990 41.2430 0.0000 0.0000 0.0000
# 2 30.6990 84.8309 56.6424 0.0000 0.0000 0.0000
# 3 41.2430 56.6424 142.3948 0.0000 0.0000 0.0000
# 4 0.0000 0.0000 0.0000 20.1950 0.0000 0.0000
# 5 0.0000 0.0000 0.0000 0.0000 31.5899 0.0000
# 6 0.0000 0.0000 0.0000 0.0000 0.0000 7.5218
#
#
#
# Elastic Compliance Matrix: (Units=1/GPa)
#
#
# Indices 1 2 3 4 5 6 
#
# 1 0.024657 -0.005657 -0.004891 0.000000 0.000000 0.000000
# 2 -0.005657 0.017349 -0.005263 0.000000 0.000000 0.000000
# 3 -0.004891 -0.005263 0.010533 0.000000 0.000000 0.000000
# 4 0.000000 0.000000 0.000000 0.049517 0.000000 0.000000
# 5 0.000000 0.000000 0.000000 0.000000 0.031656 0.000000
# 6 0.000000 0.000000 0.000000 0.000000 0.000000 0.132947
#
#
# Mechanical properties :
#
#
# Convention : Reuss Voigt Hill
#
# Bulk Modulus (GPa) = 47.80815 60.01956 53.91386
# Shear Modulus (GPa) = 16.37981 22.15619 19.26800
#
# Velocity S-wave (km/s) = 2.94205 3.42171 3.19091
# Velocity P-wave (km/s) = 6.06667 6.87949 6.48582
#
# Compressibility (1/GPa) = 0.02091693
#
# Stress axis : x y z
#
# Youngs Moduli (GPa) = 40.55651 57.63894 94.94044
#
# Poissons Ratio (x) = 0.32606 0.46439
# Poissons Ratio (y) = 0.22943 0.49966
# Poissons Ratio (z) = 0.19838 0.30334
#
# Static dielectric constant tensor:
#      x y z
#    x 1.654990 0.000000 0.000000 
#    y 0.000000 1.719230 0.000000 
#    z 0.000000 0.000000 1.687110 
# 
# From -- ./inp_files/20929.got.cif
#   From: 2010.05.17/outbox.cif.g08.bks.cpg/sg51_11_cif.got.tgz:20929.got - 2010.06.03 11:52:47.
