data_PCOD9403526
_publ_section_title
;
Structure prediction by ZEFSAII (Michael W. Deem and Ramdas Pophale) SiO2 
 PCOD9403526
Probable space group: P M M A
;
_chemical_formula_sum "Si O2"
_cell_formula_units_Z 56
_cell_length_a 22.014352
_cell_length_b 8.949001
_cell_length_c 14.719180
_cell_angle_alpha 90.000000
_cell_angle_beta 90.000000
_cell_angle_gamma 90.000000
_cell_volume 2899.773517
_symmetry_space_group_name_H-M "P M M A"
_symmetry_group_IT_number 51
_symmetry_cell_setting 'orthorhombic'
loop_
_space_group_symop_operation_xyz
x,y,z
1/2-x,-y,z
1/2+x,-y,-z
-x,y,-z
-x,-y,-z
1/2+x,y,-z
1/2-x,y,z
x,-y,z
loop_
_atom_site_type_symbol
_atom_site_label
_atom_site_fract_x
_atom_site_fract_y
_atom_site_fract_z
Si Si1 0.631475 0.678192 0.963956
Si Si2 0.750000 0.321768 0.844977
Si Si3 0.359544 0.676620 0.462841
Si Si4 0.250000 0.177925 0.351933
Si Si5 0.474117 0.175708 0.148606
Si Si6 0.534845 0.173439 0.641885
Si Si7 0.889622 0.823327 0.353108
Si Si8 0.105083 0.322558 0.836605
O O1 0.618828 0.500000 0.957053
O O2 0.690524 0.711484 0.904416
O O3 0.574662 0.766796 0.922970
O O4 0.640468 0.711304 0.070372
O O5 0.750000 0.500000 0.825077
O O6 0.750000 0.232663 0.751645
O O7 0.351031 0.500000 0.460355
O O8 0.308887 0.756960 0.402337
O O9 0.424575 0.721878 0.420228
O O10 0.357537 0.737653 0.565253
O O11 0.250000 0.000000 0.356424
O O12 0.449137 0.193334 0.251666
O O13 0.536097 0.268921 0.144587
O O14 0.487725 0.000000 0.136271
O O15 0.462641 0.199415 0.635452
O O16 0.546403 0.000000 0.616536
O O17 0.873509 0.761607 0.253706
O O18 0.878403 0.000000 0.358601
O O19 0.106021 0.500000 0.820418
#
# Coordination Sequence:
#
# PCOD9403526 Si02
#       8
#     8   4   8   4   8   8   8   8
#     4  10  21  36  56  81 111 148 187 232 284 335
#     4  10  22  42  63  84 111 144 185 228 274 330
#     4  12  24  38  59  86 114 148 190 234 282 336
#     4  12  26  44  63  84 113 148 187 232 280 330
#     4  10  20  33  53  82 115 150 187 230 281 337
#     4   9  19  35  55  83 118 153 188 230 282 337
#     4  10  21  38  59  84 116 152 189 232 282 336
#     4  10  20  35  55  82 115 149 188 233 281 334
#
# _framework density 19.311852999999999
#
# number of rings (size 3 to 8) (size 9 to 14) (size 15 to 20)
#    0.000    1.714    0.000    5.786    0.000   10.857 
#    0.000    0.714    0.000    1.714    0.000    0.000 
#    0.000    0.000    0.000    0.000    0.000    0.000 
#
# Total GULP energy -313069.835443 kJ/mol
# GULP energy per Si atom -5590.532776 kJ/mol
# Density = 1.926790 g / cm^3
# Si number density = 19.311853 Si / 1000 Ang^3
#
#
#
# Elastic Constant Matrix: (Units=GPa)
#
#
# Indices 1 2 3 4 5 6 
#
# 1 22.9780 36.9180 42.5271 0.0000 0.0000 0.0000
# 2 36.9180 106.0919 85.4076 0.0000 0.0000 0.0000
# 3 42.5271 85.4076 150.9876 0.0000 0.0000 0.0000
# 4 0.0000 0.0000 0.0000 20.1996 0.0000 0.0000
# 5 0.0000 0.0000 0.0000 0.0000 27.8129 0.0000
# 6 0.0000 0.0000 0.0000 0.0000 0.0000 19.8306
#
#
#
# Elastic Compliance Matrix: (Units=1/GPa)
#
#
# Indices 1 2 3 4 5 6 
#
# 1 0.122901 -0.027358 -0.019141 0.000000 0.000000 0.000000
# 2 -0.027358 0.023397 -0.005529 0.000000 0.000000 0.000000
# 3 -0.019141 -0.005529 0.015142 0.000000 0.000000 0.000000
# 4 0.000000 0.000000 0.000000 0.049506 0.000000 0.000000
# 5 0.000000 0.000000 0.000000 0.000000 0.035955 0.000000
# 6 0.000000 0.000000 0.000000 0.000000 0.000000 0.050427
#
#
# Mechanical properties :
#
#
# Convention : Reuss Voigt Hill
#
# Bulk Modulus (GPa) = 17.42657 67.75145 42.58901
# Shear Modulus (GPa) = 11.89028 21.24893 16.56960
#
# Velocity S-wave (km/s) = 2.48402 3.32068 2.93234
# Velocity P-wave (km/s) = 4.15578 7.06127 5.79362
#
# Compressibility (1/GPa) = 0.05738365
#
# Stress axis : x y z
#
# Youngs Moduli (GPa) = 8.13663 42.74051 66.04228
#
# Poissons Ratio (x) = 1.16931 1.26410
# Poissons Ratio (y) = 0.22260 0.36515
# Poissons Ratio (z) = 0.15574 0.23631
#
# Static dielectric constant tensor:
#      x y z
#    x 1.658860 0.000000 0.000000 
#    y 0.000000 1.642940 0.000000 
#    z 0.000000 0.000000 1.684130 
# 
# From -- ./inp_files/25852.got.cif
#   From: 2010.05.17/outbox.cif.g08.bks.cpg/sg51_13_cif.got.tgz:25852.got - 2010.06.03 11:52:47.
