data_PCOD9403265
_publ_section_title
;
Structure prediction by ZEFSAII (Michael W. Deem and Ramdas Pophale) SiO2 
 PCOD9403265
Probable space group: P M M A
;
_chemical_formula_sum "Si O2"
_cell_formula_units_Z 48
_cell_length_a 9.671949
_cell_length_b 9.287928
_cell_length_c 29.662049
_cell_angle_alpha 90.000000
_cell_angle_beta 90.000000
_cell_angle_gamma 90.000000
_cell_volume 2664.612040
_symmetry_space_group_name_H-M "P M M A"
_symmetry_group_IT_number 51
_symmetry_cell_setting 'orthorhombic'
loop_
_space_group_symop_operation_xyz
x,y,z
1/2-x,-y,z
1/2+x,-y,-z
-x,y,-z
-x,-y,-z
1/2+x,y,-z
1/2-x,y,z
x,-y,z
loop_
_atom_site_type_symbol
_atom_site_label
_atom_site_fract_x
_atom_site_fract_y
_atom_site_fract_z
Si Si1 0.915095 0.831019 0.687491
Si Si2 0.589124 0.324742 0.956576
Si Si3 0.412402 0.673772 0.868311
Si Si4 0.250000 0.829813 0.547708
Si Si5 0.250000 0.658386 0.457330
Si Si6 0.478251 0.665360 0.603396
Si Si7 0.911136 0.827231 0.792618
O O1 0.750000 0.814369 0.680136
O O2 0.940788 0.796692 0.739962
O O3 0.995209 0.732180 0.652433
O O4 0.947986 0.000000 0.680149
O O5 0.750000 0.276649 0.956754
O O6 0.592905 0.500000 0.957661
O O7 0.503863 0.283958 0.911891
O O8 0.500000 0.278047 0.000000
O O9 0.250000 0.712352 0.873084
O O10 0.419050 0.500000 0.864460
O O11 0.484517 0.746337 0.825395
O O12 0.250000 0.774803 0.496448
O O13 0.378121 0.763722 0.574382
O O14 0.250000 0.000000 0.549067
O O15 0.250000 0.500000 0.479987
O O16 0.380400 0.667008 0.424805
O O17 0.430333 0.500000 0.606392
O O18 0.750000 0.787318 0.801635
O O19 0.921598 0.000000 0.798503
#
# Coordination Sequence:
#
# PCOD9403265 Si02
#       7
#     8   8   8   4   4   8   8
#     4   9  18  35  59  84 109 139 181 229 274 331
#     4   9  16  27  46  73 106 144 185 232 285 335
#     4  10  20  33  50  77 111 145 185 230 276 329
#     4  12  26  40  56  84 116 152 192 230 273 324
#     4  10  22  40  62  86 114 146 184 228 281 338
#     4  11  22  39  61  86 115 148 183 227 283 337
#     4   9  19  36  57  80 106 140 181 225 275 330
#
# _framework density 18.01388
#
# number of rings (size 3 to 8) (size 9 to 14) (size 15 to 20)
#    0.000    2.167    0.833    3.750    0.000    7.333 
#    1.500    1.667    0.000    0.500    0.000    0.000 
#    0.000    0.000    0.000    0.000    0.000    0.000 
#
# Total GULP energy -267841.001635 kJ/mol
# GULP energy per Si atom -5580.020867 kJ/mol
# Density = 1.797288 g / cm^3
# Si number density = 18.013880 Si / 1000 Ang^3
#
#
#
# Elastic Constant Matrix: (Units=GPa)
#
#
# Indices 1 2 3 4 5 6 
#
# 1 122.5271 44.1033 60.1517 0.0000 0.0000 0.0000
# 2 44.1033 68.6592 51.4874 0.0000 0.0000 0.0000
# 3 60.1517 51.4874 116.6189 0.0000 0.0000 0.0000
# 4 0.0000 0.0000 0.0000 57.0662 0.0000 0.0000
# 5 0.0000 0.0000 0.0000 0.0000 -25.9418 0.0000
# 6 0.0000 0.0000 0.0000 0.0000 0.0000 25.9621
#
#
#
# Elastic Compliance Matrix: (Units=1/GPa)
#
#
# Indices 1 2 3 4 5 6 
#
# 1 0.011793 -0.004505 -0.004094 0.000000 0.000000 0.000000
# 2 -0.004505 0.023495 -0.008049 0.000000 0.000000 0.000000
# 3 -0.004094 -0.008049 0.014240 0.000000 0.000000 0.000000
# 4 0.000000 0.000000 0.000000 0.017523 0.000000 0.000000
# 5 0.000000 0.000000 0.000000 0.000000 -0.038548 0.000000
# 6 0.000000 0.000000 0.000000 0.000000 0.000000 0.038518
#
#
# Mechanical properties :
#
#
# Convention : Reuss Voigt Hill
#
# Bulk Modulus (GPa) = 61.60845 68.80999 65.20922
# Shear Modulus (GPa) = 47.29142 21.55483 34.42313
#
# Velocity S-wave (km/s) = 5.12930 3.46290 4.37615
# Velocity P-wave (km/s) = 8.32793 7.36683 7.86208
#
# Compressibility (1/GPa) = 0.01623154
#
# Stress axis : x y z
#
# Youngs Moduli (GPa) = 84.79764 42.56279 70.22435
#
# Poissons Ratio (x) = 0.19176 0.28747
# Poissons Ratio (y) = 0.38204 0.56524
# Poissons Ratio (z) = 0.34712 0.34259
#
# Static dielectric constant tensor:
#      x y z
#    x 1.619430 0.000000 0.000000 
#    y 0.000000 1.603080 0.000000 
#    z 0.000000 0.000000 1.593270 
# 
# From -- ./inp_files/37071.got.cif
#   From: 2010.05.17/outbox.cif.g08.bks.cpg/sg51_19_cif.got.tgz:37071.got - 2010.06.03 11:52:47.
