data_PCOD9403190
_publ_section_title
;
Structure prediction by ZEFSAII (Michael W. Deem and Ramdas Pophale) SiO2 
 PCOD9403190
Probable space group: P M M A
;
_chemical_formula_sum "Si O2"
_cell_formula_units_Z 56
_cell_length_a 8.583043
_cell_length_b 19.523779
_cell_length_c 19.361746
_cell_angle_alpha 90.000000
_cell_angle_beta 90.000000
_cell_angle_gamma 90.000000
_cell_volume 3244.514279
_symmetry_space_group_name_H-M "P M M A"
_symmetry_group_IT_number 51
_symmetry_cell_setting 'orthorhombic'
loop_
_space_group_symop_operation_xyz
x,y,z
1/2-x,-y,z
1/2+x,-y,-z
-x,y,-z
-x,-y,-z
1/2+x,y,-z
1/2-x,y,z
x,-y,z
loop_
_atom_site_type_symbol
_atom_site_label
_atom_site_fract_x
_atom_site_fract_y
_atom_site_fract_z
Si Si1 0.936853 0.840234 0.424421
Si Si2 0.438526 0.922442 0.708539
Si Si3 0.938053 0.572576 0.921598
Si Si4 0.437001 0.791860 0.214512
Si Si5 0.062913 0.293870 0.659511
Si Si6 0.063117 0.579207 0.423025
Si Si7 0.438005 0.276920 0.077427
O O1 0.750000 0.840430 0.426844
O O2 0.985562 0.896386 0.367815
O O3 0.985038 0.765813 0.394933
O O4 0.000000 0.852784 0.500000
O O5 0.250000 0.920456 0.711422
O O6 0.502897 0.865145 0.759903
O O7 0.489678 0.000000 0.721800
O O8 0.750000 0.572400 0.922271
O O9 0.988995 0.500000 0.888741
O O10 0.987103 0.647090 0.895732
O O11 0.000000 0.571417 0.000000
O O12 0.250000 0.790202 0.217497
O O13 0.500026 0.734159 0.267482
O O14 0.487606 0.775671 0.136348
O O15 0.250000 0.295768 0.662244
O O16 0.000110 0.365997 0.631835
O O17 0.250000 0.582930 0.424425
O O18 0.018149 0.500000 0.407781
O O19 0.000000 0.595461 0.500000
O O20 0.250000 0.276082 0.073267
O O21 0.500000 0.266174 0.000000
#
# Coordination Sequence:
#
# PCOD9403190 Si02
#       7
#     8   8   8   8   8   8   8
#     4   9  18  30  46  71  99 127 159 196 238 284
#     4   9  19  36  54  72  98 132 166 198 239 296
#     4   8  13  23  40  62  89 120 151 182 220 268
#     4  10  20  34  52  76 103 128 162 207 252 301
#     4  10  20  34  51  70  97 135 175 213 254 300
#     4  10  20  33  50  73 101 135 176 222 269 311
#     4   9  18  31  49  74 101 129 162 203 248 295
#
# _framework density 17.259900999999999
#
# number of rings (size 3 to 8) (size 9 to 14) (size 15 to 20)
#    0.000    2.714    0.000    2.571    0.000    6.571 
#    0.000    0.714    0.000    3.000    0.000    2.000 
#    0.000    0.000    0.000    0.000    0.000    0.000 
#
# Total GULP energy -311950.033375 kJ/mol
# GULP energy per Si atom -5570.536310 kJ/mol
# Density = 1.722062 g / cm^3
# Si number density = 17.259901 Si / 1000 Ang^3
#
#
#
# Elastic Constant Matrix: (Units=GPa)
#
#
# Indices 1 2 3 4 5 6 
#
# 1 24.0617 31.6545 23.7681 0.0000 0.0000 0.0000
# 2 31.6545 131.2948 80.1386 0.0000 0.0000 0.0000
# 3 23.7681 80.1386 114.0155 0.0000 0.0000 0.0000
# 4 0.0000 0.0000 0.0000 13.5655 0.0000 0.0000
# 5 0.0000 0.0000 0.0000 0.0000 22.2520 0.0000
# 6 0.0000 0.0000 0.0000 0.0000 0.0000 24.5626
#
#
#
# Elastic Compliance Matrix: (Units=1/GPa)
#
#
# Indices 1 2 3 4 5 6 
#
# 1 0.062011 -0.012365 -0.004236 0.000000 0.000000 0.000000
# 2 -0.012365 0.015805 -0.008531 0.000000 0.000000 0.000000
# 3 -0.004236 -0.008531 0.015650 0.000000 0.000000 0.000000
# 4 0.000000 0.000000 0.000000 0.073716 0.000000 0.000000
# 5 0.000000 0.000000 0.000000 0.000000 0.044940 0.000000
# 6 0.000000 0.000000 0.000000 0.000000 0.000000 0.040712
#
#
# Mechanical properties :
#
#
# Convention : Reuss Voigt Hill
#
# Bulk Modulus (GPa) = 23.14731 60.05492 41.60111
# Shear Modulus (GPa) = 15.74809 20.99673 18.37241
#
# Velocity S-wave (km/s) = 3.02389 3.49163 3.26614
# Velocity P-wave (km/s) = 5.06281 7.15019 6.19505
#
# Compressibility (1/GPa) = 0.04320156
#
# Stress axis : x y z
#
# Youngs Moduli (GPa) = 16.12622 63.27232 63.89748
#
# Poissons Ratio (x) = 0.78236 0.27067
# Poissons Ratio (y) = 0.19940 0.54511
# Poissons Ratio (z) = 0.06831 0.53978
#
# Static dielectric constant tensor:
#      x y z
#    x 1.592250 0.000000 0.000000 
#    y 0.000000 1.613380 0.000000 
#    z 0.000000 0.000000 1.552790 
# 
# From -- ./inp_files/32212.got.cif
#   From: 2010.05.17/outbox.cif.g08.bks.cpg/sg51_17_cif.got.tgz:32212.got - 2010.06.03 11:52:47.
