data_PCOD9403919
_publ_section_title
;
Structure prediction by ZEFSAII (Michael W. Deem and Ramdas Pophale) SiO2 
 PCOD9403919
Probable space group: P M M A
;
_chemical_formula_sum "Si O2"
_cell_formula_units_Z 48
_cell_length_a 9.414578
_cell_length_b 7.480131
_cell_length_c 31.922535
_cell_angle_alpha 90.000000
_cell_angle_beta 90.000000
_cell_angle_gamma 90.000000
_cell_volume 2248.057594
_symmetry_space_group_name_H-M "P M M A"
_symmetry_group_IT_number 51
_symmetry_cell_setting 'orthorhombic'
loop_
_space_group_symop_operation_xyz
x,y,z
1/2-x,-y,z
1/2+x,-y,-z
-x,y,-z
-x,-y,-z
1/2+x,y,-z
1/2-x,y,z
x,-y,z
loop_
_atom_site_type_symbol
_atom_site_label
_atom_site_fract_x
_atom_site_fract_y
_atom_site_fract_z
Si Si1 0.911658 0.285998 0.460181
Si Si2 0.086653 0.218978 0.704662
Si Si3 0.088341 0.785583 0.376374
Si Si4 0.412913 0.718726 0.959004
Si Si5 0.088083 0.713944 0.121056
Si Si6 0.912139 0.213780 0.784878
O O1 0.750000 0.216862 0.458352
O O2 0.902020 0.500000 0.465043
O O3 0.000000 0.216343 0.500000
O O4 0.997867 0.252520 0.417767
O O5 0.250000 0.275820 0.701600
O O6 0.994504 0.278579 0.664831
O O7 0.012261 0.278748 0.747663
O O8 0.087039 0.000000 0.704518
O O9 0.250000 0.717470 0.379275
O O10 0.096915 0.000000 0.372602
O O11 0.250000 0.776226 0.960973
O O12 0.412766 0.500000 0.958813
O O13 0.490020 0.779508 0.916543
O O14 0.500000 0.774136 0.000000
O O15 0.250000 0.783323 0.117888
O O16 0.095471 0.500000 0.116635
O O17 0.035631 0.750259 0.168065
O O18 0.750000 0.283287 0.781457
O O19 0.904286 0.000000 0.780323
#
# Coordination Sequence:
#
# PCOD9403919 Si02
#       6
#     8   8   8   8   8   8
#     4  10  21  37  56  77 103 136 171 205 245 295
#     4   9  17  30  49  72  97 126 161 201 242 284
#     4  10  20  34  54  79 104 131 166 208 251 293
#     4   9  16  26  42  64  89 117 149 185 226 272
#     4   9  17  29  45  66  92 119 148 186 231 275
#     4   9  17  30  48  68  91 122 158 192 229 279
#
# _framework density 21.351766999999999
#
# number of rings (size 3 to 8) (size 9 to 14) (size 15 to 20)
#    0.000    2.667    0.000    2.000    0.000    7.000 
#    0.000    0.833    0.000    3.500    0.000    0.000 
#    0.000    0.000    0.000    0.000    0.000    0.000 
#
# Total GULP energy -268117.672215 kJ/mol
# GULP energy per Si atom -5585.784838 kJ/mol
# Density = 2.130317 g / cm^3
# Si number density = 21.351767 Si / 1000 Ang^3
#
#
#
# Elastic Constant Matrix: (Units=GPa)
#
#
# Indices 1 2 3 4 5 6 
#
# 1 209.7913 7.5257 158.0657 0.0000 0.0000 0.0000
# 2 7.5257 60.5265 -0.9521 0.0000 0.0000 0.0000
# 3 158.0657 -0.9521 244.8607 0.0000 0.0000 0.0000
# 4 0.0000 0.0000 0.0000 20.6588 0.0000 0.0000
# 5 0.0000 0.0000 0.0000 0.0000 39.2623 0.0000
# 6 0.0000 0.0000 0.0000 0.0000 0.0000 12.0768
#
#
#
# Elastic Compliance Matrix: (Units=1/GPa)
#
#
# Indices 1 2 3 4 5 6 
#
# 1 0.009376 -0.001261 -0.006057 0.000000 0.000000 0.000000
# 2 -0.001261 0.016692 0.000879 0.000000 0.000000 0.000000
# 3 -0.006057 0.000879 0.007997 0.000000 0.000000 0.000000
# 4 0.000000 0.000000 0.000000 0.048406 0.000000 0.000000
# 5 0.000000 0.000000 0.000000 0.000000 0.025470 0.000000
# 6 0.000000 0.000000 0.000000 0.000000 0.000000 0.082803
#
#
# Mechanical properties :
#
#
# Convention : Reuss Voigt Hill
#
# Bulk Modulus (GPa) = 47.19902 93.82857 70.51380
# Shear Modulus (GPa) = 23.73212 37.76886 30.75049
#
# Velocity S-wave (km/s) = 3.33751 4.21038 3.79909
# Velocity P-wave (km/s) = 6.08320 8.22654 7.23468
#
# Compressibility (1/GPa) = 0.02118688
#
# Stress axis : x y z
#
# Youngs Moduli (GPa) = 106.65980 59.90784 125.03950
#
# Poissons Ratio (x) = 0.07555 0.75738
# Poissons Ratio (y) = 0.13450 -0.10990
# Poissons Ratio (z) = 0.64606 -0.05266
#
# Static dielectric constant tensor:
#      x y z
#    x 1.740860 0.000000 0.000000 
#    y 0.000000 1.830210 0.000000 
#    z 0.000000 0.000000 1.724840 
# 
# From -- ./inp_files/34524.got.cif
#   From: 2010.05.17/outbox.cif.g08.bks.cpg/sg51_18_cif.got.tgz:34524.got - 2010.06.03 11:52:47.
