data_PCOD9403353
_publ_section_title
;
Structure prediction by ZEFSAII (Michael W. Deem and Ramdas Pophale) SiO2 
 PCOD9403353
Probable space group: P M M A
;
_chemical_formula_sum "Si O2"
_cell_formula_units_Z 48
_cell_length_a 8.113215
_cell_length_b 9.640675
_cell_length_c 31.878832
_cell_angle_alpha 90.000000
_cell_angle_beta 90.000000
_cell_angle_gamma 90.000000
_cell_volume 2493.462427
_symmetry_space_group_name_H-M "P M M A"
_symmetry_group_IT_number 51
_symmetry_cell_setting 'orthorhombic'
loop_
_space_group_symop_operation_xyz
x,y,z
1/2-x,-y,z
1/2+x,-y,-z
-x,y,-z
-x,-y,-z
1/2+x,y,-z
1/2-x,y,z
x,-y,z
loop_
_atom_site_type_symbol
_atom_site_label
_atom_site_fract_x
_atom_site_fract_y
_atom_site_fract_z
Si Si1 0.948564 0.658384 0.122970
Si Si2 0.048953 0.339479 0.783062
Si Si3 0.447089 0.841881 0.452766
Si Si4 0.448108 0.341938 0.624825
Si Si5 0.048060 0.159840 0.703921
Si Si6 0.553946 0.157431 0.954888
O O1 0.750000 0.656926 0.123876
O O2 0.004970 0.500000 0.116159
O O3 0.003902 0.701079 0.169836
O O4 0.001320 0.754883 0.085096
O O5 0.250000 0.338340 0.782665
O O6 0.000294 0.500000 0.775458
O O7 0.994226 0.237244 0.746384
O O8 0.500000 0.805501 0.500000
O O9 0.250000 0.843263 0.451050
O O10 0.510875 0.735722 0.418237
O O11 0.507267 0.000000 0.444282
O O12 0.250000 0.348602 0.628432
O O13 0.511014 0.500000 0.626048
O O14 0.507516 0.248894 0.663820
O O15 0.250000 0.159485 0.703787
O O16 0.994882 0.000000 0.701827
O O17 0.750000 0.150466 0.955134
O O18 0.486086 0.000000 0.952049
O O19 0.500000 0.216400 0.000000
#
# Coordination Sequence:
#
# PCOD9403353 Si02
#       6
#     8   8   8   8   8   8
#     4   9  18  32  51  76 104 134 168 206 250 300
#     4   8  14  26  44  68 100 133 164 202 248 297
#     4  10  21  37  57  79 103 133 169 210 257 307
#     4  10  20  33  51  76 106 140 175 211 253 300
#     4   9  16  26  44  72 103 134 170 211 252 294
#     4  10  21  36  53  73  98 130 168 209 254 303
#
# _framework density 19.250340000000001
#
# number of rings (size 3 to 8) (size 9 to 14) (size 15 to 20)
#    0.000    2.667    0.000    3.000    0.000    6.667 
#    0.000    1.667    0.000    1.000    0.000    4.667 
#    0.000    0.000    0.000    0.000    0.000    0.000 
#
# Total GULP energy -267801.440387 kJ/mol
# GULP energy per Si atom -5579.196675 kJ/mol
# Density = 1.920653 g / cm^3
# Si number density = 19.250340 Si / 1000 Ang^3
#
#
#
# Elastic Constant Matrix: (Units=GPa)
#
#
# Indices 1 2 3 4 5 6 
#
# 1 10.8668 12.8734 10.2814 0.0000 0.0000 0.0000
# 2 12.8734 150.6271 137.5987 0.0000 0.0000 0.0000
# 3 10.2814 137.5987 196.5993 0.0000 0.0000 0.0000
# 4 0.0000 0.0000 0.0000 81.2371 0.0000 0.0000
# 5 0.0000 0.0000 0.0000 0.0000 19.0072 0.0000
# 6 0.0000 0.0000 0.0000 0.0000 0.0000 16.0641
#
#
#
# Elastic Compliance Matrix: (Units=1/GPa)
#
#
# Indices 1 2 3 4 5 6 
#
# 1 0.102714 -0.010735 0.002142 0.000000 0.000000 0.000000
# 2 -0.010735 0.019531 -0.013108 0.000000 0.000000 0.000000
# 3 0.002142 -0.013108 0.014149 0.000000 0.000000 0.000000
# 4 0.000000 0.000000 0.000000 0.012310 0.000000 0.000000
# 5 0.000000 0.000000 0.000000 0.000000 0.052612 0.000000
# 6 0.000000 0.000000 0.000000 0.000000 0.000000 0.062250
#
#
# Mechanical properties :
#
#
# Convention : Reuss Voigt Hill
#
# Bulk Modulus (GPa) = 10.75373 75.51114 43.13243
# Shear Modulus (GPa) = 14.79446 36.41766 25.60606
#
# Velocity S-wave (km/s) = 2.77524 4.35419 3.65109
# Velocity P-wave (km/s) = 3.98343 8.03677 6.34261
#
# Compressibility (1/GPa) = 0.09299099
#
# Stress axis : x y z
#
# Youngs Moduli (GPa) = 9.73576 51.20186 70.67823
#
# Poissons Ratio (x) = 0.54966 -0.15138
# Poissons Ratio (y) = 0.10451 0.92644
# Poissons Ratio (z) = -0.02085 0.67115
#
# Static dielectric constant tensor:
#      x y z
#    x 1.692690 0.000000 0.000000 
#    y 0.000000 1.667340 0.000000 
#    z 0.000000 0.000000 1.651130 
# 
# From -- ./inp_files/37035.got.cif
#   From: 2010.05.17/outbox.cif.g08.bks.cpg/sg51_19_cif.got.tgz:37035.got - 2010.06.03 11:52:47.
