data_PCOD9403183
_publ_section_title
;
Structure prediction by ZEFSAII (Michael W. Deem and Ramdas Pophale) SiO2 
 PCOD9403183
Probable space group: P M M A
;
_chemical_formula_sum "Si O2"
_cell_formula_units_Z 64
_cell_length_a 8.908520
_cell_length_b 14.399385
_cell_length_c 29.509523
_cell_angle_alpha 90.000000
_cell_angle_beta 90.000000
_cell_angle_gamma 90.000000
_cell_volume 3785.399257
_symmetry_space_group_name_H-M "P M M A"
_symmetry_group_IT_number 51
_symmetry_cell_setting 'orthorhombic'
loop_
_space_group_symop_operation_xyz
x,y,z
1/2-x,-y,z
1/2+x,-y,-z
-x,y,-z
-x,-y,-z
1/2+x,y,-z
1/2-x,y,z
x,-y,z
loop_
_atom_site_type_symbol
_atom_site_label
_atom_site_fract_x
_atom_site_fract_y
_atom_site_fract_z
Si Si1 0.928569 0.108885 0.911650
Si Si2 0.429012 0.391073 0.771857
Si Si3 0.576957 0.112956 0.453565
Si Si4 0.928683 0.717110 0.046940
Si Si5 0.074799 0.111055 0.814291
Si Si6 0.930367 0.780206 0.730466
Si Si7 0.924989 0.388493 0.868931
Si Si8 0.569481 0.107778 0.640858
O O1 0.750000 0.124387 0.914737
O O2 0.016052 0.177634 0.944577
O O3 0.986401 0.130113 0.860802
O O4 0.958635 0.000000 0.920362
O O5 0.250000 0.378062 0.772062
O O6 0.460870 0.500000 0.763973
O O7 0.506421 0.323320 0.736058
O O8 0.495303 0.366227 0.821346
O O9 0.500000 0.145350 0.500000
O O10 0.750000 0.140526 0.452887
O O11 0.496690 0.140579 0.407001
O O12 0.570428 0.000000 0.454266
O O13 0.750000 0.712105 0.045346
O O14 0.992930 0.659580 0.089275
O O15 0.000000 0.683011 0.000000
O O16 0.250000 0.137665 0.819242
O O17 0.000345 0.162212 0.772090
O O18 0.068255 0.000000 0.806925
O O19 0.750000 0.780803 0.733848
O O20 0.974545 0.829481 0.683483
O O21 0.750000 0.360498 0.867323
O O22 0.931546 0.500000 0.874259
O O23 0.750000 0.108503 0.637711
O O24 0.523113 0.000000 0.648456
#
# Coordination Sequence:
#
# PCOD9403183 Si02
#       8
#     8   8   8   8   8   8   8   8
#     4  10  21  38  58  77  99 129 166 205 242 283
#     4  10  21  37  56  77 101 130 165 204 245 292
#     4   9  16  26  42  63  89 126 171 215 255 294
#     4  12  25  40  58  79 105 132 160 196 238 288
#     4  10  20  33  50  73 101 133 168 203 239 285
#     4  11  21  32  49  72 101 135 168 206 252 299
#     4  10  21  39  62  84 105 129 159 196 239 290
#     4   9  18  31  45  65  97 135 173 211 251 295
#
# _framework density 16.907067999999999
#
# number of rings (size 3 to 8) (size 9 to 14) (size 15 to 20)
#    0.000    1.875    0.000    4.500    0.000    6.500 
#    0.000    1.250    0.000    0.000    0.000    0.000 
#    0.000    0.500    0.000    1.625    0.000    2.375 
#
# Total GULP energy -357533.830584 kJ/mol
# GULP energy per Si atom -5586.466103 kJ/mol
# Density = 1.686859 g / cm^3
# Si number density = 16.907068 Si / 1000 Ang^3
#
#
#
# Elastic Constant Matrix: (Units=GPa)
#
#
# Indices 1 2 3 4 5 6 
#
# 1 92.8505 33.0777 46.9299 0.0000 0.0000 0.0000
# 2 33.0777 51.9341 47.9600 0.0000 0.0000 0.0000
# 3 46.9299 47.9600 106.7112 0.0000 0.0000 0.0000
# 4 0.0000 0.0000 0.0000 16.8385 0.0000 0.0000
# 5 0.0000 0.0000 0.0000 0.0000 30.3342 0.0000
# 6 0.0000 0.0000 0.0000 0.0000 0.0000 25.3296
#
#
#
# Elastic Compliance Matrix: (Units=1/GPa)
#
#
# Indices 1 2 3 4 5 6 
#
# 1 0.014819 -0.005846 -0.003889 0.000000 0.000000 0.000000
# 2 -0.005846 0.035224 -0.013260 0.000000 0.000000 0.000000
# 3 -0.003889 -0.013260 0.017041 0.000000 0.000000 0.000000
# 4 0.000000 0.000000 0.000000 0.059388 0.000000 0.000000
# 5 0.000000 0.000000 0.000000 0.000000 0.032966 0.000000
# 6 0.000000 0.000000 0.000000 0.000000 0.000000 0.039479
#
#
# Mechanical properties :
#
#
# Convention : Reuss Voigt Hill
#
# Bulk Modulus (GPa) = 47.41051 56.38123 51.89587
# Shear Modulus (GPa) = 19.84606 22.73567 21.29087
#
# Velocity S-wave (km/s) = 3.42984 3.67105 3.55249
# Velocity P-wave (km/s) = 6.61723 7.16861 6.89843
#
# Compressibility (1/GPa) = 0.02109237
#
# Stress axis : x y z
#
# Youngs Moduli (GPa) = 67.48271 28.38970 58.68189
#
# Poissons Ratio (x) = 0.16598 0.22824
# Poissons Ratio (y) = 0.39453 0.77811
# Poissons Ratio (z) = 0.26247 0.37644
#
# Static dielectric constant tensor:
#      x y z
#    x 1.562720 0.000000 0.000000 
#    y 0.000000 1.585930 0.000000 
#    z 0.000000 0.000000 1.546950 
# 
# From -- ./inp_files/34962.got.cif
#   From: 2010.05.17/outbox.cif.g08.bks.cpg/sg51_18_cif.got.tgz:34962.got - 2010.06.03 11:52:47.
