data_PCOD9403904
_publ_section_title
;
Structure prediction by ZEFSAII (Michael W. Deem and Ramdas Pophale) SiO2 
 PCOD9403904
Probable space group: P M M A
;
_chemical_formula_sum "Si O2"
_cell_formula_units_Z 64
_cell_length_a 8.400360
_cell_length_b 24.658993
_cell_length_c 15.525389
_cell_angle_alpha 90.000000
_cell_angle_beta 90.000000
_cell_angle_gamma 90.000000
_cell_volume 3215.997675
_symmetry_space_group_name_H-M "P M M A"
_symmetry_group_IT_number 51
_symmetry_cell_setting 'orthorhombic'
loop_
_space_group_symop_operation_xyz
x,y,z
1/2-x,-y,z
1/2+x,-y,-z
-x,y,-z
-x,-y,-z
1/2+x,y,-z
1/2-x,y,z
x,-y,z
loop_
_atom_site_type_symbol
_atom_site_label
_atom_site_fract_x
_atom_site_fract_y
_atom_site_fract_z
Si Si1 0.942432 0.060278 0.272404
Si Si2 0.072409 0.435447 0.412352
Si Si3 0.440316 0.849580 0.404318
Si Si4 0.556908 0.676257 0.229610
Si Si5 0.058185 0.108943 0.906291
Si Si6 0.436927 0.440272 0.773013
Si Si7 0.942140 0.233790 0.094472
Si Si8 0.059518 0.274410 0.404039
O O1 0.750000 0.060723 0.272983
O O2 0.994833 0.073780 0.174963
O O3 0.999085 0.107230 0.335742
O O4 0.996250 0.000000 0.298016
O O5 0.250000 0.413623 0.394695
O O6 0.090389 0.500000 0.426399
O O7 0.000000 0.412423 0.500000
O O8 0.960207 0.432727 0.329669
O O9 0.500000 0.863428 0.500000
O O10 0.250000 0.849555 0.404208
O O11 0.494993 0.787803 0.385533
O O12 0.750000 0.675181 0.229501
O O13 0.499510 0.617545 0.194256
O O14 0.502389 0.725109 0.168135
O O15 0.502182 0.688258 0.326859
O O16 0.250000 0.108789 0.907659
O O17 0.004725 0.171504 0.892364
O O18 0.000000 0.090905 0.000000
O O19 0.250000 0.442767 0.793406
O O20 0.506883 0.500000 0.795174
O O21 0.750000 0.233806 0.095393
O O22 0.000000 0.250843 0.000000
O O23 0.250000 0.275428 0.404449
O O24 0.000000 0.287730 0.500000
#
# Coordination Sequence:
#
# PCOD9403904 Si02
#       8
#     8   8   8   8   8   8   8   8
#     4  10  21  36  54  78 109 145 183 221 261 306
#     4   9  16  26  41  60  83 115 156 199 240 283
#     4  10  21  37  57  79 104 138 179 223 270 315
#     4  10  20  34  54  78 104 136 172 213 262 312
#     4   9  18  33  53  77 106 138 171 210 258 312
#     4   9  18  32  48  67  93 127 167 207 248 299
#     4   9  18  33  54  79 104 131 166 211 263 315
#     4  10  21  36  55  80 108 138 174 217 265 316
#
# _framework density 19.900513
#
# number of rings (size 3 to 8) (size 9 to 14) (size 15 to 20)
#    0.000    2.500    0.000    1.875    0.000    6.750 
#    0.000    2.500    0.000    0.375    0.000    0.000 
#    0.000    0.000    0.000    0.000    0.000    0.000 
#
# Total GULP energy -356979.111392 kJ/mol
# GULP energy per Si atom -5577.798616 kJ/mol
# Density = 1.985522 g / cm^3
# Si number density = 19.900513 Si / 1000 Ang^3
#
#
#
# Elastic Constant Matrix: (Units=GPa)
#
#
# Indices 1 2 3 4 5 6 
#
# 1 12.9515 15.3516 5.4888 0.0000 0.0000 0.0000
# 2 15.3516 115.3632 44.1140 0.0000 0.0000 0.0000
# 3 5.4888 44.1140 55.0219 0.0000 0.0000 0.0000
# 4 0.0000 0.0000 0.0000 -12.3109 0.0000 0.0000
# 5 0.0000 0.0000 0.0000 0.0000 26.5104 0.0000
# 6 0.0000 0.0000 0.0000 0.0000 0.0000 0.8459
#
#
#
# Elastic Compliance Matrix: (Units=1/GPa)
#
#
# Indices 1 2 3 4 5 6 
#
# 1 0.091702 -0.012554 0.000917 0.000000 0.000000 0.000000
# 2 -0.012554 0.014219 -0.010148 0.000000 0.000000 0.000000
# 3 0.000917 -0.010148 0.026219 0.000000 0.000000 0.000000
# 4 0.000000 0.000000 0.000000 -0.081229 0.000000 0.000000
# 5 0.000000 0.000000 0.000000 0.000000 0.037721 0.000000
# 6 0.000000 0.000000 0.000000 0.000000 0.000000 1.182146
#
#
# Mechanical properties :
#
#
# Convention : Reuss Voigt Hill
#
# Bulk Modulus (GPa) = 11.29030 34.80505 23.04768
# Shear Modulus (GPa) = 3.72059 10.90123 7.31091
#
# Velocity S-wave (km/s) = 1.36882 2.34302 1.91878
# Velocity P-wave (km/s) = 2.86075 4.98469 4.06393
#
# Compressibility (1/GPa) = 0.08857160
#
# Stress axis : x y z
#
# Youngs Moduli (GPa) = 10.90486 70.32657 38.13975
#
# Poissons Ratio (x) = 0.88286 -0.03498
# Poissons Ratio (y) = 0.13690 0.38705
# Poissons Ratio (z) = -0.01000 0.71368
#
# Static dielectric constant tensor:
#      x y z
#    x 1.696880 0.000000 0.000000 
#    y 0.000000 1.766870 0.000000 
#    z 0.000000 0.000000 1.667100 
# 
# From -- ./inp_files/22313.got.cif
#   From: 2010.05.17/outbox.cif.g08.bks.cpg/sg51_12_cif.got.tgz:22313.got - 2010.06.03 11:52:47.
