data_PCOD9403550
_publ_section_title
;
Structure prediction by ZEFSAII (Michael W. Deem and Ramdas Pophale) SiO2 
 PCOD9403550
Probable space group: P M M A
;
_chemical_formula_sum "Si O2"
_cell_formula_units_Z 64
_cell_length_a 9.306014
_cell_length_b 14.049779
_cell_length_c 26.562685
_cell_angle_alpha 90.000000
_cell_angle_beta 90.000000
_cell_angle_gamma 90.000000
_cell_volume 3473.003065
_symmetry_space_group_name_H-M "P M M A"
_symmetry_group_IT_number 51
_symmetry_cell_setting 'orthorhombic'
loop_
_space_group_symop_operation_xyz
x,y,z
1/2-x,-y,z
1/2+x,-y,-z
-x,y,-z
-x,-y,-z
1/2+x,y,-z
1/2-x,y,z
x,-y,z
loop_
_atom_site_type_symbol
_atom_site_label
_atom_site_fract_x
_atom_site_fract_y
_atom_site_fract_z
Si Si1 0.916228 0.614954 0.246218
Si Si2 0.921080 0.890842 0.301722
Si Si3 0.918391 0.385588 0.551173
Si Si4 0.419950 0.697326 0.949498
Si Si5 0.921383 0.703991 0.354494
Si Si6 0.584268 0.615065 0.853520
Si Si7 0.419155 0.109107 0.899758
Si Si8 0.586756 0.884290 0.798938
O O1 0.750000 0.643502 0.236501
O O2 0.920694 0.500000 0.248283
O O3 0.956956 0.653894 0.301124
O O4 0.015503 0.646120 0.199761
O O5 0.750000 0.888496 0.292392
O O6 0.951270 0.815559 0.345380
O O7 0.999333 0.858203 0.250823
O O8 0.961812 0.000000 0.312943
O O9 0.750000 0.362188 0.547913
O O10 0.931460 0.500000 0.556057
O O11 0.000000 0.357531 0.500000
O O12 0.991223 0.338563 0.599554
O O13 0.250000 0.677314 0.951847
O O14 0.490233 0.650238 0.900351
O O15 0.439634 0.811190 0.941881
O O16 0.500000 0.665917 0.000000
O O17 0.750000 0.690573 0.362631
O O18 0.750000 0.645752 0.858438
O O19 0.582003 0.500000 0.853588
O O20 0.250000 0.109495 0.886313
O O21 0.508641 0.140038 0.850837
O O22 0.457470 0.000000 0.913513
O O23 0.750000 0.850110 0.797196
O O24 0.589164 0.000000 0.798632
#
# Coordination Sequence:
#
# PCOD9403550 Si02
#       8
#     8   8   8   8   8   8   8   8
#     4   9  18  33  53  79 111 144 178 219 270 328
#     4   9  18  32  49  73 110 153 192 228 268 318
#     4  10  21  37  58  84 115 150 187 230 280 332
#     4  11  24  40  59  81 105 135 175 221 270 325
#     4  10  20  33  54  83 114 151 192 231 274 322
#     4  10  22  40  60  81 107 140 177 220 271 325
#     4   9  19  36  56  77 104 139 175 212 260 322
#     4   9  17  29  47  73 103 136 176 221 266 312
#
# _framework density 18.427855999999998
#
# number of rings (size 3 to 8) (size 9 to 14) (size 15 to 20)
#    0.000    2.375    0.000    1.875    1.750    6.000 
#    0.000    1.250    0.000    0.375    0.000    0.000 
#    0.000    0.000    0.000    0.000    0.000    0.000 
#
# Total GULP energy -357342.113436 kJ/mol
# GULP energy per Si atom -5583.470522 kJ/mol
# Density = 1.838591 g / cm^3
# Si number density = 18.427856 Si / 1000 Ang^3
#
#
#
# Elastic Constant Matrix: (Units=GPa)
#
#
# Indices 1 2 3 4 5 6 
#
# 1 99.4508 39.5042 92.8947 0.0000 0.0000 0.0000
# 2 39.5042 47.9903 41.7072 0.0000 0.0000 0.0000
# 3 92.8947 41.7072 149.8953 0.0000 0.0000 0.0000
# 4 0.0000 0.0000 0.0000 25.2934 0.0000 0.0000
# 5 0.0000 0.0000 0.0000 0.0000 34.3595 0.0000
# 6 0.0000 0.0000 0.0000 0.0000 0.0000 19.6497
#
#
#
# Elastic Compliance Matrix: (Units=1/GPa)
#
#
# Indices 1 2 3 4 5 6 
#
# 1 0.027207 -0.010212 -0.014020 0.000000 0.000000 0.000000
# 2 -0.010212 0.031316 -0.002385 0.000000 0.000000 0.000000
# 3 -0.014020 -0.002385 0.016023 0.000000 0.000000 0.000000
# 4 0.000000 0.000000 0.000000 0.039536 0.000000 0.000000
# 5 0.000000 0.000000 0.000000 0.000000 0.029104 0.000000
# 6 0.000000 0.000000 0.000000 0.000000 0.000000 0.050891
#
#
# Mechanical properties :
#
#
# Convention : Reuss Voigt Hill
#
# Bulk Modulus (GPa) = 46.91795 71.72760 59.32278
# Shear Modulus (GPa) = 19.65286 24.07588 21.86437
#
# Velocity S-wave (km/s) = 3.26924 3.61847 3.44828
# Velocity P-wave (km/s) = 6.30604 7.51437 6.93656
#
# Compressibility (1/GPa) = 0.02131380
#
# Stress axis : x y z
#
# Youngs Moduli (GPa) = 36.75504 31.93220 62.40887
#
# Poissons Ratio (x) = 0.32609 0.87496
# Poissons Ratio (y) = 0.37534 0.14884
# Poissons Ratio (z) = 0.51530 0.07615
#
# Static dielectric constant tensor:
#      x y z
#    x 1.619510 0.000000 0.000000 
#    y 0.000000 1.683730 0.000000 
#    z 0.000000 0.000000 1.583430 
# 
# From -- ./inp_files/35025.got.cif
#   From: 2010.05.17/outbox.cif.g08.bks.cpg/sg51_18_cif.got.tgz:35025.got - 2010.06.03 11:52:47.
