data_PCOD9403855
_publ_section_title
;
Structure prediction by ZEFSAII (Michael W. Deem and Ramdas Pophale) SiO2 
 PCOD9403855
Probable space group: P M M A
;
_chemical_formula_sum "Si O2"
_cell_formula_units_Z 64
_cell_length_a 23.595990
_cell_length_b 13.285681
_cell_length_c 8.596578
_cell_angle_alpha 90.000000
_cell_angle_beta 90.000000
_cell_angle_gamma 90.000000
_cell_volume 2694.930887
_symmetry_space_group_name_H-M "P M M A"
_symmetry_group_IT_number 51
_symmetry_cell_setting 'orthorhombic'
loop_
_space_group_symop_operation_xyz
x,y,z
1/2-x,-y,z
1/2+x,-y,-z
-x,y,-z
-x,-y,-z
1/2+x,y,-z
1/2-x,y,z
x,-y,z
loop_
_atom_site_type_symbol
_atom_site_label
_atom_site_fract_x
_atom_site_fract_y
_atom_site_fract_z
Si Si1 0.872529 0.619412 0.126913
Si Si2 0.032257 0.615390 0.647317
Si Si3 0.809305 0.780546 0.003001
Si Si4 0.522060 0.880499 0.680528
Si Si5 0.685475 0.110286 0.440318
Si Si6 0.421994 0.676666 0.210799
Si Si7 0.312135 0.304984 0.345237
Si Si8 0.405679 0.112808 0.835298
O O1 0.864511 0.500000 0.131677
O O2 0.910777 0.654045 0.272375
O O3 0.815734 0.684629 0.117531
O O4 0.903335 0.649676 0.964928
O O5 0.044934 0.500000 0.606695
O O6 0.000000 0.663223 0.500000
O O7 0.981762 0.621534 0.770649
O O8 0.750000 0.835426 0.029893
O O9 0.866180 0.840604 0.034138
O O10 0.808412 0.739678 0.828944
O O11 0.500000 0.877492 0.500000
O O12 0.566400 0.793377 0.732712
O O13 0.467228 0.850591 0.784656
O O14 0.537414 0.000000 0.706028
O O15 0.750000 0.110939 0.376578
O O16 0.681408 0.208871 0.544495
O O17 0.636356 0.113796 0.312990
O O18 0.679250 0.000000 0.521199
O O19 0.372069 0.637274 0.328357
O O20 0.250000 0.353623 0.377676
O O21 0.416879 0.000000 0.884390
#
# Coordination Sequence:
#
# PCOD9403855 Si02
#       8
#     8   8   8   8   8   8   8   8
#     4  10  22  40  61  85 113 144 184 237 294 351
#     4  10  21  37  59  86 112 141 182 231 285 347
#     4  10  21  37  57  82 113 149 189 232 281 338
#     4  10  21  36  56  85 121 160 199 239 286 341
#     4   9  17  31  52  76 104 143 190 233 271 318
#     4  11  20  34  59  84 111 146 185 231 284 341
#     4   9  20  35  50  73 103 137 179 224 270 323
#     4  10  20  34  53  80 114 150 188 230 277 331
#
# _framework density 23.748291999999999
#
# number of rings (size 3 to 8) (size 9 to 14) (size 15 to 20)
#    0.000    2.125    0.000    3.000    0.000    6.000 
#    0.000    3.125    0.000    8.625    0.000    1.750 
#    0.000    3.000    0.000    0.000    0.000    0.000 
#
# Total GULP energy -356645.593494 kJ/mol
# GULP energy per Si atom -5572.587398 kJ/mol
# Density = 2.369424 g / cm^3
# Si number density = 23.748292 Si / 1000 Ang^3
#
#
#
# Elastic Constant Matrix: (Units=GPa)
#
#
# Indices 1 2 3 4 5 6 
#
# 1 95.4762 -7.6575 -5.0800 0.0000 0.0000 0.0000
# 2 -7.6575 71.2206 -5.5672 0.0000 0.0000 0.0000
# 3 -5.0800 -5.5672 40.3578 0.0000 0.0000 0.0000
# 4 0.0000 0.0000 0.0000 30.8378 0.0000 0.0000
# 5 0.0000 0.0000 0.0000 0.0000 10.1858 0.0000
# 6 0.0000 0.0000 0.0000 0.0000 0.0000 3.7636
#
#
#
# Elastic Compliance Matrix: (Units=1/GPa)
#
#
# Indices 1 2 3 4 5 6 
#
# 1 0.010656 0.001264 0.001516 0.000000 0.000000 0.000000
# 2 0.001264 0.014344 0.002138 0.000000 0.000000 0.000000
# 3 0.001516 0.002138 0.025264 0.000000 0.000000 0.000000
# 4 0.000000 0.000000 0.000000 0.032428 0.000000 0.000000
# 5 0.000000 0.000000 0.000000 0.000000 0.098176 0.000000
# 6 0.000000 0.000000 0.000000 0.000000 0.000000 0.265702
#
#
# Mechanical properties :
#
#
# Convention : Reuss Voigt Hill
#
# Bulk Modulus (GPa) = 16.63919 18.93837 17.78878
# Shear Modulus (GPa) = 10.94648 23.98138 17.46393
#
# Velocity S-wave (km/s) = 2.14928 3.18121 2.71472
# Velocity P-wave (km/s) = 3.63055 4.63523 4.16331
#
# Compressibility (1/GPa) = 0.06009908
#
# Stress axis : x y z
#
# Youngs Moduli (GPa) = 93.84518 69.71596 39.58198
#
# Poissons Ratio (x) = -0.08813 -0.05999
# Poissons Ratio (y) = -0.11864 -0.08462
# Poissons Ratio (z) = -0.14224 -0.14904
#
# Static dielectric constant tensor:
#      x y z
#    x 1.851450 0.000000 0.000000 
#    y 0.000000 1.964050 0.000000 
#    z 0.000000 0.000000 1.971390 
# 
# From -- ./inp_files/11884.got.cif
#   From: 2010.05.17/outbox.cif.g08.bks.cpg/sg51_6_cif.got.tgz:11884.got - 2010.06.03 11:52:47.
