data_PCOD9403132
_publ_section_title
;
Structure prediction by ZEFSAII (Michael W. Deem and Ramdas Pophale) SiO2 
 PCOD9403132
Probable space group: P M M A
;
_chemical_formula_sum "Si O2"
_cell_formula_units_Z 64
_cell_length_a 8.415055
_cell_length_b 19.194847
_cell_length_c 22.150629
_cell_angle_alpha 90.000000
_cell_angle_beta 90.000000
_cell_angle_gamma 90.000000
_cell_volume 3577.895705
_symmetry_space_group_name_H-M "P M M A"
_symmetry_group_IT_number 51
_symmetry_cell_setting 'orthorhombic'
loop_
_space_group_symop_operation_xyz
x,y,z
1/2-x,-y,z
1/2+x,-y,-z
-x,y,-z
-x,-y,-z
1/2+x,y,-z
1/2-x,y,z
x,-y,z
loop_
_atom_site_type_symbol
_atom_site_label
_atom_site_fract_x
_atom_site_fract_y
_atom_site_fract_z
Si Si1 0.439200 0.922978 0.691595
Si Si2 0.440279 0.578515 0.068488
Si Si3 0.558576 0.423452 0.407569
Si Si4 0.559822 0.318900 0.169083
Si Si5 0.559395 0.276983 0.607570
Si Si6 0.442452 0.575349 0.732210
Si Si7 0.438364 0.221841 0.261989
Si Si8 0.059809 0.123549 0.435247
O O1 0.250000 0.915984 0.698696
O O2 0.522314 0.858339 0.724179
O O3 0.482238 0.915475 0.620993
O O4 0.488109 0.000000 0.712524
O O5 0.250000 0.578607 0.069313
O O6 0.494396 0.500000 0.088733
O O7 0.499375 0.642776 0.109240
O O8 0.500000 0.586568 0.000000
O O9 0.750000 0.424063 0.411720
O O10 0.503304 0.500000 0.431174
O O11 0.501058 0.346744 0.425680
O O12 0.508054 0.422277 0.337051
O O13 0.750000 0.320798 0.166863
O O14 0.494432 0.367693 0.223129
O O15 0.508753 0.245345 0.197510
O O16 0.750000 0.281826 0.610436
O O17 0.500378 0.263903 0.677389
O O18 0.517215 0.205521 0.573582
O O19 0.250000 0.580403 0.731027
O O20 0.485720 0.500000 0.756919
O O21 0.250000 0.231788 0.260475
O O22 0.250000 0.117557 0.430915
O O23 0.000000 0.099325 0.500000
#
# Coordination Sequence:
#
# PCOD9403132 Si02
#       8
#     8   8   8   8   8   8   8   8
#     4  10  21  37  57  80 106 136 167 200 243 298
#     4  10  21  36  51  69  98 139 187 234 277 319
#     4   9  16  26  41  62  87 117 154 193 237 291
#     4  11  19  29  49  72  97 132 173 217 261 306
#     4   9  18  31  46  66  94 124 156 199 250 297
#     4   8  14  23  36  59  89 119 154 195 239 287
#     4  10  20  33  49  73 104 134 166 204 250 305
#     4  10  21  36  54  77 101 129 166 205 246 296
#
# _framework density 17.887608
#
# number of rings (size 3 to 8) (size 9 to 14) (size 15 to 20)
#    0.000    2.375    1.250    3.750    0.000    5.250 
#    0.000    0.000    0.000    0.375    0.000    0.000 
#    0.000    0.500    0.000    1.875    0.000    2.875 
#
# Total GULP energy -356559.419522 kJ/mol
# GULP energy per Si atom -5571.240930 kJ/mol
# Density = 1.784690 g / cm^3
# Si number density = 17.887608 Si / 1000 Ang^3
#
#
#
# Elastic Constant Matrix: (Units=GPa)
#
#
# Indices 1 2 3 4 5 6 
#
# 1 32.5947 15.6489 15.5717 0.0000 0.0000 0.0000
# 2 15.6489 92.4760 25.7928 0.0000 0.0000 0.0000
# 3 15.5717 25.7928 81.7349 0.0000 0.0000 0.0000
# 4 0.0000 0.0000 0.0000 -98.9329 0.0000 0.0000
# 5 0.0000 0.0000 0.0000 0.0000 18.1901 0.0000
# 6 0.0000 0.0000 0.0000 0.0000 0.0000 20.0806
#
#
#
# Elastic Compliance Matrix: (Units=1/GPa)
#
#
# Indices 1 2 3 4 5 6 
#
# 1 0.035384 -0.004504 -0.005320 0.000000 0.000000 0.000000
# 2 -0.004504 0.012431 -0.003065 0.000000 0.000000 0.000000
# 3 -0.005320 -0.003065 0.014215 0.000000 0.000000 0.000000
# 4 0.000000 0.000000 0.000000 -0.010108 0.000000 0.000000
# 5 0.000000 0.000000 0.000000 0.000000 0.054975 0.000000
# 6 0.000000 0.000000 0.000000 0.000000 0.000000 0.049799
#
#
# Mechanical properties :
#
#
# Convention : Reuss Voigt Hill
#
# Bulk Modulus (GPa) = 27.58408 35.64805 31.61607
# Shear Modulus (GPa) = 25.69943 -2.14630 11.77657
#
# Velocity S-wave (km/s) = 3.79452 -1.09658 2.56865
# Velocity P-wave (km/s) = 5.88660 4.28589 5.14883
#
# Compressibility (1/GPa) = 0.03625279
#
# Stress axis : x y z
#
# Youngs Moduli (GPa) = 28.26164 80.44705 70.34688
#
# Poissons Ratio (x) = 0.36232 0.37423
# Poissons Ratio (y) = 0.12729 0.21559
# Poissons Ratio (z) = 0.15035 0.24654
#
# Static dielectric constant tensor:
#      x y z
#    x 1.613240 0.000000 0.000000 
#    y 0.000000 1.688010 0.000000 
#    z 0.000000 0.000000 1.621200 
# 
# From -- ./inp_files/32444.got.cif
#   From: 2010.05.17/outbox.cif.g08.bks.cpg/sg51_17_cif.got.tgz:32444.got - 2010.06.03 11:52:47.
