data_PCOD9403895
_publ_section_title
;
Structure prediction by ZEFSAII (Michael W. Deem and Ramdas Pophale) SiO2 
 PCOD9403895
Probable space group: P M M A
;
_chemical_formula_sum "Si O2"
_cell_formula_units_Z 64
_cell_length_a 7.733841
_cell_length_b 15.864993
_cell_length_c 25.951065
_cell_angle_alpha 90.000000
_cell_angle_beta 90.000000
_cell_angle_gamma 90.000000
_cell_volume 3184.126473
_symmetry_space_group_name_H-M "P M M A"
_symmetry_group_IT_number 51
_symmetry_cell_setting 'orthorhombic'
loop_
_space_group_symop_operation_xyz
x,y,z
1/2-x,-y,z
1/2+x,-y,-z
-x,y,-z
-x,-y,-z
1/2+x,y,-z
1/2-x,y,z
x,-y,z
loop_
_atom_site_type_symbol
_atom_site_label
_atom_site_fract_x
_atom_site_fract_y
_atom_site_fract_z
Si Si1 0.957981 0.778783 0.647102
Si Si2 0.460227 0.355007 0.787817
Si Si3 0.041956 0.904421 0.440757
Si Si4 0.462335 0.093283 0.139512
Si Si5 0.046437 0.228585 0.057935
Si Si6 0.450802 0.830535 0.241728
Si Si7 0.042309 0.409510 0.900541
Si Si8 0.042068 0.408616 0.674355
O O1 0.750000 0.786087 0.648506
O O2 0.022369 0.834179 0.599265
O O3 0.026927 0.817116 0.701274
O O4 0.992959 0.678581 0.646586
O O5 0.250000 0.349953 0.787928
O O6 0.536152 0.261496 0.784340
O O7 0.514651 0.397439 0.841055
O O8 0.511626 0.399307 0.734406
O O9 0.250000 0.906671 0.436356
O O10 0.000000 0.884486 0.500000
O O11 0.978363 0.000000 0.429887
O O12 0.250000 0.097421 0.141259
O O13 0.527918 0.165989 0.101287
O O14 0.524152 0.108480 0.198123
O O15 0.509147 0.000000 0.121496
O O16 0.250000 0.221613 0.062777
O O17 0.002576 0.325789 0.068608
O O18 0.000000 0.204366 0.000000
O O19 0.250000 0.853930 0.249169
O O20 0.250000 0.412659 0.899668
O O21 0.977746 0.500000 0.920372
O O22 0.250000 0.410473 0.673816
O O23 0.979815 0.500000 0.654611
#
# Coordination Sequence:
#
# PCOD9403895 Si02
#       8
#     8   8   8   8   8   8   8   8
#     4   9  18  30  48  76 107 136 170 211 254 299
#     4   9  16  28  48  72 101 133 165 200 240 290
#     4   9  18  33  52  75 103 136 175 217 259 304
#     4   9  18  33  54  78 102 129 162 200 246 301
#     4  11  23  39  57  75  98 128 165 209 253 299
#     4   9  16  29  49  74 104 134 163 197 244 297
#     4  10  20  34  54  78 102 130 164 202 248 300
#     4   9  17  29  46  71 104 141 176 206 243 296
#
# _framework density 20.099705
#
# number of rings (size 3 to 8) (size 9 to 14) (size 15 to 20)
#    0.000    2.625    1.250    0.750    0.000    3.500 
#    0.000    2.500    0.000    5.625    0.000    3.500 
#    0.000    0.000    0.000    0.000    0.000    0.000 
#
# Total GULP energy -356816.319812 kJ/mol
# GULP energy per Si atom -5575.254997 kJ/mol
# Density = 2.005396 g / cm^3
# Si number density = 20.099705 Si / 1000 Ang^3
#
#
#
# Elastic Constant Matrix: (Units=GPa)
#
#
# Indices 1 2 3 4 5 6 
#
# 1 29.6317 3.8950 5.0747 0.0000 0.0000 0.0000
# 2 3.8950 128.0304 80.2979 0.0000 0.0000 0.0000
# 3 5.0747 80.2979 105.9817 0.0000 0.0000 0.0000
# 4 0.0000 0.0000 0.0000 8.2417 0.0000 0.0000
# 5 0.0000 0.0000 0.0000 0.0000 11.9236 0.0000
# 6 0.0000 0.0000 0.0000 0.0000 0.0000 37.0369
#
#
#
# Elastic Compliance Matrix: (Units=1/GPa)
#
#
# Indices 1 2 3 4 5 6 
#
# 1 0.034027 -0.000025 -0.001610 0.000000 0.000000 0.000000
# 2 -0.000025 0.014883 -0.011275 0.000000 0.000000 0.000000
# 3 -0.001610 -0.011275 0.018055 0.000000 0.000000 0.000000
# 4 0.000000 0.000000 0.000000 0.121334 0.000000 0.000000
# 5 0.000000 0.000000 0.000000 0.000000 0.083867 0.000000
# 6 0.000000 0.000000 0.000000 0.000000 0.000000 0.027000
#
#
# Mechanical properties :
#
#
# Convention : Reuss Voigt Hill
#
# Bulk Modulus (GPa) = 24.30481 49.13101 36.71791
# Shear Modulus (GPa) = 14.76228 23.06553 18.91391
#
# Velocity S-wave (km/s) = 2.71302 3.39123 3.07091
# Velocity P-wave (km/s) = 4.68320 6.31115 5.55711
#
# Compressibility (1/GPa) = 0.04114412
#
# Stress axis : x y z
#
# Youngs Moduli (GPa) = 29.38863 67.19195 55.38587
#
# Poissons Ratio (x) = 0.00170 0.08918
# Poissons Ratio (y) = 0.00075 0.62447
# Poissons Ratio (z) = 0.04732 0.75758
#
# Static dielectric constant tensor:
#      x y z
#    x 1.758360 0.000000 0.000000 
#    y 0.000000 1.756140 0.000000 
#    z 0.000000 0.000000 1.695570 
# 
# From -- ./inp_files/34932.got.cif
#   From: 2010.05.17/outbox.cif.g08.bks.cpg/sg51_18_cif.got.tgz:34932.got - 2010.06.03 11:52:47.
