data_PCOD9403909
_publ_section_title
;
Structure prediction by ZEFSAII (Michael W. Deem and Ramdas Pophale) SiO2 
 PCOD9403909
Probable space group: P M M A
;
_chemical_formula_sum "Si O2"
_cell_formula_units_Z 32
_cell_length_a 8.180038
_cell_length_b 13.133315
_cell_length_c 13.094900
_cell_angle_alpha 90.000000
_cell_angle_beta 90.000000
_cell_angle_gamma 90.000000
_cell_volume 1406.798408
_symmetry_space_group_name_H-M "P M M A"
_symmetry_group_IT_number 51
_symmetry_cell_setting 'orthorhombic'
loop_
_space_group_symop_operation_xyz
x,y,z
1/2-x,-y,z
1/2+x,-y,-z
-x,y,-z
-x,-y,-z
1/2+x,y,-z
1/2-x,y,z
x,-y,z
loop_
_atom_site_type_symbol
_atom_site_label
_atom_site_fract_x
_atom_site_fract_y
_atom_site_fract_z
Si Si1 0.050277 0.890527 0.668895
Si Si2 0.059194 0.169551 0.890673
Si Si3 0.443797 0.389084 0.168597
Si Si4 0.446127 0.667344 0.609065
O O1 0.250000 0.890148 0.668308
O O2 0.991635 0.879009 0.786529
O O3 0.000402 0.786467 0.614484
O O4 0.995169 0.000000 0.628052
O O5 0.250000 0.150648 0.887249
O O6 0.027385 0.290686 0.880269
O O7 0.000000 0.132828 0.000000
O O8 0.250000 0.381276 0.150893
O O9 0.502203 0.500000 0.132389
O O10 0.477827 0.382212 0.290163
O O11 0.500000 0.625228 0.500000
O O12 0.250000 0.661489 0.618483
#
# Coordination Sequence:
#
# PCOD9403909 Si02
#       4
#     8   8   8   8
#     4   8  16  32  52  75 104 137 173 212 254 300
#     4  10  20  34  54  78 106 139 172 211 256 304
#     4  10  21  37  56  77 102 133 171 216 262 308
#     4  10  20  34  54  78 106 139 172 211 256 304
#
# _framework density 22.746683999999998
#
# number of rings (size 3 to 8) (size 9 to 14) (size 15 to 20)
#    0.000    2.500    0.000    3.750    0.000    4.000 
#    0.000    0.000    0.000   25.500    0.000    0.000 
#    0.000    0.000    0.000    0.000    0.000    0.000 
#
# Total GULP energy -178720.867757 kJ/mol
# GULP energy per Si atom -5585.027117 kJ/mol
# Density = 2.269491 g / cm^3
# Si number density = 22.746684 Si / 1000 Ang^3
#
#
#
# Elastic Constant Matrix: (Units=GPa)
#
#
# Indices 1 2 3 4 5 6 
#
# 1 15.2451 -14.2655 -5.3050 0.0000 0.0000 0.0000
# 2 -14.2655 96.1148 -9.9784 0.0000 0.0000 0.0000
# 3 -5.3050 -9.9784 100.1051 0.0000 0.0000 0.0000
# 4 0.0000 0.0000 0.0000 -13.0045 0.0000 0.0000
# 5 0.0000 0.0000 0.0000 0.0000 28.5550 0.0000
# 6 0.0000 0.0000 0.0000 0.0000 0.0000 6.7598
#
#
#
# Elastic Compliance Matrix: (Units=1/GPa)
#
#
# Indices 1 2 3 4 5 6 
#
# 1 0.078970 0.012282 0.005409 0.000000 0.000000 0.000000
# 2 0.012282 0.012423 0.001889 0.000000 0.000000 0.000000
# 3 0.005409 0.001889 0.010464 0.000000 0.000000 0.000000
# 4 0.000000 0.000000 0.000000 -0.076897 0.000000 0.000000
# 5 0.000000 0.000000 0.000000 0.000000 0.035020 0.000000
# 6 0.000000 0.000000 0.000000 0.000000 0.000000 0.147934
#
#
# Mechanical properties :
#
#
# Convention : Reuss Voigt Hill
#
# Bulk Modulus (GPa) = 7.09119 16.92970 12.01045
# Shear Modulus (GPa) = 23.17384 20.52964 21.85174
#
# Velocity S-wave (km/s) = 3.19529 3.00748 3.10281
# Velocity P-wave (km/s) = 4.09114 4.41801 4.25771
#
# Compressibility (1/GPa) = 0.14102006
#
# Stress axis : x y z
#
# Youngs Moduli (GPa) = 12.66299 80.49363 95.56139
#
# Poissons Ratio (x) = -0.98866 -0.51692
# Poissons Ratio (y) = -0.15553 -0.18054
# Poissons Ratio (z) = -0.06850 -0.15207
#
# Static dielectric constant tensor:
#      x y z
#    x 1.785680 0.000000 0.000000 
#    y 0.000000 1.877680 0.000000 
#    z 0.000000 0.000000 1.849650 
# 
# From -- ./inp_files/13704.got.cif
#   From: 2010.05.17/outbox.cif.g08.bks.cpg/sg51_7_cif.got.tgz:13704.got - 2010.06.03 11:52:47.
