data_PCOD9403126
_publ_section_title
;
Structure prediction by ZEFSAII (Michael W. Deem and Ramdas Pophale) SiO2 
 PCOD9403126
Probable space group: P M M A
;
_chemical_formula_sum "Si O2"
_cell_formula_units_Z 64
_cell_length_a 8.833494
_cell_length_b 14.631763
_cell_length_c 28.971561
_cell_angle_alpha 90.000000
_cell_angle_beta 90.000000
_cell_angle_gamma 90.000000
_cell_volume 3744.562400
_symmetry_space_group_name_H-M "P M M A"
_symmetry_group_IT_number 51
_symmetry_cell_setting 'orthorhombic'
loop_
_space_group_symop_operation_xyz
x,y,z
1/2-x,-y,z
1/2+x,-y,-z
-x,y,-z
-x,-y,-z
1/2+x,y,-z
1/2-x,y,z
x,-y,z
loop_
_atom_site_type_symbol
_atom_site_label
_atom_site_fract_x
_atom_site_fract_y
_atom_site_fract_z
Si Si1 0.931072 0.106540 0.950049
Si Si2 0.572931 0.890336 0.778187
Si Si3 0.068801 0.393601 0.279742
Si Si4 0.067786 0.396134 0.819086
Si Si5 0.068155 0.726022 0.368336
Si Si6 0.569407 0.107152 0.321617
Si Si7 0.431447 0.786256 0.864749
Si Si8 0.431353 0.605632 0.550742
O O1 0.750000 0.113712 0.951733
O O2 0.996092 0.169640 0.909908
O O3 0.969757 0.000000 0.940078
O O4 0.000000 0.129000 0.000000
O O5 0.750000 0.864412 0.778115
O O6 0.500908 0.869258 0.728447
O O7 0.487924 0.841406 0.819871
O O8 0.563159 0.000000 0.784556
O O9 0.250000 0.386245 0.274536
O O10 0.031789 0.500000 0.288960
O O11 0.022776 0.332284 0.322888
O O12 0.993095 0.368431 0.231304
O O13 0.250000 0.397207 0.817007
O O14 0.015424 0.500000 0.828590
O O15 0.023484 0.319175 0.855770
O O16 0.250000 0.727665 0.370954
O O17 0.003316 0.826654 0.359375
O O18 0.001061 0.674936 0.412496
O O19 0.750000 0.119260 0.320006
O O20 0.537132 0.000000 0.330101
O O21 0.250000 0.791887 0.867752
O O22 0.500000 0.621000 0.500000
O O23 0.250000 0.614464 0.549212
O O24 0.467754 0.500000 0.563807
#
# Coordination Sequence:
#
# PCOD9403126 Si02
#       8
#     8   8   8   8   8   8   8   8
#     4  10  21  37  56  78 104 131 159 197 247 302
#     4  10  20  33  49  72 104 139 173 210 254 305
#     4   9  18  31  47  71 103 136 169 206 249 297
#     4   9  19  34  49  68  98 135 172 209 248 290
#     4  11  21  33  53  78 105 138 175 215 259 311
#     4  10  21  36  52  72 102 139 178 220 262 305
#     4  11  21  32  51  76 101 133 171 210 252 299
#     4  10  21  37  57  81 109 139 171 210 257 309
#
# _framework density 17.091449999999998
#
# number of rings (size 3 to 8) (size 9 to 14) (size 15 to 20)
#    0.000    2.000    0.000    3.750    0.000    9.000 
#    0.000    1.250    0.000    0.750    0.000    0.000 
#    0.000    0.000    0.000    0.000    0.000    0.000 
#
# Total GULP energy -357445.787133 kJ/mol
# GULP energy per Si atom -5585.090424 kJ/mol
# Density = 1.705255 g / cm^3
# Si number density = 17.091450 Si / 1000 Ang^3
#
#
#
# Elastic Constant Matrix: (Units=GPa)
#
#
# Indices 1 2 3 4 5 6 
#
# 1 57.0643 49.5550 50.0847 0.0000 0.0000 0.0000
# 2 49.5550 96.8917 88.4521 0.0000 0.0000 0.0000
# 3 50.0847 88.4521 119.8836 0.0000 0.0000 0.0000
# 4 0.0000 0.0000 0.0000 34.3167 0.0000 0.0000
# 5 0.0000 0.0000 0.0000 0.0000 33.6090 0.0000
# 6 0.0000 0.0000 0.0000 0.0000 0.0000 23.7221
#
#
#
# Elastic Compliance Matrix: (Units=1/GPa)
#
#
# Indices 1 2 3 4 5 6 
#
# 1 0.032134 -0.012802 -0.003979 0.000000 0.000000 0.000000
# 2 -0.012802 0.036716 -0.021741 0.000000 0.000000 0.000000
# 3 -0.003979 -0.021741 0.026045 0.000000 0.000000 0.000000
# 4 0.000000 0.000000 0.000000 0.029140 0.000000 0.000000
# 5 0.000000 0.000000 0.000000 0.000000 0.029754 0.000000
# 6 0.000000 0.000000 0.000000 0.000000 0.000000 0.042155
#
#
# Mechanical properties :
#
#
# Convention : Reuss Voigt Hill
#
# Bulk Modulus (GPa) = 56.02349 72.22480 64.12415
# Shear Modulus (GPa) = 17.92511 24.04608 20.98560
#
# Velocity S-wave (km/s) = 3.24200 3.75494 3.50786
# Velocity P-wave (km/s) = 6.84572 7.81979 7.34891
#
# Compressibility (1/GPa) = 0.01784965
#
# Stress axis : x y z
#
# Youngs Moduli (GPa) = 31.11951 27.23629 38.39571
#
# Poissons Ratio (x) = 0.34869 0.15278
# Poissons Ratio (y) = 0.39841 0.83476
# Poissons Ratio (z) = 0.12383 0.59214
#
# Static dielectric constant tensor:
#      x y z
#    x 1.568480 0.000000 0.000000 
#    y 0.000000 1.602160 0.000000 
#    z 0.000000 0.000000 1.536150 
# 
# From -- ./inp_files/34895.got.cif
#   From: 2010.05.17/outbox.cif.g08.bks.cpg/sg51_18_cif.got.tgz:34895.got - 2010.06.03 11:52:47.
