data_PCOD9403187
_publ_section_title
;
Structure prediction by ZEFSAII (Michael W. Deem and Ramdas Pophale) SiO2 
 PCOD9403187
Probable space group: P M M A
;
_chemical_formula_sum "Si O2"
_cell_formula_units_Z 44
_cell_length_a 9.462341
_cell_length_b 7.699021
_cell_length_c 30.993025
_cell_angle_alpha 90.000000
_cell_angle_beta 90.000000
_cell_angle_gamma 90.000000
_cell_volume 2257.865490
_symmetry_space_group_name_H-M "P M M A"
_symmetry_group_IT_number 51
_symmetry_cell_setting 'orthorhombic'
loop_
_space_group_symop_operation_xyz
x,y,z
1/2-x,-y,z
1/2+x,-y,-z
-x,y,-z
-x,-y,-z
1/2+x,y,-z
1/2-x,y,z
x,-y,z
loop_
_atom_site_type_symbol
_atom_site_label
_atom_site_fract_x
_atom_site_fract_y
_atom_site_fract_z
Si Si1 0.588678 0.791035 0.302712
Si Si2 0.411079 0.294563 0.793549
Si Si3 0.590801 0.794316 0.876044
Si Si4 0.581123 0.203291 0.612874
Si Si5 0.080240 0.500000 0.454939
Si Si6 0.912648 0.787327 0.042302
O O1 0.750000 0.726466 0.307059
O O2 0.537601 0.740079 0.255126
O O3 0.495096 0.736813 0.343254
O O4 0.591664 0.000000 0.303623
O O5 0.250000 0.223014 0.797188
O O6 0.403001 0.500000 0.799368
O O7 0.513059 0.226333 0.830489
O O8 0.750000 0.721890 0.875823
O O9 0.493126 0.725725 0.914745
O O10 0.602737 0.000000 0.884059
O O11 0.750000 0.213064 0.618995
O O12 0.543865 0.330392 0.573653
O O13 0.545086 0.000000 0.604682
O O14 0.250000 0.500000 0.461629
O O15 0.000000 0.500000 0.500000
O O16 0.750000 0.730084 0.041061
O O17 0.910118 0.000000 0.042734
O O18 0.000000 0.735312 0.000000
#
# Coordination Sequence:
#
# PCOD9403187 Si02
#       6
#     8   8   8   8   4   8
#     4   9  18  33  54  80 107 136 174 218 263 313
#     4  10  21  35  51  74 104 138 174 214 261 314
#     4  10  20  33  50  73 101 134 173 215 259 311
#     4   9  19  36  56  79 110 145 181 224 273 326
#     4  10  22  38  56  82 112 146 186 228 275 324
#     4   9  16  27  46  72 100 129 164 210 262 313
#
# _framework density 19.48743
#
# number of rings (size 3 to 8) (size 9 to 14) (size 15 to 20)
#    0.000    2.545    0.000    1.636    1.273    6.182 
#    0.000    1.818    0.000    0.545    0.000    0.000 
#    0.000    0.000    0.000    0.000    0.000    0.000 
#
# Total GULP energy -245555.928405 kJ/mol
# GULP energy per Si atom -5580.816555 kJ/mol
# Density = 1.944308 g / cm^3
# Si number density = 19.487430 Si / 1000 Ang^3
#
#
#
# Elastic Constant Matrix: (Units=GPa)
#
#
# Indices 1 2 3 4 5 6 
#
# 1 117.9198 28.0343 108.7277 0.0000 0.0000 0.0000
# 2 28.0343 48.3423 32.7576 0.0000 0.0000 0.0000
# 3 108.7277 32.7576 192.9301 0.0000 0.0000 0.0000
# 4 0.0000 0.0000 0.0000 78.5260 0.0000 0.0000
# 5 0.0000 0.0000 0.0000 0.0000 38.6895 0.0000
# 6 0.0000 0.0000 0.0000 0.0000 0.0000 8.9156
#
#
#
# Elastic Compliance Matrix: (Units=1/GPa)
#
#
# Indices 1 2 3 4 5 6 
#
# 1 0.018348 -0.004106 -0.009643 0.000000 0.000000 0.000000
# 2 -0.004106 0.024294 -0.001811 0.000000 0.000000 0.000000
# 3 -0.009643 -0.001811 0.010925 0.000000 0.000000 0.000000
# 4 0.000000 0.000000 0.000000 0.012735 0.000000 0.000000
# 5 0.000000 0.000000 0.000000 0.000000 0.025847 0.000000
# 6 0.000000 0.000000 0.000000 0.000000 0.000000 0.112163
#
#
# Mechanical properties :
#
#
# Convention : Reuss Voigt Hill
#
# Bulk Modulus (GPa) = 44.54880 77.58128 61.06504
# Shear Modulus (GPa) = 20.58350 37.87107 29.22728
#
# Velocity S-wave (km/s) = 3.25352 4.41314 3.87693
# Velocity P-wave (km/s) = 6.08471 8.11573 7.17248
#
# Compressibility (1/GPa) = 0.02244729
#
# Stress axis : x y z
#
# Youngs Moduli (GPa) = 54.50287 41.16243 91.53275
#
# Poissons Ratio (x) = 0.16901 0.88264
# Poissons Ratio (y) = 0.22378 0.16577
# Poissons Ratio (z) = 0.52556 0.07454
#
# Static dielectric constant tensor:
#      x y z
#    x 1.680350 0.000000 0.000000 
#    y 0.000000 1.718110 0.000000 
#    z 0.000000 0.000000 1.642080 
# 
# From -- ./inp_files/36749.got.cif
#   From: 2010.05.17/outbox.cif.g08.bks.cpg/sg51_19_cif.got.tgz:36749.got - 2010.06.03 11:52:47.
