data_PCOD9403160
_publ_section_title
;
Structure prediction by ZEFSAII (Michael W. Deem and Ramdas Pophale) SiO2 
 PCOD9403160
Probable space group: P M M A
;
_chemical_formula_sum "Si O2"
_cell_formula_units_Z 48
_cell_length_a 9.374632
_cell_length_b 7.532877
_cell_length_c 32.008319
_cell_angle_alpha 90.000000
_cell_angle_beta 90.000000
_cell_angle_gamma 90.000000
_cell_volume 2260.361864
_symmetry_space_group_name_H-M "P M M A"
_symmetry_group_IT_number 51
_symmetry_cell_setting 'orthorhombic'
loop_
_space_group_symop_operation_xyz
x,y,z
1/2-x,-y,z
1/2+x,-y,-z
-x,y,-z
-x,-y,-z
1/2+x,y,-z
1/2-x,y,z
x,-y,z
loop_
_atom_site_type_symbol
_atom_site_label
_atom_site_fract_x
_atom_site_fract_y
_atom_site_fract_z
Si Si1 0.914844 0.216950 0.041329
Si Si2 0.914608 0.783189 0.876119
Si Si3 0.089572 0.790351 0.286207
Si Si4 0.085835 0.217373 0.793567
Si Si5 0.411716 0.787129 0.539387
Si Si6 0.087399 0.289604 0.632055
O O1 0.750000 0.273895 0.041091
O O2 0.998514 0.273110 0.082895
O O3 0.913826 0.000000 0.041338
O O4 0.000000 0.272852 0.000000
O O5 0.750000 0.725697 0.876857
O O6 0.996192 0.728158 0.834148
O O7 0.913405 0.000000 0.876286
O O8 0.250000 0.716088 0.286766
O O9 0.991916 0.720099 0.248604
O O10 0.011502 0.772353 0.330448
O O11 0.102096 0.000000 0.278031
O O12 0.250000 0.274961 0.795449
O O13 0.087941 0.000000 0.793391
O O14 0.500000 0.718633 0.500000
O O15 0.250000 0.717327 0.538513
O O16 0.470000 0.750858 0.585685
O O17 0.405044 0.000000 0.535334
O O18 0.250000 0.216419 0.635123
O O19 0.096841 0.500000 0.635735
#
# Coordination Sequence:
#
# PCOD9403160 Si02
#       6
#     8   8   8   8   8   8
#     4   9  15  21  28  39  58  88 128 172 219 272
#     4   9  15  22  32  47  69  96 129 174 225 274
#     4  10  20  33  50  72  96 123 158 200 244 290
#     4   9  16  26  41  60  81 107 141 183 231 280
#     4   9  18  33  53  76 102 132 166 203 241 282
#     4  10  21  36  53  74 101 133 167 201 240 288
#
# _framework density 21.23554
#
# number of rings (size 3 to 8) (size 9 to 14) (size 15 to 20)
#    0.000    2.667    0.000    2.500    0.000    9.000 
#    0.000    1.667    0.000    0.000    0.000    0.000 
#    0.000    0.000    0.000    0.000    0.000    0.833 
#
# Total GULP energy -268065.793428 kJ/mol
# GULP energy per Si atom -5584.704030 kJ/mol
# Density = 2.118721 g / cm^3
# Si number density = 21.235540 Si / 1000 Ang^3
#
#
#
# Elastic Constant Matrix: (Units=GPa)
#
#
# Indices 1 2 3 4 5 6 
#
# 1 202.3253 4.0437 143.4514 0.0000 0.0000 0.0000
# 2 4.0437 52.3151 -5.0246 0.0000 0.0000 0.0000
# 3 143.4514 -5.0246 232.0179 0.0000 0.0000 0.0000
# 4 0.0000 0.0000 0.0000 -48.4021 0.0000 0.0000
# 5 0.0000 0.0000 0.0000 0.0000 42.6402 0.0000
# 6 0.0000 0.0000 0.0000 0.0000 0.0000 -5.0430
#
#
#
# Elastic Compliance Matrix: (Units=1/GPa)
#
#
# Indices 1 2 3 4 5 6 
#
# 1 0.008877 -0.001216 -0.005515 0.000000 0.000000 0.000000
# 2 -0.001216 0.019321 0.001170 0.000000 0.000000 0.000000
# 3 -0.005515 0.001170 0.007745 0.000000 0.000000 0.000000
# 4 0.000000 0.000000 0.000000 -0.020660 0.000000 0.000000
# 5 0.000000 0.000000 0.000000 0.000000 0.023452 0.000000
# 6 0.000000 0.000000 0.000000 0.000000 0.000000 -0.198294
#
#
# Mechanical properties :
#
#
# Convention : Reuss Voigt Hill
#
# Bulk Modulus (GPa) = 40.28620 85.73325 63.00973
# Shear Modulus (GPa) = -35.67234 20.78488 -7.44373
#
# Velocity S-wave (km/s) = -4.10303 3.13194 -1.87428
# Velocity P-wave (km/s) = 1.85316 7.31703 5.00523
#
# Compressibility (1/GPa) = 0.02482239
#
# Stress axis : x y z
#
# Youngs Moduli (GPa) = 112.65326 51.75637 129.11661
#
# Poissons Ratio (x) = 0.06292 0.71203
# Poissons Ratio (y) = 0.13696 -0.15108
# Poissons Ratio (z) = 0.62124 -0.06056
#
# Static dielectric constant tensor:
#      x y z
#    x 1.741170 0.000000 0.000000 
#    y 0.000000 1.796610 0.000000 
#    z 0.000000 0.000000 1.725420 
# 
# From -- ./inp_files/37043.got.cif
#   From: 2010.05.17/outbox.cif.g08.bks.cpg/sg51_19_cif.got.tgz:37043.got - 2010.06.03 11:52:47.
