data_PCOD9403055
_publ_section_title
;
Structure prediction by ZEFSAII (Michael W. Deem and Ramdas Pophale) SiO2 
 PCOD9403055
Probable space group: P M M A
;
_chemical_formula_sum "Si O2"
_cell_formula_units_Z 64
_cell_length_a 14.366267
_cell_length_b 9.033465
_cell_length_c 23.259046
_cell_angle_alpha 90.000000
_cell_angle_beta 90.000000
_cell_angle_gamma 90.000000
_cell_volume 3018.493170
_symmetry_space_group_name_H-M "P M M A"
_symmetry_group_IT_number 51
_symmetry_cell_setting 'orthorhombic'
loop_
_space_group_symop_operation_xyz
x,y,z
1/2-x,-y,z
1/2+x,-y,-z
-x,y,-z
-x,-y,-z
1/2+x,y,-z
1/2-x,y,z
x,-y,z
loop_
_atom_site_type_symbol
_atom_site_label
_atom_site_fract_x
_atom_site_fract_y
_atom_site_fract_z
Si Si1 0.858147 0.824363 0.097822
Si Si2 0.619838 0.167308 0.395271
Si Si3 0.461450 0.325948 0.139647
Si Si4 0.887192 0.668403 0.508331
Si Si5 0.861317 0.831408 0.962342
Si Si6 0.950683 0.177489 0.746181
Si Si7 0.396995 0.168790 0.377703
Si Si8 0.852014 0.324445 0.279843
O O1 0.750000 0.785897 0.107781
O O2 0.932561 0.730691 0.132591
O O3 0.869215 0.000000 0.109698
O O4 0.878253 0.802479 0.029738
O O5 0.645663 0.222281 0.458344
O O6 0.507875 0.162616 0.390002
O O7 0.651297 0.282636 0.347253
O O8 0.650836 0.000000 0.383120
O O9 0.459182 0.500000 0.148441
O O10 0.410290 0.278379 0.081219
O O11 0.415729 0.243549 0.194011
O O12 0.856647 0.500000 0.499878
O O13 0.861232 0.727687 0.571404
O O14 0.000000 0.667207 0.500000
O O15 0.750000 0.826613 0.954687
O O16 0.893331 0.000000 0.949950
O O17 0.056657 0.237440 0.740584
O O18 0.893361 0.220808 0.688646
O O19 0.952476 0.000000 0.747359
O O20 0.361616 0.000000 0.381991
O O21 0.750000 0.282432 0.255213
O O22 0.865052 0.500000 0.271872
#
# Coordination Sequence:
#
# PCOD9403055 Si02
#       8
#     8   8   8   8   8   8   8   8
#     4   9  19  37  60  84 112 150 193 232 272 325
#     4   9  16  26  41  61  86 117 156 199 241 295
#     4  12  24  35  53  83 118 152 185 229 283 334
#     4   9  15  22  37  61  87 114 143 184 242 300
#     4   9  19  38  63  87 111 143 185 231 278 331
#     4  10  21  36  52  69  95 135 181 223 260 310
#     4   8  15  27  42  61  85 115 153 199 248 295
#     4  10  20  33  48  67  95 130 169 218 273 324
#
# _framework density 21.202631
#
# number of rings (size 3 to 8) (size 9 to 14) (size 15 to 20)
#    0.000    2.500    0.000    4.500    0.000    9.000 
#    0.000    1.250    0.000    0.000    0.000    0.875 
#    0.000    1.000    0.000    0.000    0.000    0.000 
#
# Total GULP energy -357363.332157 kJ/mol
# GULP energy per Si atom -5583.802065 kJ/mol
# Density = 2.115437 g / cm^3
# Si number density = 21.202631 Si / 1000 Ang^3
#
#
#
# Elastic Constant Matrix: (Units=GPa)
#
#
# Indices 1 2 3 4 5 6 
#
# 1 40.6328 -0.2718 5.7945 0.0000 0.0000 0.0000
# 2 -0.2718 69.8690 41.7216 0.0000 0.0000 0.0000
# 3 5.7945 41.7216 93.1654 0.0000 0.0000 0.0000
# 4 0.0000 0.0000 0.0000 15.5327 0.0000 0.0000
# 5 0.0000 0.0000 0.0000 0.0000 -33.3766 0.0000
# 6 0.0000 0.0000 0.0000 0.0000 0.0000 -1.1873
#
#
#
# Elastic Compliance Matrix: (Units=1/GPa)
#
#
# Indices 1 2 3 4 5 6 
#
# 1 0.024930 0.001396 -0.002176 0.000000 0.000000 0.000000
# 2 0.001396 0.019615 -0.008871 0.000000 0.000000 0.000000
# 3 -0.002176 -0.008871 0.014842 0.000000 0.000000 0.000000
# 4 0.000000 0.000000 0.000000 0.064380 0.000000 0.000000
# 5 0.000000 0.000000 0.000000 0.000000 -0.029961 0.000000
# 6 0.000000 0.000000 0.000000 0.000000 0.000000 -0.842251
#
#
# Mechanical properties :
#
#
# Convention : Reuss Voigt Hill
#
# Bulk Modulus (GPa) = 24.94641 33.12841 29.03741
# Shear Modulus (GPa) = -6.98537 6.62196 -0.18171
#
# Velocity S-wave (km/s) = -1.81707 1.76917 -0.29306
# Velocity P-wave (km/s) = 2.71826 4.45330 3.68923
#
# Compressibility (1/GPa) = 0.04008593
#
# Stress axis : x y z
#
# Youngs Moduli (GPa) = 40.11182 50.98107 67.37852
#
# Poissons Ratio (x) = -0.07118 0.14660
# Poissons Ratio (y) = -0.05601 0.59771
# Poissons Ratio (z) = 0.08728 0.45225
#
# Static dielectric constant tensor:
#      x y z
#    x 1.787270 0.000000 0.000000 
#    y 0.000000 1.701930 0.000000 
#    z 0.000000 0.000000 1.787060 
# 
# From -- ./inp_files/33927.got.cif
#   From: 2010.05.17/outbox.cif.g08.bks.cpg/sg51_17_cif.got.tgz:33927.got - 2010.06.03 11:52:47.
