data_PCOD9403938
_publ_section_title
;
Structure prediction by ZEFSAII (Michael W. Deem and Ramdas Pophale) SiO2 
 PCOD9403938
Probable space group: P M M A
;
_chemical_formula_sum "Si O2"
_cell_formula_units_Z 48
_cell_length_a 9.436590
_cell_length_b 14.286056
_cell_length_c 19.245125
_cell_angle_alpha 90.000000
_cell_angle_beta 90.000000
_cell_angle_gamma 90.000000
_cell_volume 2594.467117
_symmetry_space_group_name_H-M "P M M A"
_symmetry_group_IT_number 51
_symmetry_cell_setting 'orthorhombic'
loop_
_space_group_symop_operation_xyz
x,y,z
1/2-x,-y,z
1/2+x,-y,-z
-x,y,-z
-x,-y,-z
1/2+x,y,-z
1/2-x,y,z
x,-y,z
loop_
_atom_site_type_symbol
_atom_site_label
_atom_site_fract_x
_atom_site_fract_y
_atom_site_fract_z
Si Si1 0.087481 0.738013 0.177094
Si Si2 0.918212 0.111524 0.711119
Si Si3 0.594461 0.609753 0.689136
Si Si4 0.584687 0.886353 0.430264
Si Si5 0.909004 0.613907 0.435248
Si Si6 0.580193 0.392652 0.073728
O O1 0.250000 0.750374 0.150639
O O2 0.041809 0.831715 0.218855
O O3 0.093138 0.663468 0.239522
O O4 0.985898 0.689505 0.121040
O O5 0.750000 0.130992 0.699368
O O6 0.005172 0.138977 0.641870
O O7 0.934598 0.000000 0.721007
O O8 0.750000 0.620709 0.655533
O O9 0.573864 0.500000 0.701917
O O10 0.477033 0.644370 0.636516
O O11 0.500000 0.857042 0.500000
O O12 0.750000 0.857795 0.431055
O O13 0.583792 0.000000 0.431331
O O14 0.750000 0.644215 0.442696
O O15 0.912268 0.500000 0.434587
O O16 0.000000 0.644673 0.500000
O O17 0.750000 0.381837 0.066195
O O18 0.555796 0.500000 0.101325
O O19 0.500000 0.388756 0.000000
#
# Coordination Sequence:
#
# PCOD9403938 Si02
#       6
#     8   8   8   8   8   8
#     4  10  20  34  54  79 107 139 173 211 258 311
#     4   9  18  33  52  75 105 141 181 225 273 323
#     4   9  17  29  45  66  93 124 158 198 245 297
#     4   9  16  27  46  71  98 131 174 226 282 334
#     4   9  16  26  41  60  84 118 160 203 245 291
#     4  10  21  37  59  87 117 146 174 207 250 303
#
# _framework density 18.500909
#
# number of rings (size 3 to 8) (size 9 to 14) (size 15 to 20)
#    0.000    2.667    0.000    2.000    0.000    7.000 
#    0.000    2.500    0.000    0.500    0.000    0.000 
#    0.000    0.000    0.000    0.000    0.000    0.000 
#
# Total GULP energy -267661.474804 kJ/mol
# GULP energy per Si atom -5576.280725 kJ/mol
# Density = 1.845880 g / cm^3
# Si number density = 18.500909 Si / 1000 Ang^3
#
#
#
# Elastic Constant Matrix: (Units=GPa)
#
#
# Indices 1 2 3 4 5 6 
#
# 1 101.9567 38.9534 55.5193 0.0000 0.0000 0.0000
# 2 38.9534 104.7433 38.9246 0.0000 0.0000 0.0000
# 3 55.5193 38.9246 81.5094 0.0000 0.0000 0.0000
# 4 0.0000 0.0000 0.0000 67.2948 0.0000 0.0000
# 5 0.0000 0.0000 0.0000 0.0000 35.5281 0.0000
# 6 0.0000 0.0000 0.0000 0.0000 0.0000 8.9896
#
#
#
# Elastic Compliance Matrix: (Units=1/GPa)
#
#
# Indices 1 2 3 4 5 6 
#
# 1 0.016040 -0.002316 -0.009819 0.000000 0.000000 0.000000
# 2 -0.002316 0.011941 -0.004125 0.000000 0.000000 0.000000
# 3 -0.009819 -0.004125 0.020927 0.000000 0.000000 0.000000
# 4 0.000000 0.000000 0.000000 0.014860 0.000000 0.000000
# 5 0.000000 0.000000 0.000000 0.000000 0.028147 0.000000
# 6 0.000000 0.000000 0.000000 0.000000 0.000000 0.111240
#
#
# Mechanical properties :
#
#
# Convention : Reuss Voigt Hill
#
# Bulk Modulus (GPa) = 61.02341 61.66714 61.34527
# Shear Modulus (GPa) = 20.73499 32.68331 26.70915
#
# Velocity S-wave (km/s) = 3.35140 4.20763 3.80368
# Velocity P-wave (km/s) = 6.93047 7.55049 7.24711
#
# Compressibility (1/GPa) = 0.01638715
#
# Stress axis : x y z
#
# Youngs Moduli (GPa) = 62.34398 83.74209 47.78551
#
# Poissons Ratio (x) = 0.19395 0.46923
# Poissons Ratio (y) = 0.14439 0.19712
# Poissons Ratio (z) = 0.61218 0.34544
#
# Static dielectric constant tensor:
#      x y z
#    x 1.648330 0.000000 0.000000 
#    y 0.000000 1.702740 0.000000 
#    z 0.000000 0.000000 1.599050 
# 
# From -- ./inp_files/27575.got.cif
#   From: 2010.05.17/outbox.cif.g08.bks.cpg/sg51_14_cif.got.tgz:27575.got - 2010.06.03 11:52:47.
