data_PCOD9403987
_publ_section_title
;
Structure prediction by ZEFSAII (Michael W. Deem and Ramdas Pophale) SiO2 
 PCOD9403987
Probable space group: P M M A
;
_chemical_formula_sum "Si O2"
_cell_formula_units_Z 48
_cell_length_a 16.975317
_cell_length_b 7.616955
_cell_length_c 15.413701
_cell_angle_alpha 90.000000
_cell_angle_beta 90.000000
_cell_angle_gamma 90.000000
_cell_volume 1992.995018
_symmetry_space_group_name_H-M "P M M A"
_symmetry_group_IT_number 51
_symmetry_cell_setting 'orthorhombic'
loop_
_space_group_symop_operation_xyz
x,y,z
1/2-x,-y,z
1/2+x,-y,-z
-x,y,-z
-x,-y,-z
1/2+x,y,-z
1/2-x,y,z
x,-y,z
loop_
_atom_site_type_symbol
_atom_site_label
_atom_site_fract_x
_atom_site_fract_y
_atom_site_fract_z
Si Si1 0.250000 0.288560 0.272560
Si Si2 0.250000 0.800369 0.468889
Si Si3 0.115658 0.710388 0.138120
Si Si4 0.918629 0.201627 0.041509
Si Si5 0.078271 0.208072 0.455936
Si Si6 0.338194 0.293954 0.779386
Si Si7 0.500691 0.287511 0.278183
O O1 0.250000 0.500000 0.289470
O O2 0.250000 0.195257 0.364087
O O3 0.322879 0.244344 0.212193
O O4 0.336652 0.718917 0.486004
O O5 0.250000 0.000000 0.503384
O O6 0.117119 0.500000 0.127603
O O7 0.133579 0.791068 0.045684
O O8 0.033624 0.762638 0.183859
O O9 0.934496 0.000000 0.063542
O O10 0.872145 0.282277 0.122300
O O11 0.000000 0.281670 0.000000
O O12 0.000000 0.284717 0.500000
O O13 0.056832 0.227900 0.354565
O O14 0.081753 0.000000 0.474593
O O15 0.250000 0.218261 0.772386
O O16 0.332339 0.500000 0.758651
O O17 0.409116 0.222525 0.718937
O O18 0.500292 0.500000 0.280952
#
# Coordination Sequence:
#
# PCOD9403987 Si02
#       7
#     4   4   8   8   8   8   8
#     4  10  20  34  54  82 111 138 179 232 285 338
#     4  10  20  36  60  86 115 150 187 228 279 340
#     4  10  20  34  54  80 110 146 187 233 287 341
#     4  11  23  36  53  79 111 147 191 241 288 335
#     4  10  22  40  61  87 119 153 187 228 282 344
#     4  10  22  40  59  79 111 155 199 240 285 340
#     4  10  20  37  62  86 109 144 189 237 287 339
#
# _framework density 24.084354999999999
#
# number of rings (size 3 to 8) (size 9 to 14) (size 15 to 20)
#    0.000    1.833    3.333    0.500    1.167    3.333 
#    1.500    0.000    0.000    0.000    0.000    0.000 
#    0.000    0.000    0.000    0.000    0.000    0.000 
#
# Total GULP energy -267840.621353 kJ/mol
# GULP energy per Si atom -5580.012945 kJ/mol
# Density = 2.402954 g / cm^3
# Si number density = 24.084355 Si / 1000 Ang^3
#
#
#
# Elastic Constant Matrix: (Units=GPa)
#
#
# Indices 1 2 3 4 5 6 
#
# 1 193.9227 13.6032 7.3973 0.0000 0.0000 0.0000
# 2 13.6032 53.2593 -9.5924 0.0000 0.0000 0.0000
# 3 7.3973 -9.5924 24.6951 0.0000 0.0000 0.0000
# 4 0.0000 0.0000 0.0000 12.4063 0.0000 0.0000
# 5 0.0000 0.0000 0.0000 0.0000 24.5900 0.0000
# 6 0.0000 0.0000 0.0000 0.0000 0.0000 -0.6437
#
#
#
# Elastic Compliance Matrix: (Units=1/GPa)
#
#
# Indices 1 2 3 4 5 6 
#
# 1 0.005370 -0.001786 -0.002302 0.000000 0.000000 0.000000
# 2 -0.001786 0.020783 0.008608 0.000000 0.000000 0.000000
# 3 -0.002302 0.008608 0.044527 0.000000 0.000000 0.000000
# 4 0.000000 0.000000 0.000000 0.080604 0.000000 0.000000
# 5 0.000000 0.000000 0.000000 0.000000 0.040667 0.000000
# 6 0.000000 0.000000 0.000000 0.000000 0.000000 -1.553623
#
#
# Mechanical properties :
#
#
# Convention : Reuss Voigt Hill
#
# Bulk Modulus (GPa) = 12.54427 32.74371 22.64399
# Shear Modulus (GPa) = -3.71986 24.63514 10.45764
#
# Velocity S-wave (km/s) = -1.24413 3.20170 2.08603
# Velocity P-wave (km/s) = 1.77650 5.22425 3.90184
#
# Compressibility (1/GPa) = 0.07971767
#
# Stress axis : x y z
#
# Youngs Moduli (GPa) = 186.22620 48.11719 22.45831
#
# Poissons Ratio (x) = 0.08595 0.05171
# Poissons Ratio (y) = 0.33264 -0.19331
# Poissons Ratio (z) = 0.42875 -0.41418
#
# Static dielectric constant tensor:
#      x y z
#    x 2.105810 0.000000 0.000000 
#    y 0.000000 1.903630 0.000000 
#    z 0.000000 0.000000 1.922060 
# 
# From -- ./inp_files/24844.got.cif
#   From: 2010.05.17/outbox.cif.g08.bks.cpg/sg51_13_cif.got.tgz:24844.got - 2010.06.03 11:52:47.
