data_PCOD9403673
_publ_section_title
;
Structure prediction by ZEFSAII (Michael W. Deem and Ramdas Pophale) SiO2 
 PCOD9403673
Probable space group: P M M A
;
_chemical_formula_sum "Si O2"
_cell_formula_units_Z 48
_cell_length_a 31.875034
_cell_length_b 7.568436
_cell_length_c 9.346292
_cell_angle_alpha 90.000000
_cell_angle_beta 90.000000
_cell_angle_gamma 90.000000
_cell_volume 2254.738314
_symmetry_space_group_name_H-M "P M M A"
_symmetry_group_IT_number 51
_symmetry_cell_setting 'orthorhombic'
loop_
_space_group_symop_operation_xyz
x,y,z
1/2-x,-y,z
1/2+x,-y,-z
-x,y,-z
-x,-y,-z
1/2+x,y,-z
1/2-x,y,z
x,-y,z
loop_
_atom_site_type_symbol
_atom_site_label
_atom_site_fract_x
_atom_site_fract_y
_atom_site_fract_z
Si Si1 0.203077 0.212943 0.572380
Si Si2 0.796870 0.289199 0.094213
Si Si3 0.376989 0.213946 0.397630
Si Si4 0.457285 0.216122 0.579262
Si Si5 0.463162 0.205069 0.902252
Si Si6 0.620835 0.291836 0.936435
O O1 0.250000 0.277886 0.537093
O O2 0.194493 0.258016 0.737952
O O3 0.166224 0.277250 0.469732
O O4 0.203769 0.000000 0.562941
O O5 0.750000 0.218063 0.063015
O O6 0.795018 0.500000 0.071359
O O7 0.835398 0.220024 0.000399
O O8 0.416559 0.274969 0.491337
O O9 0.380807 0.266685 0.233152
O O10 0.376785 0.000000 0.401708
O O11 0.500000 0.267516 0.500000
O O12 0.457808 0.279483 0.743029
O O13 0.455708 0.000000 0.579782
O O14 0.475182 0.000000 0.878999
O O15 0.500000 0.285052 0.000000
O O16 0.419561 0.211279 0.986694
O O17 0.619162 0.500000 0.968542
#
# Coordination Sequence:
#
# PCOD9403673 Si02
#       6
#     8   8   8   8   8   8
#     4   9  18  33  54  80 106 133 172 223 272 315
#     4   9  19  36  55  75 103 141 181 218 261 316
#     4  10  20  34  52  74 104 139 173 212 260 314
#     4   9  17  31  53  79 102 127 166 211 251 301
#     4  10  20  36  60  84 106 137 175 214 263 323
#     4  11  23  36  52  77 109 142 179 223 265 308
#
# _framework density 21.288502000000001
#
# number of rings (size 3 to 8) (size 9 to 14) (size 15 to 20)
#    0.000    2.333    0.000    2.500    0.000    7.000 
#    0.000    0.833    0.000    2.000    0.000    0.000 
#    0.000    0.000    0.000    0.000    0.000    0.000 
#
# Total GULP energy -268138.428085 kJ/mol
# GULP energy per Si atom -5586.217252 kJ/mol
# Density = 2.124005 g / cm^3
# Si number density = 21.288502 Si / 1000 Ang^3
#
#
#
# Elastic Constant Matrix: (Units=GPa)
#
#
# Indices 1 2 3 4 5 6 
#
# 1 170.2059 -7.0344 114.7780 0.0000 0.0000 0.0000
# 2 -7.0344 46.7756 -14.9520 0.0000 0.0000 0.0000
# 3 114.7780 -14.9520 167.3921 0.0000 0.0000 0.0000
# 4 0.0000 0.0000 0.0000 29.0830 0.0000 0.0000
# 5 0.0000 0.0000 0.0000 0.0000 39.5507 0.0000
# 6 0.0000 0.0000 0.0000 0.0000 0.0000 5.2267
#
#
#
# Elastic Compliance Matrix: (Units=1/GPa)
#
#
# Indices 1 2 3 4 5 6 
#
# 1 0.010956 -0.000776 -0.007581 0.000000 0.000000 0.000000
# 2 -0.000776 0.022062 0.002503 0.000000 0.000000 0.000000
# 3 -0.007581 0.002503 0.011396 0.000000 0.000000 0.000000
# 4 0.000000 0.000000 0.000000 0.034384 0.000000 0.000000
# 5 0.000000 0.000000 0.000000 0.000000 0.025284 0.000000
# 6 0.000000 0.000000 0.000000 0.000000 0.000000 0.191325
#
#
# Mechanical properties :
#
#
# Convention : Reuss Voigt Hill
#
# Bulk Modulus (GPa) = 30.57696 63.32854 46.95275
# Shear Modulus (GPa) = 15.72241 34.21088 24.96665
#
# Velocity S-wave (km/s) = 2.72056 4.01310 3.42830
# Velocity P-wave (km/s) = 4.92574 7.16140 6.14608
#
# Compressibility (1/GPa) = 0.03270436
#
# Stress axis : x y z
#
# Youngs Moduli (GPa) = 91.27669 45.32685 87.75003
#
# Poissons Ratio (x) = 0.03517 0.66527
# Poissons Ratio (y) = 0.07082 -0.21961
# Poissons Ratio (z) = 0.69201 -0.11344
#
# Static dielectric constant tensor:
#      x y z
#    x 1.760220 0.000000 0.000000 
#    y 0.000000 1.822180 0.000000 
#    z 0.000000 0.000000 1.710610 
# 
# From -- ./inp_files/12760.got.cif
#   From: 2010.05.17/outbox.cif.g08.bks.cpg/sg51_7_cif.got.tgz:12760.got - 2010.06.03 11:52:47.
