data_PCOD9403449
_publ_section_title
;
Structure prediction by ZEFSAII (Michael W. Deem and Ramdas Pophale) SiO2 
 PCOD9403449
Probable space group: P M M A
;
_chemical_formula_sum "Si O2"
_cell_formula_units_Z 64
_cell_length_a 23.804235
_cell_length_b 9.390269
_cell_length_c 15.617597
_cell_angle_alpha 90.000000
_cell_angle_beta 90.000000
_cell_angle_gamma 90.000000
_cell_volume 3490.972877
_symmetry_space_group_name_H-M "P M M A"
_symmetry_group_IT_number 51
_symmetry_cell_setting 'orthorhombic'
loop_
_space_group_symop_operation_xyz
x,y,z
1/2-x,-y,z
1/2+x,-y,-z
-x,y,-z
-x,-y,-z
1/2+x,y,-z
1/2-x,y,z
x,-y,z
loop_
_atom_site_type_symbol
_atom_site_label
_atom_site_fract_x
_atom_site_fract_y
_atom_site_fract_z
Si Si1 0.683228 0.665615 0.179731
Si Si2 0.183882 0.157169 0.980156
Si Si3 0.685134 0.326897 0.516658
Si Si4 0.994577 0.830490 0.284458
Si Si5 0.112648 0.330009 0.648751
Si Si6 0.111504 0.670199 0.319054
Si Si7 0.137480 0.333113 0.128512
Si Si8 0.024381 0.166684 0.095167
O O1 0.750000 0.689951 0.192589
O O2 0.676573 0.500000 0.156007
O O3 0.650944 0.691378 0.267455
O O4 0.660627 0.760132 0.101894
O O5 0.250000 0.144951 0.964251
O O6 0.176886 0.244527 0.066599
O O7 0.158759 0.000000 0.987624
O O8 0.750000 0.276856 0.515291
O O9 0.687519 0.500000 0.515558
O O10 0.648865 0.284858 0.433700
O O11 0.650422 0.287049 0.601485
O O12 0.053715 0.758100 0.311157
O O13 0.987381 0.808235 0.181075
O O14 0.944377 0.755991 0.335783
O O15 0.996023 0.000000 0.299474
O O16 0.100752 0.500000 0.641337
O O17 0.098662 0.500000 0.325800
O O18 0.144483 0.690351 0.229654
O O19 0.142309 0.500000 0.110986
O O20 0.076003 0.273604 0.105761
O O21 0.041975 0.000000 0.101714
O O22 0.000000 0.185941 0.000000
#
# Coordination Sequence:
#
# PCOD9403449 Si02
#       8
#     8   8   8   8   8   8   8   8
#     4   9  18  33  52  76 107 141 178 226 281 331
#     4  10  21  35  51  73 104 145 187 222 264 327
#     4   9  18  35  61  89 111 139 183 230 279 334
#     4  10  21  36  54  79 113 151 188 227 274 328
#     4  10  20  34  56  84 113 143 180 229 278 331
#     4   9  19  37  59  82 111 144 183 230 276 328
#     4  10  20  33  52  79 107 137 174 226 279 319
#     4   9  19  35  53  74 102 142 185 224 265 317
#
# _framework density 18.332998
#
# number of rings (size 3 to 8) (size 9 to 14) (size 15 to 20)
#    0.000    2.500    0.000    1.500    1.750    5.000 
#    0.000    4.375    0.000    2.250    0.000    0.000 
#    0.000    0.000    0.000    0.000    0.000    0.000 
#
# Total GULP energy -356810.093495 kJ/mol
# GULP energy per Si atom -5575.157711 kJ/mol
# Density = 1.829127 g / cm^3
# Si number density = 18.332998 Si / 1000 Ang^3
#
#
#
# Elastic Constant Matrix: (Units=GPa)
#
#
# Indices 1 2 3 4 5 6 
#
# 1 61.3412 35.4446 65.5046 0.0000 0.0000 0.0000
# 2 35.4446 64.7192 68.8206 0.0000 0.0000 0.0000
# 3 65.5046 68.8206 146.8980 0.0000 0.0000 0.0000
# 4 0.0000 0.0000 0.0000 13.5368 0.0000 0.0000
# 5 0.0000 0.0000 0.0000 0.0000 22.4715 0.0000
# 6 0.0000 0.0000 0.0000 0.0000 0.0000 2784.7453
#
#
#
# Elastic Compliance Matrix: (Units=1/GPa)
#
#
# Indices 1 2 3 4 5 6 
#
# 1 0.031812 -0.004659 -0.012003 0.000000 0.000000 0.000000
# 2 -0.004659 0.031473 -0.012667 0.000000 0.000000 0.000000
# 3 -0.012003 -0.012667 0.018094 0.000000 0.000000 0.000000
# 4 0.000000 0.000000 0.000000 0.073873 0.000000 0.000000
# 5 0.000000 0.000000 0.000000 0.000000 0.044501 0.000000
# 6 0.000000 0.000000 0.000000 0.000000 0.000000 0.000359
#
#
# Mechanical properties :
#
#
# Convention : Reuss Voigt Hill
#
# Bulk Modulus (GPa) = 44.01217 68.05532 56.03374
# Shear Modulus (GPa) = 18.77277 571.02998 294.90137
#
# Velocity S-wave (km/s) = 3.20345 17.66785 12.69675
# Velocity P-wave (km/s) = 6.14345 21.29333 15.67080
#
# Compressibility (1/GPa) = 0.02272099
#
# Stress axis : x y z
#
# Youngs Moduli (GPa) = 31.43492 31.77332 55.26596
#
# Poissons Ratio (x) = 0.14802 0.66335
# Poissons Ratio (y) = 0.14645 0.70008
# Poissons Ratio (z) = 0.37731 0.40249
#
# Static dielectric constant tensor:
#      x y z
#    x 1.634430 0.000000 0.000000 
#    y 0.000000 1.623940 0.000000 
#    z 0.000000 0.000000 1.632390 
# 
# From -- ./inp_files/26337.got.cif
#   From: 2010.05.17/outbox.cif.g08.bks.cpg/sg51_14_cif.got.tgz:26337.got - 2010.06.03 11:52:47.
