data_PCOD9403490
_publ_section_title
;
Structure prediction by ZEFSAII (Michael W. Deem and Ramdas Pophale) SiO2 
 PCOD9403490
Probable space group: P M M A
;
_chemical_formula_sum "Si O2"
_cell_formula_units_Z 64
_cell_length_a 18.528645
_cell_length_b 9.178192
_cell_length_c 21.762774
_cell_angle_alpha 90.000000
_cell_angle_beta 90.000000
_cell_angle_gamma 90.000000
_cell_volume 3700.965623
_symmetry_space_group_name_H-M "P M M A"
_symmetry_group_IT_number 51
_symmetry_cell_setting 'orthorhombic'
loop_
_space_group_symop_operation_xyz
x,y,z
1/2-x,-y,z
1/2+x,-y,-z
-x,y,-z
-x,-y,-z
1/2+x,y,-z
1/2-x,y,z
x,-y,z
loop_
_atom_site_type_symbol
_atom_site_label
_atom_site_fract_x
_atom_site_fract_y
_atom_site_fract_z
Si Si1 0.544631 0.172149 0.809007
Si Si2 0.336305 0.170146 0.392194
Si Si3 0.585672 0.326780 0.495181
Si Si4 0.334218 0.672955 0.263330
Si Si5 0.835279 0.825205 0.382267
Si Si6 0.167563 0.326380 0.874541
Si Si7 0.964496 0.825627 0.064548
Si Si8 0.109905 0.826308 0.754087
O O1 0.612136 0.265413 0.787613
O O2 0.517488 0.204077 0.877944
O O3 0.475113 0.200939 0.765475
O O4 0.561344 0.000000 0.804829
O O5 0.250000 0.179079 0.402357
O O6 0.376301 0.251426 0.446922
O O7 0.351748 0.246288 0.327232
O O8 0.356479 0.000000 0.390126
O O9 0.500000 0.301591 0.500000
O O10 0.598590 0.500000 0.495948
O O11 0.619415 0.257623 0.433826
O O12 0.250000 0.702528 0.249138
O O13 0.342804 0.500000 0.270825
O O14 0.750000 0.791819 0.387357
O O15 0.863406 0.788876 0.313909
O O16 0.843555 0.000000 0.390548
O O17 0.250000 0.294160 0.891879
O O18 0.157857 0.500000 0.872359
O O19 0.109715 0.255417 0.920243
O O20 0.151528 0.259436 0.807318
O O21 0.951554 0.000000 0.064328
O O22 0.000000 0.784274 0.000000
O O23 0.121489 0.000000 0.763357
#
# Coordination Sequence:
#
# PCOD9403490 Si02
#       8
#     8   8   8   8   8   8   8   8
#     4   9  18  33  55  83 110 139 178 223 269 314
#     4  10  21  38  60  81 101 133 178 226 274 322
#     4  11  25  40  53  76 107 140 179 222 270 324
#     4  10  21  36  55  80 110 143 178 220 272 326
#     4  10  21  37  57  81 108 140 178 220 270 324
#     4  10  20  33  52  82 116 148 184 223 267 322
#     4   9  19  37  59  82 109 145 189 230 269 317
#     4   9  19  35  56  82 110 142 180 223 270 320
#
# _framework density 17.292784999999999
#
# number of rings (size 3 to 8) (size 9 to 14) (size 15 to 20)
#    0.000    2.250    0.000    3.000    1.750    8.500 
#    0.000    0.625    0.000    3.750    0.000    0.000 
#    0.000    0.000    0.000    0.000    0.000    0.000 
#
# Total GULP energy -357313.361847 kJ/mol
# GULP energy per Si atom -5583.021279 kJ/mol
# Density = 1.725343 g / cm^3
# Si number density = 17.292785 Si / 1000 Ang^3
#
#
#
# Elastic Constant Matrix: (Units=GPa)
#
#
# Indices 1 2 3 4 5 6 
#
# 1 111.5431 79.1041 100.3241 0.0000 0.0000 0.0000
# 2 79.1041 74.0431 73.0208 0.0000 0.0000 0.0000
# 3 100.3241 73.0208 123.1908 0.0000 0.0000 0.0000
# 4 0.0000 0.0000 0.0000 6.3881 0.0000 0.0000
# 5 0.0000 0.0000 0.0000 0.0000 22.6352 0.0000
# 6 0.0000 0.0000 0.0000 0.0000 0.0000 31.5513
#
#
#
# Elastic Compliance Matrix: (Units=1/GPa)
#
#
# Indices 1 2 3 4 5 6 
#
# 1 0.057788 -0.036892 -0.025194 0.000000 0.000000 0.000000
# 2 -0.036892 0.056061 -0.003186 0.000000 0.000000 0.000000
# 3 -0.025194 -0.003186 0.030523 0.000000 0.000000 0.000000
# 4 0.000000 0.000000 0.000000 0.156541 0.000000 0.000000
# 5 0.000000 0.000000 0.000000 0.000000 0.044179 0.000000
# 6 0.000000 0.000000 0.000000 0.000000 0.000000 0.031694
#
#
# Mechanical properties :
#
#
# Convention : Reuss Voigt Hill
#
# Bulk Modulus (GPa) = 72.31185 90.40833 81.36009
# Shear Modulus (GPa) = 9.76678 15.87012 12.81845
#
# Velocity S-wave (km/s) = 2.37911 3.03269 2.72556
# Velocity P-wave (km/s) = 7.03234 8.04098 7.55352
#
# Compressibility (1/GPa) = 0.01382899
#
# Stress axis : x y z
#
# Youngs Moduli (GPa) = 17.30472 17.83769 32.76185
#
# Poissons Ratio (x) = 0.65806 0.82539
# Poissons Ratio (y) = 0.63840 0.10438
# Poissons Ratio (z) = 0.43597 0.05683
#
# Static dielectric constant tensor:
#      x y z
#    x 1.574590 0.000000 0.000000 
#    y 0.000000 1.573650 0.000000 
#    z 0.000000 0.000000 1.561360 
# 
# From -- ./inp_files/33850.got.cif
#   From: 2010.05.17/outbox.cif.g08.bks.cpg/sg51_17_cif.got.tgz:33850.got - 2010.06.03 11:52:47.
