data_PCOD9403047
_publ_section_title
;
Structure prediction by ZEFSAII (Michael W. Deem and Ramdas Pophale) SiO2 
 PCOD9403047
Probable space group: P M M A
;
_chemical_formula_sum "Si O2"
_cell_formula_units_Z 48
_cell_length_a 9.273826
_cell_length_b 13.945231
_cell_length_c 24.412676
_cell_angle_alpha 90.000000
_cell_angle_beta 90.000000
_cell_angle_gamma 90.000000
_cell_volume 3157.185090
_symmetry_space_group_name_H-M "P M M A"
_symmetry_group_IT_number 51
_symmetry_cell_setting 'orthorhombic'
loop_
_space_group_symop_operation_xyz
x,y,z
1/2-x,-y,z
1/2+x,-y,-z
-x,y,-z
-x,-y,-z
1/2+x,y,-z
1/2-x,y,z
x,-y,z
loop_
_atom_site_type_symbol
_atom_site_label
_atom_site_fract_x
_atom_site_fract_y
_atom_site_fract_z
Si Si1 0.422219 0.284491 0.222598
Si Si2 0.421956 0.388526 0.108952
Si Si3 0.422448 0.109644 0.831050
Si Si4 0.077662 0.613640 0.334930
Si Si5 0.421688 0.213050 0.945133
Si Si6 0.916236 0.616773 0.445545
O O1 0.250000 0.269856 0.224044
O O2 0.450490 0.356923 0.171895
O O3 0.500037 0.185594 0.208018
O O4 0.466396 0.330023 0.280341
O O5 0.250000 0.375316 0.099219
O O6 0.456691 0.500000 0.100689
O O7 0.512189 0.316247 0.071491
O O8 0.250000 0.115460 0.823216
O O9 0.451225 0.144199 0.893331
O O10 0.468280 0.000000 0.823011
O O11 0.250000 0.624695 0.342671
O O12 0.050741 0.500000 0.326741
O O13 0.995404 0.645536 0.389589
O O14 0.250000 0.219458 0.952871
O O15 0.500000 0.179389 0.000000
O O16 0.750000 0.646995 0.446480
O O17 0.918406 0.500000 0.446175
O O18 0.000000 0.648757 0.500000
#
# Coordination Sequence:
#
# PCOD9403047 Si02
#       6
#     8   8   8   8   8   8
#     4   9  17  29  46  68  90 112 143 180 215 255
#     4   9  17  30  47  65  87 116 146 175 209 250
#     4   9  19  35  51  66  86 111 137 171 219 267
#     4   9  16  26  41  62  90 122 151 180 215 253
#     4  10  20  33  48  66  87 110 139 175 213 256
#     4   9  16  25  37  55  82 118 158 193 221 250
#
# _framework density 15.203417
#
# number of rings (size 3 to 8) (size 9 to 14) (size 15 to 20)
#    0.000    2.833    0.000    1.500    0.000    6.667 
#    0.000    0.000    0.000    3.000    0.000    0.000 
#    0.000    0.667    0.000    2.167    0.000    3.167 
#
# Total GULP energy -267533.927437 kJ/mol
# GULP energy per Si atom -5573.623488 kJ/mol
# Density = 1.516881 g / cm^3
# Si number density = 15.203417 Si / 1000 Ang^3
#
#
#
# Elastic Constant Matrix: (Units=GPa)
#
#
# Indices 1 2 3 4 5 6 
#
# 1 46.4420 26.0392 50.4573 0.0000 0.0000 0.0000
# 2 26.0392 59.4247 23.4622 0.0000 0.0000 0.0000
# 3 50.4573 23.4622 110.4681 0.0000 0.0000 0.0000
# 4 0.0000 0.0000 0.0000 9.5319 0.0000 0.0000
# 5 0.0000 0.0000 0.0000 0.0000 27.1924 0.0000
# 6 0.0000 0.0000 0.0000 0.0000 0.0000 19.3738
#
#
#
# Elastic Compliance Matrix: (Units=1/GPa)
#
#
# Indices 1 2 3 4 5 6 
#
# 1 0.052404 -0.014749 -0.020803 0.000000 0.000000 0.000000
# 2 -0.014749 0.022519 0.001954 0.000000 0.000000 0.000000
# 3 -0.020803 0.001954 0.018140 0.000000 0.000000 0.000000
# 4 0.000000 0.000000 0.000000 0.104911 0.000000 0.000000
# 5 0.000000 0.000000 0.000000 0.000000 0.036775 0.000000
# 6 0.000000 0.000000 0.000000 0.000000 0.000000 0.051616
#
#
# Mechanical properties :
#
#
# Convention : Reuss Voigt Hill
#
# Bulk Modulus (GPa) = 38.66126 46.25023 42.45575
# Shear Modulus (GPa) = 13.80514 18.97801 16.39158
#
# Velocity S-wave (km/s) = 3.01662 3.53692 3.28708
# Velocity P-wave (km/s) = 6.13334 6.86781 6.51094
#
# Compressibility (1/GPa) = 0.02586568
#
# Stress axis : x y z
#
# Youngs Moduli (GPa) = 19.08259 44.40609 55.12818
#
# Poissons Ratio (x) = 0.65495 1.14685
# Poissons Ratio (y) = 0.28145 -0.10771
# Poissons Ratio (z) = 0.39698 -0.08676
#
# Static dielectric constant tensor:
#      x y z
#    x 1.506040 0.000000 0.000000 
#    y 0.000000 1.476040 0.000000 
#    z 0.000000 0.000000 1.500390 
# 
# From -- ./inp_files/31595.got.cif
#   From: 2010.05.17/outbox.cif.g08.bks.cpg/sg51_16_cif.got.tgz:31595.got - 2010.06.03 11:52:47.
