data_PCOD9403037
_publ_section_title
;
Structure prediction by ZEFSAII (Michael W. Deem and Ramdas Pophale) SiO2 
 PCOD9403037
Probable space group: P M M A
;
_chemical_formula_sum "Si O2"
_cell_formula_units_Z 64
_cell_length_a 32.352457
_cell_length_b 8.258628
_cell_length_c 12.745660
_cell_angle_alpha 90.000000
_cell_angle_beta 90.000000
_cell_angle_gamma 90.000000
_cell_volume 3405.473476
_symmetry_space_group_name_H-M "P M M A"
_symmetry_group_IT_number 51
_symmetry_cell_setting 'orthorhombic'
loop_
_space_group_symop_operation_xyz
x,y,z
1/2-x,-y,z
1/2+x,-y,-z
-x,y,-z
-x,-y,-z
1/2+x,y,-z
1/2-x,y,z
x,-y,z
loop_
_atom_site_type_symbol
_atom_site_label
_atom_site_fract_x
_atom_site_fract_y
_atom_site_fract_z
Si Si1 0.379443 0.684287 0.586346
Si Si2 0.646534 0.806986 0.970418
Si Si3 0.034630 0.816932 0.584134
Si Si4 0.296321 0.694291 0.204331
Si Si5 0.429453 0.195984 0.176291
Si Si6 0.480173 0.815137 0.827217
Si Si7 0.370597 0.303126 0.354397
Si Si8 0.112320 0.307185 0.817737
O O1 0.363594 0.500000 0.589965
O O2 0.429050 0.689057 0.576950
O O3 0.366124 0.756089 0.474354
O O4 0.374303 0.759633 0.702622
O O5 0.641019 0.754690 0.089542
O O6 0.647648 0.000000 0.963533
O O7 0.685851 0.737702 0.909645
O O8 0.605689 0.750970 0.906006
O O9 0.016589 0.817660 0.700659
O O10 0.000000 0.784903 0.500000
O O11 0.051385 0.000000 0.565611
O O12 0.250000 0.756828 0.221201
O O13 0.295223 0.500000 0.213650
O O14 0.330951 0.752211 0.286820
O O15 0.475103 0.255842 0.142125
O O16 0.411360 0.247754 0.290025
O O17 0.431975 0.000000 0.176644
O O18 0.435350 0.737440 0.845248
O O19 0.477264 0.000000 0.867296
O O20 0.371762 0.500000 0.356780
O O21 0.114255 0.500000 0.810880
#
# Coordination Sequence:
#
# PCOD9403037 Si02
#       8
#     8   8   8   8   8   8   8   8
#     4   9  18  30  44  64  92 126 160 195 234 276
#     4  10  20  34  52  73  97 126 161 200 242 288
#     4   9  16  25  39  59  84 118 161 204 240 277
#     4   9  18  34  57  82 103 121 144 181 233 290
#     4   9  18  31  47  68  94 125 162 206 253 295
#     4   9  17  29  43  61  89 125 166 210 251 288
#     4   9  17  30  49  73  99 125 154 191 237 289
#     4  10  20  33  47  65  94 133 174 210 242 280
#
# _framework density 18.793275000000001
#
# number of rings (size 3 to 8) (size 9 to 14) (size 15 to 20)
#    0.000    2.750    0.000    1.500    0.000    4.000 
#    0.000    5.000    0.000    0.750    0.000    3.500 
#    0.000    0.000    0.000    0.000    0.000    0.000 
#
# Total GULP energy -356455.014295 kJ/mol
# GULP energy per Si atom -5569.609598 kJ/mol
# Density = 1.875050 g / cm^3
# Si number density = 18.793275 Si / 1000 Ang^3
#
#
#
# Elastic Constant Matrix: (Units=GPa)
#
#
# Indices 1 2 3 4 5 6 
#
# 1 49.0320 4.2876 14.8181 0.0000 0.0000 0.0000
# 2 4.2876 4.3775 1.4126 0.0000 0.0000 0.0000
# 3 14.8181 1.4126 89.5916 0.0000 0.0000 0.0000
# 4 0.0000 0.0000 0.0000 11.7746 0.0000 0.0000
# 5 0.0000 0.0000 0.0000 0.0000 14.0426 0.0000
# 6 0.0000 0.0000 0.0000 0.0000 0.0000 10.4518
#
#
#
# Elastic Compliance Matrix: (Units=1/GPa)
#
#
# Indices 1 2 3 4 5 6 
#
# 1 0.023360 -0.021745 -0.003521 0.000000 0.000000 0.000000
# 2 -0.021745 0.249849 -0.000343 0.000000 0.000000 0.000000
# 3 -0.003521 -0.000343 0.011750 0.000000 0.000000 0.000000
# 4 0.000000 0.000000 0.000000 0.084928 0.000000 0.000000
# 5 0.000000 0.000000 0.000000 0.000000 0.071212 0.000000
# 6 0.000000 0.000000 0.000000 0.000000 0.000000 0.095678
#
#
# Mechanical properties :
#
#
# Convention : Reuss Voigt Hill
#
# Bulk Modulus (GPa) = 4.27822 20.44864 12.36343
# Shear Modulus (GPa) = 7.50855 15.41931 11.46393
#
# Velocity S-wave (km/s) = 2.00100 2.86749 2.47250
# Velocity P-wave (km/s) = 2.76045 4.67630 3.83978
#
# Compressibility (1/GPa) = 0.23374211
#
# Stress axis : x y z
#
# Youngs Moduli (GPa) = 42.80753 4.00242 85.10990
#
# Poissons Ratio (x) = 0.08703 0.29966
# Poissons Ratio (y) = 0.93083 0.02918
# Poissons Ratio (z) = 0.15072 0.00137
#
# Static dielectric constant tensor:
#      x y z
#    x 1.643650 0.000000 0.000000 
#    y 0.000000 1.682530 0.000000 
#    z 0.000000 0.000000 1.704620 
# 
# From -- ./inp_files/19602.got.cif
#   From: 2010.05.17/outbox.cif.g08.bks.cpg/sg51_10_cif.got.tgz:19602.got - 2010.06.03 11:52:47.
