data_PCOD9403267
_publ_section_title
;
Structure prediction by ZEFSAII (Michael W. Deem and Ramdas Pophale) SiO2 
 PCOD9403267
Probable space group: P M M A
;
_chemical_formula_sum "Si O2"
_cell_formula_units_Z 64
_cell_length_a 8.784948
_cell_length_b 25.260156
_cell_length_c 15.762980
_cell_angle_alpha 90.000000
_cell_angle_beta 90.000000
_cell_angle_gamma 90.000000
_cell_volume 3497.949603
_symmetry_space_group_name_H-M "P M M A"
_symmetry_group_IT_number 51
_symmetry_cell_setting 'orthorhombic'
loop_
_space_group_symop_operation_xyz
x,y,z
1/2-x,-y,z
1/2+x,-y,-z
-x,y,-z
-x,-y,-z
1/2+x,y,-z
1/2-x,y,z
x,-y,z
loop_
_atom_site_type_symbol
_atom_site_label
_atom_site_fract_x
_atom_site_fract_y
_atom_site_fract_z
Si Si1 0.566597 0.061190 0.590727
Si Si2 0.432552 0.355734 0.409803
Si Si3 0.427558 0.257745 0.678640
Si Si4 0.932850 0.146507 0.730769
Si Si5 0.932561 0.168273 0.088513
Si Si6 0.429985 0.399347 0.086978
Si Si7 0.564399 0.559482 0.731258
Si Si8 0.426499 0.710641 0.873413
O O1 0.500000 0.078635 0.500000
O O2 0.750000 0.062675 0.585235
O O3 0.521257 0.098796 0.668439
O O4 0.519934 0.000000 0.604360
O O5 0.500000 0.371670 0.500000
O O6 0.250000 0.355467 0.412611
O O7 0.492095 0.297526 0.385505
O O8 0.483604 0.396829 0.336917
O O9 0.250000 0.250585 0.657421
O O10 0.507146 0.201153 0.689809
O O11 0.435576 0.284894 0.771596
O O12 0.750000 0.148146 0.736848
O O13 0.001155 0.142952 0.825565
O O14 0.750000 0.164163 0.089349
O O15 0.971436 0.231073 0.094721
O O16 0.000000 0.147683 0.000000
O O17 0.250000 0.405885 0.083431
O O18 0.487479 0.426044 0.173754
O O19 0.471382 0.337241 0.095113
O O20 0.500000 0.420284 0.000000
O O21 0.750000 0.560746 0.732646
O O22 0.517420 0.500000 0.708580
O O23 0.250000 0.700741 0.897137
#
# Coordination Sequence:
#
# PCOD9403267 Si02
#       8
#     8   8   8   8   8   8   8   8
#     4   9  19  36  58  84 113 147 188 234 282 330
#     4  11  22  38  60  84 108 140 178 220 273 332
#     4  10  20  35  55  80 113 146 180 224 270 323
#     4  10  20  34  55  83 116 153 190 230 277 332
#     4  10  20  33  50  77 112 152 191 233 278 327
#     4  11  21  33  53  79 105 138 175 215 263 319
#     4   9  20  39  59  78 104 138 176 221 272 327
#     4   9  18  32  51  75 105 139 175 217 263 313
#
# _framework density 18.296434000000001
#
# number of rings (size 3 to 8) (size 9 to 14) (size 15 to 20)
#    0.000    2.125    1.250    3.000    0.000    5.500 
#    0.000    1.250    0.000    5.625    0.000    0.000 
#    0.000    0.000    0.000    0.000    0.000    0.000 
#
# Total GULP energy -357240.453638 kJ/mol
# GULP energy per Si atom -5581.882088 kJ/mol
# Density = 1.825479 g / cm^3
# Si number density = 18.296434 Si / 1000 Ang^3
#
#
#
# Elastic Constant Matrix: (Units=GPa)
#
#
# Indices 1 2 3 4 5 6 
#
# 1 41.7052 25.5689 39.4738 0.0000 0.0000 0.0000
# 2 25.5689 76.3080 65.7363 0.0000 0.0000 0.0000
# 3 39.4738 65.7363 144.5150 0.0000 0.0000 0.0000
# 4 0.0000 0.0000 0.0000 4.2987 0.0000 0.0000
# 5 0.0000 0.0000 0.0000 0.0000 33.0658 0.0000
# 6 0.0000 0.0000 0.0000 0.0000 0.0000 10.4643
#
#
#
# Elastic Compliance Matrix: (Units=1/GPa)
#
#
# Indices 1 2 3 4 5 6 
#
# 1 0.033699 -0.005529 -0.006690 0.000000 0.000000 0.000000
# 2 -0.005529 0.022456 -0.008704 0.000000 0.000000 0.000000
# 3 -0.006690 -0.008704 0.012707 0.000000 0.000000 0.000000
# 4 0.000000 0.000000 0.000000 0.232631 0.000000 0.000000
# 5 0.000000 0.000000 0.000000 0.000000 0.030243 0.000000
# 6 0.000000 0.000000 0.000000 0.000000 0.000000 0.095563
#
#
# Mechanical properties :
#
#
# Convention : Reuss Voigt Hill
#
# Bulk Modulus (GPa) = 37.01578 58.23176 47.62377
# Shear Modulus (GPa) = 10.45698 18.34903 14.40300
#
# Velocity S-wave (km/s) = 2.39327 3.17026 2.80876
# Velocity P-wave (km/s) = 5.28318 6.73028 6.05015
#
# Compressibility (1/GPa) = 0.02701551
#
# Stress axis : x y z
#
# Youngs Moduli (GPa) = 29.67409 44.53180 78.69974
#
# Poissons Ratio (x) = 0.24620 0.52651
# Poissons Ratio (y) = 0.16406 0.68504
# Poissons Ratio (z) = 0.19852 0.38763
#
# Static dielectric constant tensor:
#      x y z
#    x 1.619050 0.000000 0.000000 
#    y 0.000000 1.610970 0.000000 
#    z 0.000000 0.000000 1.642870 
# 
# From -- ./inp_files/22291.got.cif
#   From: 2010.05.17/outbox.cif.g08.bks.cpg/sg51_12_cif.got.tgz:22291.got - 2010.06.03 11:52:47.
