data_PCOD9403561
_publ_section_title
;
Structure prediction by ZEFSAII (Michael W. Deem and Ramdas Pophale) SiO2 
 PCOD9403561
Probable space group: P M M A
;
_chemical_formula_sum "Si O2"
_cell_formula_units_Z 48
_cell_length_a 17.276957
_cell_length_b 13.324191
_cell_length_c 9.894590
_cell_angle_alpha 90.000000
_cell_angle_beta 90.000000
_cell_angle_gamma 90.000000
_cell_volume 2277.749212
_symmetry_space_group_name_H-M "P M M A"
_symmetry_group_IT_number 51
_symmetry_cell_setting 'orthorhombic'
loop_
_space_group_symop_operation_xyz
x,y,z
1/2-x,-y,z
1/2+x,-y,-z
-x,y,-z
-x,-y,-z
1/2+x,y,-z
1/2-x,y,z
x,-y,z
loop_
_atom_site_type_symbol
_atom_site_label
_atom_site_fract_x
_atom_site_fract_y
_atom_site_fract_z
Si Si1 0.338567 0.500000 0.263136
Si Si2 0.575476 0.703707 0.809259
Si Si3 0.658155 0.885160 0.323099
Si Si4 0.837393 0.185306 0.019324
Si Si5 0.438891 0.695806 0.621713
Si Si6 0.161970 0.500000 0.588233
Si Si7 0.838418 0.891941 0.731102
O O1 0.250000 0.500000 0.214355
O O2 0.382910 0.599070 0.217108
O O3 0.337212 0.500000 0.425375
O O4 0.488256 0.699386 0.759715
O O5 0.613544 0.790670 0.712996
O O6 0.598812 0.738605 0.959872
O O7 0.750000 0.873988 0.350728
O O8 0.647423 0.864330 0.162601
O O9 0.608418 0.799114 0.394154
O O10 0.636180 0.000000 0.353639
O O11 0.750000 0.230650 0.024137
O O12 0.835155 0.107102 0.895192
O O13 0.500000 0.680305 0.500000
O O14 0.382220 0.601005 0.629245
O O15 0.250000 0.500000 0.638110
O O16 0.750000 0.880618 0.682516
O O17 0.868809 0.000000 0.683621
#
# Coordination Sequence:
#
# PCOD9403561 Si02
#       7
#     4   8   8   8   8   4   8
#     4  11  19  35  62  90 120 155 203 254 312 380
#     4  10  20  33  57  92 127 158 195 255 325 374
#     4  10  22  42  67  91 124 172 216 254 303 373
#     4   8  16  34  59  91 122 160 209 251 296 360
#     4  12  24  42  62  92 128 163 206 264 320 371
#     4  11  24  44  71  89 109 164 227 267 303 369
#     4   8  14  28  51  83 120 155 198 245 291 354
#
# _framework density 21.073435
#
# number of rings (size 3 to 8) (size 9 to 14) (size 15 to 20)
#    1.000    1.167    1.667    2.750    0.000    3.667 
#    0.000    1.667    0.000    7.000    0.000    0.000 
#    0.000    0.000    0.000    0.000    0.000    0.000 
#
# Total GULP energy -267577.224709 kJ/mol
# GULP energy per Si atom -5574.525515 kJ/mol
# Density = 2.102547 g / cm^3
# Si number density = 21.073435 Si / 1000 Ang^3
#
#
#
# Elastic Constant Matrix: (Units=GPa)
#
#
# Indices 1 2 3 4 5 6 
#
# 1 114.5162 95.7679 27.0915 0.0000 0.0000 0.0000
# 2 95.7679 192.8027 19.2532 0.0000 0.0000 0.0000
# 3 27.0915 19.2532 79.4782 0.0000 0.0000 0.0000
# 4 0.0000 0.0000 0.0000 27.2497 0.0000 0.0000
# 5 0.0000 0.0000 0.0000 0.0000 29.8066 0.0000
# 6 0.0000 0.0000 0.0000 0.0000 0.0000 40.7128
#
#
#
# Elastic Compliance Matrix: (Units=1/GPa)
#
#
# Indices 1 2 3 4 5 6 
#
# 1 0.015877 -0.007528 -0.003588 0.000000 0.000000 0.000000
# 2 -0.007528 0.008885 0.000414 0.000000 0.000000 0.000000
# 3 -0.003588 0.000414 0.013705 0.000000 0.000000 0.000000
# 4 0.000000 0.000000 0.000000 0.036698 0.000000 0.000000
# 5 0.000000 0.000000 0.000000 0.000000 0.033550 0.000000
# 6 0.000000 0.000000 0.000000 0.000000 0.000000 0.024562
#
#
# Mechanical properties :
#
#
# Convention : Reuss Voigt Hill
#
# Bulk Modulus (GPa) = 58.61159 74.55805 66.58482
# Shear Modulus (GPa) = 31.17837 35.86613 33.52225
#
# Velocity S-wave (km/s) = 3.85061 4.12996 3.99273
# Velocity P-wave (km/s) = 6.90239 7.62883 7.27468
#
# Compressibility (1/GPa) = 0.01706147
#
# Stress axis : x y z
#
# Youngs Moduli (GPa) = 62.98537 112.55515 72.96627
#
# Poissons Ratio (x) = 0.84730 0.26182
# Poissons Ratio (y) = 0.47415 -0.03019
# Poissons Ratio (z) = 0.22601 -0.04657
#
# Static dielectric constant tensor:
#      x y z
#    x 1.749530 0.000000 0.000000 
#    y 0.000000 1.770600 0.000000 
#    z 0.000000 0.000000 1.788550 
# 
# From -- ./inp_files/16524.got.cif
#   From: 2010.05.17/outbox.cif.g08.bks.cpg/sg51_9_cif.got.tgz:16524.got - 2010.06.03 11:52:47.
