data_PCOD9403873
_publ_section_title
;
Structure prediction by ZEFSAII (Michael W. Deem and Ramdas Pophale) SiO2 
 PCOD9403873
Probable space group: P M M A
;
_chemical_formula_sum "Si O2"
_cell_formula_units_Z 56
_cell_length_a 7.634305
_cell_length_b 21.245449
_cell_length_c 15.872146
_cell_angle_alpha 90.000000
_cell_angle_beta 90.000000
_cell_angle_gamma 90.000000
_cell_volume 2574.370618
_symmetry_space_group_name_H-M "P M M A"
_symmetry_group_IT_number 51
_symmetry_cell_setting 'orthorhombic'
loop_
_space_group_symop_operation_xyz
x,y,z
1/2-x,-y,z
1/2+x,-y,-z
-x,y,-z
-x,-y,-z
1/2+x,y,-z
1/2-x,y,z
x,-y,z
loop_
_atom_site_type_symbol
_atom_site_label
_atom_site_fract_x
_atom_site_fract_y
_atom_site_fract_z
Si Si1 0.464597 0.427723 0.247659
Si Si2 0.448364 0.932169 0.370739
Si Si3 0.539166 0.658943 0.599641
Si Si4 0.959268 0.205059 0.597307
Si Si5 0.042523 0.803375 0.098223
Si Si6 0.960840 0.335628 0.900710
Si Si7 0.547758 0.933091 0.184620
O O1 0.250000 0.427483 0.247444
O O2 0.521247 0.500000 0.243693
O O3 0.520724 0.393789 0.334493
O O4 0.521996 0.387737 0.165794
O O5 0.250000 0.930650 0.406158
O O6 0.534521 0.864469 0.386575
O O7 0.439187 0.933182 0.269884
O O8 0.527447 0.000000 0.396582
O O9 0.500000 0.648439 0.500000
O O10 0.750000 0.661294 0.603866
O O11 0.476834 0.728015 0.633037
O O12 0.750000 0.201151 0.615249
O O13 0.000000 0.215004 0.500000
O O14 0.250000 0.803369 0.112377
O O15 0.974351 0.734486 0.125004
O O16 0.975880 0.867685 0.137983
O O17 0.000000 0.806568 0.000000
O O18 0.750000 0.333897 0.895051
O O19 0.000000 0.346772 0.000000
O O20 0.750000 0.935398 0.210720
O O21 0.509877 0.000000 0.138503
#
# Coordination Sequence:
#
# PCOD9403873 Si02
#       7
#     8   8   8   8   8   8   8
#     4   9  18  33  55  82 108 141 182 216 258 321
#     4   9  18  32  49  70  97 132 172 212 257 309
#     4   9  18  33  53  76 106 140 177 221 265 312
#     4   9  18  31  49  71  98 130 170 214 259 310
#     4  10  20  34  54  76 101 133 172 214 259 309
#     4   9  19  35  56  81 110 141 177 220 265 315
#     4  10  21  35  50  72 102 134 170 214 262 309
#
# _framework density 21.752889
#
# number of rings (size 3 to 8) (size 9 to 14) (size 15 to 20)
#    0.000    2.714    0.000    0.857    2.000    3.143 
#    0.000    0.714    0.000    0.857    0.000    0.000 
#    0.000    0.000    0.000    0.000    0.000    0.000 
#
# Total GULP energy -311849.079310 kJ/mol
# GULP energy per Si atom -5568.733559 kJ/mol
# Density = 2.170338 g / cm^3
# Si number density = 21.752889 Si / 1000 Ang^3
#
#
#
# Elastic Constant Matrix: (Units=GPa)
#
#
# Indices 1 2 3 4 5 6 
#
# 1 52.3383 14.2986 -1.3112 0.0000 0.0000 0.0000
# 2 14.2986 239.6880 93.4575 0.0000 0.0000 0.0000
# 3 -1.3112 93.4575 82.6001 0.0000 0.0000 0.0000
# 4 0.0000 0.0000 0.0000 63.8307 0.0000 0.0000
# 5 0.0000 0.0000 0.0000 0.0000 16.7983 0.0000
# 6 0.0000 0.0000 0.0000 0.0000 0.0000 55.0166
#
#
#
# Elastic Compliance Matrix: (Units=1/GPa)
#
#
# Indices 1 2 3 4 5 6 
#
# 1 0.019818 -0.002335 0.002957 0.000000 0.000000 0.000000
# 2 -0.002335 0.007741 -0.008795 0.000000 0.000000 0.000000
# 3 0.002957 -0.008795 0.022105 0.000000 0.000000 0.000000
# 4 0.000000 0.000000 0.000000 0.015666 0.000000 0.000000
# 5 0.000000 0.000000 0.000000 0.000000 0.059530 0.000000
# 6 0.000000 0.000000 0.000000 0.000000 0.000000 0.018176
#
#
# Mechanical properties :
#
#
# Convention : Reuss Voigt Hill
#
# Bulk Modulus (GPa) = 30.01508 65.27956 47.64732
# Shear Modulus (GPa) = 29.32724 45.00789 37.16756
#
# Velocity S-wave (km/s) = 3.67577 4.55362 4.13804
# Velocity P-wave (km/s) = 5.64298 7.59750 6.69198
#
# Compressibility (1/GPa) = 0.03331659
#
# Stress axis : x y z
#
# Youngs Moduli (GPa) = 50.45794 129.18506 45.23869
#
# Poissons Ratio (x) = 0.30166 -0.13376
# Poissons Ratio (y) = 0.11783 0.39789
# Poissons Ratio (z) = -0.14919 1.13623
#
# Static dielectric constant tensor:
#      x y z
#    x 1.840290 0.000000 0.000000 
#    y 0.000000 1.874820 0.000000 
#    z 0.000000 0.000000 1.754730 
# 
# From -- ./inp_files/21700.got.cif
#   From: 2010.05.17/outbox.cif.g08.bks.cpg/sg51_11_cif.got.tgz:21700.got - 2010.06.03 11:52:47.
