data_PCOD9403748
_publ_section_title
;
Structure prediction by ZEFSAII (Michael W. Deem and Ramdas Pophale) SiO2 
 PCOD9403748
Probable space group: P M M A
;
_chemical_formula_sum "Si O2"
_cell_formula_units_Z 48
_cell_length_a 9.362484
_cell_length_b 7.866927
_cell_length_c 31.917377
_cell_angle_alpha 90.000000
_cell_angle_beta 90.000000
_cell_angle_gamma 90.000000
_cell_volume 2350.841789
_symmetry_space_group_name_H-M "P M M A"
_symmetry_group_IT_number 51
_symmetry_cell_setting 'orthorhombic'
loop_
_space_group_symop_operation_xyz
x,y,z
1/2-x,-y,z
1/2+x,-y,-z
-x,y,-z
-x,-y,-z
1/2+x,y,-z
1/2-x,y,z
x,-y,z
loop_
_atom_site_type_symbol
_atom_site_label
_atom_site_fract_x
_atom_site_fract_y
_atom_site_fract_z
Si Si1 0.585862 0.202229 0.367393
Si Si2 0.585120 0.207821 0.041431
Si Si3 0.585312 0.208288 0.875531
Si Si4 0.413334 0.705238 0.540230
Si Si5 0.411325 0.202289 0.794806
Si Si6 0.911592 0.299374 0.713900
O O1 0.750000 0.268387 0.364008
O O2 0.531066 0.244392 0.413982
O O3 0.487002 0.269938 0.330575
O O4 0.591683 0.000000 0.363032
O O5 0.750000 0.263021 0.041217
O O6 0.501906 0.260721 0.083282
O O7 0.586224 0.000000 0.041275
O O8 0.500000 0.262150 0.000000
O O9 0.750000 0.263204 0.876673
O O10 0.504999 0.267989 0.833623
O O11 0.586666 0.000000 0.875244
O O12 0.500000 0.767081 0.500000
O O13 0.250000 0.766361 0.537761
O O14 0.412272 0.500000 0.538782
O O15 0.250000 0.272095 0.793858
O O16 0.491825 0.227693 0.751128
O O17 0.399904 0.000000 0.801335
O O18 0.750000 0.229177 0.714560
O O19 0.903457 0.500000 0.720904
#
# Coordination Sequence:
#
# PCOD9403748 Si02
#       6
#     8   8   8   8   8   8
#     4  10  21  37  57  81 108 139 176 216 259 309
#     4   9  15  22  33  52  82 121 164 207 251 302
#     4   9  16  26  41  62  90 125 163 204 252 304
#     4   9  18  33  53  77 107 143 180 217 257 302
#     4  10  20  34  53  76 101 131 168 209 255 309
#     4  11  24  39  55  77 104 134 170 212 258 309
#
# _framework density 20.418219000000001
#
# number of rings (size 3 to 8) (size 9 to 14) (size 15 to 20)
#    0.000    2.333    0.000    3.000    0.000   10.333 
#    0.000    1.667    0.000    0.000    0.000    0.000 
#    0.000    0.667    0.000    2.500    0.000    5.500 
#
# Total GULP energy -268057.972434 kJ/mol
# GULP energy per Si atom -5584.541092 kJ/mol
# Density = 2.037175 g / cm^3
# Si number density = 20.418219 Si / 1000 Ang^3
#
#
#
# Elastic Constant Matrix: (Units=GPa)
#
#
# Indices 1 2 3 4 5 6 
#
# 1 183.4104 3.3924 114.5749 0.0000 0.0000 0.0000
# 2 3.3924 20.3282 -8.0131 0.0000 0.0000 0.0000
# 3 114.5749 -8.0131 179.1026 0.0000 0.0000 0.0000
# 4 0.0000 0.0000 0.0000 84.0726 0.0000 0.0000
# 5 0.0000 0.0000 0.0000 0.0000 41.9990 0.0000
# 6 0.0000 0.0000 0.0000 0.0000 0.0000 -12.4429
#
#
#
# Elastic Compliance Matrix: (Units=1/GPa)
#
#
# Indices 1 2 3 4 5 6 
#
# 1 0.009391 -0.004006 -0.006187 0.000000 0.000000 0.000000
# 2 -0.004006 0.051785 0.004880 0.000000 0.000000 0.000000
# 3 -0.006187 0.004880 0.009760 0.000000 0.000000 0.000000
# 4 0.000000 0.000000 0.000000 0.011894 0.000000 0.000000
# 5 0.000000 0.000000 0.000000 0.000000 0.023810 0.000000
# 6 0.000000 0.000000 0.000000 0.000000 0.000000 -0.080367
#
#
# Mechanical properties :
#
#
# Convention : Reuss Voigt Hill
#
# Bulk Modulus (GPa) = 16.58132 66.97216 41.77674
# Shear Modulus (GPa) = 87.71496 40.91823 64.31659
#
# Velocity S-wave (km/s) = 6.56143 4.48147 5.61854
# Velocity P-wave (km/s) = 8.09578 7.72331 7.91174
#
# Compressibility (1/GPa) = 0.06030882
#
# Stress axis : x y z
#
# Youngs Moduli (GPa) = 106.48121 19.31069 102.46274
#
# Poissons Ratio (x) = 0.07736 0.63394
# Poissons Ratio (y) = 0.42657 -0.49998
# Poissons Ratio (z) = 0.65880 -0.09423
#
# Static dielectric constant tensor:
#      x y z
#    x 1.720080 0.000000 0.000000 
#    y 0.000000 1.755380 0.000000 
#    z 0.000000 0.000000 1.684740 
# 
# From -- ./inp_files/37042.got.cif
#   From: 2010.05.17/outbox.cif.g08.bks.cpg/sg51_19_cif.got.tgz:37042.got - 2010.06.03 11:52:47.
