data_PCOD9403026
_publ_section_title
;
Structure prediction by ZEFSAII (Michael W. Deem and Ramdas Pophale) SiO2 
 PCOD9403026
Probable space group: P M M A
;
_chemical_formula_sum "Si O2"
_cell_formula_units_Z 64
_cell_length_a 9.449388
_cell_length_b 19.300845
_cell_length_c 24.327527
_cell_angle_alpha 90.000000
_cell_angle_beta 90.000000
_cell_angle_gamma 90.000000
_cell_volume 4436.882914
_symmetry_space_group_name_H-M "P M M A"
_symmetry_group_IT_number 51
_symmetry_cell_setting 'orthorhombic'
loop_
_space_group_symop_operation_xyz
x,y,z
1/2-x,-y,z
1/2+x,-y,-z
-x,y,-z
-x,-y,-z
1/2+x,y,-z
1/2-x,y,z
x,-y,z
loop_
_atom_site_type_symbol
_atom_site_label
_atom_site_fract_x
_atom_site_fract_y
_atom_site_fract_z
Si Si1 0.581534 0.145038 0.278580
Si Si2 0.081641 0.919929 0.604648
Si Si3 0.586784 0.915571 0.946168
Si Si4 0.583863 0.916734 0.161670
Si Si5 0.917049 0.727516 0.673858
Si Si6 0.093356 0.418137 0.548678
Si Si7 0.582398 0.576563 0.660161
Si Si8 0.919423 0.209832 0.555356
O O1 0.750000 0.155668 0.276562
O O2 0.555791 0.094021 0.330335
O O3 0.537571 0.114659 0.219903
O O4 0.504966 0.216331 0.293025
O O5 0.250000 0.906744 0.594595
O O6 0.985585 0.864776 0.572600
O O7 0.052338 0.000000 0.591209
O O8 0.750000 0.893531 0.948230
O O9 0.509001 0.893789 0.890186
O O10 0.585859 0.000000 0.946377
O O11 0.500000 0.893304 0.000000
O O12 0.750000 0.900283 0.152453
O O13 0.574026 0.000000 0.165733
O O14 0.750000 0.740345 0.681188
O O15 0.947914 0.648350 0.690925
O O16 0.945903 0.741064 0.608629
O O17 0.250000 0.387154 0.552644
O O18 0.110732 0.500000 0.535779
O O19 0.000000 0.387576 0.500000
O O20 0.008967 0.417637 0.605184
O O21 0.750000 0.578751 0.646276
O O22 0.555022 0.500000 0.684960
O O23 0.750000 0.206007 0.547095
O O24 0.000000 0.230967 0.500000
#
# Coordination Sequence:
#
# PCOD9403026 Si02
#       8
#     8   8   8   8   8   8   8   8
#     4   9  17  29  45  63  82 106 134 163 199 241
#     4   9  17  30  47  64  80  98 123 158 198 238
#     4   9  16  25  37  55  81 113 147 181 215 245
#     4   9  16  26  41  61  84 110 142 178 210 240
#     4   9  19  33  46  61  80 101 125 157 197 239
#     4   9  16  25  37  54  75  95 114 139 173 214
#     4   9  17  30  46  61  77  97 122 152 187 229
#     4  10  20  33  46  59  76  98 124 153 190 239
#
# _framework density 14.424542000000001
#
# number of rings (size 3 to 8) (size 9 to 14) (size 15 to 20)
#    0.000    2.875    0.000    1.500    0.000    7.000 
#    0.000    1.250    0.000    2.250    0.000    0.000 
#    0.000    0.000    0.000    0.000    0.000    0.625 
#
# Total GULP energy -356466.279296 kJ/mol
# GULP energy per Si atom -5569.785614 kJ/mol
# Density = 1.439171 g / cm^3
# Si number density = 14.424542 Si / 1000 Ang^3
#
#
#
# Elastic Constant Matrix: (Units=GPa)
#
#
# Indices 1 2 3 4 5 6 
#
# 1 44.3321 25.5791 33.7285 0.0000 0.0000 0.0000
# 2 25.5791 68.7701 12.5495 0.0000 0.0000 0.0000
# 3 33.7285 12.5495 69.1771 0.0000 0.0000 0.0000
# 4 0.0000 0.0000 0.0000 8.3504 0.0000 0.0000
# 5 0.0000 0.0000 0.0000 0.0000 20.4828 0.0000
# 6 0.0000 0.0000 0.0000 0.0000 0.0000 13.2674
#
#
#
# Elastic Compliance Matrix: (Units=1/GPa)
#
#
# Indices 1 2 3 4 5 6 
#
# 1 0.045062 -0.013188 -0.019578 0.000000 0.000000 0.000000
# 2 -0.013188 0.018899 0.003002 0.000000 0.000000 0.000000
# 3 -0.019578 0.003002 0.023457 0.000000 0.000000 0.000000
# 4 0.000000 0.000000 0.000000 0.119754 0.000000 0.000000
# 5 0.000000 0.000000 0.000000 0.000000 0.048821 0.000000
# 6 0.000000 0.000000 0.000000 0.000000 0.000000 0.075372
#
#
# Mechanical properties :
#
#
# Convention : Reuss Voigt Hill
#
# Bulk Modulus (GPa) = 35.85760 36.22150 36.03955
# Shear Modulus (GPa) = 12.49404 15.78162 14.13783
#
# Velocity S-wave (km/s) = 2.94626 3.31128 3.13409
# Velocity P-wave (km/s) = 6.04042 6.30753 6.17542
#
# Compressibility (1/GPa) = 0.02788809
#
# Stress axis : x y z
#
# Youngs Moduli (GPa) = 22.19177 52.91347 42.63157
#
# Poissons Ratio (x) = 0.69783 0.83465
# Poissons Ratio (y) = 0.29267 -0.12796
# Poissons Ratio (z) = 0.43447 -0.15883
#
# Static dielectric constant tensor:
#      x y z
#    x 1.489890 0.000000 0.000000 
#    y 0.000000 1.489490 0.000000 
#    z 0.000000 0.000000 1.458270 
# 
# From -- ./inp_files/35176.got.cif
#   From: 2010.05.17/outbox.cif.g08.bks.cpg/sg51_18_cif.got.tgz:35176.got - 2010.06.03 11:52:47.
