data_PCOD9403705
_publ_section_title
;
Structure prediction by ZEFSAII (Michael W. Deem and Ramdas Pophale) SiO2 
 PCOD9403705
Probable space group: P M M A
;
_chemical_formula_sum "Si O2"
_cell_formula_units_Z 48
_cell_length_a 9.033474
_cell_length_b 15.333115
_cell_length_c 16.264984
_cell_angle_alpha 90.000000
_cell_angle_beta 90.000000
_cell_angle_gamma 90.000000
_cell_volume 2252.884008
_symmetry_space_group_name_H-M "P M M A"
_symmetry_group_IT_number 51
_symmetry_cell_setting 'orthorhombic'
loop_
_space_group_symop_operation_xyz
x,y,z
1/2-x,-y,z
1/2+x,-y,-z
-x,y,-z
-x,-y,-z
1/2+x,y,-z
1/2-x,y,z
x,-y,z
loop_
_atom_site_type_symbol
_atom_site_label
_atom_site_fract_x
_atom_site_fract_y
_atom_site_fract_z
Si Si1 0.080035 0.141997 0.081660
Si Si2 0.916018 0.603046 0.579937
Si Si3 0.573047 0.349323 0.252692
Si Si4 0.428808 0.158797 0.257982
Si Si5 0.583709 0.103246 0.420717
Si Si6 0.077457 0.644422 0.084512
O O1 0.250000 0.117695 0.073977
O O2 0.028284 0.112950 0.171883
O O3 0.071324 0.248715 0.083706
O O4 0.000000 0.111622 0.000000
O O5 0.750000 0.640623 0.589911
O O6 0.899666 0.500000 0.565047
O O7 0.000000 0.640035 0.500000
O O8 0.008682 0.611149 0.663524
O O9 0.750000 0.354067 0.250223
O O10 0.512812 0.250725 0.256850
O O11 0.504605 0.385631 0.167501
O O12 0.250000 0.170033 0.257402
O O13 0.484507 0.113963 0.340127
O O14 0.500000 0.140939 0.500000
O O15 0.750000 0.139913 0.409981
O O16 0.599479 0.000000 0.434559
O O17 0.250000 0.620134 0.086522
O O18 0.000000 0.615370 0.000000
#
# Coordination Sequence:
#
# PCOD9403705 Si02
#       6
#     8   8   8   8   8   8
#     4   8  15  26  43  68  98 131 164 202 245 292
#     4  10  21  38  58  78 102 134 172 213 258 311
#     4  11  21  33  52  79 109 139 173 214 259 305
#     4  10  20  34  52  77 107 136 171 214 258 302
#     4  10  21  37  56  77 101 132 170 210 256 312
#     4   9  16  28  46  71 103 137 173 211 254 303
#
# _framework density 21.306023
#
# number of rings (size 3 to 8) (size 9 to 14) (size 15 to 20)
#    0.000    2.333    0.000    4.500    0.000    7.333 
#    0.000    3.333    0.000    1.000    0.000    0.000 
#    0.000    0.000    0.000    0.000    0.000    0.000 
#
# Total GULP energy -267862.880889 kJ/mol
# GULP energy per Si atom -5580.476685 kJ/mol
# Density = 2.125753 g / cm^3
# Si number density = 21.306023 Si / 1000 Ang^3
#
#
#
# Elastic Constant Matrix: (Units=GPa)
#
#
# Indices 1 2 3 4 5 6 
#
# 1 182.8797 9.0090 113.6257 0.0000 0.0000 0.0000
# 2 9.0090 24.9534 7.9460 0.0000 0.0000 0.0000
# 3 113.6257 7.9460 230.0782 0.0000 0.0000 0.0000
# 4 0.0000 0.0000 0.0000 13.2269 0.0000 0.0000
# 5 0.0000 0.0000 0.0000 0.0000 33.0836 0.0000
# 6 0.0000 0.0000 0.0000 0.0000 0.0000 12.4673
#
#
#
# Elastic Compliance Matrix: (Units=1/GPa)
#
#
# Indices 1 2 3 4 5 6 
#
# 1 0.007954 -0.001639 -0.003872 0.000000 0.000000 0.000000
# 2 -0.001639 0.040858 -0.000602 0.000000 0.000000 0.000000
# 3 -0.003872 -0.000602 0.006279 0.000000 0.000000 0.000000
# 4 0.000000 0.000000 0.000000 0.075604 0.000000 0.000000
# 5 0.000000 0.000000 0.000000 0.000000 0.030226 0.000000
# 6 0.000000 0.000000 0.000000 0.000000 0.000000 0.080210
#
#
# Mechanical properties :
#
#
# Convention : Reuss Voigt Hill
#
# Bulk Modulus (GPa) = 23.32801 77.67475 50.50138
# Shear Modulus (GPa) = 18.68146 32.24426 25.46286
#
# Velocity S-wave (km/s) = 2.96432 3.89445 3.46077
# Velocity P-wave (km/s) = 4.76330 7.53380 6.30267
#
# Compressibility (1/GPa) = 0.04286693
#
# Stress axis : x y z
#
# Youngs Moduli (GPa) = 125.71717 24.47502 159.25585
#
# Poissons Ratio (x) = 0.04011 0.61659
# Poissons Ratio (y) = 0.20604 0.09582
# Poissons Ratio (z) = 0.48674 0.01473
#
# Static dielectric constant tensor:
#      x y z
#    x 1.743140 0.000000 0.000000 
#    y 0.000000 1.808920 0.000000 
#    z 0.000000 0.000000 1.783520 
# 
# From -- ./inp_files/21083.got.cif
#   From: 2010.05.17/outbox.cif.g08.bks.cpg/sg51_11_cif.got.tgz:21083.got - 2010.06.03 11:52:47.
