data_PCOD9403481
_publ_section_title
;
Structure prediction by ZEFSAII (Michael W. Deem and Ramdas Pophale) SiO2 
 PCOD9403481
Probable space group: P M M A
;
_chemical_formula_sum "Si O2"
_cell_formula_units_Z 40
_cell_length_a 14.689526
_cell_length_b 9.547544
_cell_length_c 14.324205
_cell_angle_alpha 90.000000
_cell_angle_beta 90.000000
_cell_angle_gamma 90.000000
_cell_volume 2008.953935
_symmetry_space_group_name_H-M "P M M A"
_symmetry_group_IT_number 51
_symmetry_cell_setting 'orthorhombic'
loop_
_space_group_symop_operation_xyz
x,y,z
1/2-x,-y,z
1/2+x,-y,-z
-x,y,-z
-x,-y,-z
1/2+x,y,-z
1/2-x,y,z
x,-y,z
loop_
_atom_site_type_symbol
_atom_site_label
_atom_site_fract_x
_atom_site_fract_y
_atom_site_fract_z
Si Si1 0.858301 0.664647 0.268752
Si Si2 0.359686 0.661685 0.274872
Si Si3 0.002164 0.835664 0.388392
Si Si4 0.144984 0.153194 0.103948
Si Si5 0.097257 0.655553 0.947414
O O1 0.750000 0.696619 0.268625
O O2 0.868318 0.500000 0.294171
O O3 0.916626 0.760632 0.338280
O O4 0.896834 0.678834 0.163084
O O5 0.250000 0.664008 0.283286
O O6 0.388927 0.500000 0.277712
O O7 0.408895 0.754029 0.352241
O O8 0.389676 0.732530 0.177330
O O9 0.000000 0.825345 0.500000
O O10 0.005662 0.000000 0.362637
O O11 0.250000 0.137219 0.130773
O O12 0.100280 0.000000 0.109214
O O13 0.143841 0.217848 0.001495
O O14 0.138156 0.500000 0.964099
O O15 0.000000 0.652855 0.000000
#
# Coordination Sequence:
#
# PCOD9403481 Si02
#       5
#     8   8   8   8   8
#     4  10  22  40  62  90 126 168 213 260 308 364
#     4  10  21  38  62  90 119 154 197 247 304 366
#     4  11  25  43  63  88 118 153 196 253 319 380
#     4  10  20  33  52  81 115 149 185 227 278 339
#     4  10  20  34  55  84 118 157 200 243 288 343
#
# _framework density 19.91086
#
# number of rings (size 3 to 8) (size 9 to 14) (size 15 to 20)
#    0.000    1.800    0.000    3.600    0.000    8.800 
#    0.000    4.000    0.000    0.000    0.000    0.000 
#    0.000    0.000    0.000    0.000    0.000    0.000 
#
# Total GULP energy -223175.019602 kJ/mol
# GULP energy per Si atom -5579.375490 kJ/mol
# Density = 1.986554 g / cm^3
# Si number density = 19.910860 Si / 1000 Ang^3
#
#
#
# Elastic Constant Matrix: (Units=GPa)
#
#
# Indices 1 2 3 4 5 6 
#
# 1 93.6551 55.8220 32.8156 0.0000 0.0000 0.0000
# 2 55.8220 174.4422 88.7898 0.0000 0.0000 0.0000
# 3 32.8156 88.7898 101.8171 0.0000 0.0000 0.0000
# 4 0.0000 0.0000 0.0000 36.9244 0.0000 0.0000
# 5 0.0000 0.0000 0.0000 0.0000 21.2274 0.0000
# 6 0.0000 0.0000 0.0000 0.0000 0.0000 18.6532
#
#
#
# Elastic Compliance Matrix: (Units=1/GPa)
#
#
# Indices 1 2 3 4 5 6 
#
# 1 0.013254 -0.003717 -0.001031 0.000000 0.000000 0.000000
# 2 -0.003717 0.011350 -0.008700 0.000000 0.000000 0.000000
# 3 -0.001031 -0.008700 0.017741 0.000000 0.000000 0.000000
# 4 0.000000 0.000000 0.000000 0.027082 0.000000 0.000000
# 5 0.000000 0.000000 0.000000 0.000000 0.047109 0.000000
# 6 0.000000 0.000000 0.000000 0.000000 0.000000 0.053610
#
#
# Mechanical properties :
#
#
# Convention : Reuss Voigt Hill
#
# Bulk Modulus (GPa) = 64.72495 80.52992 72.62743
# Shear Modulus (GPa) = 24.72914 28.19347 26.46130
#
# Velocity S-wave (km/s) = 3.52801 3.76704 3.64948
# Velocity P-wave (km/s) = 7.01240 7.71063 7.36979
#
# Compressibility (1/GPa) = 0.01544999
#
# Stress axis : x y z
#
# Youngs Moduli (GPa) = 75.44954 88.10429 56.36800
#
# Poissons Ratio (x) = 0.32746 0.05809
# Poissons Ratio (y) = 0.28043 0.49040
# Poissons Ratio (z) = 0.07775 0.76651
#
# Static dielectric constant tensor:
#      x y z
#    x 1.754850 0.000000 0.000000 
#    y 0.000000 1.725710 0.000000 
#    z 0.000000 0.000000 1.684560 
# 
# From -- ./inp_files/23694.got.cif
#   From: 2010.05.17/outbox.cif.g08.bks.cpg/sg51_12_cif.got.tgz:23694.got - 2010.06.03 11:52:47.
