data_PCOD9403285
_publ_section_title
;
Structure prediction by ZEFSAII (Michael W. Deem and Ramdas Pophale) SiO2 
 PCOD9403285
Probable space group: P M M A
;
_chemical_formula_sum "Si O2"
_cell_formula_units_Z 48
_cell_length_a 9.489418
_cell_length_b 9.072039
_cell_length_c 32.168698
_cell_angle_alpha 90.000000
_cell_angle_beta 90.000000
_cell_angle_gamma 90.000000
_cell_volume 2769.350782
_symmetry_space_group_name_H-M "P M M A"
_symmetry_group_IT_number 51
_symmetry_cell_setting 'orthorhombic'
loop_
_space_group_symop_operation_xyz
x,y,z
1/2-x,-y,z
1/2+x,-y,-z
-x,y,-z
-x,-y,-z
1/2+x,y,-z
1/2-x,y,z
x,-y,z
loop_
_atom_site_type_symbol
_atom_site_label
_atom_site_fract_x
_atom_site_fract_y
_atom_site_fract_z
Si Si1 0.087568 0.320141 0.959588
Si Si2 0.578429 0.829487 0.368790
Si Si3 0.917006 0.825001 0.790917
Si Si4 0.587347 0.179957 0.460095
Si Si5 0.084385 0.676925 0.121930
Si Si6 0.418423 0.325986 0.716000
O O1 0.250000 0.272407 0.961027
O O2 0.087454 0.500000 0.960058
O O3 0.009175 0.275903 0.917242
O O4 0.000000 0.271954 0.000000
O O5 0.750000 0.828348 0.370479
O O6 0.532119 0.775278 0.414443
O O7 0.535508 0.736006 0.328925
O O8 0.535268 0.000000 0.363215
O O9 0.750000 0.796034 0.785187
O O10 0.957495 0.753792 0.835098
O O11 0.002671 0.755133 0.753191
O O12 0.938291 0.000000 0.792183
O O13 0.500000 0.229189 0.500000
O O14 0.750000 0.225294 0.464273
O O15 0.585503 0.000000 0.459452
O O16 0.250000 0.708526 0.113911
O O17 0.071090 0.500000 0.126671
O O18 0.250000 0.300446 0.719483
O O19 0.443654 0.500000 0.718319
#
# Coordination Sequence:
#
# PCOD9403285 Si02
#       6
#     8   8   8   8   8   8
#     4   9  16  26  43  69  99 128 159 196 236 278
#     4   8  14  26  44  65  91 123 156 192 237 285
#     4  10  21  36  53  73  98 129 163 199 244 296
#     4   8  13  22  38  60  85 114 149 189 232 276
#     4   9  17  30  48  69  95 127 160 195 237 283
#     4  10  20  33  51  74  97 124 161 202 243 289
#
# _framework density 17.332581999999999
#
# number of rings (size 3 to 8) (size 9 to 14) (size 15 to 20)
#    0.000    3.000    0.000    2.500    0.000    4.667 
#    0.000    2.500    0.000    4.000    0.000    0.000 
#    0.000    0.000    0.000    0.000    0.000    0.000 
#
# Total GULP energy -267481.221520 kJ/mol
# GULP energy per Si atom -5572.525448 kJ/mol
# Density = 1.729313 g / cm^3
# Si number density = 17.332582 Si / 1000 Ang^3
#
#
#
# Elastic Constant Matrix: (Units=GPa)
#
#
# Indices 1 2 3 4 5 6 
#
# 1 62.6149 32.0565 86.3727 0.0000 0.0000 0.0000
# 2 32.0565 28.9876 56.8521 0.0000 0.0000 0.0000
# 3 86.3727 56.8521 212.6969 0.0000 0.0000 0.0000
# 4 0.0000 0.0000 0.0000 24.4025 0.0000 0.0000
# 5 0.0000 0.0000 0.0000 0.0000 35.1899 0.0000
# 6 0.0000 0.0000 0.0000 0.0000 0.0000 14.0584
#
#
#
# Elastic Compliance Matrix: (Units=1/GPa)
#
#
# Indices 1 2 3 4 5 6 
#
# 1 0.046069 -0.029963 -0.010699 0.000000 0.000000 0.000000
# 2 -0.029963 0.091996 -0.012422 0.000000 0.000000 0.000000
# 3 -0.010699 -0.012422 0.012367 0.000000 0.000000 0.000000
# 4 0.000000 0.000000 0.000000 0.040979 0.000000 0.000000
# 5 0.000000 0.000000 0.000000 0.000000 0.028417 0.000000
# 6 0.000000 0.000000 0.000000 0.000000 0.000000 0.071132
#
#
# Mechanical properties :
#
#
# Convention : Reuss Voigt Hill
#
# Bulk Modulus (GPa) = 22.59219 72.76244 47.67732
# Shear Modulus (GPa) = 12.13937 23.33138 17.73538
#
# Velocity S-wave (km/s) = 2.64934 3.67290 3.20228
# Velocity P-wave (km/s) = 4.73513 7.74973 6.42183
#
# Compressibility (1/GPa) = 0.04426309
#
# Stress axis : x y z
#
# Youngs Moduli (GPa) = 21.70645 10.87006 80.86282
#
# Poissons Ratio (x) = 0.32570 0.86516
# Poissons Ratio (y) = 0.65039 1.00450
# Poissons Ratio (z) = 0.23224 0.13503
#
# Static dielectric constant tensor:
#      x y z
#    x 1.581230 0.000000 0.000000 
#    y 0.000000 1.579460 0.000000 
#    z 0.000000 0.000000 1.585720 
# 
# From -- ./inp_files/36996.got.cif
#   From: 2010.05.17/outbox.cif.g08.bks.cpg/sg51_19_cif.got.tgz:36996.got - 2010.06.03 11:52:47.
