data_PCOD9403898
_publ_section_title
;
Structure prediction by ZEFSAII (Michael W. Deem and Ramdas Pophale) SiO2 
 PCOD9403898
Probable space group: P M M A
;
_chemical_formula_sum "Si O2"
_cell_formula_units_Z 48
_cell_length_a 9.602565
_cell_length_b 7.770317
_cell_length_c 31.966970
_cell_angle_alpha 90.000000
_cell_angle_beta 90.000000
_cell_angle_gamma 90.000000
_cell_volume 2385.214637
_symmetry_space_group_name_H-M "P M M A"
_symmetry_group_IT_number 51
_symmetry_cell_setting 'orthorhombic'
loop_
_space_group_symop_operation_xyz
x,y,z
1/2-x,-y,z
1/2+x,-y,-z
-x,y,-z
-x,-y,-z
1/2+x,y,-z
1/2-x,y,z
x,-y,z
loop_
_atom_site_type_symbol
_atom_site_label
_atom_site_fract_x
_atom_site_fract_y
_atom_site_fract_z
Si Si1 0.409637 0.206575 0.868404
Si Si2 0.907715 0.204812 0.288975
Si Si3 0.589521 0.788827 0.789526
Si Si4 0.091341 0.292708 0.961403
Si Si5 0.409292 0.295372 0.368173
Si Si6 0.908507 0.792595 0.538583
O O1 0.250000 0.272054 0.864159
O O2 0.509897 0.267696 0.831510
O O3 0.461091 0.248765 0.915023
O O4 0.403045 0.000000 0.864941
O O5 0.750000 0.274682 0.289510
O O6 0.001839 0.270828 0.250714
O O7 0.988680 0.231421 0.332258
O O8 0.896764 0.000000 0.282477
O O9 0.750000 0.733312 0.787963
O O10 0.590721 0.000000 0.789299
O O11 0.250000 0.227900 0.964289
O O12 0.095321 0.500000 0.964181
O O13 0.000000 0.227999 0.000000
O O14 0.250000 0.226582 0.363523
O O15 0.402269 0.500000 0.364557
O O16 0.459516 0.251859 0.414955
O O17 0.750000 0.728049 0.535377
O O18 0.000000 0.728171 0.500000
O O19 0.905038 0.000000 0.535943
#
# Coordination Sequence:
#
# PCOD9403898 Si02
#       6
#     8   8   8   8   8   8
#     4   9  17  30  48  70  96 124 156 197 243 289
#     4  10  20  34  54  78 102 132 171 211 251 299
#     4   9  17  30  50  75 100 127 161 202 247 294
#     4   9  18  32  48  66  91 124 159 194 235 284
#     4  10  21  36  53  75 105 139 173 210 254 302
#     4   9  18  33  53  76 102 133 170 211 252 296
#
# _framework density 20.123974
#
# number of rings (size 3 to 8) (size 9 to 14) (size 15 to 20)
#    0.000    2.667    0.000    1.500    0.000    6.000 
#    0.000    2.500    0.000    3.000    0.000    0.000 
#    0.000    0.000    0.000    0.000    0.000    0.000 
#
# Total GULP energy -267861.241540 kJ/mol
# GULP energy per Si atom -5580.442532 kJ/mol
# Density = 2.007817 g / cm^3
# Si number density = 20.123974 Si / 1000 Ang^3
#
#
#
# Elastic Constant Matrix: (Units=GPa)
#
#
# Indices 1 2 3 4 5 6 
#
# 1 134.7591 6.2448 130.7050 0.0000 0.0000 0.0000
# 2 6.2448 25.6930 -2.2852 0.0000 0.0000 0.0000
# 3 130.7050 -2.2852 221.4875 0.0000 0.0000 0.0000
# 4 0.0000 0.0000 0.0000 69.3239 0.0000 0.0000
# 5 0.0000 0.0000 0.0000 0.0000 40.3749 0.0000
# 6 0.0000 0.0000 0.0000 0.0000 0.0000 8.5724
#
#
#
# Elastic Compliance Matrix: (Units=1/GPa)
#
#
# Indices 1 2 3 4 5 6 
#
# 1 0.018057 -0.005341 -0.010711 0.000000 0.000000 0.000000
# 2 -0.005341 0.040537 0.003570 0.000000 0.000000 0.000000
# 3 -0.010711 0.003570 0.010873 0.000000 0.000000 0.000000
# 4 0.000000 0.000000 0.000000 0.014425 0.000000 0.000000
# 5 0.000000 0.000000 0.000000 0.000000 0.024768 0.000000
# 6 0.000000 0.000000 0.000000 0.000000 0.000000 0.116653
#
#
# Mechanical properties :
#
#
# Convention : Reuss Voigt Hill
#
# Bulk Modulus (GPa) = 22.47072 72.36321 47.41696
# Shear Modulus (GPa) = 18.86007 40.13924 29.49965
#
# Velocity S-wave (km/s) = 3.06468 4.47094 3.83286
# Velocity P-wave (km/s) = 4.86964 7.91765 6.57277
#
# Compressibility (1/GPa) = 0.04450236
#
# Stress axis : x y z
#
# Youngs Moduli (GPa) = 55.38077 24.66885 91.97517
#
# Poissons Ratio (x) = 0.13177 0.98513
# Poissons Ratio (y) = 0.29581 -0.32838
# Poissons Ratio (z) = 0.59318 -0.08808
#
# Static dielectric constant tensor:
#      x y z
#    x 1.708290 0.000000 0.000000 
#    y 0.000000 1.732900 0.000000 
#    z 0.000000 0.000000 1.684400 
# 
# From -- ./inp_files/37061.got.cif
#   From: 2010.05.17/outbox.cif.g08.bks.cpg/sg51_19_cif.got.tgz:37061.got - 2010.06.03 11:52:47.
