data_PCOD9403245
_publ_section_title
;
Structure prediction by ZEFSAII (Michael W. Deem and Ramdas Pophale) SiO2 
 PCOD9403245
Probable space group: P M M A
;
_chemical_formula_sum "Si O2"
_cell_formula_units_Z 40
_cell_length_a 7.963261
_cell_length_b 13.114413
_cell_length_c 18.328838
_cell_angle_alpha 90.000000
_cell_angle_beta 90.000000
_cell_angle_gamma 90.000000
_cell_volume 1914.144586
_symmetry_space_group_name_H-M "P M M A"
_symmetry_group_IT_number 51
_symmetry_cell_setting 'orthorhombic'
loop_
_space_group_symop_operation_xyz
x,y,z
1/2-x,-y,z
1/2+x,-y,-z
-x,y,-z
-x,-y,-z
1/2+x,y,-z
1/2-x,y,z
x,-y,z
loop_
_atom_site_type_symbol
_atom_site_label
_atom_site_fract_x
_atom_site_fract_y
_atom_site_fract_z
Si Si1 0.047208 0.284189 0.082459
Si Si2 0.545762 0.500000 0.309686
Si Si3 0.551431 0.671340 0.419937
Si Si4 0.048941 0.500000 0.140708
Si Si5 0.045174 0.114517 0.195744
Si Si6 0.047869 0.886931 0.363646
O O1 0.250000 0.285509 0.087398
O O2 0.983114 0.396488 0.104185
O O3 0.985454 0.200847 0.140642
O O4 0.000000 0.258736 0.000000
O O5 0.750000 0.500000 0.308141
O O6 0.485299 0.598938 0.355229
O O7 0.485866 0.500000 0.226857
O O8 0.500000 0.634928 0.500000
O O9 0.750000 0.664982 0.415915
O O10 0.502755 0.788997 0.409388
O O11 0.250000 0.500000 0.130823
O O12 0.250000 0.116951 0.196139
O O13 0.991851 0.129963 0.279648
O O14 0.995281 0.000000 0.173603
O O15 0.250000 0.890269 0.363355
O O16 0.988162 0.000000 0.387213
#
# Coordination Sequence:
#
# PCOD9403245 Si02
#       6
#     8   4   8   4   8   8
#     4  10  20  33  50  75 105 136 172 212 257 309
#     4  10  23  40  58  82 108 136 175 224 272 316
#     4  11  23  38  56  80 111 143 176 217 266 319
#     4  10  21  36  56  78 100 134 177 216 258 316
#     4   8  15  30  52  75 100 133 173 214 255 305
#     4   9  18  35  59  83 107 140 182 224 266 314
#
# _framework density 20.897062999999999
#
# number of rings (size 3 to 8) (size 9 to 14) (size 15 to 20)
#    0.000    2.400    0.000    3.600    0.000    5.200 
#    0.000    1.000    0.000    1.200    0.000    0.000 
#    0.000    0.000    0.000    0.000    0.000    0.000 
#
# Total GULP energy -223365.536253 kJ/mol
# GULP energy per Si atom -5584.138406 kJ/mol
# Density = 2.084950 g / cm^3
# Si number density = 20.897063 Si / 1000 Ang^3
#
#
#
# Elastic Constant Matrix: (Units=GPa)
#
#
# Indices 1 2 3 4 5 6 
#
# 1 14.6074 3.5792 -7.2416 0.0000 0.0000 0.0000
# 2 3.5792 81.7953 5.8035 0.0000 0.0000 0.0000
# 3 -7.2416 5.8035 39.9026 0.0000 0.0000 0.0000
# 4 0.0000 0.0000 0.0000 -22.4980 0.0000 0.0000
# 5 0.0000 0.0000 0.0000 0.0000 29.3810 0.0000
# 6 0.0000 0.0000 0.0000 0.0000 0.0000 -4.4543
#
#
#
# Elastic Compliance Matrix: (Units=1/GPa)
#
#
# Indices 1 2 3 4 5 6 
#
# 1 0.076757 -0.004392 0.014569 0.000000 0.000000 0.000000
# 2 -0.004392 0.012604 -0.002630 0.000000 0.000000 0.000000
# 3 0.014569 -0.002630 0.028088 0.000000 0.000000 0.000000
# 4 0.000000 0.000000 0.000000 -0.044448 0.000000 0.000000
# 5 0.000000 0.000000 0.000000 0.000000 0.034036 0.000000
# 6 0.000000 0.000000 0.000000 0.000000 0.000000 -0.224500
#
#
# Mechanical properties :
#
#
# Convention : Reuss Voigt Hill
#
# Bulk Modulus (GPa) = 7.54481 15.62084 11.58282
# Shear Modulus (GPa) = -56.57660 9.43001 -23.57329
#
# Velocity S-wave (km/s) = -5.20891 2.12659 -3.36231
# Velocity P-wave (km/s) = 5.70602 3.67712 3.08524
#
# Compressibility (1/GPa) = 0.13254141
#
# Stress axis : x y z
#
# Youngs Moduli (GPa) = 13.02810 79.33685 35.60292
#
# Poissons Ratio (x) = 0.34848 -0.51870
# Poissons Ratio (y) = 0.05723 0.09365
# Poissons Ratio (z) = -0.18981 0.20869
#
# Static dielectric constant tensor:
#      x y z
#    x 1.744280 0.000000 0.000000 
#    y 0.000000 1.776350 0.000000 
#    z 0.000000 0.000000 1.701970 
# 
# From -- ./inp_files/31430.got.cif
#   From: 2010.05.17/outbox.cif.g08.bks.cpg/sg51_16_cif.got.tgz:31430.got - 2010.06.03 11:52:47.
