data_PCOD9403947
_publ_section_title
;
Structure prediction by ZEFSAII (Michael W. Deem and Ramdas Pophale) SiO2 
 PCOD9403947
Probable space group: P M M A
;
_chemical_formula_sum "Si O2"
_cell_formula_units_Z 48
_cell_length_a 21.513982
_cell_length_b 16.149676
_cell_length_c 7.551677
_cell_angle_alpha 90.000000
_cell_angle_beta 90.000000
_cell_angle_gamma 90.000000
_cell_volume 2623.783646
_symmetry_space_group_name_H-M "P M M A"
_symmetry_group_IT_number 51
_symmetry_cell_setting 'orthorhombic'
loop_
_space_group_symop_operation_xyz
x,y,z
1/2-x,-y,z
1/2+x,-y,-z
-x,y,-z
-x,-y,-z
1/2+x,y,-z
1/2-x,y,z
x,-y,z
loop_
_atom_site_type_symbol
_atom_site_label
_atom_site_fract_x
_atom_site_fract_y
_atom_site_fract_z
Si Si1 0.323486 0.273743 0.082751
Si Si2 0.594186 0.856493 0.383404
Si Si3 0.134990 0.908904 0.983113
Si Si4 0.825288 0.592687 0.201395
Si Si5 0.468968 0.907251 0.264574
Si Si6 0.824958 0.294741 0.515583
O O1 0.250000 0.287138 0.085401
O O2 0.333064 0.176802 0.039955
O O3 0.345491 0.295557 0.280257
O O4 0.348842 0.336841 0.934581
O O5 0.524859 0.843969 0.301258
O O6 0.579711 0.897759 0.573308
O O7 0.636309 0.777573 0.422013
O O8 0.628048 0.906368 0.228104
O O9 0.068449 0.901960 0.082924
O O10 0.160601 0.000000 0.035426
O O11 0.750000 0.590522 0.184833
O O12 0.848423 0.500000 0.166231
O O13 0.837214 0.623280 0.401247
O O14 0.496425 0.000000 0.276340
O O15 0.750000 0.278549 0.507657
#
# Coordination Sequence:
#
# PCOD9403947 Si02
#       6
#     8   8   8   8   8   8
#     4  10  20  35  52  76 112 144 173 214 264 319
#     4  11  19  33  54  75 103 140 175 222 265 304
#     4  11  21  33  52  76 105 143 185 222 260 305
#     4   9  18  34  57  82 106 134 172 219 269 320
#     4  10  21  35  51  75 104 135 183 233 265 299
#     4  10  20  34  54  79 109 139 172 214 266 324
#
# _framework density 18.294191999999999
#
# number of rings (size 3 to 8) (size 9 to 14) (size 15 to 20)
#    0.000    1.833    3.333    2.500    0.000    2.333 
#    0.000    3.333    0.000    4.000    0.000    4.667 
#    0.000    0.000    0.000    0.000    0.000    0.000 
#
# Total GULP energy -267228.021627 kJ/mol
# GULP energy per Si atom -5567.250451 kJ/mol
# Density = 1.825255 g / cm^3
# Si number density = 18.294192 Si / 1000 Ang^3
#
#
#
# Elastic Constant Matrix: (Units=GPa)
#
#
# Indices 1 2 3 4 5 6 
#
# 1 10.2925 5.7027 9.6569 0.0000 0.0000 0.0000
# 2 5.7027 115.0676 59.4058 0.0000 0.0000 0.0000
# 3 9.6569 59.4058 117.1948 0.0000 0.0000 0.0000
# 4 0.0000 0.0000 0.0000 18.7677 0.0000 0.0000
# 5 0.0000 0.0000 0.0000 0.0000 21.4531 0.0000
# 6 0.0000 0.0000 0.0000 0.0000 0.0000 -2.4591
#
#
#
# Elastic Compliance Matrix: (Units=1/GPa)
#
#
# Indices 1 2 3 4 5 6 
#
# 1 0.105384 -0.001002 -0.008176 0.000000 0.000000 0.000000
# 2 -0.001002 0.011780 -0.005889 0.000000 0.000000 0.000000
# 3 -0.008176 -0.005889 0.012192 0.000000 0.000000 0.000000
# 4 0.000000 0.000000 0.000000 0.053283 0.000000 0.000000
# 5 0.000000 0.000000 0.000000 0.000000 0.046613 0.000000
# 6 0.000000 0.000000 0.000000 0.000000 0.000000 -0.406650
#
#
# Mechanical properties :
#
#
# Convention : Reuss Voigt Hill
#
# Bulk Modulus (GPa) = 10.07835 43.56507 26.82171
# Shear Modulus (GPa) = -43.78634 18.73830 -12.52402
#
# Velocity S-wave (km/s) = -4.89760 3.20390 -2.61931
# Velocity P-wave (km/s) = 5.14403 6.12797 2.35488
#
# Compressibility (1/GPa) = 0.09922256
#
# Stress axis : x y z
#
# Youngs Moduli (GPa) = 9.48913 84.88620 82.02373
#
# Poissons Ratio (x) = 0.08504 0.67061
# Poissons Ratio (y) = 0.00951 0.48303
# Poissons Ratio (z) = 0.07758 0.49989
#
# Static dielectric constant tensor:
#      x y z
#    x 1.638910 0.000000 0.000000 
#    y 0.000000 1.633290 0.000000 
#    z 0.000000 0.000000 1.685390 
# 
# From -- ./inp_files/11755.got.cif
#   From: 2010.05.17/outbox.cif.g08.bks.cpg/sg51_6_cif.got.tgz:11755.got - 2010.06.03 11:52:47.
