data_PCOD9403053
_publ_section_title
;
Structure prediction by ZEFSAII (Michael W. Deem and Ramdas Pophale) SiO2 
 PCOD9403053
Probable space group: P M M A
;
_chemical_formula_sum "Si O2"
_cell_formula_units_Z 40
_cell_length_a 19.039528
_cell_length_b 7.777995
_cell_length_c 14.047783
_cell_angle_alpha 90.000000
_cell_angle_beta 90.000000
_cell_angle_gamma 90.000000
_cell_volume 2080.327104
_symmetry_space_group_name_H-M "P M M A"
_symmetry_group_IT_number 51
_symmetry_cell_setting 'orthorhombic'
loop_
_space_group_symop_operation_xyz
x,y,z
1/2-x,-y,z
1/2+x,-y,-z
-x,y,-z
-x,-y,-z
1/2+x,y,-z
1/2-x,y,z
x,-y,z
loop_
_atom_site_type_symbol
_atom_site_label
_atom_site_fract_x
_atom_site_fract_y
_atom_site_fract_z
Si Si1 0.035908 0.291903 0.198569
Si Si2 0.612034 0.797012 0.113702
Si Si3 0.826930 0.704379 0.316854
Si Si4 0.328880 0.296861 0.090294
Si Si5 0.528212 0.289306 0.398128
O O1 0.037502 0.500000 0.198528
O O2 0.109694 0.225677 0.158175
O O3 0.017265 0.236218 0.306038
O O4 0.970173 0.241615 0.131815
O O5 0.652552 0.728938 0.206563
O O6 0.621596 0.000000 0.109423
O O7 0.642954 0.721092 0.017202
O O8 0.750000 0.777959 0.336213
O O9 0.824000 0.500000 0.334013
O O10 0.892464 0.771186 0.377557
O O11 0.250000 0.224389 0.099303
O O12 0.324183 0.500000 0.111043
O O13 0.500000 0.232629 0.500000
O O14 0.528346 0.500000 0.398033
#
# Coordination Sequence:
#
# PCOD9403053 Si02
#       5
#     8   8   8   8   8
#     4   9  18  33  51  69  93 127 161 191 229 280
#     4  11  21  31  47  71  96 123 157 197 238 277
#     4   9  17  30  48  70  96 126 158 192 235 285
#     4  10  20  33  48  67  94 128 161 190 225 275
#     4   8  14  27  48  71  93 118 151 192 233 272
#
# _framework density 19.227744000000001
#
# number of rings (size 3 to 8) (size 9 to 14) (size 15 to 20)
#    0.000    2.600    0.000    4.200    0.000    6.400 
#    0.000    1.000    0.000   15.600    0.000    0.000 
#    0.000    6.400    0.000    0.000    0.000    0.000 
#
# Total GULP energy -223137.670609 kJ/mol
# GULP energy per Si atom -5578.441765 kJ/mol
# Density = 1.918398 g / cm^3
# Si number density = 19.227744 Si / 1000 Ang^3
#
#
#
# Elastic Constant Matrix: (Units=GPa)
#
#
# Indices 1 2 3 4 5 6 
#
# 1 198.4692 -3.2333 99.9831 0.0000 0.0000 0.0000
# 2 -3.2333 23.1470 -5.4803 0.0000 0.0000 0.0000
# 3 99.9831 -5.4803 94.9264 0.0000 0.0000 0.0000
# 4 0.0000 0.0000 0.0000 -22.1418 0.0000 0.0000
# 5 0.0000 0.0000 0.0000 0.0000 28.3662 0.0000
# 6 0.0000 0.0000 0.0000 0.0000 0.0000 -9.2818
#
#
#
# Elastic Compliance Matrix: (Units=1/GPa)
#
#
# Indices 1 2 3 4 5 6 
#
# 1 0.010767 -0.001197 -0.011410 0.000000 0.000000 0.000000
# 2 -0.001197 0.043934 0.003798 0.000000 0.000000 0.000000
# 3 -0.011410 0.003798 0.022771 0.000000 0.000000 0.000000
# 4 0.000000 0.000000 0.000000 -0.045163 0.000000 0.000000
# 5 0.000000 0.000000 0.000000 0.000000 0.035253 0.000000
# 6 0.000000 0.000000 0.000000 0.000000 0.000000 -0.107737
#
#
# Mechanical properties :
#
#
# Convention : Reuss Voigt Hill
#
# Bulk Modulus (GPa) = 16.70755 55.45351 36.08053
# Shear Modulus (GPa) = -1918.60330 14.40672 -952.09829
#
# Velocity S-wave (km/s) = -31.62273 2.74024 -22.27653
# Velocity P-wave (km/s) = 36.39534 6.23818 25.35455
#
# Compressibility (1/GPa) = 0.05985320
#
# Stress axis : x y z
#
# Youngs Moduli (GPa) = 92.87768 22.76140 43.91545
#
# Poissons Ratio (x) = 0.02725 0.50105
# Poissons Ratio (y) = 0.11121 -0.16677
# Poissons Ratio (z) = 1.05969 -0.08644
#
# Static dielectric constant tensor:
#      x y z
#    x 1.701260 0.000000 0.000000 
#    y 0.000000 1.673280 0.000000 
#    z 0.000000 0.000000 1.642360 
# 
# From -- ./inp_files/23711.got.cif
#   From: 2010.05.17/outbox.cif.g08.bks.cpg/sg51_12_cif.got.tgz:23711.got - 2010.06.03 11:52:47.
