data_PCOD9403665
_publ_section_title
;
Structure prediction by ZEFSAII (Michael W. Deem and Ramdas Pophale) SiO2 
 PCOD9403665
Probable space group: P M M A
;
_chemical_formula_sum "Si O2"
_cell_formula_units_Z 64
_cell_length_a 9.181133
_cell_length_b 19.219068
_cell_length_c 20.997197
_cell_angle_alpha 90.000000
_cell_angle_beta 90.000000
_cell_angle_gamma 90.000000
_cell_volume 3705.014611
_symmetry_space_group_name_H-M "P M M A"
_symmetry_group_IT_number 51
_symmetry_cell_setting 'orthorhombic'
loop_
_space_group_symop_operation_xyz
x,y,z
1/2-x,-y,z
1/2+x,-y,-z
-x,y,-z
-x,-y,-z
1/2+x,y,-z
1/2-x,y,z
x,-y,z
loop_
_atom_site_type_symbol
_atom_site_label
_atom_site_fract_x
_atom_site_fract_y
_atom_site_fract_z
Si Si1 0.422500 0.334744 0.433553
Si Si2 0.078147 0.416755 0.679318
Si Si3 0.576909 0.417547 0.811271
Si Si4 0.922089 0.831089 0.566387
Si Si5 0.922850 0.917060 0.177531
Si Si6 0.076575 0.166407 0.066025
Si Si7 0.575908 0.082421 0.323628
Si Si8 0.923771 0.330797 0.934682
O O1 0.500000 0.353399 0.500000
O O2 0.250000 0.348518 0.437218
O O3 0.495001 0.376402 0.376109
O O4 0.442986 0.251798 0.423939
O O5 0.250000 0.401503 0.677488
O O6 0.058935 0.500000 0.671235
O O7 0.010603 0.398140 0.747901
O O8 0.750000 0.405558 0.800858
O O9 0.556932 0.500000 0.822524
O O10 0.530087 0.374384 0.873067
O O11 0.750000 0.844493 0.561581
O O12 0.000000 0.850012 0.500000
O O13 0.991178 0.873052 0.624595
O O14 0.750000 0.903618 0.169581
O O15 0.962316 0.898874 0.250554
O O16 0.012547 0.875617 0.125230
O O17 0.944584 0.000000 0.170305
O O18 0.250000 0.157093 0.061073
O O19 0.046237 0.248776 0.074869
O O20 0.000000 0.144767 0.000000
O O21 0.750000 0.092459 0.330792
O O22 0.547123 0.000000 0.331790
O O23 0.750000 0.339112 0.941677
O O24 0.000000 0.353165 0.000000
#
# Coordination Sequence:
#
# PCOD9403665 Si02
#       8
#     8   8   8   8   8   8   8   8
#     4  10  21  37  56  78 105 137 173 213 258 307
#     4  10  21  36  54  78 106 136 173 214 255 304
#     4   9  18  34  54  75 103 138 172 209 255 303
#     4  10  21  36  55  79 106 137 174 215 257 304
#     4   9  19  36  55  75 101 132 167 208 253 302
#     4  10  20  34  52  74 102 134 169 210 253 301
#     4   9  19  36  56  78 106 139 173 211 257 308
#     4   9  19  34  51  74 103 134 170 211 254 301
#
# _framework density 17.273885
#
# number of rings (size 3 to 8) (size 9 to 14) (size 15 to 20)
#    0.000    2.500    0.000    2.250    0.000    6.250 
#    0.000    5.000    0.000    0.000    0.000    0.000 
#    0.000    0.000    0.000    0.000    0.000    0.000 
#
# Total GULP energy -357160.962986 kJ/mol
# GULP energy per Si atom -5580.640047 kJ/mol
# Density = 1.723457 g / cm^3
# Si number density = 17.273885 Si / 1000 Ang^3
#
#
#
# Elastic Constant Matrix: (Units=GPa)
#
#
# Indices 1 2 3 4 5 6 
#
# 1 89.3685 61.0497 106.6446 0.0000 0.0000 0.0000
# 2 61.0497 48.2273 89.4120 0.0000 0.0000 0.0000
# 3 106.6446 89.4120 205.4928 0.0000 0.0000 0.0000
# 4 0.0000 0.0000 0.0000 42.1091 0.0000 0.0000
# 5 0.0000 0.0000 0.0000 0.0000 39.9886 0.0000
# 6 0.0000 0.0000 0.0000 0.0000 0.0000 26.8567
#
#
#
# Elastic Compliance Matrix: (Units=1/GPa)
#
#
# Indices 1 2 3 4 5 6 
#
# 1 0.090819 -0.142684 0.014951 0.000000 0.000000 0.000000
# 2 -0.142684 0.331425 -0.070158 0.000000 0.000000 0.000000
# 3 0.014951 -0.070158 0.027634 0.000000 0.000000 0.000000
# 4 0.000000 0.000000 0.000000 0.023748 0.000000 0.000000
# 5 0.000000 0.000000 0.000000 0.000000 0.025007 0.000000
# 6 0.000000 0.000000 0.000000 0.000000 0.000000 0.037235
#
#
# Mechanical properties :
#
#
# Convention : Reuss Voigt Hill
#
# Bulk Modulus (GPa) = 18.48556 95.25567 56.87062
# Shear Modulus (GPa) = 5.26492 27.52303 16.39398
#
# Velocity S-wave (km/s) = 1.74772 3.99599 3.08403
# Velocity P-wave (km/s) = 3.84674 8.74955 6.75840
#
# Compressibility (1/GPa) = 0.05409626
#
# Stress axis : x y z
#
# Youngs Moduli (GPa) = 11.01086 3.01728 36.18769
#
# Poissons Ratio (x) = 0.43052 -0.54103
# Poissons Ratio (y) = 1.57107 2.53884
# Poissons Ratio (z) = -0.16462 0.21168
#
# Static dielectric constant tensor:
#      x y z
#    x 1.572610 0.000000 0.000000 
#    y 0.000000 1.571580 0.000000 
#    z 0.000000 0.000000 1.554580 
# 
# From -- ./inp_files/28356.got.cif
#   From: 2010.05.17/outbox.cif.g08.bks.cpg/sg51_15_cif.got.tgz:28356.got - 2010.06.03 11:52:47.
