data_PCOD9403165
_publ_section_title
;
Structure prediction by ZEFSAII (Michael W. Deem and Ramdas Pophale) SiO2 
 PCOD9403165
Probable space group: P M M A
;
_chemical_formula_sum "Si O2"
_cell_formula_units_Z 48
_cell_length_a 9.433867
_cell_length_b 7.521820
_cell_length_c 31.837805
_cell_angle_alpha 90.000000
_cell_angle_beta 90.000000
_cell_angle_gamma 90.000000
_cell_volume 2259.205851
_symmetry_space_group_name_H-M "P M M A"
_symmetry_group_IT_number 51
_symmetry_cell_setting 'orthorhombic'
loop_
_space_group_symop_operation_xyz
x,y,z
1/2-x,-y,z
1/2+x,-y,-z
-x,y,-z
-x,-y,-z
1/2+x,y,-z
1/2-x,y,z
x,-y,z
loop_
_atom_site_type_symbol
_atom_site_label
_atom_site_fract_x
_atom_site_fract_y
_atom_site_fract_z
Si Si1 0.411124 0.789266 0.215604
Si Si2 0.086835 0.282337 0.376244
Si Si3 0.090623 0.709593 0.703260
Si Si4 0.086330 0.282898 0.541221
Si Si5 0.411361 0.712909 0.120976
Si Si6 0.087485 0.717583 0.959000
O O1 0.250000 0.716362 0.220063
O O2 0.514322 0.726088 0.252019
O O3 0.461025 0.749736 0.168302
O O4 0.402571 0.000000 0.219786
O O5 0.250000 0.224356 0.378253
O O6 0.089456 0.500000 0.376076
O O7 0.009080 0.219709 0.333907
O O8 0.996457 0.228128 0.416835
O O9 0.250000 0.784313 0.703421
O O10 0.103304 0.500000 0.694610
O O11 0.250000 0.225139 0.540768
O O12 0.087909 0.500000 0.541027
O O13 0.000000 0.226507 0.500000
O O14 0.250000 0.781887 0.117145
O O15 0.404451 0.500000 0.116611
O O16 0.510822 0.778014 0.083627
O O17 0.250000 0.774966 0.961107
O O18 0.087746 0.500000 0.958818
O O19 0.000000 0.772691 0.000000
#
# Coordination Sequence:
#
# PCOD9403165 Si02
#       6
#     8   8   8   8   8   8
#     4  10  21  36  53  73  98 129 164 202 246 296
#     4   9  16  26  41  61  86 118 156 197 241 288
#     4  10  20  33  50  72  97 126 162 204 248 294
#     4   9  15  22  33  52  82 119 156 192 233 284
#     4   9  17  30  49  72  98 128 161 197 238 284
#     4   9  16  26  43  69  99 127 156 193 236 280
#
# _framework density 21.246403999999998
#
# number of rings (size 3 to 8) (size 9 to 14) (size 15 to 20)
#    0.000    2.667    0.000    2.500    0.000    8.667 
#    0.000    1.667    0.000    0.500    0.000    0.000 
#    0.000    0.667    0.000    2.500    0.000    5.500 
#
# Total GULP energy -268092.345095 kJ/mol
# GULP energy per Si atom -5585.257189 kJ/mol
# Density = 2.119805 g / cm^3
# Si number density = 21.246404 Si / 1000 Ang^3
#
#
#
# Elastic Constant Matrix: (Units=GPa)
#
#
# Indices 1 2 3 4 5 6 
#
# 1 211.3007 4.8551 153.4681 0.0000 0.0000 0.0000
# 2 4.8551 53.3892 -5.2815 0.0000 0.0000 0.0000
# 3 153.4681 -5.2815 214.8113 0.0000 0.0000 0.0000
# 4 0.0000 0.0000 0.0000 -48.7513 0.0000 0.0000
# 5 0.0000 0.0000 0.0000 0.0000 41.6088 0.0000
# 6 0.0000 0.0000 0.0000 0.0000 0.0000 -5.4102
#
#
#
# Elastic Compliance Matrix: (Units=1/GPa)
#
#
# Indices 1 2 3 4 5 6 
#
# 1 0.009974 -0.001616 -0.007166 0.000000 0.000000 0.000000
# 2 -0.001616 0.019038 0.001623 0.000000 0.000000 0.000000
# 3 -0.007166 0.001623 0.009814 0.000000 0.000000 0.000000
# 4 0.000000 0.000000 0.000000 -0.020512 0.000000 0.000000
# 5 0.000000 0.000000 0.000000 0.000000 0.024033 0.000000
# 6 0.000000 0.000000 0.000000 0.000000 0.000000 -0.184836
#
#
# Mechanical properties :
#
#
# Convention : Reuss Voigt Hill
#
# Bulk Modulus (GPa) = 40.80212 87.28720 64.04466
# Shear Modulus (GPa) = -41.66613 19.25344 -11.20635
#
# Velocity S-wave (km/s) = -4.43322 3.01358 -2.29911
# Velocity P-wave (km/s) = 2.63794 7.29941 4.81262
#
# Compressibility (1/GPa) = 0.02450853
#
# Stress axis : x y z
#
# Youngs Moduli (GPa) = 100.26022 52.52703 101.89095
#
# Poissons Ratio (x) = 0.08488 0.73010
# Poissons Ratio (y) = 0.16201 -0.16532
# Poissons Ratio (z) = 0.71842 -0.08523
#
# Static dielectric constant tensor:
#      x y z
#    x 1.739420 0.000000 0.000000 
#    y 0.000000 1.790250 0.000000 
#    z 0.000000 0.000000 1.723460 
# 
# From -- ./inp_files/36942.got.cif
#   From: 2010.05.17/outbox.cif.g08.bks.cpg/sg51_19_cif.got.tgz:36942.got - 2010.06.03 11:52:47.
