data_PCOD9403017
_publ_section_title
;
Structure prediction by ZEFSAII (Michael W. Deem and Ramdas Pophale) SiO2 
 PCOD9403017
Probable space group: P M M A
;
_chemical_formula_sum "Si O2"
_cell_formula_units_Z 48
_cell_length_a 19.612933
_cell_length_b 7.555091
_cell_length_c 17.160868
_cell_angle_alpha 90.000000
_cell_angle_beta 90.000000
_cell_angle_gamma 90.000000
_cell_volume 2542.854408
_symmetry_space_group_name_H-M "P M M A"
_symmetry_group_IT_number 51
_symmetry_cell_setting 'orthorhombic'
loop_
_space_group_symop_operation_xyz
x,y,z
1/2-x,-y,z
1/2+x,-y,-z
-x,y,-z
-x,-y,-z
1/2+x,y,-z
1/2-x,y,z
x,-y,z
loop_
_atom_site_type_symbol
_atom_site_label
_atom_site_fract_x
_atom_site_fract_y
_atom_site_fract_z
Si Si1 0.578679 0.787533 0.186986
Si Si2 0.671915 0.284833 0.872948
Si Si3 0.100590 0.500000 0.561867
Si Si4 0.169151 0.210299 0.665636
Si Si5 0.065591 0.794288 0.259780
Si Si6 0.924082 0.707653 0.010604
Si Si7 0.442345 0.500000 0.387310
O O1 0.631197 0.734870 0.254473
O O2 0.502534 0.733209 0.213182
O O3 0.595639 0.723257 0.100736
O O4 0.578957 0.000000 0.183206
O O5 0.750000 0.224860 0.872456
O O6 0.672803 0.500000 0.872588
O O7 0.629041 0.225282 0.798146
O O8 0.630830 0.221443 0.949477
O O9 0.137933 0.328599 0.597225
O O10 0.097474 0.500000 0.468674
O O11 0.022749 0.500000 0.592440
O O12 0.250000 0.237530 0.671800
O O13 0.156608 0.000000 0.653838
O O14 0.073182 0.670752 0.334576
O O15 0.056047 0.000000 0.280972
O O16 0.929649 0.500000 0.991567
O O17 0.000000 0.785999 0.000000
#
# Coordination Sequence:
#
# PCOD9403017 Si02
#       7
#     8   8   4   8   8   8   4
#     4  10  21  35  57  88 119 157 206 252 295 354
#     4  10  21  38  58  84 122 163 206 259 310 358
#     4  11  23  40  66  97 122 158 201 241 314 375
#     4  10  22  41  63  91 129 165 200 248 304 365
#     4  11  22  39  64  91 122 161 204 250 306 363
#     4  10  20  32  54  83 116 159 204 252 302 352
#     4  11  24  40  66  96 124 152 197 262 302 359
#
# _framework density 18.876424
#
# number of rings (size 3 to 8) (size 9 to 14) (size 15 to 20)
#    0.000    1.667    4.167    0.250    2.333    2.667 
#    0.000    3.333    0.000    0.000    0.000    0.000 
#    0.000    0.000    0.000    0.000    0.000    0.000 
#
# Total GULP energy -268132.312216 kJ/mol
# GULP energy per Si atom -5586.089838 kJ/mol
# Density = 1.883346 g / cm^3
# Si number density = 18.876424 Si / 1000 Ang^3
#
#
#
# Elastic Constant Matrix: (Units=GPa)
#
#
# Indices 1 2 3 4 5 6 
#
# 1 139.7371 39.2259 80.9031 0.0000 0.0000 0.0000
# 2 39.2259 73.1939 44.8373 0.0000 0.0000 0.0000
# 3 80.9031 44.8373 164.1167 0.0000 0.0000 0.0000
# 4 0.0000 0.0000 0.0000 -41.1413 0.0000 0.0000
# 5 0.0000 0.0000 0.0000 0.0000 29.0271 0.0000
# 6 0.0000 0.0000 0.0000 0.0000 0.0000 16.0094
#
#
#
# Elastic Compliance Matrix: (Units=1/GPa)
#
#
# Indices 1 2 3 4 5 6 
#
# 1 0.010521 -0.002956 -0.004379 0.000000 0.000000 0.000000
# 2 -0.002956 0.017239 -0.003253 0.000000 0.000000 0.000000
# 3 -0.004379 -0.003253 0.009141 0.000000 0.000000 0.000000
# 4 0.000000 0.000000 0.000000 -0.024306 0.000000 0.000000
# 5 0.000000 0.000000 0.000000 0.000000 0.034451 0.000000
# 6 0.000000 0.000000 0.000000 0.000000 0.000000 0.062463
#
#
# Mechanical properties :
#
#
# Convention : Reuss Voigt Hill
#
# Bulk Modulus (GPa) = 63.59043 78.55339 71.07191
# Shear Modulus (GPa) = 36.78481 14.91780 25.85130
#
# Velocity S-wave (km/s) = 4.41922 2.81425 3.70469
# Velocity P-wave (km/s) = 7.73306 7.22945 7.48549
#
# Compressibility (1/GPa) = 0.01572564
#
# Stress axis : x y z
#
# Youngs Moduli (GPa) = 95.04415 58.00801 109.40298
#
# Poissons Ratio (x) = 0.17148 0.47908
# Poissons Ratio (y) = 0.28096 0.35584
# Poissons Ratio (z) = 0.41620 0.18867
#
# Static dielectric constant tensor:
#      x y z
#    x 1.647220 0.000000 0.000000 
#    y 0.000000 1.680680 0.000000 
#    z 0.000000 0.000000 1.617790 
# 
# From -- ./inp_files/24882.got.cif
#   From: 2010.05.17/outbox.cif.g08.bks.cpg/sg51_13_cif.got.tgz:24882.got - 2010.06.03 11:52:47.
