data_PCOD9403599
_publ_section_title
;
Structure prediction by ZEFSAII (Michael W. Deem and Ramdas Pophale) SiO2 
 PCOD9403599
Probable space group: P M M A
;
_chemical_formula_sum "Si O2"
_cell_formula_units_Z 48
_cell_length_a 9.650652
_cell_length_b 14.886375
_cell_length_c 15.973777
_cell_angle_alpha 90.000000
_cell_angle_beta 90.000000
_cell_angle_gamma 90.000000
_cell_volume 2294.844314
_symmetry_space_group_name_H-M "P M M A"
_symmetry_group_IT_number 51
_symmetry_cell_setting 'orthorhombic'
loop_
_space_group_symop_operation_xyz
x,y,z
1/2-x,-y,z
1/2+x,-y,-z
-x,y,-z
-x,-y,-z
1/2+x,y,-z
1/2-x,y,z
x,-y,z
loop_
_atom_site_type_symbol
_atom_site_label
_atom_site_fract_x
_atom_site_fract_y
_atom_site_fract_z
Si Si1 0.406491 0.860563 0.924731
Si Si2 0.091818 0.391758 0.235885
Si Si3 0.409364 0.890249 0.419348
Si Si4 0.091634 0.892592 0.736391
Si Si5 0.589152 0.390672 0.577568
Si Si6 0.593037 0.646188 0.076249
O O1 0.250000 0.896662 0.928036
O O2 0.460102 0.876590 0.830763
O O3 0.397489 0.753354 0.935581
O O4 0.500000 0.895686 0.000000
O O5 0.250000 0.359604 0.219412
O O6 0.098443 0.500000 0.238155
O O7 0.047264 0.361708 0.328899
O O8 0.986400 0.367435 0.163162
O O9 0.500000 0.864671 0.500000
O O10 0.250000 0.859602 0.423460
O O11 0.488590 0.859802 0.335521
O O12 0.405512 0.000000 0.418434
O O13 0.250000 0.856496 0.729369
O O14 0.101120 0.000000 0.725415
O O15 0.500000 0.356801 0.500000
O O16 0.750000 0.367893 0.566394
O O17 0.580223 0.500000 0.576982
O O18 0.750000 0.610535 0.076753
O O19 0.500000 0.609745 0.000000
#
# Coordination Sequence:
#
# PCOD9403599 Si02
#       6
#     8   8   8   8   8   8
#     4   9  19  34  50  69  93 122 156 192 231 278
#     4   9  18  32  49  71  98 124 153 193 236 274
#     4   9  16  26  42  66  95 125 156 190 230 277
#     4   9  17  30  48  70  96 124 154 192 236 276
#     4   8  14  25  42  65  93 122 149 180 220 265
#     4  10  20  34  51  69  91 122 158 193 231 279
#
# _framework density 20.916450999999999
#
# number of rings (size 3 to 8) (size 9 to 14) (size 15 to 20)
#    0.000    3.000    0.000    2.000    0.000    5.000 
#    0.000    1.667    0.000    1.000    0.000    2.333 
#    0.000    0.000    0.000    0.000    0.000    0.000 
#
# Total GULP energy -267827.117412 kJ/mol
# GULP energy per Si atom -5579.731613 kJ/mol
# Density = 2.086884 g / cm^3
# Si number density = 20.916451 Si / 1000 Ang^3
#
#
#
# Elastic Constant Matrix: (Units=GPa)
#
#
# Indices 1 2 3 4 5 6 
#
# 1 153.7911 5.6226 148.4343 0.0000 0.0000 0.0000
# 2 5.6226 50.1163 -0.7730 0.0000 0.0000 0.0000
# 3 148.4343 -0.7730 236.4647 0.0000 0.0000 0.0000
# 4 0.0000 0.0000 0.0000 27.8886 0.0000 0.0000
# 5 0.0000 0.0000 0.0000 0.0000 33.1987 0.0000
# 6 0.0000 0.0000 0.0000 0.0000 0.0000 348.2682
#
#
#
# Elastic Compliance Matrix: (Units=1/GPa)
#
#
# Indices 1 2 3 4 5 6 
#
# 1 0.016703 -0.002036 -0.010491 0.000000 0.000000 0.000000
# 2 -0.002036 0.020203 0.001344 0.000000 0.000000 0.000000
# 3 -0.010491 0.001344 0.010819 0.000000 0.000000 0.000000
# 4 0.000000 0.000000 0.000000 0.035857 0.000000 0.000000
# 5 0.000000 0.000000 0.000000 0.000000 0.030122 0.000000
# 6 0.000000 0.000000 0.000000 0.000000 0.000000 0.002871
#
#
# Mechanical properties :
#
#
# Convention : Reuss Voigt Hill
#
# Bulk Modulus (GPa) = 39.43506 82.99332 61.21419
# Shear Modulus (GPa) = 33.92294 101.01032 67.46663
#
# Velocity S-wave (km/s) = 4.03156 6.95680 5.68554
# Velocity P-wave (km/s) = 6.36914 10.21245 8.51058
#
# Compressibility (1/GPa) = 0.02535815
#
# Stress axis : x y z
#
# Youngs Moduli (GPa) = 59.87114 49.49831 92.43059
#
# Poissons Ratio (x) = 0.10076 0.96971
# Poissons Ratio (y) = 0.12188 -0.12422
# Poissons Ratio (z) = 0.62812 -0.06652
#
# Static dielectric constant tensor:
#      x y z
#    x 1.732260 0.000000 0.000000 
#    y 0.000000 1.791660 0.000000 
#    z 0.000000 0.000000 1.731980 
# 
# From -- ./inp_files/21387.got.cif
#   From: 2010.05.17/outbox.cif.g08.bks.cpg/sg51_11_cif.got.tgz:21387.got - 2010.06.03 11:52:47.
