data_PCOD9403783
_publ_section_title
;
Structure prediction by ZEFSAII (Michael W. Deem and Ramdas Pophale) SiO2 
 PCOD9403783
Probable space group: P M M A
;
_chemical_formula_sum "Si O2"
_cell_formula_units_Z 44
_cell_length_a 8.410516
_cell_length_b 29.493625
_cell_length_c 9.360367
_cell_angle_alpha 90.000000
_cell_angle_beta 90.000000
_cell_angle_gamma 90.000000
_cell_volume 2321.900859
_symmetry_space_group_name_H-M "P M M A"
_symmetry_group_IT_number 51
_symmetry_cell_setting 'orthorhombic'
loop_
_space_group_symop_operation_xyz
x,y,z
1/2-x,-y,z
1/2+x,-y,-z
-x,y,-z
-x,-y,-z
1/2+x,y,-z
1/2-x,y,z
x,-y,z
loop_
_atom_site_type_symbol
_atom_site_label
_atom_site_fract_x
_atom_site_fract_y
_atom_site_fract_z
Si Si1 0.942218 0.000000 0.837223
Si Si2 0.442228 0.822390 0.162128
Si Si3 0.557924 0.450056 0.162196
Si Si4 0.559271 0.636884 0.338054
Si Si5 0.440591 0.265614 0.337122
Si Si6 0.057784 0.088939 0.337352
O O1 0.995148 0.044768 0.751448
O O2 0.750000 0.000000 0.839146
O O3 0.000000 0.000000 0.000000
O O4 0.250000 0.822487 0.161374
O O5 0.495357 0.776065 0.239254
O O6 0.495380 0.865666 0.255118
O O7 0.500000 0.825354 0.000000
O O8 0.750000 0.449314 0.163379
O O9 0.507267 0.500000 0.216951
O O10 0.501250 0.406815 0.251042
O O11 0.500000 0.446344 0.000000
O O12 0.500000 0.633141 0.500000
O O13 0.750000 0.637458 0.336973
O O14 0.499387 0.685504 0.282858
O O15 0.500000 0.259807 0.500000
O O16 0.250000 0.266015 0.340389
O O17 0.250000 0.088890 0.339136
O O18 0.000000 0.087824 0.500000
#
# Coordination Sequence:
#
# PCOD9403783 Si02
#       6
#     4   8   8   8   8   8
#     4  10  21  36  56  82 112 142 177 220 264 312
#     4  10  22  37  54  78 107 138 175 216 259 309
#     4   9  19  35  53  74 101 133 169 208 252 303
#     4  10  20  34  53  77 104 134 169 210 255 304
#     4  10  20  35  54  76 102 134 172 212 255 306
#     4  10  21  37  56  81 109 140 179 219 261 312
#
# _framework density 18.949988999999999
#
# number of rings (size 3 to 8) (size 9 to 14) (size 15 to 20)
#    0.000    2.182    0.000    3.545    0.000    5.455 
#    0.000    3.636    0.000    0.000    0.000    0.000 
#    0.000    0.000    0.000    0.000    0.000    0.000 
#
# Total GULP energy -245647.840785 kJ/mol
# GULP energy per Si atom -5582.905472 kJ/mol
# Density = 1.890686 g / cm^3
# Si number density = 18.949989 Si / 1000 Ang^3
#
#
#
# Elastic Constant Matrix: (Units=GPa)
#
#
# Indices 1 2 3 4 5 6 
#
# 1 19.5452 29.7079 14.5819 0.0000 0.0000 0.0000
# 2 29.7079 236.2342 119.6648 0.0000 0.0000 0.0000
# 3 14.5819 119.6648 133.4860 0.0000 0.0000 0.0000
# 4 0.0000 0.0000 0.0000 34.4944 0.0000 0.0000
# 5 0.0000 0.0000 0.0000 0.0000 33.4011 0.0000
# 6 0.0000 0.0000 0.0000 0.0000 0.0000 70.6368
#
#
#
# Elastic Compliance Matrix: (Units=1/GPa)
#
#
# Indices 1 2 3 4 5 6 
#
# 1 0.063266 -0.008161 0.000405 0.000000 0.000000 0.000000
# 2 -0.008161 0.008807 -0.007004 0.000000 0.000000 0.000000
# 3 0.000405 -0.007004 0.013726 0.000000 0.000000 0.000000
# 4 0.000000 0.000000 0.000000 0.028990 0.000000 0.000000
# 5 0.000000 0.000000 0.000000 0.000000 0.029939 0.000000
# 6 0.000000 0.000000 0.000000 0.000000 0.000000 0.014157
#
#
# Mechanical properties :
#
#
# Convention : Reuss Voigt Hill
#
# Bulk Modulus (GPa) = 17.76861 79.68606 48.72734
# Shear Modulus (GPa) = 24.13540 42.72717 33.43129
#
# Velocity S-wave (km/s) = 3.57268 4.75355 4.20478
# Velocity P-wave (km/s) = 5.13961 8.50120 7.02446
#
# Compressibility (1/GPa) = 0.05627902
#
# Stress axis : x y z
#
# Youngs Moduli (GPa) = 15.80631 113.54379 72.85586
#
# Poissons Ratio (x) = 0.92666 -0.02952
# Poissons Ratio (y) = 0.12900 0.51026
# Poissons Ratio (z) = -0.00640 0.79523
#
# Static dielectric constant tensor:
#      x y z
#    x 1.659500 0.000000 0.000000 
#    y 0.000000 1.681990 0.000000 
#    z 0.000000 0.000000 1.604970 
# 
# From -- ./inp_files/5789.got.cif
#   From: 2010.05.17/outbox.cif.g08.bks.cpg/sg51_3_cif.got.tgz:5789.got - 2010.06.03 11:52:47.
