data_PCOD9403382
_publ_section_title
;
Structure prediction by ZEFSAII (Michael W. Deem and Ramdas Pophale) SiO2 
 PCOD9403382
Probable space group: P M M A
;
_chemical_formula_sum "Si O2"
_cell_formula_units_Z 40
_cell_length_a 9.431944
_cell_length_b 8.248078
_cell_length_c 26.480396
_cell_angle_alpha 90.000000
_cell_angle_beta 90.000000
_cell_angle_gamma 90.000000
_cell_volume 2060.053259
_symmetry_space_group_name_H-M "P M M A"
_symmetry_group_IT_number 51
_symmetry_cell_setting 'orthorhombic'
loop_
_space_group_symop_operation_xyz
x,y,z
1/2-x,-y,z
1/2+x,-y,-z
-x,y,-z
-x,-y,-z
1/2+x,y,-z
1/2-x,y,z
x,-y,z
loop_
_atom_site_type_symbol
_atom_site_label
_atom_site_fract_x
_atom_site_fract_y
_atom_site_fract_z
Si Si1 0.587003 0.806099 0.756022
Si Si2 0.912111 0.695504 0.147788
Si Si3 0.586378 0.301738 0.950294
Si Si4 0.912886 0.306063 0.644618
Si Si5 0.588382 0.804398 0.451550
O O1 0.750000 0.747985 0.763598
O O2 0.487327 0.743080 0.800266
O O3 0.541404 0.750488 0.700264
O O4 0.587781 0.000000 0.757252
O O5 0.750000 0.754446 0.145143
O O6 0.908281 0.500000 0.145112
O O7 0.005212 0.752460 0.100159
O O8 0.750000 0.248974 0.951305
O O9 0.587366 0.500000 0.950109
O O10 0.500000 0.251389 0.000000
O O11 0.750000 0.248302 0.637155
O O12 0.912632 0.500000 0.643702
O O13 0.010959 0.243193 0.599952
O O14 0.500000 0.745085 0.500000
O O15 0.750000 0.744848 0.453032
O O16 0.591769 0.000000 0.454079
#
# Coordination Sequence:
#
# PCOD9403382 Si02
#       5
#     8   8   8   8   8
#     4  10  21  37  57  79 104 138 179 221 267 320
#     4  10  20  33  51  77 108 141 178 220 265 314
#     4   9  16  27  46  73 105 139 175 217 264 314
#     4  10  21  37  58  83 110 141 178 221 269 319
#     4  10  21  37  58  83 111 145 183 221 263 313
#
# _framework density 19.416974
#
# number of rings (size 3 to 8) (size 9 to 14) (size 15 to 20)
#    0.000    2.200    0.000    3.000    0.000    8.400 
#    0.000    0.000    0.000    0.600    0.000    0.000 
#    0.000    0.000    0.000    0.000    0.000    0.000 
#
# Total GULP energy -223422.054347 kJ/mol
# GULP energy per Si atom -5585.551359 kJ/mol
# Density = 1.937278 g / cm^3
# Si number density = 19.416974 Si / 1000 Ang^3
#
#
#
# Elastic Constant Matrix: (Units=GPa)
#
#
# Indices 1 2 3 4 5 6 
#
# 1 182.7269 17.4464 144.9959 0.0000 0.0000 0.0000
# 2 17.4464 8.8000 10.6895 0.0000 0.0000 0.0000
# 3 144.9959 10.6895 206.8724 0.0000 0.0000 0.0000
# 4 0.0000 0.0000 0.0000 39.8613 0.0000 0.0000
# 5 0.0000 0.0000 0.0000 0.0000 40.4355 0.0000
# 6 0.0000 0.0000 0.0000 0.0000 0.0000 18.0835
#
#
#
# Elastic Compliance Matrix: (Units=1/GPa)
#
#
# Indices 1 2 3 4 5 6 
#
# 1 0.014475 -0.017470 -0.009243 0.000000 0.000000 0.000000
# 2 -0.017470 0.142330 0.004890 0.000000 0.000000 0.000000
# 3 -0.009243 0.004890 0.011059 0.000000 0.000000 0.000000
# 4 0.000000 0.000000 0.000000 0.025087 0.000000 0.000000
# 5 0.000000 0.000000 0.000000 0.000000 0.024731 0.000000
# 6 0.000000 0.000000 0.000000 0.000000 0.000000 0.055299
#
#
# Mechanical properties :
#
#
# Convention : Reuss Voigt Hill
#
# Bulk Modulus (GPa) = 8.05025 82.74032 45.39529
# Shear Modulus (GPa) = 13.96523 34.69390 24.32956
#
# Velocity S-wave (km/s) = 2.68475 4.23162 3.54362
# Velocity P-wave (km/s) = 3.71019 8.15968 6.33821
#
# Compressibility (1/GPa) = 0.12421975
#
# Stress axis : x y z
#
# Youngs Moduli (GPa) = 69.08619 7.02591 90.42182
#
# Poissons Ratio (x) = 0.12274 0.83573
# Poissons Ratio (y) = 1.20691 -0.44215
# Poissons Ratio (z) = 0.63853 -0.03436
#
# Static dielectric constant tensor:
#      x y z
#    x 1.673330 0.000000 0.000000 
#    y 0.000000 1.681390 0.000000 
#    z 0.000000 0.000000 1.635010 
# 
# From -- ./inp_files/34293.got.cif
#   From: 2010.05.17/outbox.cif.g08.bks.cpg/sg51_18_cif.got.tgz:34293.got - 2010.06.03 11:52:47.
