data_PCOD9403995
_publ_section_title
;
Structure prediction by ZEFSAII (Michael W. Deem and Ramdas Pophale) SiO2 
 PCOD9403995
Probable space group: P M M A
;
_chemical_formula_sum "Si O2"
_cell_formula_units_Z 56
_cell_length_a 15.154188
_cell_length_b 14.460051
_cell_length_c 11.938937
_cell_angle_alpha 90.000000
_cell_angle_beta 90.000000
_cell_angle_gamma 90.000000
_cell_volume 2616.183221
_symmetry_space_group_name_H-M "P M M A"
_symmetry_group_IT_number 51
_symmetry_cell_setting 'orthorhombic'
loop_
_space_group_symop_operation_xyz
x,y,z
1/2-x,-y,z
1/2+x,-y,-z
-x,y,-z
-x,-y,-z
1/2+x,y,-z
1/2-x,y,z
x,-y,z
loop_
_atom_site_type_symbol
_atom_site_label
_atom_site_fract_x
_atom_site_fract_y
_atom_site_fract_z
Si Si1 0.514363 0.396028 0.251078
Si Si2 0.851685 0.204319 0.561035
Si Si3 0.151997 0.111300 0.683578
Si Si4 0.344325 0.400116 0.947050
Si Si5 0.424362 0.741923 0.095410
Si Si6 0.960817 0.109657 0.752886
Si Si7 0.853772 0.606883 0.457200
O O1 0.476796 0.500000 0.263636
O O2 0.449358 0.317435 0.206565
O O3 0.576008 0.376999 0.358072
O O4 0.581428 0.398473 0.145915
O O5 0.750000 0.192792 0.599723
O O6 0.856354 0.161701 0.435923
O O7 0.918155 0.150231 0.640227
O O8 0.870382 0.313684 0.548233
O O9 0.250000 0.134450 0.729627
O O10 0.065456 0.135523 0.755511
O O11 0.149474 0.000000 0.666192
O O12 0.250000 0.397815 0.888795
O O13 0.353227 0.500000 0.006659
O O14 0.351121 0.317092 0.033059
O O15 0.411426 0.843529 0.143004
O O16 0.500000 0.745628 0.000000
O O17 0.953659 0.000000 0.753150
O O18 0.750000 0.617962 0.422322
O O19 0.864046 0.500000 0.493565
#
# Coordination Sequence:
#
# PCOD9403995 Si02
#       7
#     8   8   8   8   8   8   8
#     4   9  16  29  52  80 108 138 173 215 265 320
#     4  10  20  34  54  80 112 147 180 215 258 316
#     4   9  18  34  57  83 105 127 166 224 282 329
#     4   9  17  31  53  80 109 142 180 221 266 319
#     4  10  21  36  53  76 106 139 178 225 275 321
#     4  11  23  38  57  78 103 140 185 230 276 327
#     4   9  17  30  50  79 114 147 178 215 260 311
#
# _framework density 21.405227
#
# number of rings (size 3 to 8) (size 9 to 14) (size 15 to 20)
#    0.000    2.429    0.000    2.571    0.000    6.286 
#    0.000    4.286    0.000    5.143    0.000    2.000 
#    0.000    0.000    0.000    0.000    0.000    0.000 
#
# Total GULP energy -312438.541189 kJ/mol
# GULP energy per Si atom -5579.259664 kJ/mol
# Density = 2.135651 g / cm^3
# Si number density = 21.405227 Si / 1000 Ang^3
#
#
#
# Elastic Constant Matrix: (Units=GPa)
#
#
# Indices 1 2 3 4 5 6 
#
# 1 44.1299 26.7499 9.5550 0.0000 0.0000 0.0000
# 2 26.7499 81.9159 21.4911 0.0000 0.0000 0.0000
# 3 9.5550 21.4911 44.1307 0.0000 0.0000 0.0000
# 4 0.0000 0.0000 0.0000 26.3032 0.0000 0.0000
# 5 0.0000 0.0000 0.0000 0.0000 91.7856 0.0000
# 6 0.0000 0.0000 0.0000 0.0000 0.0000 17.3220
#
#
#
# Elastic Compliance Matrix: (Units=1/GPa)
#
#
# Indices 1 2 3 4 5 6 
#
# 1 0.028387 -0.008779 -0.001871 0.000000 0.000000 0.000000
# 2 -0.008779 0.016711 -0.006237 0.000000 0.000000 0.000000
# 3 -0.001871 -0.006237 0.026102 0.000000 0.000000 0.000000
# 4 0.000000 0.000000 0.000000 0.038018 0.000000 0.000000
# 5 0.000000 0.000000 0.000000 0.000000 0.010895 0.000000
# 6 0.000000 0.000000 0.000000 0.000000 0.000000 0.057730
#
#
# Mechanical properties :
#
#
# Convention : Reuss Voigt Hill
#
# Bulk Modulus (GPa) = 26.71937 31.75204 29.23571
# Shear Modulus (GPa) = 22.31216 34.57420 28.44318
#
# Velocity S-wave (km/s) = 3.23208 4.02334 3.64922
# Velocity P-wave (km/s) = 5.14181 6.03730 5.60746
#
# Compressibility (1/GPa) = 0.03742603
#
# Stress axis : x y z
#
# Youngs Moduli (GPa) = 35.22739 59.84155 38.31057
#
# Poissons Ratio (x) = 0.52535 0.07168
# Poissons Ratio (y) = 0.30926 0.23895
# Poissons Ratio (z) = 0.06591 0.37324
#
# Static dielectric constant tensor:
#      x y z
#    x 1.854210 0.000000 0.000000 
#    y 0.000000 1.825940 0.000000 
#    z 0.000000 0.000000 1.737500 
# 
# From -- ./inp_files/16594.got.cif
#   From: 2010.05.17/outbox.cif.g08.bks.cpg/sg51_9_cif.got.tgz:16594.got - 2010.06.03 11:52:47.
