data_PCOD9403051
_publ_section_title
;
Structure prediction by ZEFSAII (Michael W. Deem and Ramdas Pophale) SiO2 
 PCOD9403051
Probable space group: P M M A
;
_chemical_formula_sum "Si O2"
_cell_formula_units_Z 40
_cell_length_a 7.756242
_cell_length_b 14.165758
_cell_length_c 19.217697
_cell_angle_alpha 90.000000
_cell_angle_beta 90.000000
_cell_angle_gamma 90.000000
_cell_volume 2111.506929
_symmetry_space_group_name_H-M "P M M A"
_symmetry_group_IT_number 51
_symmetry_cell_setting 'orthorhombic'
loop_
_space_group_symop_operation_xyz
x,y,z
1/2-x,-y,z
1/2+x,-y,-z
-x,y,-z
-x,-y,-z
1/2+x,y,-z
1/2-x,y,z
x,-y,z
loop_
_atom_site_type_symbol
_atom_site_label
_atom_site_fract_x
_atom_site_fract_y
_atom_site_fract_z
Si Si1 0.959283 0.202392 0.717808
Si Si2 0.957163 0.891948 0.576688
Si Si3 0.955677 0.700192 0.078253
Si Si4 0.544106 0.104303 0.139816
Si Si5 0.046235 0.396286 0.218398
O O1 0.750000 0.204631 0.717534
O O2 0.019946 0.167036 0.642769
O O3 0.024078 0.306492 0.739154
O O4 0.011134 0.131707 0.779805
O O5 0.750000 0.895614 0.581753
O O6 0.000000 0.854332 0.500000
O O7 0.022702 0.000000 0.580687
O O8 0.750000 0.701080 0.086220
O O9 0.022584 0.806408 0.095554
O O10 0.026236 0.631237 0.137468
O O11 0.000000 0.673475 0.000000
O O12 0.750000 0.100931 0.129363
O O13 0.473813 0.000000 0.123831
O O14 0.250000 0.400255 0.233487
O O15 0.972078 0.500000 0.232261
#
# Coordination Sequence:
#
# PCOD9403051 Si02
#       5
#     8   8   8   8   8
#     4   9  17  30  48  69  92 118 151 190 227 265
#     4   9  17  28  43  66  95 124 152 181 215 258
#     4  10  20  33  48  67  92 120 150 186 227 271
#     4   9  18  31  46  66  92 121 152 185 223 268
#     4   9  18  33  52  71  89 113 148 189 233 277
#
# _framework density 18.943816999999999
#
# number of rings (size 3 to 8) (size 9 to 14) (size 15 to 20)
#    0.000    2.800    0.000    1.200    0.000    4.000 
#    0.000    2.000    0.000    0.600    0.000    0.000 
#    0.000    0.000    0.000    0.000    0.000    0.000 
#
# Total GULP energy -223050.834462 kJ/mol
# GULP energy per Si atom -5576.270862 kJ/mol
# Density = 1.890070 g / cm^3
# Si number density = 18.943817 Si / 1000 Ang^3
#
#
#
# Elastic Constant Matrix: (Units=GPa)
#
#
# Indices 1 2 3 4 5 6 
#
# 1 26.8769 -0.1557 -14.3900 0.0000 0.0000 0.0000
# 2 -0.1557 74.3415 6.0815 0.0000 0.0000 0.0000
# 3 -14.3900 6.0815 85.7148 0.0000 0.0000 0.0000
# 4 0.0000 0.0000 0.0000 16.9633 0.0000 0.0000
# 5 0.0000 0.0000 0.0000 0.0000 17.2626 0.0000
# 6 0.0000 0.0000 0.0000 0.0000 0.0000 11.5717
#
#
#
# Elastic Compliance Matrix: (Units=1/GPa)
#
#
# Indices 1 2 3 4 5 6 
#
# 1 0.040898 -0.000479 0.006900 0.000000 0.000000 0.000000
# 2 -0.000479 0.013536 -0.001041 0.000000 0.000000 0.000000
# 3 0.006900 -0.001041 0.012899 0.000000 0.000000 0.000000
# 4 0.000000 0.000000 0.000000 0.058951 0.000000 0.000000
# 5 0.000000 0.000000 0.000000 0.000000 0.057929 0.000000
# 6 0.000000 0.000000 0.000000 0.000000 0.000000 0.086418
#
#
# Mechanical properties :
#
#
# Convention : Reuss Voigt Hill
#
# Bulk Modulus (GPa) = 12.80516 18.88944 15.84730
# Shear Modulus (GPa) = 17.48863 22.18602 19.83732
#
# Velocity S-wave (km/s) = 3.04169 3.42592 3.23951
# Velocity P-wave (km/s) = 4.37151 5.06381 4.73034
#
# Compressibility (1/GPa) = 0.07809353
#
# Stress axis : x y z
#
# Youngs Moduli (GPa) = 24.45098 73.87940 77.52646
#
# Poissons Ratio (x) = 0.03537 -0.53493
# Poissons Ratio (y) = 0.01171 0.08068
# Poissons Ratio (z) = -0.16871 0.07689
#
# Static dielectric constant tensor:
#      x y z
#    x 1.690860 0.000000 0.000000 
#    y 0.000000 1.688750 0.000000 
#    z 0.000000 0.000000 1.633440 
# 
# From -- ./inp_files/27210.got.cif
#   From: 2010.05.17/outbox.cif.g08.bks.cpg/sg51_14_cif.got.tgz:27210.got - 2010.06.03 11:52:47.
