data_PCOD9403829
_publ_section_title
;
Structure prediction by ZEFSAII (Michael W. Deem and Ramdas Pophale) SiO2 
 PCOD9403829
Probable space group: P M M A
;
_chemical_formula_sum "Si O2"
_cell_formula_units_Z 56
_cell_length_a 8.717617
_cell_length_b 15.628147
_cell_length_c 20.588635
_cell_angle_alpha 90.000000
_cell_angle_beta 90.000000
_cell_angle_gamma 90.000000
_cell_volume 2804.999749
_symmetry_space_group_name_H-M "P M M A"
_symmetry_group_IT_number 51
_symmetry_cell_setting 'orthorhombic'
loop_
_space_group_symop_operation_xyz
x,y,z
1/2-x,-y,z
1/2+x,-y,-z
-x,y,-z
-x,-y,-z
1/2+x,y,-z
1/2-x,y,z
x,-y,z
loop_
_atom_site_type_symbol
_atom_site_label
_atom_site_fract_x
_atom_site_fract_y
_atom_site_fract_z
Si Si1 0.933317 0.595042 0.887491
Si Si2 0.929386 0.346468 0.742430
Si Si3 0.930394 0.830233 0.296991
Si Si4 0.067239 0.408769 0.400046
Si Si5 0.565379 0.781628 0.567487
Si Si6 0.931932 0.227152 0.068567
Si Si7 0.432848 0.095664 0.171957
O O1 0.750000 0.601819 0.898909
O O2 0.984053 0.500000 0.907676
O O3 0.957019 0.606122 0.809852
O O4 0.015363 0.675050 0.920136
O O5 0.750000 0.317675 0.742533
O O6 0.949194 0.402486 0.677949
O O7 0.034378 0.263781 0.732976
O O8 0.750000 0.844500 0.302035
O O9 0.005889 0.828976 0.368204
O O10 0.005758 0.893104 0.244981
O O11 0.250000 0.409611 0.413634
O O12 0.000951 0.500000 0.422435
O O13 0.008827 0.317891 0.426193
O O14 0.500000 0.816226 0.500000
O O15 0.750000 0.781750 0.567563
O O16 0.750000 0.222749 0.067558
O O17 0.995730 0.167896 0.126080
O O18 0.000000 0.197550 0.000000
O O19 0.250000 0.106284 0.172050
O O20 0.470523 0.000000 0.148369
#
# Coordination Sequence:
#
# PCOD9403829 Si02
#       7
#     8   8   8   8   8   8   8
#     4  10  20  35  59  89 123 166 214 262 312 365
#     4   9  16  29  52  79 113 154 200 251 304 359
#     4  11  21  35  59  89 122 158 198 247 303 363
#     4   8  14  25  43  70 104 145 194 247 301 355
#     4  10  20  34  53  78 112 156 205 254 306 369
#     4  12  26  44  66  92 128 170 209 257 310 368
#     4  11  24  44  71 100 128 159 199 249 307 374
#
# _framework density 19.964352000000002
#
# number of rings (size 3 to 8) (size 9 to 14) (size 15 to 20)
#    0.000    1.857    1.429    4.714    0.000    4.000 
#    0.000    0.000    0.000   14.143    0.000    0.000 
#    0.000    0.000    0.000    0.000    0.000    0.000 
#
# Total GULP energy -312738.994576 kJ/mol
# GULP energy per Si atom -5584.624903 kJ/mol
# Density = 1.991891 g / cm^3
# Si number density = 19.964352 Si / 1000 Ang^3
#
#
#
# Elastic Constant Matrix: (Units=GPa)
#
#
# Indices 1 2 3 4 5 6 
#
# 1 81.7557 39.9247 40.5774 0.0000 0.0000 0.0000
# 2 39.9247 81.2204 34.0804 0.0000 0.0000 0.0000
# 3 40.5774 34.0804 120.5977 0.0000 0.0000 0.0000
# 4 0.0000 0.0000 0.0000 -9.9559 0.0000 0.0000
# 5 0.0000 0.0000 0.0000 0.0000 29.4988 0.0000
# 6 0.0000 0.0000 0.0000 0.0000 0.0000 -11.0067
#
#
#
# Elastic Compliance Matrix: (Units=1/GPa)
#
#
# Indices 1 2 3 4 5 6 
#
# 1 0.017609 -0.007000 -0.003947 0.000000 0.000000 0.000000
# 2 -0.007000 0.016751 -0.002379 0.000000 0.000000 0.000000
# 3 -0.003947 -0.002379 0.010292 0.000000 0.000000 0.000000
# 4 0.000000 0.000000 0.000000 -0.100443 0.000000 0.000000
# 5 0.000000 0.000000 0.000000 0.000000 0.033900 0.000000
# 6 0.000000 0.000000 0.000000 0.000000 0.000000 -0.090854
#
#
# Mechanical properties :
#
#
# Convention : Reuss Voigt Hill
#
# Bulk Modulus (GPa) = 55.54966 56.97096 56.26031
# Shear Modulus (GPa) = -62.42610 12.97332 -24.72639
#
# Velocity S-wave (km/s) = -5.59792 2.55193 -3.52309
# Velocity P-wave (km/s) = 3.72792 6.10585 3.41936
#
# Compressibility (1/GPa) = 0.01800191
#
# Stress axis : x y z
#
# Youngs Moduli (GPa) = 56.79032 59.69793 97.16141
#
# Poissons Ratio (x) = 0.41787 0.38347
# Poissons Ratio (y) = 0.39751 0.23111
# Poissons Ratio (z) = 0.22413 0.14200
#
# Static dielectric constant tensor:
#      x y z
#    x 1.669430 0.000000 0.000000 
#    y 0.000000 1.722450 0.000000 
#    z 0.000000 0.000000 1.708430 
# 
# From -- ./inp_files/32027.got.cif
#   From: 2010.05.17/outbox.cif.g08.bks.cpg/sg51_17_cif.got.tgz:32027.got - 2010.06.03 11:52:47.
