data_PCOD9403334
_publ_section_title
;
Structure prediction by ZEFSAII (Michael W. Deem and Ramdas Pophale) SiO2 
 PCOD9403334
Probable space group: P M M A
;
_chemical_formula_sum "Si O2"
_cell_formula_units_Z 48
_cell_length_a 9.468497
_cell_length_b 7.499071
_cell_length_c 31.759564
_cell_angle_alpha 90.000000
_cell_angle_beta 90.000000
_cell_angle_gamma 90.000000
_cell_volume 2255.085659
_symmetry_space_group_name_H-M "P M M A"
_symmetry_group_IT_number 51
_symmetry_cell_setting 'orthorhombic'
loop_
_space_group_symop_operation_xyz
x,y,z
1/2-x,-y,z
1/2+x,-y,-z
-x,y,-z
-x,-y,-z
1/2+x,y,-z
1/2-x,y,z
x,-y,z
loop_
_atom_site_type_symbol
_atom_site_label
_atom_site_fract_x
_atom_site_fract_y
_atom_site_fract_z
Si Si1 0.908016 0.288252 0.961415
Si Si2 0.589317 0.214726 0.120226
Si Si3 0.588925 0.713532 0.539853
Si Si4 0.087551 0.781712 0.295414
Si Si5 0.589028 0.214009 0.376333
Si Si6 0.913023 0.217314 0.214693
O O1 0.750000 0.213899 0.960567
O O2 0.896429 0.500000 0.968496
O O3 0.986386 0.265520 0.917174
O O4 0.000000 0.214092 0.000000
O O5 0.750000 0.276479 0.111814
O O6 0.548208 0.274858 0.167316
O O7 0.593007 0.000000 0.121460
O O8 0.500000 0.782926 0.500000
O O9 0.750000 0.782189 0.541585
O O10 0.598531 0.500000 0.535007
O O11 0.502595 0.747411 0.582381
O O12 0.250000 0.725347 0.299181
O O13 0.993343 0.721896 0.334889
O O14 0.015738 0.723720 0.251779
O O15 0.087269 0.000000 0.295597
O O16 0.750000 0.281565 0.379475
O O17 0.597551 0.000000 0.372650
O O18 0.750000 0.269380 0.222645
O O19 0.915064 0.000000 0.214904
#
# Coordination Sequence:
#
# PCOD9403334 Si02
#       6
#     8   8   8   8   8   8
#     4  10  21  36  53  72  95 127 166 204 245 295
#     4   9  18  32  51  76 103 130 162 201 245 291
#     4  10  21  37  56  76  99 130 167 205 248 299
#     4   9  16  26  43  69 100 132 165 202 244 289
#     4  10  20  33  51  76 104 134 168 206 248 292
#     4   8  14  26  44  67  97 130 161 195 238 290
#
# _framework density 21.285222000000001
#
# number of rings (size 3 to 8) (size 9 to 14) (size 15 to 20)
#    0.000    2.667    0.000    3.000    0.000    6.667 
#    0.000    1.667    0.000    1.000    0.000    4.667 
#    0.000    0.000    0.000    0.000    0.000    0.000 
#
# Total GULP energy -268084.705496 kJ/mol
# GULP energy per Si atom -5585.098031 kJ/mol
# Density = 2.123678 g / cm^3
# Si number density = 21.285222 Si / 1000 Ang^3
#
#
#
# Elastic Constant Matrix: (Units=GPa)
#
#
# Indices 1 2 3 4 5 6 
#
# 1 228.0865 8.3930 156.8780 0.0000 0.0000 0.0000
# 2 8.3930 57.0406 0.1020 0.0000 0.0000 0.0000
# 3 156.8780 0.1020 208.0304 0.0000 0.0000 0.0000
# 4 0.0000 0.0000 0.0000 33.0413 0.0000 0.0000
# 5 0.0000 0.0000 0.0000 0.0000 37.0848 0.0000
# 6 0.0000 0.0000 0.0000 0.0000 0.0000 11.3340
#
#
#
# Elastic Compliance Matrix: (Units=1/GPa)
#
#
# Indices 1 2 3 4 5 6 
#
# 1 0.009211 -0.001343 -0.006945 0.000000 0.000000 0.000000
# 2 -0.001343 0.017727 0.001004 0.000000 0.000000 0.000000
# 3 -0.006945 0.001004 0.010044 0.000000 0.000000 0.000000
# 4 0.000000 0.000000 0.000000 0.030265 0.000000 0.000000
# 5 0.000000 0.000000 0.000000 0.000000 0.026965 0.000000
# 6 0.000000 0.000000 0.000000 0.000000 0.000000 0.088230
#
#
# Mechanical properties :
#
#
# Convention : Reuss Voigt Hill
#
# Bulk Modulus (GPa) = 44.61577 91.54484 68.08030
# Shear Modulus (GPa) = 24.45207 38.14432 31.29819
#
# Velocity S-wave (km/s) = 3.39304 4.23786 3.83876
# Velocity P-wave (km/s) = 6.02966 8.18828 7.19044
#
# Compressibility (1/GPa) = 0.02241360
#
# Stress axis : x y z
#
# Youngs Moduli (GPa) = 108.57068 56.41061 99.56288
#
# Poissons Ratio (x) = 0.07575 0.69148
# Poissons Ratio (y) = 0.14579 -0.09996
# Poissons Ratio (z) = 0.75404 -0.05663
#
# Static dielectric constant tensor:
#      x y z
#    x 1.741080 0.000000 0.000000 
#    y 0.000000 1.826760 0.000000 
#    z 0.000000 0.000000 1.724700 
# 
# From -- ./inp_files/37026.got.cif
#   From: 2010.05.17/outbox.cif.g08.bks.cpg/sg51_19_cif.got.tgz:37026.got - 2010.06.03 11:52:47.
