data_PCOD9403379
_publ_section_title
;
Structure prediction by ZEFSAII (Michael W. Deem and Ramdas Pophale) SiO2 
 PCOD9403379
Probable space group: P M M A
;
_chemical_formula_sum "Si O2"
_cell_formula_units_Z 48
_cell_length_a 7.928975
_cell_length_b 9.397212
_cell_length_c 32.320601
_cell_angle_alpha 90.000000
_cell_angle_beta 90.000000
_cell_angle_gamma 90.000000
_cell_volume 2408.216352
_symmetry_space_group_name_H-M "P M M A"
_symmetry_group_IT_number 51
_symmetry_cell_setting 'orthorhombic'
loop_
_space_group_symop_operation_xyz
x,y,z
1/2-x,-y,z
1/2+x,-y,-z
-x,y,-z
-x,-y,-z
1/2+x,y,-z
1/2-x,y,z
x,-y,z
loop_
_atom_site_type_symbol
_atom_site_label
_atom_site_fract_x
_atom_site_fract_y
_atom_site_fract_z
Si Si1 0.543468 0.163715 0.287015
Si Si2 0.451983 0.160988 0.874136
Si Si3 0.956512 0.336236 0.205494
Si Si4 0.547924 0.663281 0.366873
Si Si5 0.548864 0.337646 0.953922
Si Si6 0.950401 0.662978 0.543937
O O1 0.750000 0.163458 0.287306
O O2 0.491447 0.251379 0.246499
O O3 0.485990 0.242432 0.328765
O O4 0.489082 0.000000 0.285242
O O5 0.250000 0.152824 0.869285
O O6 0.514983 0.255400 0.835771
O O7 0.486431 0.237496 0.917449
O O8 0.518996 0.000000 0.873214
O O9 0.750000 0.337178 0.205200
O O10 0.011440 0.500000 0.206210
O O11 0.750000 0.655532 0.363211
O O12 0.482335 0.500000 0.364687
O O13 0.508806 0.724701 0.412333
O O14 0.750000 0.342513 0.951684
O O15 0.482966 0.500000 0.948704
O O16 0.500000 0.289292 0.000000
O O17 0.750000 0.655679 0.544995
O O18 0.021186 0.500000 0.543426
O O19 0.000000 0.730154 0.500000
#
# Coordination Sequence:
#
# PCOD9403379 Si02
#       6
#     8   8   8   8   8   8
#     4   9  16  26  42  66  96 127 159 197 240 285
#     4  10  20  33  51  77 108 140 173 210 254 303
#     4   9  16  27  46  72 101 132 166 205 247 290
#     4   9  16  26  42  65  92 121 154 192 234 280
#     4  10  21  37  57  79 103 134 173 215 258 304
#     4   9  16  26  42  65  92 120 151 190 235 280
#
# _framework density 19.931763
#
# number of rings (size 3 to 8) (size 9 to 14) (size 15 to 20)
#    0.000    2.667    0.000    2.500    0.000    8.333 
#    0.000    0.000    0.000    2.000    0.000    2.333 
#    0.000    0.000    0.000    0.000    0.000    0.000 
#
# Total GULP energy -267785.987338 kJ/mol
# GULP energy per Si atom -5578.874736 kJ/mol
# Density = 1.988640 g / cm^3
# Si number density = 19.931763 Si / 1000 Ang^3
#
#
#
# Elastic Constant Matrix: (Units=GPa)
#
#
# Indices 1 2 3 4 5 6 
#
# 1 18.2459 8.6429 3.2073 0.0000 0.0000 0.0000
# 2 8.6429 140.1935 122.4377 0.0000 0.0000 0.0000
# 3 3.2073 122.4377 225.7536 0.0000 0.0000 0.0000
# 4 0.0000 0.0000 0.0000 -6.4397 0.0000 0.0000
# 5 0.0000 0.0000 0.0000 0.0000 18.5857 0.0000
# 6 0.0000 0.0000 0.0000 0.0000 0.0000 6.7154
#
#
#
# Elastic Compliance Matrix: (Units=1/GPa)
#
#
# Indices 1 2 3 4 5 6 
#
# 1 0.056966 -0.005329 0.002081 0.000000 0.000000 0.000000
# 2 -0.005329 0.014051 -0.007545 0.000000 0.000000 0.000000
# 3 0.002081 -0.007545 0.008492 0.000000 0.000000 0.000000
# 4 0.000000 0.000000 0.000000 -0.155286 0.000000 0.000000
# 5 0.000000 0.000000 0.000000 0.000000 0.053805 0.000000
# 6 0.000000 0.000000 0.000000 0.000000 0.000000 0.148912
#
#
# Mechanical properties :
#
#
# Convention : Reuss Voigt Hill
#
# Bulk Modulus (GPa) = 17.26454 72.52987 44.89721
# Shear Modulus (GPa) = 29.79154 20.43260 25.11207
#
# Velocity S-wave (km/s) = 3.87030 3.20524 3.55336
# Velocity P-wave (km/s) = 5.35284 7.08281 6.27770
#
# Compressibility (1/GPa) = 0.05792219
#
# Stress axis : x y z
#
# Youngs Moduli (GPa) = 17.55444 71.17074 117.75898
#
# Poissons Ratio (x) = 0.37930 -0.24507
# Poissons Ratio (y) = 0.09356 0.88846
# Poissons Ratio (z) = -0.03653 0.53696
#
# Static dielectric constant tensor:
#      x y z
#    x 1.723130 0.000000 0.000000 
#    y 0.000000 1.689930 0.000000 
#    z 0.000000 0.000000 1.697480 
# 
# From -- ./inp_files/36878.got.cif
#   From: 2010.05.17/outbox.cif.g08.bks.cpg/sg51_19_cif.got.tgz:36878.got - 2010.06.03 11:52:47.
