data_PCOD9403255
_publ_section_title
;
Structure prediction by ZEFSAII (Michael W. Deem and Ramdas Pophale) SiO2 
 PCOD9403255
Probable space group: P M M A
;
_chemical_formula_sum "Si O2"
_cell_formula_units_Z 64
_cell_length_a 7.984914
_cell_length_b 14.379696
_cell_length_c 25.246430
_cell_angle_alpha 90.000000
_cell_angle_beta 90.000000
_cell_angle_gamma 90.000000
_cell_volume 2898.811147
_symmetry_space_group_name_H-M "P M M A"
_symmetry_group_IT_number 51
_symmetry_cell_setting 'orthorhombic'
loop_
_space_group_symop_operation_xyz
x,y,z
1/2-x,-y,z
1/2+x,-y,-z
-x,y,-z
-x,-y,-z
1/2+x,y,-z
1/2-x,y,z
x,-y,z
loop_
_atom_site_type_symbol
_atom_site_label
_atom_site_fract_x
_atom_site_fract_y
_atom_site_fract_z
Si Si1 0.067810 0.889061 0.945375
Si Si2 0.549390 0.398728 0.273757
Si Si3 0.437096 0.748237 0.358384
Si Si4 0.047526 0.892642 0.441225
Si Si5 0.954286 0.694369 0.169905
Si Si6 0.048487 0.607487 0.940347
Si Si7 0.044371 0.897477 0.828359
Si Si8 0.555701 0.607549 0.439579
O O1 0.250000 0.845646 0.937440
O O2 0.980374 0.886249 0.889038
O O3 0.086170 0.000000 0.953586
O O4 0.000000 0.851063 0.000000
O O5 0.750000 0.404752 0.272858
O O6 0.485290 0.500000 0.292561
O O7 0.512748 0.309342 0.309968
O O8 0.491090 0.379426 0.213842
O O9 0.250000 0.775767 0.342775
O O10 0.516903 0.834948 0.390398
O O11 0.439669 0.671117 0.404459
O O12 0.250000 0.889977 0.438973
O O13 0.000000 0.855869 0.500000
O O14 0.991769 0.000000 0.438805
O O15 0.750000 0.693359 0.168294
O O16 0.010175 0.668743 0.110110
O O17 0.002202 0.796408 0.192897
O O18 0.250000 0.606640 0.938387
O O19 0.990660 0.500000 0.933564
O O20 0.000000 0.636772 0.000000
O O21 0.250000 0.901730 0.828998
O O22 0.990346 0.000000 0.808428
O O23 0.500000 0.613484 0.500000
O O24 0.750000 0.636451 0.433358
O O25 0.544974 0.500000 0.423414
#
# Coordination Sequence:
#
# PCOD9403255 Si02
#       8
#     8   8   8   8   8   8   8   8
#     4   8  13  21  34  54  81 112 143 175 216 269
#     4  10  21  37  56  77 102 135 177 225 274 325
#     4  11  22  35  54  79 107 141 180 222 268 316
#     4   9  19  36  57  82 113 149 187 225 266 312
#     4   9  17  31  51  71  94 130 172 210 257 322
#     4   9  17  30  49  73  99 126 159 203 257 318
#     4   8  14  25  42  65  91 117 149 193 241 288
#     4  10  20  33  50  75 109 146 180 216 260 309
#
# _framework density 22.078016000000002
#
# number of rings (size 3 to 8) (size 9 to 14) (size 15 to 20)
#    0.000    2.750    0.000    2.625    0.000    6.500 
#    0.000    1.250    0.000    3.000    0.000    0.000 
#    0.000    0.000    0.000    0.000    0.000    0.000 
#
# Total GULP energy -356357.141124 kJ/mol
# GULP energy per Si atom -5568.080330 kJ/mol
# Density = 2.202777 g / cm^3
# Si number density = 22.078016 Si / 1000 Ang^3
#
#
#
# Elastic Constant Matrix: (Units=GPa)
#
#
# Indices 1 2 3 4 5 6 
#
# 1 16.1662 7.6712 0.1890 0.0000 0.0000 0.0000
# 2 7.6712 125.9534 49.8640 0.0000 0.0000 0.0000
# 3 0.1890 49.8640 97.9219 0.0000 0.0000 0.0000
# 4 0.0000 0.0000 0.0000 30.7730 0.0000 0.0000
# 5 0.0000 0.0000 0.0000 0.0000 16.8030 0.0000
# 6 0.0000 0.0000 0.0000 0.0000 0.0000 11.3967
#
#
#
# Elastic Compliance Matrix: (Units=1/GPa)
#
#
# Indices 1 2 3 4 5 6 
#
# 1 0.064122 -0.004830 0.002336 0.000000 0.000000 0.000000
# 2 -0.004830 0.010308 -0.005240 0.000000 0.000000 0.000000
# 3 0.002336 -0.005240 0.012876 0.000000 0.000000 0.000000
# 4 0.000000 0.000000 0.000000 0.032496 0.000000 0.000000
# 5 0.000000 0.000000 0.000000 0.000000 0.059513 0.000000
# 6 0.000000 0.000000 0.000000 0.000000 0.000000 0.087745
#
#
# Mechanical properties :
#
#
# Convention : Reuss Voigt Hill
#
# Bulk Modulus (GPa) = 13.92017 39.49886 26.70951
# Shear Modulus (GPa) = 16.31459 23.94904 20.13182
#
# Velocity S-wave (km/s) = 2.72132 3.29712 3.02296
# Velocity P-wave (km/s) = 4.02402 5.69422 4.93036
#
# Compressibility (1/GPa) = 0.07183821
#
# Stress axis : x y z
#
# Youngs Moduli (GPa) = 15.59520 97.01209 77.66442
#
# Poissons Ratio (x) = 0.46858 -0.18141
# Poissons Ratio (y) = 0.07533 0.40694
# Poissons Ratio (z) = -0.03643 0.50832
#
# Static dielectric constant tensor:
#      x y z
#    x 1.839690 0.000000 0.000000 
#    y 0.000000 1.873940 0.000000 
#    z 0.000000 0.000000 1.824810 
# 
# From -- ./inp_files/35010.got.cif
#   From: 2010.05.17/outbox.cif.g08.bks.cpg/sg51_18_cif.got.tgz:35010.got - 2010.06.03 11:52:47.
