data_PCOD9403567
_publ_section_title
;
Structure prediction by ZEFSAII (Michael W. Deem and Ramdas Pophale) SiO2 
 PCOD9403567
Probable space group: P M M A
;
_chemical_formula_sum "Si O2"
_cell_formula_units_Z 56
_cell_length_a 22.104995
_cell_length_b 9.308432
_cell_length_c 18.183600
_cell_angle_alpha 90.000000
_cell_angle_beta 90.000000
_cell_angle_gamma 90.000000
_cell_volume 3741.509229
_symmetry_space_group_name_H-M "P M M A"
_symmetry_group_IT_number 51
_symmetry_cell_setting 'orthorhombic'
loop_
_space_group_symop_operation_xyz
x,y,z
1/2-x,-y,z
1/2+x,-y,-z
-x,y,-z
-x,-y,-z
1/2+x,y,-z
1/2-x,y,z
x,-y,z
loop_
_atom_site_type_symbol
_atom_site_label
_atom_site_fract_x
_atom_site_fract_y
_atom_site_fract_z
Si Si1 0.404853 0.171588 0.874548
Si Si2 0.900153 0.670010 0.380414
Si Si3 0.821879 0.669739 0.239383
Si Si4 0.071281 0.834425 0.477443
Si Si5 0.460194 0.330254 0.336496
Si Si6 0.029047 0.327441 0.170786
Si Si7 0.427709 0.336152 0.016718
O O1 0.352288 0.235844 0.823827
O O2 0.467499 0.240250 0.843945
O O3 0.407241 0.000000 0.872168
O O4 0.398886 0.229516 0.958026
O O5 0.895345 0.500000 0.395270
O O6 0.852590 0.708654 0.317246
O O7 0.894595 0.755140 0.456371
O O8 0.967786 0.695472 0.348483
O O9 0.750000 0.686503 0.241865
O O10 0.835872 0.500000 0.226522
O O11 0.074753 0.756892 0.398913
O O12 0.000000 0.827580 0.500000
O O13 0.088757 0.000000 0.472475
O O14 0.450159 0.500000 0.347801
O O15 0.446628 0.294108 0.251878
O O16 0.015257 0.500000 0.168722
O O17 0.074327 0.298744 0.102985
O O18 0.406348 0.500000 0.005059
O O19 0.500000 0.336002 0.000000
#
# Coordination Sequence:
#
# PCOD9403567 Si02
#       7
#     8   8   8   8   8   8   8
#     4  11  20  28  41  60  87 115 141 177 219 259
#     4   9  16  28  44  59  78 107 142 178 214 250
#     4  10  20  34  50  64  80 109 151 190 219 252
#     4   9  17  26  37  57  84 111 139 168 205 255
#     4   9  15  25  42  61  83 110 142 175 207 247
#     4   9  16  28  44  62  84 114 148 178 209 250
#     4   8  15  27  43  59  80 111 146 177 207 251
#
# _framework density 14.967222
#
# number of rings (size 3 to 8) (size 9 to 14) (size 15 to 20)
#    0.000    2.714    1.429    2.571    0.000    5.714 
#    0.000    0.000    0.000    0.000    0.000    0.000 
#    0.000    1.143    0.000    9.143    0.000    4.143 
#
# Total GULP energy -311906.552595 kJ/mol
# GULP energy per Si atom -5569.759868 kJ/mol
# Density = 1.493316 g / cm^3
# Si number density = 14.967222 Si / 1000 Ang^3
#
#
#
# Elastic Constant Matrix: (Units=GPa)
#
#
# Indices 1 2 3 4 5 6 
#
# 1 31.3321 32.5338 32.9042 0.0000 0.0000 0.0000
# 2 32.5338 77.0300 79.5398 0.0000 0.0000 0.0000
# 3 32.9042 79.5398 166.7262 0.0000 0.0000 0.0000
# 4 0.0000 0.0000 0.0000 3.0124 0.0000 0.0000
# 5 0.0000 0.0000 0.0000 0.0000 11.5647 0.0000
# 6 0.0000 0.0000 0.0000 0.0000 0.0000 6.7133
#
#
#
# Elastic Compliance Matrix: (Units=1/GPa)
#
#
# Indices 1 2 3 4 5 6 
#
# 1 0.056864 -0.024496 0.000464 0.000000 0.000000 0.000000
# 2 -0.024496 0.036138 -0.012406 0.000000 0.000000 0.000000
# 3 0.000464 -0.012406 0.011825 0.000000 0.000000 0.000000
# 4 0.000000 0.000000 0.000000 0.331956 0.000000 0.000000
# 5 0.000000 0.000000 0.000000 0.000000 0.086470 0.000000
# 6 0.000000 0.000000 0.000000 0.000000 0.000000 0.148959
#
#
# Mechanical properties :
#
#
# Convention : Reuss Voigt Hill
#
# Bulk Modulus (GPa) = 31.29755 62.78265 47.04010
# Shear Modulus (GPa) = 6.61604 12.93210 9.77407
#
# Velocity S-wave (km/s) = 2.10474 2.94262 2.55822
# Velocity P-wave (km/s) = 5.18293 7.32006 6.34216
#
# Compressibility (1/GPa) = 0.03195138
#
# Stress axis : x y z
#
# Youngs Moduli (GPa) = 17.58567 27.67177 84.56770
#
# Poissons Ratio (x) = 0.67784 -0.03921
# Poissons Ratio (y) = 0.43077 1.04914
# Poissons Ratio (z) = -0.00815 0.34329
#
# Static dielectric constant tensor:
#      x y z
#    x 1.458880 0.000000 0.000000 
#    y 0.000000 1.497150 0.000000 
#    z 0.000000 0.000000 1.525330 
# 
# From -- ./inp_files/30462.got.cif
#   From: 2010.05.17/outbox.cif.g08.bks.cpg/sg51_16_cif.got.tgz:30462.got - 2010.06.03 11:52:47.
