data_PCOD9403614
_publ_section_title
;
Structure prediction by ZEFSAII (Michael W. Deem and Ramdas Pophale) SiO2 
 PCOD9403614
Probable space group: P M M A
;
_chemical_formula_sum "Si O2"
_cell_formula_units_Z 64
_cell_length_a 7.621434
_cell_length_b 22.556716
_cell_length_c 19.288159
_cell_angle_alpha 90.000000
_cell_angle_beta 90.000000
_cell_angle_gamma 90.000000
_cell_volume 3315.914640
_symmetry_space_group_name_H-M "P M M A"
_symmetry_group_IT_number 51
_symmetry_cell_setting 'orthorhombic'
loop_
_space_group_symop_operation_xyz
x,y,z
1/2-x,-y,z
1/2+x,-y,-z
-x,y,-z
-x,-y,-z
1/2+x,y,-z
1/2-x,y,z
x,-y,z
loop_
_atom_site_type_symbol
_atom_site_label
_atom_site_fract_x
_atom_site_fract_y
_atom_site_fract_z
Si Si1 0.457261 0.936481 0.619426
Si Si2 0.036737 0.894011 0.228773
Si Si3 0.541540 0.769504 0.925769
Si Si4 0.955988 0.236261 0.722911
Si Si5 0.961171 0.432385 0.921422
Si Si6 0.041632 0.810099 0.576051
Si Si7 0.536256 0.330888 0.820217
Si Si8 0.460508 0.095875 0.076609
O O1 0.250000 0.937795 0.604147
O O2 0.477467 0.927731 0.702331
O O3 0.531948 0.877170 0.584707
O O4 0.533788 0.000000 0.598722
O O5 0.250000 0.893599 0.229520
O O6 0.976569 0.824937 0.240296
O O7 0.981476 0.922095 0.154583
O O8 0.750000 0.775604 0.917193
O O9 0.482058 0.723790 0.869226
O O10 0.470516 0.836157 0.925422
O O11 0.500000 0.743016 0.000000
O O12 0.750000 0.235466 0.740317
O O13 0.021232 0.300968 0.747762
O O14 0.975414 0.226727 0.641334
O O15 0.750000 0.434136 0.916374
O O16 0.027483 0.500000 0.915669
O O17 0.027008 0.389687 0.859740
O O18 0.000000 0.411084 0.000000
O O19 0.250000 0.813212 0.584080
O O20 0.000000 0.787073 0.500000
O O21 0.750000 0.336991 0.819158
O O22 0.250000 0.094531 0.079351
O O23 0.500000 0.069699 0.000000
#
# Coordination Sequence:
#
# PCOD9403614 Si02
#       8
#     8   8   8   8   8   8   8   8
#     4   9  19  34  50  69  92 116 143 176 212 250
#     4   9  16  28  45  63  85 112 144 183 224 267
#     4   9  15  23  34  52  78 108 140 176 217 260
#     4   9  16  29  47  65  87 117 149 181 222 269
#     4   9  17  28  41  59  87 126 170 209 240 271
#     4  10  20  34  51  72  97 122 144 169 206 256
#     4   9  15  25  42  60  83 117 155 192 229 268
#     4   9  16  25  37  56  81 107 137 175 218 264
#
# _framework density 19.30086
#
# number of rings (size 3 to 8) (size 9 to 14) (size 15 to 20)
#    0.000    2.875    1.250    0.750    0.000    1.500 
#    0.000    1.250    0.000    0.375    0.000    0.000 
#    0.000    0.500    0.000    0.875    0.000    1.250 
#
# Total GULP energy -356318.710312 kJ/mol
# GULP energy per Si atom -5567.479849 kJ/mol
# Density = 1.925693 g / cm^3
# Si number density = 19.300860 Si / 1000 Ang^3
#
#
#
# Elastic Constant Matrix: (Units=GPa)
#
#
# Indices 1 2 3 4 5 6 
#
# 1 37.3615 2.1436 -8.8594 0.0000 0.0000 0.0000
# 2 2.1436 88.2526 30.7324 0.0000 0.0000 0.0000
# 3 -8.8594 30.7324 105.8972 0.0000 0.0000 0.0000
# 4 0.0000 0.0000 0.0000 12.9990 0.0000 0.0000
# 5 0.0000 0.0000 0.0000 0.0000 17.6803 0.0000
# 6 0.0000 0.0000 0.0000 0.0000 0.0000 6.2846
#
#
#
# Elastic Compliance Matrix: (Units=1/GPa)
#
#
# Indices 1 2 3 4 5 6 
#
# 1 0.027518 -0.001635 0.002777 0.000000 0.000000 0.000000
# 2 -0.001635 0.012702 -0.003823 0.000000 0.000000 0.000000
# 3 0.002777 -0.003823 0.010785 0.000000 0.000000 0.000000
# 4 0.000000 0.000000 0.000000 0.076929 0.000000 0.000000
# 5 0.000000 0.000000 0.000000 0.000000 0.056560 0.000000
# 6 0.000000 0.000000 0.000000 0.000000 0.000000 0.159118
#
#
# Mechanical properties :
#
#
# Convention : Reuss Voigt Hill
#
# Bulk Modulus (GPa) = 21.90988 31.06048 26.48518
# Shear Modulus (GPa) = 13.72913 21.22577 17.47745
#
# Velocity S-wave (km/s) = 2.66996 3.31982 3.01246
# Velocity P-wave (km/s) = 4.56960 5.55182 5.08448
#
# Compressibility (1/GPa) = 0.04564152
#
# Stress axis : x y z
#
# Youngs Moduli (GPa) = 36.34009 78.72677 92.72195
#
# Poissons Ratio (x) = 0.12875 -0.25747
# Poissons Ratio (y) = 0.05943 0.35449
# Poissons Ratio (z) = -0.10091 0.30098
#
# Static dielectric constant tensor:
#      x y z
#    x 1.732150 0.000000 0.000000 
#    y 0.000000 1.714960 0.000000 
#    z 0.000000 0.000000 1.761840 
# 
# From -- ./inp_files/32713.got.cif
#   From: 2010.05.17/outbox.cif.g08.bks.cpg/sg51_17_cif.got.tgz:32713.got - 2010.06.03 11:52:47.
