data_PCOD9403770
_publ_section_title
;
Structure prediction by ZEFSAII (Michael W. Deem and Ramdas Pophale) SiO2 
 PCOD9403770
Probable space group: P M M A
;
_chemical_formula_sum "Si O2"
_cell_formula_units_Z 56
_cell_length_a 21.243825
_cell_length_b 7.805452
_cell_length_c 16.039995
_cell_angle_alpha 90.000000
_cell_angle_beta 90.000000
_cell_angle_gamma 90.000000
_cell_volume 2659.714379
_symmetry_space_group_name_H-M "P M M A"
_symmetry_group_IT_number 51
_symmetry_cell_setting 'orthorhombic'
loop_
_space_group_symop_operation_xyz
x,y,z
1/2-x,-y,z
1/2+x,-y,-z
-x,y,-z
-x,-y,-z
1/2+x,y,-z
1/2-x,y,z
x,-y,z
loop_
_atom_site_type_symbol
_atom_site_label
_atom_site_fract_x
_atom_site_fract_y
_atom_site_fract_z
Si Si1 0.963069 0.200931 0.083076
Si Si2 0.320702 0.300879 0.946846
Si Si3 0.819102 0.793918 0.543329
Si Si4 0.478584 0.805962 0.732509
Si Si5 0.110656 0.307306 0.296830
Si Si6 0.940576 0.210511 0.442532
Si Si7 0.677797 0.802208 0.863616
O O1 0.887010 0.216921 0.078867
O O2 0.980079 0.274483 0.174882
O O3 0.980929 0.000000 0.085033
O O4 0.000000 0.270561 0.000000
O O5 0.250000 0.233468 0.922480
O O6 0.322962 0.500000 0.922259
O O7 0.322993 0.284338 0.046783
O O8 0.750000 0.728625 0.521103
O O9 0.836802 0.747060 0.637692
O O10 0.876531 0.733169 0.486629
O O11 0.818216 0.000000 0.537492
O O12 0.549776 0.810394 0.698708
O O13 0.442951 0.727766 0.653249
O O14 0.454322 0.000000 0.743783
O O15 0.090467 0.500000 0.314999
O O16 0.136946 0.291429 0.204275
O O17 0.000000 0.262711 0.500000
O O18 0.942178 0.000000 0.440024
O O19 0.750000 0.804108 0.834661
O O20 0.656575 0.000000 0.872651
#
# Coordination Sequence:
#
# PCOD9403770 Si02
#       7
#     8   8   8   8   8   8   8
#     4  10  21  36  56  85 118 152 193 242 291 342
#     4  10  21  37  57  81 112 152 194 237 289 345
#     4  10  20  35  56  80 107 143 186 232 284 339
#     4  10  20  36  58  81 108 146 192 236 285 340
#     4  12  23  33  50  79 114 146 181 226 282 345
#     4   9  16  32  58  82 106 140 184 233 280 327
#     4  10  20  34  53  76 105 144 188 231 280 340
#
# _framework density 21.054893
#
# number of rings (size 3 to 8) (size 9 to 14) (size 15 to 20)
#    0.000    1.857    1.429    3.429    0.000    5.714 
#    0.000    2.143    0.000    2.571    0.000    0.000 
#    0.000    0.000    0.000    0.000    0.000    0.000 
#
# Total GULP energy -312310.425105 kJ/mol
# GULP energy per Si atom -5576.971877 kJ/mol
# Density = 2.100697 g / cm^3
# Si number density = 21.054893 Si / 1000 Ang^3
#
#
#
# Elastic Constant Matrix: (Units=GPa)
#
#
# Indices 1 2 3 4 5 6 
#
# 1 121.2528 3.8259 47.2159 0.0000 0.0000 0.0000
# 2 3.8259 33.0731 -0.3897 0.0000 0.0000 0.0000
# 3 47.2159 -0.3897 110.7096 0.0000 0.0000 0.0000
# 4 0.0000 0.0000 0.0000 -52.1196 0.0000 0.0000
# 5 0.0000 0.0000 0.0000 0.0000 29.4348 0.0000
# 6 0.0000 0.0000 0.0000 0.0000 0.0000 -2.6485
#
#
#
# Elastic Compliance Matrix: (Units=1/GPa)
#
#
# Indices 1 2 3 4 5 6 
#
# 1 0.009937 -0.001199 -0.004242 0.000000 0.000000 0.000000
# 2 -0.001199 0.030382 0.000618 0.000000 0.000000 0.000000
# 3 -0.004242 0.000618 0.010844 0.000000 0.000000 0.000000
# 4 0.000000 0.000000 0.000000 -0.019187 0.000000 0.000000
# 5 0.000000 0.000000 0.000000 0.000000 0.033973 0.000000
# 6 0.000000 0.000000 0.000000 0.000000 0.000000 -0.377577
#
#
# Mechanical properties :
#
#
# Convention : Reuss Voigt Hill
#
# Bulk Modulus (GPa) = 24.08665 40.70442 32.39553
# Shear Modulus (GPa) = -17.35256 9.22557 -4.06350
#
# Velocity S-wave (km/s) = -2.87393 2.09552 -1.39073
# Velocity P-wave (km/s) = 0.67241 5.02289 3.58340
#
# Compressibility (1/GPa) = 0.04151677
#
# Stress axis : x y z
#
# Youngs Moduli (GPa) = 100.63409 32.91411 92.21646
#
# Poissons Ratio (x) = 0.03948 0.39120
# Poissons Ratio (y) = 0.12071 -0.05704
# Poissons Ratio (z) = 0.42691 -0.02036
#
# Static dielectric constant tensor:
#      x y z
#    x 1.809350 0.000000 0.000000 
#    y 0.000000 1.790180 0.000000 
#    z 0.000000 0.000000 1.768290 
# 
# From -- ./inp_files/25678.got.cif
#   From: 2010.05.17/outbox.cif.g08.bks.cpg/sg51_13_cif.got.tgz:25678.got - 2010.06.03 11:52:47.
