data_PCOD9403076
_publ_section_title
;
Structure prediction by ZEFSAII (Michael W. Deem and Ramdas Pophale) SiO2 
 PCOD9403076
Probable space group: P M M A
;
_chemical_formula_sum "Si O2"
_cell_formula_units_Z 48
_cell_length_a 9.380529
_cell_length_b 7.330113
_cell_length_c 32.127026
_cell_angle_alpha 90.000000
_cell_angle_beta 90.000000
_cell_angle_gamma 90.000000
_cell_volume 2209.065153
_symmetry_space_group_name_H-M "P M M A"
_symmetry_group_IT_number 51
_symmetry_cell_setting 'orthorhombic'
loop_
_space_group_symop_operation_xyz
x,y,z
1/2-x,-y,z
1/2+x,-y,-z
-x,y,-z
-x,-y,-z
1/2+x,y,-z
1/2-x,y,z
x,-y,z
loop_
_atom_site_type_symbol
_atom_site_label
_atom_site_fract_x
_atom_site_fract_y
_atom_site_fract_z
Si Si1 0.414051 0.777016 0.213674
Si Si2 0.085371 0.277274 0.541235
Si Si3 0.587939 0.282484 0.621903
Si Si4 0.411814 0.217958 0.705763
Si Si5 0.415439 0.778083 0.959728
Si Si6 0.584390 0.777919 0.132426
O O1 0.250000 0.720083 0.216661
O O2 0.505451 0.715404 0.253371
O O3 0.487913 0.718343 0.170749
O O4 0.414722 0.000000 0.213803
O O5 0.250000 0.219052 0.540774
O O6 0.086778 0.500000 0.541546
O O7 0.000000 0.221871 0.500000
O O8 0.002298 0.215019 0.582456
O O9 0.750000 0.211722 0.623562
O O10 0.598063 0.500000 0.616546
O O11 0.503054 0.251600 0.664462
O O12 0.250000 0.287928 0.702326
O O13 0.402135 0.000000 0.710311
O O14 0.250000 0.727690 0.963196
O O15 0.465433 0.720736 0.913690
O O16 0.421892 0.000000 0.959990
O O17 0.500000 0.713478 0.000000
O O18 0.750000 0.723835 0.137856
O O19 0.583657 0.000000 0.132650
#
# Coordination Sequence:
#
# PCOD9403076 Si02
#       6
#     8   8   8   8   8   8
#     4   9  16  25  38  56  76 100 134 176 218 259
#     4   9  16  27  45  69  96 124 154 188 224 263
#     4  10  20  33  50  73  99 125 154 189 228 269
#     4  10  20  33  49  68  91 121 155 190 229 273
#     4   8  13  19  26  37  55  81 114 154 200 248
#     4   8  13  21  31  43  62  89 122 162 207 253
#
# _framework density 21.728649999999998
#
# number of rings (size 3 to 8) (size 9 to 14) (size 15 to 20)
#    0.000    3.000    0.000    3.000    0.000    6.667 
#    0.000    3.333    0.000    0.500    0.000    0.000 
#    0.000    0.000    0.000    0.000    0.000    0.833 
#
# Total GULP energy -268111.352739 kJ/mol
# GULP energy per Si atom -5585.653182 kJ/mol
# Density = 2.167919 g / cm^3
# Si number density = 21.728650 Si / 1000 Ang^3
#
#
#
# Elastic Constant Matrix: (Units=GPa)
#
#
# Indices 1 2 3 4 5 6 
#
# 1 214.6490 7.7195 158.5299 0.0000 0.0000 0.0000
# 2 7.7195 85.1048 3.2590 0.0000 0.0000 0.0000
# 3 158.5299 3.2590 264.5513 0.0000 0.0000 0.0000
# 4 0.0000 0.0000 0.0000 8.6800 0.0000 0.0000
# 5 0.0000 0.0000 0.0000 0.0000 47.7226 0.0000
# 6 0.0000 0.0000 0.0000 0.0000 0.0000 -4.1381
#
#
#
# Elastic Compliance Matrix: (Units=1/GPa)
#
#
# Indices 1 2 3 4 5 6 
#
# 1 0.008385 -0.000568 -0.005018 0.000000 0.000000 0.000000
# 2 -0.000568 0.011794 0.000195 0.000000 0.000000 0.000000
# 3 -0.005018 0.000195 0.006784 0.000000 0.000000 0.000000
# 4 0.000000 0.000000 0.000000 0.115207 0.000000 0.000000
# 5 0.000000 0.000000 0.000000 0.000000 0.020954 0.000000
# 6 0.000000 0.000000 0.000000 0.000000 0.000000 -0.241655
#
#
# Mechanical properties :
#
#
# Convention : Reuss Voigt Hill
#
# Bulk Modulus (GPa) = 61.79632 100.36911 81.08271
# Shear Modulus (GPa) = -80.18714 36.77268 -21.70723
#
# Velocity S-wave (km/s) = -6.08145 4.11829 -3.16415
# Velocity P-wave (km/s) = 4.56182 8.30097 4.90387
#
# Compressibility (1/GPa) = 0.01618219
#
# Stress axis : x y z
#
# Youngs Moduli (GPa) = 119.26048 84.78676 147.39801
#
# Poissons Ratio (x) = 0.04819 0.73959
# Poissons Ratio (y) = 0.06779 -0.02879
# Poissons Ratio (z) = 0.59841 -0.01656
#
# Static dielectric constant tensor:
#      x y z
#    x 1.737080 0.000000 0.000000 
#    y 0.000000 1.947680 0.000000 
#    z 0.000000 0.000000 1.745620 
# 
# From -- ./inp_files/36129.got.cif
#   From: 2010.05.17/outbox.cif.g08.bks.cpg/sg51_19_cif.got.tgz:36129.got - 2010.06.03 11:52:47.
