data_PCOD9403433
_publ_section_title
;
Structure prediction by ZEFSAII (Michael W. Deem and Ramdas Pophale) SiO2 
 PCOD9403433
Probable space group: P M M A
;
_chemical_formula_sum "Si O2"
_cell_formula_units_Z 32
_cell_length_a 8.795066
_cell_length_b 21.210300
_cell_length_c 9.505723
_cell_angle_alpha 90.000000
_cell_angle_beta 90.000000
_cell_angle_gamma 90.000000
_cell_volume 1773.254492
_symmetry_space_group_name_H-M "P M M A"
_symmetry_group_IT_number 51
_symmetry_cell_setting 'orthorhombic'
loop_
_space_group_symop_operation_xyz
x,y,z
1/2-x,-y,z
1/2+x,-y,-z
-x,y,-z
-x,-y,-z
1/2+x,y,-z
1/2-x,y,z
x,-y,z
loop_
_atom_site_type_symbol
_atom_site_label
_atom_site_fract_x
_atom_site_fract_y
_atom_site_fract_z
Si Si1 0.568004 0.697719 0.843157
Si Si2 0.432109 0.818884 0.345130
Si Si3 0.068246 0.073561 0.846718
Si Si4 0.932283 0.431104 0.158170
O O1 0.750000 0.692945 0.854520
O O2 0.528231 0.757583 0.748135
O O3 0.502896 0.632443 0.779607
O O4 0.500000 0.705672 0.000000
O O5 0.500000 0.813216 0.500000
O O6 0.250000 0.823186 0.352080
O O7 0.497789 0.880136 0.267425
O O8 0.250000 0.080776 0.851034
O O9 0.033245 0.000000 0.817482
O O10 0.000000 0.088886 0.000000
O O11 0.750000 0.425314 0.150988
O O12 0.968614 0.500000 0.222292
O O13 0.000000 0.432604 0.000000
#
# Coordination Sequence:
#
# PCOD9403433 Si02
#       4
#     8   8   8   8
#     4  10  20  33  52  78 105 137 176 217 264 316
#     4  11  24  39  56  79 108 144 183 223 269 319
#     4  10  21  38  61  87 113 142 177 218 264 315
#     4   9  16  26  44  72 103 134 169 212 262 312
#
# _framework density 18.045915000000001
#
# number of rings (size 3 to 8) (size 9 to 14) (size 15 to 20)
#    0.000    2.000    0.000    5.250    0.000    9.500 
#    0.000    0.000    0.000    0.750    0.000    0.000 
#    0.000    0.000    0.000    0.000    0.000    0.000 
#
# Total GULP energy -178592.332780 kJ/mol
# GULP energy per Si atom -5581.010399 kJ/mol
# Density = 1.800484 g / cm^3
# Si number density = 18.045915 Si / 1000 Ang^3
#
#
#
# Elastic Constant Matrix: (Units=GPa)
#
#
# Indices 1 2 3 4 5 6 
#
# 1 67.5939 63.7746 45.9588 0.0000 0.0000 0.0000
# 2 63.7746 140.6480 87.1399 0.0000 0.0000 0.0000
# 3 45.9588 87.1399 95.7328 0.0000 0.0000 0.0000
# 4 0.0000 0.0000 0.0000 -8.7549 0.0000 0.0000
# 5 0.0000 0.0000 0.0000 0.0000 27.3661 0.0000
# 6 0.0000 0.0000 0.0000 0.0000 0.0000 25.8019
#
#
#
# Elastic Compliance Matrix: (Units=1/GPa)
#
#
# Indices 1 2 3 4 5 6 
#
# 1 0.026539 -0.009494 -0.004098 0.000000 0.000000 0.000000
# 2 -0.009494 0.019702 -0.013376 0.000000 0.000000 0.000000
# 3 -0.004098 -0.013376 0.024588 0.000000 0.000000 0.000000
# 4 0.000000 0.000000 0.000000 -0.114222 0.000000 0.000000
# 5 0.000000 0.000000 0.000000 0.000000 0.036542 0.000000
# 6 0.000000 0.000000 0.000000 0.000000 0.000000 0.038757
#
#
# Mechanical properties :
#
#
# Convention : Reuss Voigt Hill
#
# Bulk Modulus (GPa) = 59.19842 77.52461 68.36152
# Shear Modulus (GPa) = 54.66092 16.02272 35.34182
#
# Velocity S-wave (km/s) = 5.50960 2.98297 4.43023
# Velocity P-wave (km/s) = 8.56445 7.41061 8.00834
#
# Compressibility (1/GPa) = 0.01689234
#
# Stress axis : x y z
#
# Youngs Moduli (GPa) = 37.68074 50.75629 40.66984
#
# Poissons Ratio (x) = 0.48190 0.16668
# Poissons Ratio (y) = 0.35776 0.54398
# Poissons Ratio (z) = 0.15443 0.67889
#
# Static dielectric constant tensor:
#      x y z
#    x 1.601330 0.000000 0.000000 
#    y 0.000000 1.657950 0.000000 
#    z 0.000000 0.000000 1.575300 
# 
# From -- ./inp_files/4849.got.cif
#   From: 2010.05.17/outbox.cif.g08.bks.cpg/sg51_3_cif.got.tgz:4849.got - 2010.06.03 11:52:47.
