data_PCOD9403233
_publ_section_title
;
Structure prediction by ZEFSAII (Michael W. Deem and Ramdas Pophale) SiO2 
 PCOD9403233
Probable space group: P M M A
;
_chemical_formula_sum "Si O2"
_cell_formula_units_Z 48
_cell_length_a 9.342608
_cell_length_b 8.600664
_cell_length_c 32.240969
_cell_angle_alpha 90.000000
_cell_angle_beta 90.000000
_cell_angle_gamma 90.000000
_cell_volume 2590.646727
_symmetry_space_group_name_H-M "P M M A"
_symmetry_group_IT_number 51
_symmetry_cell_setting 'orthorhombic'
loop_
_space_group_symop_operation_xyz
x,y,z
1/2-x,-y,z
1/2+x,-y,-z
-x,y,-z
-x,-y,-z
1/2+x,y,-z
1/2-x,y,z
x,-y,z
loop_
_atom_site_type_symbol
_atom_site_label
_atom_site_fract_x
_atom_site_fract_y
_atom_site_fract_z
Si Si1 0.583643 0.185529 0.298276
Si Si2 0.923435 0.319154 0.210463
Si Si3 0.915108 0.689924 0.458877
Si Si4 0.414684 0.809964 0.040959
Si Si5 0.416534 0.187501 0.877265
Si Si6 0.414938 0.687912 0.376825
O O1 0.750000 0.238125 0.302651
O O2 0.530127 0.236851 0.252819
O O3 0.490398 0.254789 0.335153
O O4 0.581947 0.000000 0.300548
O O5 0.750000 0.303780 0.209724
O O6 0.959791 0.500000 0.212475
O O7 0.972698 0.248047 0.166887
O O8 0.750000 0.740252 0.459359
O O9 0.914926 0.500000 0.458958
O O10 0.000000 0.739423 0.500000
O O11 0.996448 0.740097 0.417237
O O12 0.250000 0.760559 0.039588
O O13 0.492724 0.759925 0.083157
O O14 0.416208 0.000000 0.040962
O O15 0.500000 0.759882 0.000000
O O16 0.250000 0.235397 0.882238
O O17 0.418706 0.000000 0.876136
O O18 0.250000 0.739064 0.379175
O O19 0.416064 0.500000 0.376833
#
# Coordination Sequence:
#
# PCOD9403233 Si02
#       6
#     8   8   8   8   8   8
#     4  10  20  34  53  76 101 131 169 211 254 302
#     4   9  17  30  50  74  98 126 162 203 246 294
#     4   9  16  27  46  73 104 136 170 209 251 295
#     4   9  16  26  42  66  95 125 157 194 236 281
#     4   9  16  27  45  69  96 125 158 197 240 286
#     4  10  20  33  50  74 104 137 173 212 254 300
#
# _framework density 18.528191
#
# number of rings (size 3 to 8) (size 9 to 14) (size 15 to 20)
#    0.000    2.667    0.000    2.500    0.000    8.000 
#    0.000    0.833    0.000    4.500    0.000    0.000 
#    0.000    0.000    0.000    0.000    0.000    0.000 
#
# Total GULP energy -267737.659392 kJ/mol
# GULP energy per Si atom -5577.867904 kJ/mol
# Density = 1.848602 g / cm^3
# Si number density = 18.528191 Si / 1000 Ang^3
#
#
#
# Elastic Constant Matrix: (Units=GPa)
#
#
# Indices 1 2 3 4 5 6 
#
# 1 130.0292 17.6919 111.6903 0.0000 0.0000 0.0000
# 2 17.6919 3.5794 28.0719 0.0000 0.0000 0.0000
# 3 111.6903 28.0719 213.8714 0.0000 0.0000 0.0000
# 4 0.0000 0.0000 0.0000 23.9829 0.0000 0.0000
# 5 0.0000 0.0000 0.0000 0.0000 33.0729 0.0000
# 6 0.0000 0.0000 0.0000 0.0000 0.0000 11.4728
#
#
#
# Elastic Compliance Matrix: (Units=1/GPa)
#
#
# Indices 1 2 3 4 5 6 
#
# 1 0.006285 0.181192 -0.027065 0.000000 0.000000 0.000000
# 2 0.181192 -4.285070 0.467816 0.000000 0.000000 0.000000
# 3 -0.027065 0.467816 -0.042594 0.000000 0.000000 0.000000
# 4 0.000000 0.000000 0.000000 0.041696 0.000000 0.000000
# 5 0.000000 0.000000 0.000000 0.000000 0.030236 0.000000
# 6 0.000000 0.000000 0.000000 0.000000 0.000000 0.087163
#
#
# Mechanical properties :
#
#
# Convention : Reuss Voigt Hill
#
# Bulk Modulus (GPa) = -0.32494 73.59868 36.63687
# Shear Modulus (GPa) = -0.77736 26.37411 12.79837
#
# Velocity S-wave (km/s) = -0.64843 3.77697 2.63107
# Velocity P-wave (km/s) = 0.85813 7.67003 5.38948
#
# Compressibility (1/GPa) = -3.07749133
#
# Stress axis : x y z
#
# Youngs Moduli (GPa) = 159.10445 -0.23337 -23.47759
#
# Poissons Ratio (x) = 0.04228 -0.63542
# Poissons Ratio (y) = -28.82849 10.98320
# Poissons Ratio (z) = 4.30614 0.10917
#
# Static dielectric constant tensor:
#      x y z
#    x 1.630770 0.000000 0.000000 
#    y 0.000000 1.635700 0.000000 
#    z 0.000000 0.000000 1.620880 
# 
# From -- ./inp_files/36964.got.cif
#   From: 2010.05.17/outbox.cif.g08.bks.cpg/sg51_19_cif.got.tgz:36964.got - 2010.06.03 11:52:47.
