data_PCOD9403398
_publ_section_title
;
Structure prediction by ZEFSAII (Michael W. Deem and Ramdas Pophale) SiO2 
 PCOD9403398
Probable space group: P M M A
;
_chemical_formula_sum "Si O2"
_cell_formula_units_Z 56
_cell_length_a 8.810176
_cell_length_b 22.892362
_cell_length_c 15.167713
_cell_angle_alpha 90.000000
_cell_angle_beta 90.000000
_cell_angle_gamma 90.000000
_cell_volume 3059.111394
_symmetry_space_group_name_H-M "P M M A"
_symmetry_group_IT_number 51
_symmetry_cell_setting 'orthorhombic'
loop_
_space_group_symop_operation_xyz
x,y,z
1/2-x,-y,z
1/2+x,-y,-z
-x,y,-z
-x,-y,-z
1/2+x,y,-z
1/2-x,y,z
x,-y,z
loop_
_atom_site_type_symbol
_atom_site_label
_atom_site_fract_x
_atom_site_fract_y
_atom_site_fract_z
Si Si1 0.068065 0.736669 0.092558
Si Si2 0.568650 0.392398 0.093432
Si Si3 0.930960 0.839822 0.771473
Si Si4 0.069495 0.069104 0.905203
Si Si5 0.568176 0.658057 0.404406
Si Si6 0.930484 0.565383 0.729632
Si Si7 0.931468 0.205576 0.404507
O O1 0.250000 0.729344 0.084454
O O2 0.035738 0.781794 0.170531
O O3 0.990922 0.673967 0.107787
O O4 0.000000 0.759146 0.000000
O O5 0.750000 0.392953 0.089982
O O6 0.506416 0.428956 0.174878
O O7 0.500000 0.411930 0.000000
O O8 0.750000 0.845185 0.764340
O O9 0.997264 0.893304 0.827367
O O10 0.002899 0.831994 0.675468
O O11 0.250000 0.078253 0.907631
O O12 0.039820 0.000000 0.892990
O O13 0.000000 0.086087 0.000000
O O14 0.500000 0.643563 0.500000
O O15 0.750000 0.652926 0.405863
O O16 0.499441 0.614901 0.332566
O O17 0.529363 0.726055 0.386710
O O18 0.750000 0.573972 0.737991
O O19 0.957790 0.500000 0.694125
O O20 0.750000 0.200839 0.407843
O O21 0.000000 0.190547 0.500000
#
# Coordination Sequence:
#
# PCOD9403398 Si02
#       7
#     8   8   8   8   8   8   8
#     4  10  20  33  51  78 111 143 177 219 268 324
#     4  11  22  37  57  78 104 139 177 220 271 326
#     4  11  22  34  54  83 114 149 186 227 274 324
#     4  10  21  37  57  82 115 155 196 236 276 320
#     4  10  21  38  61  86 112 143 177 218 271 328
#     4  11  24  40  57  78 105 138 178 224 271 322
#     4  10  21  37  58  84 113 144 180 224 273 327
#
# _framework density 18.305971
#
# number of rings (size 3 to 8) (size 9 to 14) (size 15 to 20)
#    0.000    1.571    0.000    6.000    0.000   10.000 
#    0.000    0.000    0.000    0.429    0.000    0.000 
#    0.000    0.000    0.000    0.000    0.000    0.000 
#
# Total GULP energy -313084.450797 kJ/mol
# GULP energy per Si atom -5590.793764 kJ/mol
# Density = 1.826431 g / cm^3
# Si number density = 18.305971 Si / 1000 Ang^3
#
#
#
# Elastic Constant Matrix: (Units=GPa)
#
#
# Indices 1 2 3 4 5 6 
#
# 1 80.1856 42.8407 61.0923 0.0000 0.0000 0.0000
# 2 42.8407 59.5955 69.0686 0.0000 0.0000 0.0000
# 3 61.0923 69.0686 151.0429 0.0000 0.0000 0.0000
# 4 0.0000 0.0000 0.0000 6.4702 0.0000 0.0000
# 5 0.0000 0.0000 0.0000 0.0000 37.1203 0.0000
# 6 0.0000 0.0000 0.0000 0.0000 0.0000 27.1023
#
#
#
# Elastic Compliance Matrix: (Units=1/GPa)
#
#
# Indices 1 2 3 4 5 6 
#
# 1 0.021033 -0.011191 -0.003390 0.000000 0.000000 0.000000
# 2 -0.011191 0.041653 -0.014521 0.000000 0.000000 0.000000
# 3 -0.003390 -0.014521 0.014632 0.000000 0.000000 0.000000
# 4 0.000000 0.000000 0.000000 0.154555 0.000000 0.000000
# 5 0.000000 0.000000 0.000000 0.000000 0.026939 0.000000
# 6 0.000000 0.000000 0.000000 0.000000 0.000000 0.036897
#
#
# Mechanical properties :
#
#
# Convention : Reuss Voigt Hill
#
# Bulk Modulus (GPa) = 52.31524 70.75857 61.53690
# Shear Modulus (GPa) = 13.87796 21.99340 17.93568
#
# Velocity S-wave (km/s) = 2.75637 3.46993 3.13353
# Velocity P-wave (km/s) = 6.22659 7.40210 6.83964
#
# Compressibility (1/GPa) = 0.01911489
#
# Stress axis : x y z
#
# Youngs Moduli (GPa) = 47.54530 24.00762 68.34472
#
# Poissons Ratio (x) = 0.26867 0.23167
# Poissons Ratio (y) = 0.53208 0.99242
# Poissons Ratio (z) = 0.16116 0.34861
#
# Static dielectric constant tensor:
#      x y z
#    x 1.605950 0.000000 0.000000 
#    y 0.000000 1.625360 0.000000 
#    z 0.000000 0.000000 1.615930 
# 
# From -- ./inp_files/21758.got.cif
#   From: 2010.05.17/outbox.cif.g08.bks.cpg/sg51_11_cif.got.tgz:21758.got - 2010.06.03 11:52:47.
