data_PCOD9403715
_publ_section_title
;
Structure prediction by ZEFSAII (Michael W. Deem and Ramdas Pophale) SiO2 
 PCOD9403715
Probable space group: P M M A
;
_chemical_formula_sum "Si O2"
_cell_formula_units_Z 52
_cell_length_a 9.292552
_cell_length_b 15.140623
_cell_length_c 23.788167
_cell_angle_alpha 90.000000
_cell_angle_beta 90.000000
_cell_angle_gamma 90.000000
_cell_volume 3346.876787
_symmetry_space_group_name_H-M "P M M A"
_symmetry_group_IT_number 51
_symmetry_cell_setting 'orthorhombic'
loop_
_space_group_symop_operation_xyz
x,y,z
1/2-x,-y,z
1/2+x,-y,-z
-x,y,-z
-x,-y,-z
1/2+x,y,-z
1/2-x,y,z
x,-y,z
loop_
_atom_site_type_symbol
_atom_site_label
_atom_site_fract_x
_atom_site_fract_y
_atom_site_fract_z
Si Si1 0.582480 0.757811 0.773613
Si Si2 0.419289 0.399077 0.827582
Si Si3 0.588967 0.159677 0.897461
Si Si4 0.081610 0.000000 0.941207
Si Si5 0.080473 0.353777 0.057160
Si Si6 0.585339 0.892687 0.554598
Si Si7 0.574225 0.101784 0.679928
O O1 0.750000 0.734057 0.762375
O O2 0.488636 0.670882 0.784699
O O3 0.581339 0.808582 0.833223
O O4 0.531427 0.825921 0.725892
O O5 0.250000 0.379764 0.836318
O O6 0.433437 0.500000 0.808056
O O7 0.502595 0.390375 0.887157
O O8 0.750000 0.123434 0.907802
O O9 0.470988 0.087079 0.909375
O O10 0.571887 0.247335 0.935103
O O11 0.250000 0.000000 0.949489
O O12 0.000000 0.000000 0.000000
O O13 0.250000 0.377366 0.056314
O O14 0.000000 0.380164 0.000000
O O15 0.500000 0.861533 0.500000
O O16 0.750000 0.862404 0.551097
O O17 0.527088 0.872021 0.616844
O O18 0.587018 0.000000 0.552972
O O19 0.750000 0.100093 0.679293
O O20 0.529262 0.000000 0.691907
#
# Coordination Sequence:
#
# PCOD9403715 Si02
#       7
#     8   8   8   4   8   8   8
#     4   9  18  32  52  72  90 118 153 192 231 268
#     4  10  21  36  52  69  92 121 148 181 229 281
#     4   9  19  33  48  66  86 111 144 183 226 267
#     4  12  24  34  46  62  82 112 149 186 223 264
#     4  10  20  34  53  73  91 113 141 179 226 277
#     4   8  13  22  37  59  89 125 162 194 222 256
#     4   8  14  25  44  69  95 126 162 194 225 265
#
# _framework density 15.536872000000001
#
# number of rings (size 3 to 8) (size 9 to 14) (size 15 to 20)
#    0.000    2.769    0.000    3.923    1.077    5.846 
#    0.000    0.769    0.000    0.923    0.000    0.000 
#    0.000    0.615    0.000    1.385    0.000    2.462 
#
# Total GULP energy -289743.920054 kJ/mol
# GULP energy per Si atom -5571.998463 kJ/mol
# Density = 1.550151 g / cm^3
# Si number density = 15.536872 Si / 1000 Ang^3
#
#
#
# Elastic Constant Matrix: (Units=GPa)
#
#
# Indices 1 2 3 4 5 6 
#
# 1 88.3395 48.1429 36.7311 0.0000 0.0000 0.0000
# 2 48.1429 74.0922 41.0836 0.0000 0.0000 0.0000
# 3 36.7311 41.0836 98.1433 0.0000 0.0000 0.0000
# 4 0.0000 0.0000 0.0000 7.4064 0.0000 0.0000
# 5 0.0000 0.0000 0.0000 0.0000 20.9209 0.0000
# 6 0.0000 0.0000 0.0000 0.0000 0.0000 21.1388
#
#
#
# Elastic Compliance Matrix: (Units=1/GPa)
#
#
# Indices 1 2 3 4 5 6 
#
# 1 0.017947 -0.010336 -0.002390 0.000000 0.000000 0.000000
# 2 -0.010336 0.023529 -0.005981 0.000000 0.000000 0.000000
# 3 -0.002390 -0.005981 0.013587 0.000000 0.000000 0.000000
# 4 0.000000 0.000000 0.000000 0.135018 0.000000 0.000000
# 5 0.000000 0.000000 0.000000 0.000000 0.047799 0.000000
# 6 0.000000 0.000000 0.000000 0.000000 0.000000 0.047306
#
#
# Mechanical properties :
#
#
# Convention : Reuss Voigt Hill
#
# Bulk Modulus (GPa) = 56.66043 56.94337 56.80190
# Shear Modulus (GPa) = 15.22147 18.86771 17.04459
#
# Velocity S-wave (km/s) = 3.13341 3.48858 3.31575
# Velocity P-wave (km/s) = 7.04546 7.27715 7.16225
#
# Compressibility (1/GPa) = 0.01764900
#
# Stress axis : x y z
#
# Youngs Moduli (GPa) = 55.72116 42.50040 73.59735
#
# Poissons Ratio (x) = 0.43928 0.17590
# Poissons Ratio (y) = 0.57593 0.44020
# Poissons Ratio (z) = 0.13317 0.25420
#
# Static dielectric constant tensor:
#      x y z
#    x 1.531330 0.000000 0.000000 
#    y 0.000000 1.511370 0.000000 
#    z 0.000000 0.000000 1.517210 
# 
# From -- ./inp_files/34687.got.cif
#   From: 2010.05.17/outbox.cif.g08.bks.cpg/sg51_18_cif.got.tgz:34687.got - 2010.06.03 11:52:47.
