data_PCOD9403138
_publ_section_title
;
Structure prediction by ZEFSAII (Michael W. Deem and Ramdas Pophale) SiO2 
 PCOD9403138
Probable space group: P M M A
;
_chemical_formula_sum "Si O2"
_cell_formula_units_Z 64
_cell_length_a 30.442289
_cell_length_b 8.681152
_cell_length_c 13.307127
_cell_angle_alpha 90.000000
_cell_angle_beta 90.000000
_cell_angle_gamma 90.000000
_cell_volume 3516.729518
_symmetry_space_group_name_H-M "P M M A"
_symmetry_group_IT_number 51
_symmetry_cell_setting 'orthorhombic'
loop_
_space_group_symop_operation_xyz
x,y,z
1/2-x,-y,z
1/2+x,-y,-z
-x,y,-z
-x,-y,-z
1/2+x,y,-z
1/2-x,y,z
x,-y,z
loop_
_atom_site_type_symbol
_atom_site_label
_atom_site_fract_x
_atom_site_fract_y
_atom_site_fract_z
Si Si1 0.134810 0.816328 0.095360
Si Si2 0.023716 0.675290 0.289398
Si Si3 0.801259 0.185645 0.083484
Si Si4 0.542605 0.322899 0.945863
Si Si5 0.461062 0.183562 0.573240
Si Si6 0.301687 0.684289 0.700356
Si Si7 0.362505 0.185441 0.524638
Si Si8 0.878202 0.685501 0.684224
O O1 0.087693 0.769438 0.049249
O O2 0.137975 0.741856 0.206511
O O3 0.137327 0.000000 0.107631
O O4 0.171148 0.766050 0.014196
O O5 0.018348 0.500000 0.326348
O O6 0.030186 0.669920 0.170866
O O7 0.070714 0.739478 0.327353
O O8 0.981463 0.771657 0.320073
O O9 0.750000 0.226492 0.070536
O O10 0.816398 0.256551 0.189592
O O11 0.804517 0.000000 0.091370
O O12 0.549538 0.500000 0.981539
O O13 0.500000 0.256155 0.000000
O O14 0.500000 0.243093 0.500000
O O15 0.411993 0.240434 0.553810
O O16 0.459457 0.000000 0.561905
O O17 0.250000 0.725809 0.690214
O O18 0.305422 0.500000 0.696910
O O19 0.329455 0.756479 0.609918
O O20 0.353242 0.250523 0.413026
O O21 0.361883 0.000000 0.521293
O O22 0.878582 0.500000 0.684377
#
# Coordination Sequence:
#
# PCOD9403138 Si02
#       8
#     8   8   8   8   8   8   8   8
#     4  10  20  34  56  83 109 141 183 229 278 330
#     4   9  18  31  49  72 100 140 182 220 265 316
#     4   9  19  38  62  86 113 143 178 223 276 334
#     4   9  19  35  51  71 104 144 181 219 269 326
#     4  10  20  33  49  74 107 140 177 223 266 312
#     4  10  22  40  61  85 112 143 182 229 280 331
#     4  11  22  36  57  83 113 150 189 229 280 334
#     4  10  20  35  54  78 110 148 187 226 272 326
#
# _framework density 18.198726000000001
#
# number of rings (size 3 to 8) (size 9 to 14) (size 15 to 20)
#    0.000    2.250    1.250    2.250    0.000    6.250 
#    0.000    3.125    0.000    2.250    0.000    0.000 
#    0.000    0.000    0.000    0.000    0.000    0.000 
#
# Total GULP energy -356792.056467 kJ/mol
# GULP energy per Si atom -5574.875882 kJ/mol
# Density = 1.815731 g / cm^3
# Si number density = 18.198726 Si / 1000 Ang^3
#
#
#
# Elastic Constant Matrix: (Units=GPa)
#
#
# Indices 1 2 3 4 5 6 
#
# 1 82.0017 31.0352 75.5921 0.0000 0.0000 0.0000
# 2 31.0352 35.4944 37.9508 0.0000 0.0000 0.0000
# 3 75.5921 37.9508 126.3020 0.0000 0.0000 0.0000
# 4 0.0000 0.0000 0.0000 28.7622 0.0000 0.0000
# 5 0.0000 0.0000 0.0000 0.0000 35.1183 0.0000
# 6 0.0000 0.0000 0.0000 0.0000 0.0000 21.3426
#
#
#
# Elastic Compliance Matrix: (Units=1/GPa)
#
#
# Indices 1 2 3 4 5 6 
#
# 1 0.029511 -0.010194 -0.014600 0.000000 0.000000 0.000000
# 2 -0.010194 0.045030 -0.007430 0.000000 0.000000 0.000000
# 3 -0.014600 -0.007430 0.018888 0.000000 0.000000 0.000000
# 4 0.000000 0.000000 0.000000 0.034768 0.000000 0.000000
# 5 0.000000 0.000000 0.000000 0.000000 0.028475 0.000000
# 6 0.000000 0.000000 0.000000 0.000000 0.000000 0.046855
#
#
# Mechanical properties :
#
#
# Convention : Reuss Voigt Hill
#
# Bulk Modulus (GPa) = 34.50232 59.21711 46.85972
# Shear Modulus (GPa) = 18.00931 23.65929 20.83430
#
# Velocity S-wave (km/s) = 3.14919 3.60953 3.38719
# Velocity P-wave (km/s) = 5.67653 7.06976 6.41110
#
# Compressibility (1/GPa) = 0.02898356
#
# Stress axis : x y z
#
# Youngs Moduli (GPa) = 33.88523 22.20731 52.94410
#
# Poissons Ratio (x) = 0.22638 0.77296
# Poissons Ratio (y) = 0.34542 0.39335
# Poissons Ratio (z) = 0.49471 0.16499
#
# Static dielectric constant tensor:
#      x y z
#    x 1.629110 0.000000 0.000000 
#    y 0.000000 1.630490 0.000000 
#    z 0.000000 0.000000 1.655040 
# 
# From -- ./inp_files/19575.got.cif
#   From: 2010.05.17/outbox.cif.g08.bks.cpg/sg51_10_cif.got.tgz:19575.got - 2010.06.03 11:52:47.
