data_PCOD9403016
_publ_section_title
;
Structure prediction by ZEFSAII (Michael W. Deem and Ramdas Pophale) SiO2 
 PCOD9403016
Probable space group: P M M A
;
_chemical_formula_sum "Si O2"
_cell_formula_units_Z 56
_cell_length_a 21.162075
_cell_length_b 7.422045
_cell_length_c 14.975014
_cell_angle_alpha 90.000000
_cell_angle_beta 90.000000
_cell_angle_gamma 90.000000
_cell_volume 2352.063646
_symmetry_space_group_name_H-M "P M M A"
_symmetry_group_IT_number 51
_symmetry_cell_setting 'orthorhombic'
loop_
_space_group_symop_operation_xyz
x,y,z
1/2-x,-y,z
1/2+x,-y,-z
-x,y,-z
-x,-y,-z
1/2+x,y,-z
1/2-x,y,z
x,-y,z
loop_
_atom_site_type_symbol
_atom_site_label
_atom_site_fract_x
_atom_site_fract_y
_atom_site_fract_z
Si Si1 0.426224 0.280086 0.995519
Si Si2 0.320391 0.280389 0.855304
Si Si3 0.013830 0.780752 0.602897
Si Si4 0.603624 0.798619 0.698280
Si Si5 0.181684 0.284033 0.464470
Si Si6 0.821287 0.707300 0.865103
Si Si7 0.344645 0.291572 0.656937
O O1 0.429523 0.500000 0.996361
O O2 0.380230 0.220473 0.076919
O O3 0.500000 0.219816 0.000000
O O4 0.382512 0.225899 0.910896
O O5 0.250000 0.228150 0.890108
O O6 0.321198 0.500000 0.856025
O O7 0.326817 0.216684 0.753047
O O8 0.081259 0.718898 0.637310
O O9 0.000000 0.723004 0.500000
O O10 0.963916 0.714552 0.677240
O O11 0.011791 0.000000 0.602620
O O12 0.631140 0.803908 0.598525
O O13 0.653375 0.708476 0.763800
O O14 0.595482 0.000000 0.733292
O O15 0.250000 0.253825 0.423319
O O16 0.169868 0.500000 0.466667
O O17 0.182039 0.214437 0.565118
O O18 0.750000 0.785251 0.871999
O O19 0.815421 0.500000 0.894690
O O20 0.324108 0.500000 0.659866
#
# Coordination Sequence:
#
# PCOD9403016 Si02
#       7
#     8   8   8   8   8   8   8
#     4   9  18  32  53  83 116 146 179 220 269 329
#     4   9  17  31  52  80 113 145 178 221 274 327
#     4  10  21  38  54  72 106 148 186 227 277 327
#     4  11  23  37  55  78 106 145 189 229 272 326
#     4  10  20  34  51  76 111 144 177 224 275 323
#     4  10  21  37  58  84 114 146 180 226 281 327
#     4  10  20  32  54  83 108 139 182 226 271 323
#
# _framework density 23.808881
#
# number of rings (size 3 to 8) (size 9 to 14) (size 15 to 20)
#    0.000    2.143    1.429    1.714    2.000    7.143 
#    0.000    0.000    0.000    2.571    0.000    0.000 
#    0.000    0.000    0.000    0.000    0.000    0.000 
#
# Total GULP energy -312453.957614 kJ/mol
# GULP energy per Si atom -5579.534957 kJ/mol
# Density = 2.375469 g / cm^3
# Si number density = 23.808881 Si / 1000 Ang^3
#
#
#
# Elastic Constant Matrix: (Units=GPa)
#
#
# Indices 1 2 3 4 5 6 
#
# 1 224.5961 7.8582 62.3427 0.0000 0.0000 0.0000
# 2 7.8582 72.1131 -6.0604 0.0000 0.0000 0.0000
# 3 62.3427 -6.0604 108.5541 0.0000 0.0000 0.0000
# 4 0.0000 0.0000 0.0000 -183.7202 0.0000 0.0000
# 5 0.0000 0.0000 0.0000 0.0000 30.9495 0.0000
# 6 0.0000 0.0000 0.0000 0.0000 0.0000 -3.9934
#
#
#
# Elastic Compliance Matrix: (Units=1/GPa)
#
#
# Indices 1 2 3 4 5 6 
#
# 1 0.005348 -0.000845 -0.003118 0.000000 0.000000 0.000000
# 2 -0.000845 0.014066 0.001270 0.000000 0.000000 0.000000
# 3 -0.003118 0.001270 0.011074 0.000000 0.000000 0.000000
# 4 0.000000 0.000000 0.000000 -0.005443 0.000000 0.000000
# 5 0.000000 0.000000 0.000000 0.000000 0.032311 0.000000
# 6 0.000000 0.000000 0.000000 0.000000 0.000000 -0.250411
#
#
# Mechanical properties :
#
#
# Convention : Reuss Voigt Hill
#
# Bulk Modulus (GPa) = 39.83748 59.28271 49.56009
# Shear Modulus (GPa) = -27.88569 -8.61131 -18.24850
#
# Velocity S-wave (km/s) = -3.42604 -1.90386 -2.77150
# Velocity P-wave (km/s) = 1.05745 4.48559 3.25874
#
# Compressibility (1/GPa) = 0.02510199
#
# Stress axis : x y z
#
# Youngs Moduli (GPa) = 187.00137 71.09381 90.30369
#
# Poissons Ratio (x) = 0.06006 0.28159
# Poissons Ratio (y) = 0.15798 -0.11473
# Poissons Ratio (z) = 0.58312 -0.09032
#
# Static dielectric constant tensor:
#      x y z
#    x 1.919610 0.000000 0.000000 
#    y 0.000000 2.045960 0.000000 
#    z 0.000000 0.000000 1.902490 
# 
# From -- ./inp_files/25776.got.cif
#   From: 2010.05.17/outbox.cif.g08.bks.cpg/sg51_13_cif.got.tgz:25776.got - 2010.06.03 11:52:47.
