data_PCOD9403762
_publ_section_title
;
Structure prediction by ZEFSAII (Michael W. Deem and Ramdas Pophale) SiO2 
 PCOD9403762
Probable space group: P M M A
;
_chemical_formula_sum "Si O2"
_cell_formula_units_Z 48
_cell_length_a 8.504593
_cell_length_b 19.208041
_cell_length_c 15.199259
_cell_angle_alpha 90.000000
_cell_angle_beta 90.000000
_cell_angle_gamma 90.000000
_cell_volume 2482.898832
_symmetry_space_group_name_H-M "P M M A"
_symmetry_group_IT_number 51
_symmetry_cell_setting 'orthorhombic'
loop_
_space_group_symop_operation_xyz
x,y,z
1/2-x,-y,z
1/2+x,-y,-z
-x,y,-z
-x,-y,-z
1/2+x,y,-z
1/2-x,y,z
x,-y,z
loop_
_atom_site_type_symbol
_atom_site_label
_atom_site_fract_x
_atom_site_fract_y
_atom_site_fract_z
Si Si1 0.937191 0.227615 0.595457
Si Si2 0.939862 0.922505 0.668667
Si Si3 0.070297 0.215154 0.090620
Si Si4 0.434355 0.694805 0.762691
Si Si5 0.431771 0.078944 0.865921
Si Si6 0.439659 0.419295 0.902210
O O1 0.750000 0.226912 0.594104
O O2 0.988221 0.147615 0.617497
O O3 0.000000 0.247339 0.500000
O O4 0.990019 0.281205 0.671337
O O5 0.750000 0.918374 0.683100
O O6 0.027383 0.920560 0.762135
O O7 0.970933 0.000000 0.629259
O O8 0.250000 0.236076 0.102493
O O9 0.966475 0.241638 0.170988
O O10 0.051787 0.132317 0.090957
O O11 0.000000 0.242379 0.000000
O O12 0.250000 0.684400 0.747784
O O13 0.495067 0.629666 0.821715
O O14 0.250000 0.100230 0.880164
O O15 0.450831 0.000000 0.896342
O O16 0.250000 0.414081 0.904613
O O17 0.483241 0.500000 0.887059
O O18 0.500000 0.400493 0.000000
#
# Coordination Sequence:
#
# PCOD9403762 Si02
#       6
#     8   8   8   8   8   8
#     4  11  23  38  58  84 114 151 194 243 292 349
#     4   9  18  34  55  78 106 143 186 236 294 349
#     4  12  24  37  54  78 109 147 189 233 280 338
#     4  11  22  38  60  85 117 152 187 233 283 338
#     4  10  20  34  53  76 103 139 184 233 285 340
#     4   9  19  36  60  92 126 158 190 226 273 330
#
# _framework density 19.332241
#
# number of rings (size 3 to 8) (size 9 to 14) (size 15 to 20)
#    0.000    1.667    1.667    3.500    0.000    5.000 
#    0.000    0.000    0.000    0.500    0.000    0.000 
#    0.000    0.000    0.000    0.000    0.000    0.000 
#
# Total GULP energy -267922.157166 kJ/mol
# GULP energy per Si atom -5581.711608 kJ/mol
# Density = 1.928824 g / cm^3
# Si number density = 19.332241 Si / 1000 Ang^3
#
#
#
# Elastic Constant Matrix: (Units=GPa)
#
#
# Indices 1 2 3 4 5 6 
#
# 1 28.0349 25.3486 21.3577 0.0000 0.0000 0.0000
# 2 25.3486 115.8489 55.0068 0.0000 0.0000 0.0000
# 3 21.3577 55.0068 141.5363 0.0000 0.0000 0.0000
# 4 0.0000 0.0000 0.0000 41.0821 0.0000 0.0000
# 5 0.0000 0.0000 0.0000 0.0000 28.8104 0.0000
# 6 0.0000 0.0000 0.0000 0.0000 0.0000 13.5824
#
#
#
# Elastic Compliance Matrix: (Units=1/GPa)
#
#
# Indices 1 2 3 4 5 6 
#
# 1 0.046008 -0.008302 -0.003716 0.000000 0.000000 0.000000
# 2 -0.008302 0.012084 -0.003443 0.000000 0.000000 0.000000
# 3 -0.003716 -0.003443 0.008964 0.000000 0.000000 0.000000
# 4 0.000000 0.000000 0.000000 0.024341 0.000000 0.000000
# 5 0.000000 0.000000 0.000000 0.000000 0.034710 0.000000
# 6 0.000000 0.000000 0.000000 0.000000 0.000000 0.073625
#
#
# Mechanical properties :
#
#
# Convention : Reuss Voigt Hill
#
# Bulk Modulus (GPa) = 27.67618 54.31625 40.99621
# Shear Modulus (GPa) = 20.60170 28.94212 24.77191
#
# Velocity S-wave (km/s) = 3.26799 3.87342 3.58352
# Velocity P-wave (km/s) = 5.34667 6.93987 6.19470
#
# Compressibility (1/GPa) = 0.03613216
#
# Stress axis : x y z
#
# Youngs Moduli (GPa) = 21.73552 82.75736 111.55422
#
# Poissons Ratio (x) = 0.68709 0.41452
# Poissons Ratio (y) = 0.18046 0.38412
# Poissons Ratio (z) = 0.08077 0.28496
#
# Static dielectric constant tensor:
#      x y z
#    x 1.656390 0.000000 0.000000 
#    y 0.000000 1.732150 0.000000 
#    z 0.000000 0.000000 1.659900 
# 
# From -- ./inp_files/21060.got.cif
#   From: 2010.05.17/outbox.cif.g08.bks.cpg/sg51_11_cif.got.tgz:21060.got - 2010.06.03 11:52:47.
