data_PCOD9403642
_publ_section_title
;
Structure prediction by ZEFSAII (Michael W. Deem and Ramdas Pophale) SiO2 
 PCOD9403642
Probable space group: P M M A
;
_chemical_formula_sum "Si O2"
_cell_formula_units_Z 56
_cell_length_a 8.856012
_cell_length_b 14.088467
_cell_length_c 30.004693
_cell_angle_alpha 90.000000
_cell_angle_beta 90.000000
_cell_angle_gamma 90.000000
_cell_volume 3743.614519
_symmetry_space_group_name_H-M "P M M A"
_symmetry_group_IT_number 51
_symmetry_cell_setting 'orthorhombic'
loop_
_space_group_symop_operation_xyz
x,y,z
1/2-x,-y,z
1/2+x,-y,-z
-x,y,-z
-x,-y,-z
1/2+x,y,-z
1/2-x,y,z
x,-y,z
loop_
_atom_site_type_symbol
_atom_site_label
_atom_site_fract_x
_atom_site_fract_y
_atom_site_fract_z
Si Si1 0.067896 0.888839 0.860956
Si Si2 0.432272 0.109440 0.679057
Si Si3 0.930304 0.388155 0.451698
Si Si4 0.424605 0.115410 0.045943
Si Si5 0.432880 0.791129 0.771003
Si Si6 0.567567 0.391405 0.281454
Si Si7 0.430277 0.288698 0.366636
O O1 0.250000 0.884758 0.862623
O O2 0.012486 0.829458 0.818367
O O3 0.004752 0.854903 0.908356
O O4 0.026689 0.000000 0.854820
O O5 0.250000 0.119407 0.675497
O O6 0.474292 0.141062 0.729474
O O7 0.509797 0.184148 0.646214
O O8 0.471524 0.000000 0.671240
O O9 0.750000 0.375213 0.452480
O O10 0.960659 0.500000 0.442571
O O11 0.000000 0.366372 0.500000
O O12 0.003651 0.325783 0.413047
O O13 0.250000 0.142093 0.046710
O O14 0.433577 0.000000 0.045484
O O15 0.500000 0.148699 0.000000
O O16 0.250000 0.792908 0.773236
O O17 0.477087 0.685046 0.756219
O O18 0.750000 0.385277 0.286770
O O19 0.528653 0.500000 0.271373
O O20 0.493084 0.356604 0.327317
O O21 0.250000 0.290644 0.367133
#
# Coordination Sequence:
#
# PCOD9403642 Si02
#       7
#     8   8   8   8   8   8   8
#     4   9  15  23  37  56  79 108 139 171 208 251
#     4   9  17  31  50  68  88 118 155 190 220 253
#     4  10  20  34  52  73  96 120 147 181 221 265
#     4   9  16  25  36  51  73 102 136 171 206 246
#     4   8  14  25  42  64  86 110 144 181 216 255
#     4   9  17  30  47  65  87 117 152 187 219 254
#     4  11  21  31  46  69  96 123 150 181 218 262
#
# _framework density 14.958805999999999
#
# number of rings (size 3 to 8) (size 9 to 14) (size 15 to 20)
#    0.000    2.714    0.000    3.857    0.000    6.571 
#    0.000    2.857    0.000    3.857    0.000    0.000 
#    0.000    0.571    0.000    1.000    0.000    1.429 
#
# Total GULP energy -312057.106436 kJ/mol
# GULP energy per Si atom -5572.448329 kJ/mol
# Density = 1.492476 g / cm^3
# Si number density = 14.958806 Si / 1000 Ang^3
#
#
#
# Elastic Constant Matrix: (Units=GPa)
#
#
# Indices 1 2 3 4 5 6 
#
# 1 42.4868 39.8831 50.0441 0.0000 0.0000 0.0000
# 2 39.8831 100.8669 76.3484 0.0000 0.0000 0.0000
# 3 50.0441 76.3484 153.2075 0.0000 0.0000 0.0000
# 4 0.0000 0.0000 0.0000 20.3773 0.0000 0.0000
# 5 0.0000 0.0000 0.0000 0.0000 22.4704 0.0000
# 6 0.0000 0.0000 0.0000 0.0000 0.0000 10.5595
#
#
#
# Elastic Compliance Matrix: (Units=1/GPa)
#
#
# Indices 1 2 3 4 5 6 
#
# 1 0.044277 -0.010533 -0.009214 0.000000 0.000000 0.000000
# 2 -0.010533 0.018424 -0.005741 0.000000 0.000000 0.000000
# 3 -0.009214 -0.005741 0.012398 0.000000 0.000000 0.000000
# 4 0.000000 0.000000 0.000000 0.049074 0.000000 0.000000
# 5 0.000000 0.000000 0.000000 0.000000 0.044503 0.000000
# 6 0.000000 0.000000 0.000000 0.000000 0.000000 0.094701
#
#
# Mechanical properties :
#
#
# Convention : Reuss Voigt Hill
#
# Bulk Modulus (GPa) = 41.45372 69.90139 55.67755
# Shear Modulus (GPa) = 15.50899 19.36716 17.43807
#
# Velocity S-wave (km/s) = 3.22340 3.60210 3.41800
# Velocity P-wave (km/s) = 6.45181 8.00817 7.27175
#
# Compressibility (1/GPa) = 0.02412329
#
# Stress axis : x y z
#
# Youngs Moduli (GPa) = 22.58509 54.27620 80.66123
#
# Poissons Ratio (x) = 0.57170 0.74319
# Poissons Ratio (y) = 0.23789 0.46306
# Poissons Ratio (z) = 0.20809 0.31159
#
# Static dielectric constant tensor:
#      x y z
#    x 1.501000 0.000000 0.000000 
#    y 0.000000 1.487140 0.000000 
#    z 0.000000 0.000000 1.486070 
# 
# From -- ./inp_files/37463.got.cif
#   From: 2010.05.17/outbox.cif.g08.bks.cpg/sg51_19_cif.got.tgz:37463.got - 2010.06.03 11:52:47.
