data_PCOD9403921
_publ_section_title
;
Structure prediction by ZEFSAII (Michael W. Deem and Ramdas Pophale) SiO2 
 PCOD9403921
Probable space group: P M M A
;
_chemical_formula_sum "Si O2"
_cell_formula_units_Z 40
_cell_length_a 9.433721
_cell_length_b 7.656818
_cell_length_c 26.603635
_cell_angle_alpha 90.000000
_cell_angle_beta 90.000000
_cell_angle_gamma 90.000000
_cell_volume 1921.641339
_symmetry_space_group_name_H-M "P M M A"
_symmetry_group_IT_number 51
_symmetry_cell_setting 'orthorhombic'
loop_
_space_group_symop_operation_xyz
x,y,z
1/2-x,-y,z
1/2+x,-y,-z
-x,y,-z
-x,-y,-z
1/2+x,y,-z
1/2-x,y,z
x,-y,z
loop_
_atom_site_type_symbol
_atom_site_label
_atom_site_fract_x
_atom_site_fract_y
_atom_site_fract_z
Si Si1 0.409840 0.706466 0.145005
Si Si2 0.585277 0.712792 0.548200
Si Si3 0.410170 0.793951 0.758084
Si Si4 0.913453 0.289103 0.659806
Si Si5 0.086730 0.286152 0.950515
O O1 0.250000 0.779272 0.146821
O O2 0.396686 0.500000 0.135336
O O3 0.490640 0.724481 0.197589
O O4 0.505217 0.776008 0.099348
O O5 0.500000 0.776975 0.500000
O O6 0.750000 0.758762 0.543157
O O7 0.576715 0.500000 0.547965
O O8 0.539039 0.769481 0.604053
O O9 0.250000 0.721140 0.759655
O O10 0.484201 0.764290 0.704534
O O11 0.401108 0.000000 0.766176
O O12 0.750000 0.230682 0.668034
O O13 0.910006 0.500000 0.659193
O O14 0.250000 0.228874 0.951682
O O15 0.089192 0.500000 0.949955
O O16 0.000000 0.233936 0.000000
#
# Coordination Sequence:
#
# PCOD9403921 Si02
#       5
#     8   8   8   8   8
#     4  10  20  34  54  79 104 132 169 210 251 299
#     4   8  14  25  43  70 102 130 157 194 241 292
#     4  11  24  38  51  71 100 133 170 212 256 302
#     4   9  18  33  53  77 103 131 166 207 249 297
#     4   9  16  27  46  74 107 138 167 203 247 293
#
# _framework density 20.815536999999999
#
# number of rings (size 3 to 8) (size 9 to 14) (size 15 to 20)
#    0.000    2.600    0.000    3.600    0.000    8.800 
#    0.000    2.000    0.000    1.200    0.000    0.000 
#    0.000    0.000    0.000    0.000    0.000    0.000 
#
# Total GULP energy -223291.936694 kJ/mol
# GULP energy per Si atom -5582.298417 kJ/mol
# Density = 2.076816 g / cm^3
# Si number density = 20.815537 Si / 1000 Ang^3
#
#
#
# Elastic Constant Matrix: (Units=GPa)
#
#
# Indices 1 2 3 4 5 6 
#
# 1 185.2335 4.0044 123.9056 0.0000 0.0000 0.0000
# 2 4.0044 36.2136 -7.3854 0.0000 0.0000 0.0000
# 3 123.9056 -7.3854 192.1369 0.0000 0.0000 0.0000
# 4 0.0000 0.0000 0.0000 -62.1055 0.0000 0.0000
# 5 0.0000 0.0000 0.0000 0.0000 43.3947 0.0000
# 6 0.0000 0.0000 0.0000 0.0000 0.0000 -8.9146
#
#
#
# Elastic Compliance Matrix: (Units=1/GPa)
#
#
# Indices 1 2 3 4 5 6 
#
# 1 0.009691 -0.002365 -0.006340 0.000000 0.000000 0.000000
# 2 -0.002365 0.028409 0.002617 0.000000 0.000000 0.000000
# 3 -0.006340 0.002617 0.009394 0.000000 0.000000 0.000000
# 4 0.000000 0.000000 0.000000 -0.016102 0.000000 0.000000
# 5 0.000000 0.000000 0.000000 0.000000 0.023044 0.000000
# 6 0.000000 0.000000 0.000000 0.000000 0.000000 -0.112176
#
#
# Mechanical properties :
#
#
# Convention : Reuss Voigt Hill
#
# Bulk Modulus (GPa) = 28.31436 72.73703 50.52570
# Shear Modulus (GPa) = -147.97069 14.01223 -66.97923
#
# Velocity S-wave (km/s) = -8.44044 2.59735 -5.67868
# Velocity P-wave (km/s) = 9.01975 6.63434 4.32096
#
# Compressibility (1/GPa) = 0.03531776
#
# Stress axis : x y z
#
# Youngs Moduli (GPa) = 103.18991 35.20001 106.45106
#
# Poissons Ratio (x) = 0.08323 0.67494
# Poissons Ratio (y) = 0.24401 -0.27857
# Poissons Ratio (z) = 0.65426 -0.09211
#
# Static dielectric constant tensor:
#      x y z
#    x 1.727360 0.000000 0.000000 
#    y 0.000000 1.775100 0.000000 
#    z 0.000000 0.000000 1.718610 
# 
# From -- ./inp_files/34308.got.cif
#   From: 2010.05.17/outbox.cif.g08.bks.cpg/sg51_18_cif.got.tgz:34308.got - 2010.06.03 11:52:47.
