data_PCOD9403507
_publ_section_title
;
Structure prediction by ZEFSAII (Michael W. Deem and Ramdas Pophale) SiO2 
 PCOD9403507
Probable space group: P M M A
;
_chemical_formula_sum "Si O2"
_cell_formula_units_Z 64
_cell_length_a 8.961579
_cell_length_b 14.086506
_cell_length_c 26.905071
_cell_angle_alpha 90.000000
_cell_angle_beta 90.000000
_cell_angle_gamma 90.000000
_cell_volume 3396.424497
_symmetry_space_group_name_H-M "P M M A"
_symmetry_group_IT_number 51
_symmetry_cell_setting 'orthorhombic'
loop_
_space_group_symop_operation_xyz
x,y,z
1/2-x,-y,z
1/2+x,-y,-z
-x,y,-z
-x,-y,-z
1/2+x,y,-z
1/2-x,y,z
x,-y,z
loop_
_atom_site_type_symbol
_atom_site_label
_atom_site_fract_x
_atom_site_fract_y
_atom_site_fract_z
Si Si1 0.927238 0.890459 0.207199
Si Si2 0.418628 0.884963 0.309123
Si Si3 0.571439 0.706159 0.153863
Si Si4 0.570759 0.388403 0.051887
Si Si5 0.573954 0.888270 0.411449
Si Si6 0.923230 0.385235 0.353524
Si Si7 0.923110 0.385365 0.749615
Si Si8 0.073209 0.292851 0.449544
O O1 0.750000 0.886617 0.218795
O O2 0.956499 0.817595 0.162887
O O3 0.017262 0.857092 0.255742
O O4 0.964653 0.000000 0.196375
O O5 0.250000 0.850046 0.318273
O O6 0.527859 0.863881 0.354701
O O7 0.412172 0.000000 0.307465
O O8 0.750000 0.690286 0.156399
O O9 0.519335 0.667554 0.100788
O O10 0.498529 0.653158 0.200525
O O11 0.750000 0.380479 0.048406
O O12 0.534070 0.500000 0.058461
O O13 0.500000 0.356182 0.000000
O O14 0.750000 0.873035 0.419096
O O15 0.477641 0.816732 0.443989
O O16 0.541569 0.000000 0.419725
O O17 0.750000 0.356503 0.355646
O O18 0.929947 0.500000 0.355027
O O19 0.995297 0.354451 0.301160
O O20 0.009785 0.344761 0.400847
O O21 0.750000 0.357412 0.747816
O O22 0.930783 0.500000 0.750898
O O23 0.250000 0.300426 0.451744
O O24 0.000000 0.331540 0.500000
#
# Coordination Sequence:
#
# PCOD9403507 Si02
#       8
#     8   8   8   8   8   8   8   8
#     4   9  18  32  49  72 105 145 187 229 272 322
#     4   9  17  30  49  74 104 139 179 222 270 324
#     4  10  20  33  53  80 110 148 189 231 277 330
#     4   9  18  33  53  77 106 141 183 231 283 337
#     4  10  21  38  60  84 112 147 186 229 278 335
#     4  10  22  42  66  88 113 147 185 228 280 337
#     4  10  21  36  55  83 117 148 179 220 274 335
#     4  12  26  43  63  86 113 145 185 234 282 337
#
# _framework density 18.843344999999999
#
# number of rings (size 3 to 8) (size 9 to 14) (size 15 to 20)
#    0.000    2.125    0.000    3.000    1.750    5.750 
#    0.000    1.250    0.000    0.375    0.000    0.000 
#    0.000    0.000    0.000    0.000    0.000    0.000 
#
# Total GULP energy -357553.708587 kJ/mol
# GULP energy per Si atom -5586.776697 kJ/mol
# Density = 1.880046 g / cm^3
# Si number density = 18.843345 Si / 1000 Ang^3
#
#
#
# Elastic Constant Matrix: (Units=GPa)
#
#
# Indices 1 2 3 4 5 6 
#
# 1 96.1341 35.5557 65.2448 0.0000 0.0000 0.0000
# 2 35.5557 52.5907 48.9002 0.0000 0.0000 0.0000
# 3 65.2448 48.9002 164.7211 0.0000 0.0000 0.0000
# 4 0.0000 0.0000 0.0000 27.2555 0.0000 0.0000
# 5 0.0000 0.0000 0.0000 0.0000 31.9387 0.0000
# 6 0.0000 0.0000 0.0000 0.0000 0.0000 22.6158
#
#
#
# Elastic Compliance Matrix: (Units=1/GPa)
#
#
# Indices 1 2 3 4 5 6 
#
# 1 0.015770 -0.006705 -0.004256 0.000000 0.000000 0.000000
# 2 -0.006705 0.029115 -0.005988 0.000000 0.000000 0.000000
# 3 -0.004256 -0.005988 0.009534 0.000000 0.000000 0.000000
# 4 0.000000 0.000000 0.000000 0.036690 0.000000 0.000000
# 5 0.000000 0.000000 0.000000 0.000000 0.031310 0.000000
# 6 0.000000 0.000000 0.000000 0.000000 0.000000 0.044217
#
#
# Mechanical properties :
#
#
# Convention : Reuss Voigt Hill
#
# Bulk Modulus (GPa) = 48.72605 68.09413 58.41009
# Shear Modulus (GPa) = 24.11096 27.27835 25.69466
#
# Velocity S-wave (km/s) = 3.58096 3.80891 3.69669
# Velocity P-wave (km/s) = 6.55838 7.45380 7.02038
#
# Compressibility (1/GPa) = 0.02052290
#
# Stress axis : x y z
#
# Youngs Moduli (GPa) = 63.40955 34.34637 104.88515
#
# Poissons Ratio (x) = 0.23028 0.44641
# Poissons Ratio (y) = 0.42514 0.62801
# Poissons Ratio (z) = 0.26988 0.20565
#
# Static dielectric constant tensor:
#      x y z
#    x 1.636310 0.000000 0.000000 
#    y 0.000000 1.700090 0.000000 
#    z 0.000000 0.000000 1.623270 
# 
# From -- ./inp_files/34897.got.cif
#   From: 2010.05.17/outbox.cif.g08.bks.cpg/sg51_18_cif.got.tgz:34897.got - 2010.06.03 11:52:47.
