data_PCOD9403474
_publ_section_title
;
Structure prediction by ZEFSAII (Michael W. Deem and Ramdas Pophale) SiO2 
 PCOD9403474
Probable space group: P M M A
;
_chemical_formula_sum "Si O2"
_cell_formula_units_Z 48
_cell_length_a 19.305012
_cell_length_b 8.661409
_cell_length_c 15.730097
_cell_angle_alpha 90.000000
_cell_angle_beta 90.000000
_cell_angle_gamma 90.000000
_cell_volume 2630.207571
_symmetry_space_group_name_H-M "P M M A"
_symmetry_group_IT_number 51
_symmetry_cell_setting 'orthorhombic'
loop_
_space_group_symop_operation_xyz
x,y,z
1/2-x,-y,z
1/2+x,-y,-z
-x,y,-z
-x,-y,-z
1/2+x,y,-z
1/2-x,y,z
x,-y,z
loop_
_atom_site_type_symbol
_atom_site_label
_atom_site_fract_x
_atom_site_fract_y
_atom_site_fract_z
Si Si1 0.329245 0.812081 0.157911
Si Si2 0.169783 0.815077 0.658429
Si Si3 0.668699 0.185984 0.649053
Si Si4 0.420027 0.315340 0.504690
Si Si5 0.669781 0.684881 0.155520
Si Si6 0.419974 0.186977 0.998545
O O1 0.250000 0.763103 0.140741
O O2 0.348153 0.765964 0.254028
O O3 0.380424 0.760630 0.083951
O O4 0.329144 0.000000 0.157909
O O5 0.250000 0.770341 0.639854
O O6 0.119472 0.753918 0.585741
O O7 0.151967 0.748666 0.751127
O O8 0.166703 0.000000 0.661222
O O9 0.750000 0.221445 0.634128
O O10 0.620668 0.263001 0.579365
O O11 0.661692 0.000000 0.643337
O O12 0.500000 0.264220 0.500000
O O13 0.418667 0.500000 0.511137
O O14 0.750000 0.730338 0.138091
O O15 0.666122 0.500000 0.156558
O O16 0.620320 0.751005 0.083224
O O17 0.417837 0.000000 0.996331
O O18 0.500000 0.234902 0.000000
#
# Coordination Sequence:
#
# PCOD9403474 Si02
#       6
#     8   8   8   8   8   8
#     4   8  15  30  52  75 101 135 174 219 266 307
#     4  10  21  38  61  85 106 136 183 233 276 321
#     4   9  18  34  56  79 101 133 182 230 269 314
#     4  11  24  38  52  77 113 147 176 211 265 330
#     4  10  21  37  57  81 110 145 183 225 276 330
#     4  10  20  33  52  81 113 145 184 226 268 318
#
# _framework density 18.249510000000001
#
# number of rings (size 3 to 8) (size 9 to 14) (size 15 to 20)
#    0.000    2.333    0.000    3.500    0.000    8.000 
#    0.000    2.500    0.000    1.000    0.000    0.000 
#    0.000    0.000    0.000    0.000    0.000    0.000 
#
# Total GULP energy -267988.291098 kJ/mol
# GULP energy per Si atom -5583.089398 kJ/mol
# Density = 1.820797 g / cm^3
# Si number density = 18.249510 Si / 1000 Ang^3
#
#
#
# Elastic Constant Matrix: (Units=GPa)
#
#
# Indices 1 2 3 4 5 6 
#
# 1 140.0935 40.0210 135.0181 0.0000 0.0000 0.0000
# 2 40.0210 24.5253 38.7889 0.0000 0.0000 0.0000
# 3 135.0181 38.7889 181.8877 0.0000 0.0000 0.0000
# 4 0.0000 0.0000 0.0000 -21.1633 0.0000 0.0000
# 5 0.0000 0.0000 0.0000 0.0000 -14.8218 0.0000
# 6 0.0000 0.0000 0.0000 0.0000 0.0000 17.7399
#
#
#
# Elastic Compliance Matrix: (Units=1/GPa)
#
#
# Indices 1 2 3 4 5 6 
#
# 1 0.031141 -0.021511 -0.018529 0.000000 0.000000 0.000000
# 2 -0.021511 0.076385 -0.000321 0.000000 0.000000 0.000000
# 3 -0.018529 -0.000321 0.019321 0.000000 0.000000 0.000000
# 4 0.000000 0.000000 0.000000 -0.047252 0.000000 0.000000
# 5 0.000000 0.000000 0.000000 0.000000 -0.067468 0.000000
# 6 0.000000 0.000000 0.000000 0.000000 0.000000 0.056370
#
#
# Mechanical properties :
#
#
# Convention : Reuss Voigt Hill
#
# Bulk Modulus (GPa) = 21.68095 86.01806 53.84950
# Shear Modulus (GPa) = 30.37738 5.19620 17.78679
#
# Velocity S-wave (km/s) = 4.08433 1.68923 3.12532
# Velocity P-wave (km/s) = 5.84366 7.14433 6.52648
#
# Compressibility (1/GPa) = 0.04612345
#
# Stress axis : x y z
#
# Youngs Moduli (GPa) = 32.11190 13.09150 51.75750
#
# Poissons Ratio (x) = 0.28162 0.95902
# Poissons Ratio (y) = 0.69077 0.01664
# Poissons Ratio (z) = 0.59500 0.00421
#
# Static dielectric constant tensor:
#      x y z
#    x 1.612610 0.000000 0.000000 
#    y 0.000000 1.615220 0.000000 
#    z 0.000000 0.000000 1.600180 
# 
# From -- ./inp_files/24736.got.cif
#   From: 2010.05.17/outbox.cif.g08.bks.cpg/sg51_13_cif.got.tgz:24736.got - 2010.06.03 11:52:47.
