data_PCOD9403284
_publ_section_title
;
Structure prediction by ZEFSAII (Michael W. Deem and Ramdas Pophale) SiO2 
 PCOD9403284
Probable space group: P M M A
;
_chemical_formula_sum "Si O2"
_cell_formula_units_Z 64
_cell_length_a 18.326293
_cell_length_b 9.689473
_cell_length_c 21.686320
_cell_angle_alpha 90.000000
_cell_angle_beta 90.000000
_cell_angle_gamma 90.000000
_cell_volume 3850.885844
_symmetry_space_group_name_H-M "P M M A"
_symmetry_group_IT_number 51
_symmetry_cell_setting 'orthorhombic'
loop_
_space_group_symop_operation_xyz
x,y,z
1/2-x,-y,z
1/2+x,-y,-z
-x,y,-z
-x,-y,-z
1/2+x,y,-z
1/2-x,y,z
x,-y,z
loop_
_atom_site_type_symbol
_atom_site_label
_atom_site_fract_x
_atom_site_fract_y
_atom_site_fract_z
Si Si1 0.836999 0.337897 0.250317
Si Si2 0.663071 0.661647 0.877397
Si Si3 0.334194 0.336897 0.378826
Si Si4 0.839087 0.158441 0.994998
Si Si5 0.543524 0.162871 0.308696
Si Si6 0.416445 0.661930 0.251297
Si Si7 0.461136 0.163157 0.436586
Si Si8 0.661201 0.342664 0.108972
O O1 0.750000 0.319786 0.255222
O O2 0.852852 0.500000 0.261443
O O3 0.881025 0.239288 0.295251
O O4 0.858990 0.307394 0.179188
O O5 0.750000 0.681247 0.867377
O O6 0.652585 0.500000 0.893408
O O7 0.639558 0.757517 0.933979
O O8 0.620908 0.690199 0.814110
O O9 0.250000 0.296588 0.386056
O O10 0.341088 0.500000 0.392521
O O11 0.359576 0.319024 0.307688
O O12 0.389243 0.249768 0.420576
O O13 0.750000 0.159202 0.996063
O O14 0.862905 0.000000 0.993641
O O15 0.863864 0.237986 0.056513
O O16 0.483778 0.239136 0.266083
O O17 0.515566 0.181719 0.378665
O O18 0.547357 0.000000 0.296033
O O19 0.438948 0.500000 0.252315
O O20 0.500000 0.204542 0.500000
O O21 0.443496 0.000000 0.440319
O O22 0.750000 0.343593 0.107857
O O23 0.637680 0.500000 0.095854
#
# Coordination Sequence:
#
# PCOD9403284 Si02
#       8
#     8   8   8   8   8   8   8   8
#     4   9  18  33  53  75  97 122 154 194 240 289
#     4   9  16  26  42  64  90 123 162 198 233 278
#     4   9  17  30  50  77 104 127 160 207 249 283
#     4   9  16  24  36  59  91 123 154 192 238 281
#     4  10  20  33  51  74  97 123 156 194 236 281
#     4   9  17  30  48  68  94 129 162 194 236 285
#     4   9  19  36  54  72  99 136 172 199 229 280
#     4   8  14  26  44  64  86 115 152 191 231 280
#
# _framework density 16.619551999999999
#
# number of rings (size 3 to 8) (size 9 to 14) (size 15 to 20)
#    0.000    3.000    0.000    1.875    0.000    5.250 
#    0.000    1.875    0.000    6.750    0.000    5.250 
#    0.000    0.000    0.000    0.000    0.000    0.000 
#
# Total GULP energy -356657.899207 kJ/mol
# GULP energy per Si atom -5572.779675 kJ/mol
# Density = 1.658173 g / cm^3
# Si number density = 16.619552 Si / 1000 Ang^3
#
#
#
# Elastic Constant Matrix: (Units=GPa)
#
#
# Indices 1 2 3 4 5 6 
#
# 1 64.2495 57.3951 48.9716 0.0000 0.0000 0.0000
# 2 57.3951 87.8173 66.3932 0.0000 0.0000 0.0000
# 3 48.9716 66.3932 73.5949 0.0000 0.0000 0.0000
# 4 0.0000 0.0000 0.0000 25.6960 0.0000 0.0000
# 5 0.0000 0.0000 0.0000 0.0000 16.2836 0.0000
# 6 0.0000 0.0000 0.0000 0.0000 0.0000 21.4409
#
#
#
# Elastic Compliance Matrix: (Units=1/GPa)
#
#
# Indices 1 2 3 4 5 6 
#
# 1 0.039359 -0.018629 -0.009384 0.000000 0.000000 0.000000
# 2 -0.018629 0.044633 -0.027869 0.000000 0.000000 0.000000
# 3 -0.009384 -0.027869 0.044974 0.000000 0.000000 0.000000
# 4 0.000000 0.000000 0.000000 0.038917 0.000000 0.000000
# 5 0.000000 0.000000 0.000000 0.000000 0.061411 0.000000
# 6 0.000000 0.000000 0.000000 0.000000 0.000000 0.046640
#
#
# Mechanical properties :
#
#
# Convention : Reuss Voigt Hill
#
# Bulk Modulus (GPa) = 58.13503 63.46460 60.79981
# Shear Modulus (GPa) = 12.70874 16.21090 14.45982
#
# Velocity S-wave (km/s) = 2.76830 3.12655 2.95286
# Velocity P-wave (km/s) = 6.72858 7.16263 6.94900
#
# Compressibility (1/GPa) = 0.01720133
#
# Stress axis : x y z
#
# Youngs Moduli (GPa) = 25.40746 22.40509 22.23520
#
# Poissons Ratio (x) = 0.41739 0.20865
# Poissons Ratio (y) = 0.47332 0.61967
# Poissons Ratio (z) = 0.23842 0.62440
#
# Static dielectric constant tensor:
#      x y z
#    x 1.550370 0.000000 0.000000 
#    y 0.000000 1.551810 0.000000 
#    z 0.000000 0.000000 1.544640 
# 
# From -- ./inp_files/33798.got.cif
#   From: 2010.05.17/outbox.cif.g08.bks.cpg/sg51_17_cif.got.tgz:33798.got - 2010.06.03 11:52:47.
