data_PCOD9403865
_publ_section_title
;
Structure prediction by ZEFSAII (Michael W. Deem and Ramdas Pophale) SiO2 
 PCOD9403865
Probable space group: P M M A
;
_chemical_formula_sum "Si O2"
_cell_formula_units_Z 48
_cell_length_a 9.939288
_cell_length_b 17.973940
_cell_length_c 14.896525
_cell_angle_alpha 90.000000
_cell_angle_beta 90.000000
_cell_angle_gamma 90.000000
_cell_volume 2661.236873
_symmetry_space_group_name_H-M "P M M A"
_symmetry_group_IT_number 51
_symmetry_cell_setting 'orthorhombic'
loop_
_space_group_symop_operation_xyz
x,y,z
1/2-x,-y,z
1/2+x,-y,-z
-x,y,-z
-x,-y,-z
1/2+x,y,-z
1/2-x,y,z
x,-y,z
loop_
_atom_site_type_symbol
_atom_site_label
_atom_site_fract_x
_atom_site_fract_y
_atom_site_fract_z
Si Si1 0.250000 0.091087 0.101023
Si Si2 0.408812 0.308939 0.747544
Si Si3 0.406367 0.311416 0.417424
Si Si4 0.498436 0.139842 0.781581
Si Si5 0.406195 0.129907 0.416516
Si Si6 0.094711 0.586612 0.919369
Si Si7 0.250000 0.913889 0.896184
O O1 0.375732 0.123277 0.155200
O O2 0.250000 0.000000 0.105799
O O3 0.250000 0.118840 0.997275
O O4 0.250000 0.305782 0.719590
O O5 0.510559 0.334765 0.670267
O O6 0.458413 0.226286 0.772313
O O7 0.419583 0.362617 0.832435
O O8 0.500000 0.335281 0.500000
O O9 0.250000 0.335491 0.420567
O O10 0.403581 0.220621 0.418611
O O11 0.531542 0.110670 0.680982
O O12 0.376152 0.104083 0.834646
O O13 0.500000 0.105649 0.500000
O O14 0.250000 0.105116 0.423608
O O15 0.250000 0.590446 0.948565
O O16 0.064103 0.500000 0.898754
O O17 0.000000 0.611475 0.000000
O O18 0.250000 0.000000 0.915346
#
# Coordination Sequence:
#
# PCOD9403865 Si02
#       7
#     4   8   8   8   8   8   4
#     4  11  24  42  61  79 108 148 191 232 281 339
#     4  10  20  34  53  83 114 143 183 231 275 321
#     4   9  17  29  50  79 112 146 179 223 272 326
#     4  11  21  38  58  85 113 143 184 237 280 326
#     4   9  18  31  53  81 109 140 175 219 274 329
#     4   9  19  36  55  77 109 150 189 226 276 333
#     4  11  24  40  59  81 106 146 189 226 281 343
#
# _framework density 18.036725000000001
#
# number of rings (size 3 to 8) (size 9 to 14) (size 15 to 20)
#    0.000    2.167    1.667    1.500    2.333    5.333 
#    0.000    0.000    0.000    3.500    0.000    0.000 
#    0.000    0.000    0.000    0.000    0.000    0.000 
#
# Total GULP energy -267561.195102 kJ/mol
# GULP energy per Si atom -5574.191565 kJ/mol
# Density = 1.799567 g / cm^3
# Si number density = 18.036725 Si / 1000 Ang^3
#
#
#
# Elastic Constant Matrix: (Units=GPa)
#
#
# Indices 1 2 3 4 5 6 
#
# 1 190.8382 23.1347 110.2258 0.0000 0.0000 0.0000
# 2 23.1347 15.0885 20.9325 0.0000 0.0000 0.0000
# 3 110.2258 20.9325 164.3216 0.0000 0.0000 0.0000
# 4 0.0000 0.0000 0.0000 41.2262 0.0000 0.0000
# 5 0.0000 0.0000 0.0000 0.0000 55.7136 0.0000
# 6 0.0000 0.0000 0.0000 0.0000 0.0000 24.6838
#
#
#
# Elastic Compliance Matrix: (Units=1/GPa)
#
#
# Indices 1 2 3 4 5 6 
#
# 1 0.009071 -0.006640 -0.005239 0.000000 0.000000 0.000000
# 2 -0.006640 0.085363 -0.006420 0.000000 0.000000 0.000000
# 3 -0.005239 -0.006420 0.010418 0.000000 0.000000 0.000000
# 4 0.000000 0.000000 0.000000 0.024256 0.000000 0.000000
# 5 0.000000 0.000000 0.000000 0.000000 0.017949 0.000000
# 6 0.000000 0.000000 0.000000 0.000000 0.000000 0.040512
#
#
# Mechanical properties :
#
#
# Convention : Reuss Voigt Hill
#
# Bulk Modulus (GPa) = 14.65122 75.42603 45.03863
# Shear Modulus (GPa) = 20.24959 38.72176 29.48567
#
# Velocity S-wave (km/s) = 3.35429 4.63842 4.04760
# Velocity P-wave (km/s) = 4.81064 8.40210 6.84608
#
# Compressibility (1/GPa) = 0.06825371
#
# Stress axis : x y z
#
# Youngs Moduli (GPa) = 110.24287 11.71465 95.99135
#
# Poissons Ratio (x) = 0.07779 0.50288
# Poissons Ratio (y) = 0.73203 0.61626
# Poissons Ratio (z) = 0.57754 0.07521
#
# Static dielectric constant tensor:
#      x y z
#    x 1.578220 0.000000 0.000000 
#    y 0.000000 1.606870 0.000000 
#    z 0.000000 0.000000 1.627820 
# 
# From -- ./inp_files/21133.got.cif
#   From: 2010.05.17/outbox.cif.g08.bks.cpg/sg51_11_cif.got.tgz:21133.got - 2010.06.03 11:52:47.
