data_PCOD9403242
_publ_section_title
;
Structure prediction by ZEFSAII (Michael W. Deem and Ramdas Pophale) SiO2 
 PCOD9403242
Probable space group: P M M A
;
_chemical_formula_sum "Si O2"
_cell_formula_units_Z 56
_cell_length_a 7.796136
_cell_length_b 19.655456
_cell_length_c 19.103360
_cell_angle_alpha 90.000000
_cell_angle_beta 90.000000
_cell_angle_gamma 90.000000
_cell_volume 2927.334090
_symmetry_space_group_name_H-M "P M M A"
_symmetry_group_IT_number 51
_symmetry_cell_setting 'orthorhombic'
loop_
_space_group_symop_operation_xyz
x,y,z
1/2-x,-y,z
1/2+x,-y,-z
-x,y,-z
-x,-y,-z
1/2+x,y,-z
1/2-x,y,z
x,-y,z
loop_
_atom_site_type_symbol
_atom_site_label
_atom_site_fract_x
_atom_site_fract_y
_atom_site_fract_z
Si Si1 0.457967 0.923434 0.781412
Si Si2 0.546482 0.785122 0.717586
Si Si3 0.551142 0.285243 0.139397
Si Si4 0.043034 0.575924 0.643053
Si Si5 0.956142 0.148889 0.077226
Si Si6 0.540074 0.423503 0.194617
Si Si7 0.949687 0.716094 0.578530
O O1 0.250000 0.922988 0.780674
O O2 0.519297 0.865265 0.728631
O O3 0.514678 0.898597 0.858898
O O4 0.516022 0.000000 0.766999
O O5 0.750000 0.770450 0.723717
O O6 0.457376 0.747233 0.782695
O O7 0.474433 0.757584 0.644151
O O8 0.750000 0.293475 0.118901
O O9 0.474947 0.225714 0.090978
O O10 0.476697 0.360889 0.147562
O O11 0.250000 0.576454 0.642553
O O12 0.985963 0.500000 0.622373
O O13 0.988881 0.587395 0.724032
O O14 0.982065 0.636762 0.594636
O O15 0.750000 0.152243 0.082812
O O16 0.000000 0.124766 0.000000
O O17 0.750000 0.421979 0.194163
O O18 0.488012 0.500000 0.174249
O O19 0.750000 0.729304 0.582625
O O20 0.000000 0.733678 0.500000
#
# Coordination Sequence:
#
# PCOD9403242 Si02
#       7
#     8   8   8   8   8   8   8
#     4   9  19  36  57  79 101 128 161 193 231 285
#     4  10  20  33  50  75 101 124 158 202 245 287
#     4   9  16  29  50  70  93 128 167 205 245 290
#     4   9  17  30  49  71  95 126 165 208 254 301
#     4   9  18  30  46  72 103 135 165 194 230 277
#     4   8  13  23  44  71  92 116 159 210 252 290
#     4  11  23  35  49  70  98 133 169 205 247 294
#
# _framework density 19.130033999999998
#
# number of rings (size 3 to 8) (size 9 to 14) (size 15 to 20)
#    0.000    2.714    1.429    2.571    0.000    5.143 
#    0.000    0.000    0.000    1.286    0.000    0.000 
#    0.000    0.000    0.000    0.000    0.000    0.286 
#
# Total GULP energy -312153.839994 kJ/mol
# GULP energy per Si atom -5574.175714 kJ/mol
# Density = 1.908649 g / cm^3
# Si number density = 19.130034 Si / 1000 Ang^3
#
#
#
# Elastic Constant Matrix: (Units=GPa)
#
#
# Indices 1 2 3 4 5 6 
#
# 1 19.4417 -14.3710 -6.2964 0.0000 0.0000 0.0000
# 2 -14.3710 86.5015 14.6344 0.0000 0.0000 0.0000
# 3 -6.2964 14.6344 55.2128 0.0000 0.0000 0.0000
# 4 0.0000 0.0000 0.0000 9.0431 0.0000 0.0000
# 5 0.0000 0.0000 0.0000 0.0000 11.7286 0.0000
# 6 0.0000 0.0000 0.0000 0.0000 0.0000 5.9406
#
#
#
# Elastic Compliance Matrix: (Units=1/GPa)
#
#
# Indices 1 2 3 4 5 6 
#
# 1 0.059627 0.009167 0.004370 0.000000 0.000000 0.000000
# 2 0.009167 0.013513 -0.002536 0.000000 0.000000 0.000000
# 3 0.004370 -0.002536 0.019282 0.000000 0.000000 0.000000
# 4 0.000000 0.000000 0.000000 0.110582 0.000000 0.000000
# 5 0.000000 0.000000 0.000000 0.000000 0.085262 0.000000
# 6 0.000000 0.000000 0.000000 0.000000 0.000000 0.168332
#
#
# Mechanical properties :
#
#
# Convention : Reuss Voigt Hill
#
# Bulk Modulus (GPa) = 8.73948 16.56556 12.65252
# Shear Modulus (GPa) = 10.57670 16.48839 13.53255
#
# Velocity S-wave (km/s) = 2.35390 2.93902 2.66258
# Velocity P-wave (km/s) = 3.45922 4.49392 4.01008
#
# Compressibility (1/GPa) = 0.11442335
#
# Stress axis : x y z
#
# Youngs Moduli (GPa) = 16.77092 74.00543 51.86095
#
# Poissons Ratio (x) = -0.67840 -0.22663
# Poissons Ratio (y) = -0.15374 0.13153
# Poissons Ratio (z) = -0.07329 0.18769
#
# Static dielectric constant tensor:
#      x y z
#    x 1.693000 0.000000 0.000000 
#    y 0.000000 1.698120 0.000000 
#    z 0.000000 0.000000 1.671480 
# 
# From -- ./inp_files/28167.got.cif
#   From: 2010.05.17/outbox.cif.g08.bks.cpg/sg51_15_cif.got.tgz:28167.got - 2010.06.03 11:52:47.
