data_PCOD9403359
_publ_section_title
;
Structure prediction by ZEFSAII (Michael W. Deem and Ramdas Pophale) SiO2 
 PCOD9403359
Probable space group: P M M A
;
_chemical_formula_sum "Si O2"
_cell_formula_units_Z 48
_cell_length_a 9.386735
_cell_length_b 14.960404
_cell_length_c 16.023704
_cell_angle_alpha 90.000000
_cell_angle_beta 90.000000
_cell_angle_gamma 90.000000
_cell_volume 2250.198303
_symmetry_space_group_name_H-M "P M M A"
_symmetry_group_IT_number 51
_symmetry_cell_setting 'orthorhombic'
loop_
_space_group_symop_operation_xyz
x,y,z
1/2-x,-y,z
1/2+x,-y,-z
-x,y,-z
-x,-y,-z
1/2+x,y,-z
1/2-x,y,z
x,-y,z
loop_
_atom_site_type_symbol
_atom_site_label
_atom_site_fract_x
_atom_site_fract_y
_atom_site_fract_z
Si Si1 0.913641 0.892647 0.250710
Si Si2 0.591136 0.351619 0.923180
Si Si3 0.584760 0.609035 0.420831
Si Si4 0.087151 0.607495 0.761444
Si Si5 0.084489 0.890708 0.415954
Si Si6 0.912609 0.861387 0.919897
O O1 0.750000 0.858843 0.247937
O O2 0.999995 0.861326 0.332643
O O3 0.999559 0.874287 0.165504
O O4 0.905344 0.000000 0.257826
O O5 0.750000 0.388726 0.922593
O O6 0.512006 0.366411 0.836704
O O7 0.600122 0.244907 0.933434
O O8 0.500000 0.388282 0.000000
O O9 0.500000 0.643205 0.500000
O O10 0.750000 0.632816 0.427568
O O11 0.577192 0.500000 0.422280
O O12 0.533899 0.637974 0.329423
O O13 0.250000 0.638698 0.774124
O O14 0.092463 0.500000 0.758864
O O15 0.250000 0.861589 0.416393
O O16 0.000000 0.864744 0.500000
O O17 0.086441 0.000000 0.414875
O O18 0.750000 0.896040 0.914035
O O19 0.000000 0.896781 0.000000
#
# Coordination Sequence:
#
# PCOD9403359 Si02
#       6
#     8   8   8   8   8   8
#     4  10  20  33  51  77 105 132 165 205 249 295
#     4  10  21  36  54  74  96 127 166 205 246 296
#     4   8  14  25  42  66  96 128 160 194 234 281
#     4   9  18  32  50  74 103 132 163 202 247 292
#     4   9  16  27  45  70 101 135 168 203 244 291
#     4  10  21  37  55  74  97 128 166 205 248 300
#
# _framework density 21.331454000000001
#
# number of rings (size 3 to 8) (size 9 to 14) (size 15 to 20)
#    0.000    2.667    0.000    3.000    0.000    6.667 
#    0.000    1.667    0.000    1.000    0.000    2.333 
#    0.000    0.000    0.000    0.000    0.000    0.000 
#
# Total GULP energy -268007.852531 kJ/mol
# GULP energy per Si atom -5583.496928 kJ/mol
# Density = 2.128290 g / cm^3
# Si number density = 21.331454 Si / 1000 Ang^3
#
#
#
# Elastic Constant Matrix: (Units=GPa)
#
#
# Indices 1 2 3 4 5 6 
#
# 1 203.4849 9.2898 153.9881 0.0000 0.0000 0.0000
# 2 9.2898 49.1628 0.0382 0.0000 0.0000 0.0000
# 3 153.9881 0.0382 250.6543 0.0000 0.0000 0.0000
# 4 0.0000 0.0000 0.0000 33.0906 0.0000 0.0000
# 5 0.0000 0.0000 0.0000 0.0000 42.6106 0.0000
# 6 0.0000 0.0000 0.0000 0.0000 0.0000 12.1292
#
#
#
# Elastic Compliance Matrix: (Units=1/GPa)
#
#
# Indices 1 2 3 4 5 6 
#
# 1 0.009334 -0.001759 -0.005734 0.000000 0.000000 0.000000
# 2 -0.001759 0.020672 0.001078 0.000000 0.000000 0.000000
# 3 -0.005734 0.001078 0.007512 0.000000 0.000000 0.000000
# 4 0.000000 0.000000 0.000000 0.030220 0.000000 0.000000
# 5 0.000000 0.000000 0.000000 0.000000 0.023468 0.000000
# 6 0.000000 0.000000 0.000000 0.000000 0.000000 0.082446
#
#
# Mechanical properties :
#
#
# Convention : Reuss Voigt Hill
#
# Bulk Modulus (GPa) = 40.50731 92.21494 66.36112
# Shear Modulus (GPa) = 25.67891 40.23180 32.95535
#
# Velocity S-wave (km/s) = 3.47335 4.34756 3.93481
# Velocity P-wave (km/s) = 5.92590 8.27799 7.19866
#
# Compressibility (1/GPa) = 0.02468690
#
# Stress axis : x y z
#
# Youngs Moduli (GPa) = 107.13662 48.37424 133.12010
#
# Poissons Ratio (x) = 0.08510 0.76330
# Poissons Ratio (y) = 0.18848 -0.14346
# Poissons Ratio (z) = 0.61432 -0.05213
#
# Static dielectric constant tensor:
#      x y z
#    x 1.749010 0.000000 0.000000 
#    y 0.000000 1.820170 0.000000 
#    z 0.000000 0.000000 1.741140 
# 
# From -- ./inp_files/21081.got.cif
#   From: 2010.05.17/outbox.cif.g08.bks.cpg/sg51_11_cif.got.tgz:21081.got - 2010.06.03 11:52:47.
