data_PCOD9403461
_publ_section_title
;
Structure prediction by ZEFSAII (Michael W. Deem and Ramdas Pophale) SiO2 
 PCOD9403461
Probable space group: P M M A
;
_chemical_formula_sum "Si O2"
_cell_formula_units_Z 48
_cell_length_a 9.376128
_cell_length_b 7.488175
_cell_length_c 35.295847
_cell_angle_alpha 90.000000
_cell_angle_beta 90.000000
_cell_angle_gamma 90.000000
_cell_volume 2478.124499
_symmetry_space_group_name_H-M "P M M A"
_symmetry_group_IT_number 51
_symmetry_cell_setting 'orthorhombic'
loop_
_space_group_symop_operation_xyz
x,y,z
1/2-x,-y,z
1/2+x,-y,-z
-x,y,-z
-x,-y,-z
1/2+x,y,-z
1/2-x,y,z
x,-y,z
loop_
_atom_site_type_symbol
_atom_site_label
_atom_site_fract_x
_atom_site_fract_y
_atom_site_fract_z
Si Si1 0.079164 0.000000 0.100622
Si Si2 0.919597 0.291911 0.961917
Si Si3 0.587375 0.282542 0.682919
Si Si4 0.919571 0.713320 0.769666
Si Si5 0.911167 0.213684 0.535875
Si Si6 0.578843 0.000000 0.180334
Si Si7 0.410681 0.285457 0.611227
O O1 0.047155 0.829478 0.074134
O O2 0.250000 0.000000 0.109225
O O3 0.987270 0.000000 0.138379
O O4 0.750000 0.277295 0.968511
O O5 0.954336 0.500000 0.955059
O O6 0.000000 0.234035 0.000000
O O7 0.750000 0.225292 0.675306
O O8 0.587933 0.500000 0.682357
O O9 0.549372 0.234155 0.725966
O O10 0.483631 0.219351 0.649876
O O11 0.750000 0.746655 0.776029
O O12 0.941941 0.500000 0.773647
O O13 0.015177 0.828684 0.797575
O O14 0.750000 0.284209 0.536945
O O15 0.000000 0.283725 0.500000
O O16 0.993267 0.246469 0.574872
O O17 0.901890 0.000000 0.531340
O O18 0.750000 0.000000 0.180104
O O19 0.250000 0.217631 0.606245
O O20 0.403498 0.500000 0.614371
#
# Coordination Sequence:
#
# PCOD9403461 Si02
#       7
#     4   8   8   8   8   4   8
#     4  10  21  37  55  76 110 154 198 241 285 340
#     4   9  18  33  55  83 112 145 188 238 292 348
#     4   8  15  31  56  82 105 133 172 218 268 320
#     4   9  19  39  65  86 109 149 196 241 292 350
#     4  10  21  37  55  73  97 133 174 213 257 308
#     4  12  26  39  55  86 123 156 197 247 300 356
#     4  10  20  33  52  80 110 137 167 207 258 315
#
# _framework density 19.369486999999999
#
# number of rings (size 3 to 8) (size 9 to 14) (size 15 to 20)
#    0.000    2.500    0.000    3.000    0.000    4.667 
#    1.500    3.333    0.000    0.000    0.000    0.000 
#    0.000    0.000    0.000    0.000    0.000    0.000 
#
# Total GULP energy -268034.403491 kJ/mol
# GULP energy per Si atom -5584.050073 kJ/mol
# Density = 1.932540 g / cm^3
# Si number density = 19.369487 Si / 1000 Ang^3
#
#
#
# Elastic Constant Matrix: (Units=GPa)
#
#
# Indices 1 2 3 4 5 6 
#
# 1 150.8597 47.9412 126.2393 0.0000 0.0000 0.0000
# 2 47.9412 75.1078 51.6671 0.0000 0.0000 0.0000
# 3 126.2393 51.6671 183.9282 0.0000 0.0000 0.0000
# 4 0.0000 0.0000 0.0000 187.0180 0.0000 0.0000
# 5 0.0000 0.0000 0.0000 0.0000 37.9329 0.0000
# 6 0.0000 0.0000 0.0000 0.0000 0.0000 24.7496
#
#
#
# Elastic Compliance Matrix: (Units=1/GPa)
#
#
# Indices 1 2 3 4 5 6 
#
# 1 0.016222 -0.003341 -0.010195 0.000000 0.000000 0.000000
# 2 -0.003341 0.017191 -0.002536 0.000000 0.000000 0.000000
# 3 -0.010195 -0.002536 0.013147 0.000000 0.000000 0.000000
# 4 0.000000 0.000000 0.000000 0.005347 0.000000 0.000000
# 5 0.000000 0.000000 0.000000 0.000000 0.026362 0.000000
# 6 0.000000 0.000000 0.000000 0.000000 0.000000 0.040405
#
#
# Mechanical properties :
#
#
# Convention : Reuss Voigt Hill
#
# Bulk Modulus (GPa) = 69.37118 95.73234 82.55176
# Shear Modulus (GPa) = 32.12862 62.20997 47.16929
#
# Velocity S-wave (km/s) = 4.07716 5.67338 4.94017
# Velocity P-wave (km/s) = 7.61950 9.61498 8.67481
#
# Compressibility (1/GPa) = 0.01441521
#
# Stress axis : x y z
#
# Youngs Moduli (GPa) = 61.64505 58.16878 76.06315
#
# Poissons Ratio (x) = 0.19434 0.77550
# Poissons Ratio (y) = 0.20595 0.19291
# Poissons Ratio (z) = 0.62850 0.14753
#
# Static dielectric constant tensor:
#      x y z
#    x 1.660740 0.000000 0.000000 
#    y 0.000000 1.720430 0.000000 
#    z 0.000000 0.000000 1.636360 
# 
# From -- ./inp_files/37214.got.cif
#   From: 2010.05.17/outbox.cif.g08.bks.cpg/sg51_19_cif.got.tgz:37214.got - 2010.06.03 11:52:47.
