data_PCOD9403960
_publ_section_title
;
Structure prediction by ZEFSAII (Michael W. Deem and Ramdas Pophale) SiO2 
 PCOD9403960
Probable space group: P M M A
;
_chemical_formula_sum "Si O2"
_cell_formula_units_Z 64
_cell_length_a 8.632261
_cell_length_b 15.722840
_cell_length_c 25.221124
_cell_angle_alpha 90.000000
_cell_angle_beta 90.000000
_cell_angle_gamma 90.000000
_cell_volume 3423.103222
_symmetry_space_group_name_H-M "P M M A"
_symmetry_group_IT_number 51
_symmetry_cell_setting 'orthorhombic'
loop_
_space_group_symop_operation_xyz
x,y,z
1/2-x,-y,z
1/2+x,-y,-z
-x,y,-z
-x,-y,-z
1/2+x,y,-z
1/2-x,y,z
x,-y,z
loop_
_atom_site_type_symbol
_atom_site_label
_atom_site_fract_x
_atom_site_fract_y
_atom_site_fract_z
Si Si1 0.931537 0.092148 0.644133
Si Si2 0.064791 0.726638 0.767479
Si Si3 0.436364 0.277947 0.940284
Si Si4 0.435653 0.270230 0.645266
Si Si5 0.064487 0.401849 0.147286
Si Si6 0.937219 0.091354 0.060251
Si Si7 0.931743 0.093247 0.772735
Si Si8 0.062739 0.598138 0.557304
O O1 0.750000 0.097887 0.630809
O O2 0.941248 0.091748 0.708400
O O3 0.017103 0.176499 0.626044
O O4 0.991474 0.000000 0.625774
O O5 0.250000 0.719979 0.769193
O O6 0.010619 0.718943 0.706170
O O7 0.992447 0.652934 0.802784
O O8 0.018532 0.820711 0.788233
O O9 0.250000 0.280942 0.941113
O O10 0.500119 0.352472 0.903787
O O11 0.484856 0.183931 0.918344
O O12 0.500000 0.285092 0.000000
O O13 0.250000 0.274950 0.647028
O O14 0.492494 0.341624 0.604745
O O15 0.250000 0.400843 0.145607
O O16 0.012339 0.500000 0.149460
O O17 0.750000 0.091060 0.059457
O O18 0.988454 0.000000 0.083909
O O19 0.000000 0.091225 0.000000
O O20 0.750000 0.099584 0.786790
O O21 0.990851 0.000000 0.790506
O O22 0.250000 0.600777 0.555993
O O23 0.015754 0.500000 0.565864
O O24 0.000000 0.625249 0.500000
#
# Coordination Sequence:
#
# PCOD9403960 Si02
#       8
#     8   8   8   8   8   8   8   8
#     4   8  14  25  43  69 100 134 171 209 249 294
#     4  10  20  34  54  80 108 138 172 212 261 316
#     4  10  20  36  60  86 110 138 173 214 259 309
#     4   9  18  31  50  77 105 135 170 208 254 307
#     4  11  25  43  59  75 100 136 177 223 271 316
#     4   8  14  26  47  77 110 139 165 195 236 289
#     4   8  14  27  48  73 104 141 175 208 249 299
#     4   9  18  33  51  72 100 132 167 210 259 309
#
# _framework density 18.696486
#
# number of rings (size 3 to 8) (size 9 to 14) (size 15 to 20)
#    0.000    2.875    0.000    1.875    0.000    3.750 
#    0.000    4.375    0.000    4.125    0.000    0.000 
#    0.000    0.000    0.000    0.000    0.000    0.000 
#
# Total GULP energy -356643.144108 kJ/mol
# GULP energy per Si atom -5572.549127 kJ/mol
# Density = 1.865393 g / cm^3
# Si number density = 18.696486 Si / 1000 Ang^3
#
#
#
# Elastic Constant Matrix: (Units=GPa)
#
#
# Indices 1 2 3 4 5 6 
#
# 1 21.8353 38.3294 18.8404 0.0000 0.0000 0.0000
# 2 38.3294 191.6569 77.3638 0.0000 0.0000 0.0000
# 3 18.8404 77.3638 89.0771 0.0000 0.0000 0.0000
# 4 0.0000 0.0000 0.0000 110.1318 0.0000 0.0000
# 5 0.0000 0.0000 0.0000 0.0000 20.4779 0.0000
# 6 0.0000 0.0000 0.0000 0.0000 0.0000 25.5603
#
#
#
# Elastic Compliance Matrix: (Units=1/GPa)
#
#
# Indices 1 2 3 4 5 6 
#
# 1 0.071563 -0.012630 -0.004167 0.000000 0.000000 0.000000
# 2 -0.012630 0.010263 -0.006242 0.000000 0.000000 0.000000
# 3 -0.004167 -0.006242 0.017529 0.000000 0.000000 0.000000
# 4 0.000000 0.000000 0.000000 0.009080 0.000000 0.000000
# 5 0.000000 0.000000 0.000000 0.000000 0.048833 0.000000
# 6 0.000000 0.000000 0.000000 0.000000 0.000000 0.039123
#
#
# Mechanical properties :
#
#
# Convention : Reuss Voigt Hill
#
# Bulk Modulus (GPa) = 18.76987 63.51518 41.14252
# Shear Modulus (GPa) = 19.21383 42.43637 30.82510
#
# Velocity S-wave (km/s) = 3.20921 4.76936 4.06484
# Velocity P-wave (km/s) = 4.87781 8.02337 6.63956
#
# Compressibility (1/GPa) = 0.05327688
#
# Stress axis : x y z
#
# Youngs Moduli (GPa) = 13.97371 97.43472 57.04788
#
# Poissons Ratio (x) = 1.23058 0.23772
# Poissons Ratio (y) = 0.17649 0.35612
# Poissons Ratio (z) = 0.05823 0.60823
#
# Static dielectric constant tensor:
#      x y z
#    x 1.638730 0.000000 0.000000 
#    y 0.000000 1.675660 0.000000 
#    z 0.000000 0.000000 1.670540 
# 
# From -- ./inp_files/35007.got.cif
#   From: 2010.05.17/outbox.cif.g08.bks.cpg/sg51_18_cif.got.tgz:35007.got - 2010.06.03 11:52:47.
