data_PCOD9403315
_publ_section_title
;
Structure prediction by ZEFSAII (Michael W. Deem and Ramdas Pophale) SiO2 
 PCOD9403315
Probable space group: P M M A
;
_chemical_formula_sum "Si O2"
_cell_formula_units_Z 64
_cell_length_a 15.669646
_cell_length_b 9.258388
_cell_length_c 23.618660
_cell_angle_alpha 90.000000
_cell_angle_beta 90.000000
_cell_angle_gamma 90.000000
_cell_volume 3426.492747
_symmetry_space_group_name_H-M "P M M A"
_symmetry_group_IT_number 51
_symmetry_cell_setting 'orthorhombic'
loop_
_space_group_symop_operation_xyz
x,y,z
1/2-x,-y,z
1/2+x,-y,-z
-x,y,-z
-x,-y,-z
1/2+x,y,-z
1/2-x,y,z
x,-y,z
loop_
_atom_site_type_symbol
_atom_site_label
_atom_site_fract_x
_atom_site_fract_y
_atom_site_fract_z
Si Si1 0.595280 0.664617 0.078803
Si Si2 0.348341 0.835769 0.027500
Si Si3 0.150482 0.671670 0.454519
Si Si4 0.905762 0.334886 0.867790
Si Si5 0.153286 0.827335 0.574835
Si Si6 0.523613 0.826834 0.631840
Si Si7 0.842870 0.828207 0.186432
Si Si8 0.525066 0.173018 0.762130
O O1 0.624160 0.500000 0.070985
O O2 0.499531 0.662975 0.103151
O O3 0.648409 0.745783 0.127165
O O4 0.601255 0.747796 0.019919
O O5 0.250000 0.838272 0.008550
O O6 0.352457 0.758787 0.088095
O O7 0.379979 0.000000 0.032160
O O8 0.250000 0.695857 0.438437
O O9 0.136108 0.500000 0.457878
O O10 0.138788 0.743691 0.516106
O O11 0.086215 0.744423 0.410506
O O12 0.876004 0.500000 0.862662
O O13 0.918201 0.258655 0.807362
O O14 0.250000 0.793856 0.595074
O O15 0.075201 0.793789 0.616609
O O16 0.150428 0.000000 0.563986
O O17 0.542384 0.790883 0.697055
O O18 0.534497 0.000000 0.624795
O O19 0.750000 0.796535 0.212375
O O20 0.925667 0.792652 0.223777
O O21 0.846925 0.000000 0.175482
O O22 0.535875 0.000000 0.769884
#
# Coordination Sequence:
#
# PCOD9403315 Si02
#       8
#     8   8   8   8   8   8   8   8
#     4  10  20  33  51  76 103 130 163 203 248 302
#     4  11  23  36  52  76 102 127 160 204 254 307
#     4  10  21  36  54  78 108 142 181 224 270 317
#     4  10  21  37  55  74  98 131 169 206 248 299
#     4   9  18  33  54  82 116 148 176 211 258 313
#     4  10  20  34  55  82 109 141 181 221 263 311
#     4   9  17  30  49  73 102 136 171 207 250 302
#     4   9  19  35  53  74 102 136 174 214 254 300
#
# _framework density 18.677990999999999
#
# number of rings (size 3 to 8) (size 9 to 14) (size 15 to 20)
#    0.000    2.250    0.000    2.625    0.000    9.500 
#    0.000    3.125    0.000    0.750    0.000    3.500 
#    0.000    0.000    0.000    0.000    0.000    0.000 
#
# Total GULP energy -357167.678500 kJ/mol
# GULP energy per Si atom -5580.744977 kJ/mol
# Density = 1.863548 g / cm^3
# Si number density = 18.677991 Si / 1000 Ang^3
#
#
#
# Elastic Constant Matrix: (Units=GPa)
#
#
# Indices 1 2 3 4 5 6 
#
# 1 28.7079 12.8925 15.9233 0.0000 0.0000 0.0000
# 2 12.8925 46.6476 33.0315 0.0000 0.0000 0.0000
# 3 15.9233 33.0315 87.1490 0.0000 0.0000 0.0000
# 4 0.0000 0.0000 0.0000 -6.2371 0.0000 0.0000
# 5 0.0000 0.0000 0.0000 0.0000 12.5471 0.0000
# 6 0.0000 0.0000 0.0000 0.0000 0.0000 13.2358
#
#
#
# Elastic Compliance Matrix: (Units=1/GPa)
#
#
# Indices 1 2 3 4 5 6 
#
# 1 0.040949 -0.008228 -0.004363 0.000000 0.000000 0.000000
# 2 -0.008228 0.030955 -0.010229 0.000000 0.000000 0.000000
# 3 -0.004363 -0.010229 0.016149 0.000000 0.000000 0.000000
# 4 0.000000 0.000000 0.000000 -0.160330 0.000000 0.000000
# 5 0.000000 0.000000 0.000000 0.000000 0.079700 0.000000
# 6 0.000000 0.000000 0.000000 0.000000 0.000000 0.075553
#
#
# Mechanical properties :
#
#
# Convention : Reuss Voigt Hill
#
# Bulk Modulus (GPa) = 23.57835 31.79990 27.68912
# Shear Modulus (GPa) = 35.02560 10.61963 22.82261
#
# Velocity S-wave (km/s) = 4.33509 2.38704 3.49936
# Velocity P-wave (km/s) = 6.14072 4.96584 5.58426
#
# Compressibility (1/GPa) = 0.04241180
#
# Stress axis : x y z
#
# Youngs Moduli (GPa) = 24.42076 32.30525 61.92341
#
# Poissons Ratio (x) = 0.26580 0.27020
# Poissons Ratio (y) = 0.20093 0.63343
# Poissons Ratio (z) = 0.10656 0.33046
#
# Static dielectric constant tensor:
#      x y z
#    x 1.674420 0.000000 0.000000 
#    y 0.000000 1.634880 0.000000 
#    z 0.000000 0.000000 1.606310 
# 
# From -- ./inp_files/35804.got.cif
#   From: 2010.05.17/outbox.cif.g08.bks.cpg/sg51_18_cif.got.tgz:35804.got - 2010.06.03 11:52:47.
