data_PCOD9403033
_publ_section_title
;
Structure prediction by ZEFSAII (Michael W. Deem and Ramdas Pophale) SiO2 
 PCOD9403033
Probable space group: P M M A
;
_chemical_formula_sum "Si O2"
_cell_formula_units_Z 40
_cell_length_a 8.787744
_cell_length_b 13.880847
_cell_length_c 20.149243
_cell_angle_alpha 90.000000
_cell_angle_beta 90.000000
_cell_angle_gamma 90.000000
_cell_volume 2457.831458
_symmetry_space_group_name_H-M "P M M A"
_symmetry_group_IT_number 51
_symmetry_cell_setting 'orthorhombic'
loop_
_space_group_symop_operation_xyz
x,y,z
1/2-x,-y,z
1/2+x,-y,-z
-x,y,-z
-x,-y,-z
1/2+x,y,-z
1/2-x,y,z
x,-y,z
loop_
_atom_site_type_symbol
_atom_site_label
_atom_site_fract_x
_atom_site_fract_y
_atom_site_fract_z
Si Si1 0.431821 0.887383 0.790360
Si Si2 0.077201 0.114408 0.567179
Si Si3 0.928460 0.767231 0.673915
Si Si4 0.067483 0.387948 0.573301
Si Si5 0.923490 0.116453 0.932082
O O1 0.250000 0.886135 0.783341
O O2 0.501499 0.805874 0.742608
O O3 0.481327 0.864924 0.865662
O O4 0.480711 0.000000 0.776006
O O5 0.250000 0.151370 0.576275
O O6 0.000000 0.149906 0.500000
O O7 0.967086 0.143687 0.625800
O O8 0.087641 0.000000 0.563533
O O9 0.750000 0.749916 0.680802
O O10 0.003901 0.679339 0.632410
O O11 0.250000 0.379461 0.570116
O O12 0.028726 0.500000 0.586433
O O13 0.000000 0.365039 0.500000
O O14 0.750000 0.150982 0.925402
O O15 0.917392 0.000000 0.937355
O O16 0.000000 0.152265 0.000000
#
# Coordination Sequence:
#
# PCOD9403033 Si02
#       5
#     8   8   8   8   8
#     4  10  20  33  48  68  97 132 168 204 240 280
#     4  10  20  33  47  63  86 118 156 194 229 270
#     4  12  23  33  48  69  95 124 154 192 238 288
#     4  10  21  38  58  76  94 118 152 196 244 293
#     4   9  16  27  44  66  93 127 166 203 238 277
#
# _framework density 16.274508999999998
#
# number of rings (size 3 to 8) (size 9 to 14) (size 15 to 20)
#    0.000    1.800    0.000    5.400    0.000    8.400 
#    0.000    0.000    0.000    0.000    0.000    0.000 
#    0.000    0.800    0.000    3.000    0.000    4.600 
#
# Total GULP energy -222991.742003 kJ/mol
# GULP energy per Si atom -5574.793550 kJ/mol
# Density = 1.623747 g / cm^3
# Si number density = 16.274509 Si / 1000 Ang^3
#
#
#
# Elastic Constant Matrix: (Units=GPa)
#
#
# Indices 1 2 3 4 5 6 
#
# 1 94.0298 36.4433 44.4231 0.0000 0.0000 0.0000
# 2 36.4433 82.5308 44.2870 0.0000 0.0000 0.0000
# 3 44.4231 44.2870 119.9596 0.0000 0.0000 0.0000
# 4 0.0000 0.0000 0.0000 26.6182 0.0000 0.0000
# 5 0.0000 0.0000 0.0000 0.0000 29.3497 0.0000
# 6 0.0000 0.0000 0.0000 0.0000 0.0000 16.9308
#
#
#
# Elastic Compliance Matrix: (Units=1/GPa)
#
#
# Indices 1 2 3 4 5 6 
#
# 1 0.013984 -0.004235 -0.003615 0.000000 0.000000 0.000000
# 2 -0.004235 0.016393 -0.004484 0.000000 0.000000 0.000000
# 3 -0.003615 -0.004484 0.011330 0.000000 0.000000 0.000000
# 4 0.000000 0.000000 0.000000 0.037568 0.000000 0.000000
# 5 0.000000 0.000000 0.000000 0.000000 0.034072 0.000000
# 6 0.000000 0.000000 0.000000 0.000000 0.000000 0.059064
#
#
# Mechanical properties :
#
#
# Convention : Reuss Voigt Hill
#
# Bulk Modulus (GPa) = 58.68707 60.75857 59.72282
# Shear Modulus (GPa) = 24.65985 26.00420 25.33202
#
# Velocity S-wave (km/s) = 3.89684 4.00165 3.94959
# Velocity P-wave (km/s) = 7.50907 7.66587 7.58787
#
# Compressibility (1/GPa) = 0.01703953
#
# Stress axis : x y z
#
# Youngs Moduli (GPa) = 71.50910 61.00259 88.26043
#
# Poissons Ratio (x) = 0.25836 0.31907
# Poissons Ratio (y) = 0.30285 0.39572
# Poissons Ratio (z) = 0.25851 0.27351
#
# Static dielectric constant tensor:
#      x y z
#    x 1.561550 0.000000 0.000000 
#    y 0.000000 1.561130 0.000000 
#    z 0.000000 0.000000 1.533470 
# 
# From -- ./inp_files/27204.got.cif
#   From: 2010.05.17/outbox.cif.g08.bks.cpg/sg51_14_cif.got.tgz:27204.got - 2010.06.03 11:52:47.
