data_PCOD9403970
_publ_section_title
;
Structure prediction by ZEFSAII (Michael W. Deem and Ramdas Pophale) SiO2 
 PCOD9403970
Probable space group: P M M A
;
_chemical_formula_sum "Si O2"
_cell_formula_units_Z 44
_cell_length_a 9.332286
_cell_length_b 7.707538
_cell_length_c 31.146410
_cell_angle_alpha 90.000000
_cell_angle_beta 90.000000
_cell_angle_gamma 90.000000
_cell_volume 2240.328536
_symmetry_space_group_name_H-M "P M M A"
_symmetry_group_IT_number 51
_symmetry_cell_setting 'orthorhombic'
loop_
_space_group_symop_operation_xyz
x,y,z
1/2-x,-y,z
1/2+x,-y,-z
-x,y,-z
-x,-y,-z
1/2+x,y,-z
1/2-x,y,z
x,-y,z
loop_
_atom_site_type_symbol
_atom_site_label
_atom_site_fract_x
_atom_site_fract_y
_atom_site_fract_z
Si Si1 0.075753 0.801113 0.389070
Si Si2 0.088029 0.707871 0.790606
Si Si3 0.586836 0.791162 0.041460
Si Si4 0.412710 0.708900 0.127252
Si Si5 0.586727 0.791100 0.705886
Si Si6 0.423598 0.500000 0.454357
O O1 0.250000 0.804640 0.387685
O O2 0.033248 0.737208 0.341396
O O3 0.034993 0.668699 0.426282
O O4 0.027435 0.000000 0.395923
O O5 0.250000 0.776562 0.791841
O O6 0.095877 0.500000 0.795658
O O7 0.992921 0.775124 0.830172
O O8 0.012454 0.742068 0.745365
O O9 0.750000 0.725354 0.042484
O O10 0.502956 0.750010 0.084939
O O11 0.593628 0.000000 0.037967
O O12 0.500000 0.725861 0.000000
O O13 0.250000 0.774953 0.124181
O O14 0.405259 0.500000 0.130555
O O15 0.750000 0.726724 0.712634
O O16 0.593478 0.000000 0.703887
O O17 0.250000 0.500000 0.459134
O O18 0.500000 0.500000 0.500000
#
# Coordination Sequence:
#
# PCOD9403970 Si02
#       6
#     8   8   8   8   8   4
#     4   8  16  32  53  78 107 139 181 229 273 324
#     4  10  21  35  51  75 107 141 173 210 260 316
#     4  10  21  37  57  80 105 135 172 215 265 319
#     4  10  21  37  56  78 104 137 178 220 262 312
#     4   9  18  33  54  79 103 132 176 223 263 311
#     4  10  20  34  54  80 108 144 184 226 277 328
#
# _framework density 19.639976000000001
#
# number of rings (size 3 to 8) (size 9 to 14) (size 15 to 20)
#    0.000    2.545    0.000    2.727    1.273    5.091 
#    0.000    0.909    0.000    1.091    0.000    0.000 
#    0.000    0.000    0.000    0.000    0.000    0.000 
#
# Total GULP energy -245597.053563 kJ/mol
# GULP energy per Si atom -5581.751217 kJ/mol
# Density = 1.959527 g / cm^3
# Si number density = 19.639976 Si / 1000 Ang^3
#
#
#
# Elastic Constant Matrix: (Units=GPa)
#
#
# Indices 1 2 3 4 5 6 
#
# 1 142.4565 25.7033 104.2959 0.0000 0.0000 0.0000
# 2 25.7033 50.1798 38.8632 0.0000 0.0000 0.0000
# 3 104.2959 38.8632 214.7045 0.0000 0.0000 0.0000
# 4 0.0000 0.0000 0.0000 35.7931 0.0000 0.0000
# 5 0.0000 0.0000 0.0000 0.0000 37.2016 0.0000
# 6 0.0000 0.0000 0.0000 0.0000 0.0000 17.0871
#
#
#
# Elastic Compliance Matrix: (Units=1/GPa)
#
#
# Indices 1 2 3 4 5 6 
#
# 1 0.011024 -0.001744 -0.005039 0.000000 0.000000 0.000000
# 2 -0.001744 0.023453 -0.003398 0.000000 0.000000 0.000000
# 3 -0.005039 -0.003398 0.007721 0.000000 0.000000 0.000000
# 4 0.000000 0.000000 0.000000 0.027938 0.000000 0.000000
# 5 0.000000 0.000000 0.000000 0.000000 0.026881 0.000000
# 6 0.000000 0.000000 0.000000 0.000000 0.000000 0.058524
#
#
# Mechanical properties :
#
#
# Convention : Reuss Voigt Hill
#
# Bulk Modulus (GPa) = 45.79775 82.78508 64.29141
# Shear Modulus (GPa) = 27.29542 33.91494 30.60518
#
# Velocity S-wave (km/s) = 3.73203 4.16002 3.95183
# Velocity P-wave (km/s) = 6.47611 8.08191 7.32316
#
# Compressibility (1/GPa) = 0.02183513
#
# Stress axis : x y z
#
# Youngs Moduli (GPa) = 90.71364 42.63785 129.52408
#
# Poissons Ratio (x) = 0.07435 0.65271
# Poissons Ratio (y) = 0.15818 0.44015
# Poissons Ratio (z) = 0.45713 0.14489
#
# Static dielectric constant tensor:
#      x y z
#    x 1.681200 0.000000 0.000000 
#    y 0.000000 1.724980 0.000000 
#    z 0.000000 0.000000 1.658920 
# 
# From -- ./inp_files/36770.got.cif
#   From: 2010.05.17/outbox.cif.g08.bks.cpg/sg51_19_cif.got.tgz:36770.got - 2010.06.03 11:52:47.
