data_PCOD9403536
_publ_section_title
;
Structure prediction by ZEFSAII (Michael W. Deem and Ramdas Pophale) SiO2 
 PCOD9403536
Probable space group: P M M A
;
_chemical_formula_sum "Si O2"
_cell_formula_units_Z 56
_cell_length_a 8.341045
_cell_length_b 14.713551
_cell_length_c 22.011031
_cell_angle_alpha 90.000000
_cell_angle_beta 90.000000
_cell_angle_gamma 90.000000
_cell_volume 2701.334397
_symmetry_space_group_name_H-M "P M M A"
_symmetry_group_IT_number 51
_symmetry_cell_setting 'orthorhombic'
loop_
_space_group_symop_operation_xyz
x,y,z
1/2-x,-y,z
1/2+x,-y,-z
-x,y,-z
-x,-y,-z
1/2+x,y,-z
1/2-x,y,z
x,-y,z
loop_
_atom_site_type_symbol
_atom_site_label
_atom_site_fract_x
_atom_site_fract_y
_atom_site_fract_z
Si Si1 0.556739 0.301506 0.932337
Si Si2 0.559048 0.710959 0.564678
Si Si3 0.441945 0.102995 0.754713
Si Si4 0.056562 0.904861 0.068955
Si Si5 0.058233 0.707109 0.197874
Si Si6 0.941620 0.396274 0.317400
Si Si7 0.555767 0.101630 0.616550
O O1 0.750000 0.304454 0.935637
O O2 0.501201 0.197472 0.920105
O O3 0.507250 0.340457 0.866251
O O4 0.500000 0.330491 0.000000
O O5 0.500000 0.675664 0.500000
O O6 0.750000 0.712000 0.564014
O O7 0.504003 0.653618 0.622544
O O8 0.501107 0.814942 0.575143
O O9 0.250000 0.105059 0.760494
O O10 0.512280 0.186195 0.793253
O O11 0.490070 0.117944 0.684417
O O12 0.499298 0.000000 0.768675
O O13 0.250000 0.903343 0.074159
O O14 0.999327 0.000000 0.098963
O O15 0.000000 0.913743 0.000000
O O16 0.250000 0.704059 0.198926
O O17 0.992324 0.655883 0.256548
O O18 0.750000 0.396366 0.320077
O O19 0.000436 0.500000 0.315586
O O20 0.750000 0.103023 0.619744
O O21 0.505999 0.000000 0.597176
#
# Coordination Sequence:
#
# PCOD9403536 Si02
#       7
#     8   8   8   8   8   8   8
#     4   9  19  33  51  78 111 148 191 236 292 355
#     4  11  23  39  63  94 129 168 205 247 297 350
#     4  10  20  33  53  83 118 159 206 253 298 347
#     4   8  13  23  39  60  91 133 179 223 265 314
#     4  11  22  37  60  89 120 157 198 246 303 365
#     4  11  25  45  68  92 118 151 196 251 307 365
#     4   9  18  34  56  84 121 165 209 249 292 343
#
# _framework density 20.730495999999999
#
# number of rings (size 3 to 8) (size 9 to 14) (size 15 to 20)
#    0.000    2.143    1.429    1.714    0.000    4.857 
#    0.000    1.429    0.000    7.286    0.000    0.000 
#    0.000    0.000    0.000    0.000    0.000    0.000 
#
# Total GULP energy -312029.969763 kJ/mol
# GULP energy per Si atom -5571.963746 kJ/mol
# Density = 2.068331 g / cm^3
# Si number density = 20.730496 Si / 1000 Ang^3
#
#
#
# Elastic Constant Matrix: (Units=GPa)
#
#
# Indices 1 2 3 4 5 6 
#
# 1 23.7399 16.5034 21.5554 0.0000 0.0000 0.0000
# 2 16.5034 69.0283 51.0934 0.0000 0.0000 0.0000
# 3 21.5554 51.0934 178.6776 0.0000 0.0000 0.0000
# 4 0.0000 0.0000 0.0000 -3.0725 0.0000 0.0000
# 5 0.0000 0.0000 0.0000 0.0000 18.6946 0.0000
# 6 0.0000 0.0000 0.0000 0.0000 0.0000 16.7706
#
#
#
# Elastic Compliance Matrix: (Units=1/GPa)
#
#
# Indices 1 2 3 4 5 6 
#
# 1 0.052151 -0.009909 -0.003458 0.000000 0.000000 0.000000
# 2 -0.009909 0.020259 -0.004598 0.000000 0.000000 0.000000
# 3 -0.003458 -0.004598 0.007329 0.000000 0.000000 0.000000
# 4 0.000000 0.000000 0.000000 -0.325471 0.000000 0.000000
# 5 0.000000 0.000000 0.000000 0.000000 0.053491 0.000000
# 6 0.000000 0.000000 0.000000 0.000000 0.000000 0.059628
#
#
# Mechanical properties :
#
#
# Convention : Reuss Voigt Hill
#
# Bulk Modulus (GPa) = 22.82598 49.97225 36.39911
# Shear Modulus (GPa) = -60.91645 18.63145 -21.14250
#
# Velocity S-wave (km/s) = -5.42667 3.00116 -3.19701
# Velocity P-wave (km/s) = 5.31322 6.01392 1.99211
#
# Compressibility (1/GPa) = 0.04380973
#
# Stress axis : x y z
#
# Youngs Moduli (GPa) = 19.17493 49.36073 136.45227
#
# Poissons Ratio (x) = 0.48911 0.47185
# Poissons Ratio (y) = 0.19000 0.62737
# Poissons Ratio (z) = 0.06631 0.22695
#
# Static dielectric constant tensor:
#      x y z
#    x 1.714880 0.000000 0.000000 
#    y 0.000000 1.840160 0.000000 
#    z 0.000000 0.000000 1.690080 
# 
# From -- ./inp_files/31861.got.cif
#   From: 2010.05.17/outbox.cif.g08.bks.cpg/sg51_16_cif.got.tgz:31861.got - 2010.06.03 11:52:47.
