data_PCOD9403737
_publ_section_title
;
Structure prediction by ZEFSAII (Michael W. Deem and Ramdas Pophale) SiO2 
 PCOD9403737
Probable space group: P M M A
;
_chemical_formula_sum "Si O2"
_cell_formula_units_Z 56
_cell_length_a 18.440074
_cell_length_b 9.270612
_cell_length_c 19.328136
_cell_angle_alpha 90.000000
_cell_angle_beta 90.000000
_cell_angle_gamma 90.000000
_cell_volume 3304.159757
_symmetry_space_group_name_H-M "P M M A"
_symmetry_group_IT_number 51
_symmetry_cell_setting 'orthorhombic'
loop_
_space_group_symop_operation_xyz
x,y,z
1/2-x,-y,z
1/2+x,-y,-z
-x,y,-z
-x,-y,-z
1/2+x,y,-z
1/2-x,y,z
x,-y,z
loop_
_atom_site_type_symbol
_atom_site_label
_atom_site_fract_x
_atom_site_fract_y
_atom_site_fract_z
Si Si1 0.661739 0.665595 0.435816
Si Si2 0.034074 0.327365 0.072878
Si Si3 0.836796 0.830706 0.296180
Si Si4 0.914504 0.828340 0.717581
Si Si5 0.547457 0.328350 0.214522
Si Si6 0.832789 0.172199 0.859673
Si Si7 0.336093 0.171397 0.425622
O O1 0.750000 0.665913 0.436590
O O2 0.637631 0.500000 0.430699
O O3 0.640374 0.756934 0.368592
O O4 0.639048 0.740094 0.507370
O O5 0.045505 0.500000 0.070857
O O6 0.109305 0.250646 0.091750
O O7 0.979549 0.297372 0.136620
O O8 0.000000 0.281699 0.000000
O O9 0.750000 0.815604 0.289725
O O10 0.878697 0.749716 0.235369
O O11 0.854300 0.000000 0.297013
O O12 0.858033 0.802300 0.780355
O O13 0.879225 0.792532 0.644009
O O14 0.985305 0.736997 0.735854
O O15 0.931449 0.000000 0.718198
O O16 0.553285 0.500000 0.223057
O O17 0.750000 0.219392 0.869818
O O18 0.836582 0.000000 0.870855
O O19 0.250000 0.197923 0.414795
O O20 0.344072 0.000000 0.438962
#
# Coordination Sequence:
#
# PCOD9403737 Si02
#       7
#     8   8   8   8   8   8   8
#     4   9  17  29  46  69  97 128 162 203 249 291
#     4   9  19  36  55  75 102 136 169 199 239 294
#     4  10  20  35  55  75  95 123 161 204 248 296
#     4   9  17  30  48  70 100 135 166 199 241 290
#     4  10  20  34  53  75  98 125 159 200 244 291
#     4   9  17  30  50  77 105 133 168 207 245 287
#     4   9  16  27  45  69  97 131 169 204 240 286
#
# _framework density 16.948333999999999
#
# number of rings (size 3 to 8) (size 9 to 14) (size 15 to 20)
#    0.000    2.714    0.000    1.714    0.000    6.000 
#    0.000    1.429    0.000   11.143    0.000    0.000 
#    0.000    0.000    0.000    0.000    0.000    0.000 
#
# Total GULP energy -312272.465826 kJ/mol
# GULP energy per Si atom -5576.294033 kJ/mol
# Density = 1.690976 g / cm^3
# Si number density = 16.948334 Si / 1000 Ang^3
#
#
#
# Elastic Constant Matrix: (Units=GPa)
#
#
# Indices 1 2 3 4 5 6 
#
# 1 63.3356 50.5924 59.5490 0.0000 0.0000 0.0000
# 2 50.5924 73.1066 61.6039 0.0000 0.0000 0.0000
# 3 59.5490 61.6039 102.5889 0.0000 0.0000 0.0000
# 4 0.0000 0.0000 0.0000 27.3203 0.0000 0.0000
# 5 0.0000 0.0000 0.0000 0.0000 23.0024 0.0000
# 6 0.0000 0.0000 0.0000 0.0000 0.0000 24.9306
#
#
#
# Elastic Compliance Matrix: (Units=1/GPa)
#
#
# Indices 1 2 3 4 5 6 
#
# 1 0.044098 -0.018113 -0.014720 0.000000 0.000000 0.000000
# 2 -0.018113 0.035130 -0.010581 0.000000 0.000000 0.000000
# 3 -0.014720 -0.010581 0.024646 0.000000 0.000000 0.000000
# 4 0.000000 0.000000 0.000000 0.036603 0.000000 0.000000
# 5 0.000000 0.000000 0.000000 0.000000 0.043474 0.000000
# 6 0.000000 0.000000 0.000000 0.000000 0.000000 0.040111
#
#
# Mechanical properties :
#
#
# Convention : Reuss Voigt Hill
#
# Bulk Modulus (GPa) = 58.66972 64.72463 61.69718
# Shear Modulus (GPa) = 15.79412 19.53638 17.66525
#
# Velocity S-wave (km/s) = 3.05601 3.39883 3.23197
# Velocity P-wave (km/s) = 6.86617 7.32632 7.09997
#
# Compressibility (1/GPa) = 0.01704457
#
# Stress axis : x y z
#
# Youngs Moduli (GPa) = 22.67675 28.46568 40.57400
#
# Poissons Ratio (x) = 0.51560 0.59727
# Poissons Ratio (y) = 0.41075 0.42933
# Poissons Ratio (z) = 0.33381 0.30120
#
# Static dielectric constant tensor:
#      x y z
#    x 1.566320 0.000000 0.000000 
#    y 0.000000 1.565240 0.000000 
#    z 0.000000 0.000000 1.554560 
# 
# From -- ./inp_files/33696.got.cif
#   From: 2010.05.17/outbox.cif.g08.bks.cpg/sg51_17_cif.got.tgz:33696.got - 2010.06.03 11:52:47.
