data_PCOD9403080
_publ_section_title
;
Structure prediction by ZEFSAII (Michael W. Deem and Ramdas Pophale) SiO2 
 PCOD9403080
Probable space group: P M M A
;
_chemical_formula_sum "Si O2"
_cell_formula_units_Z 64
_cell_length_a 14.006265
_cell_length_b 9.336271
_cell_length_c 21.547197
_cell_angle_alpha 90.000000
_cell_angle_beta 90.000000
_cell_angle_gamma 90.000000
_cell_volume 2817.646920
_symmetry_space_group_name_H-M "P M M A"
_symmetry_group_IT_number 51
_symmetry_cell_setting 'orthorhombic'
loop_
_space_group_symop_operation_xyz
x,y,z
1/2-x,-y,z
1/2+x,-y,-z
-x,y,-z
-x,-y,-z
1/2+x,y,-z
1/2-x,y,z
x,-y,z
loop_
_atom_site_type_symbol
_atom_site_label
_atom_site_fract_x
_atom_site_fract_y
_atom_site_fract_z
Si Si1 0.366656 0.664433 0.840738
Si Si2 0.633430 0.832777 0.791784
Si Si3 0.133136 0.836165 0.717636
Si Si4 0.134948 0.833890 0.344297
Si Si5 0.608234 0.162819 0.519256
Si Si6 0.133158 0.335608 0.086323
Si Si7 0.366719 0.835540 0.963617
Si Si8 0.640146 0.341065 0.398890
O O1 0.250000 0.662903 0.840927
O O2 0.398245 0.500000 0.839066
O O3 0.394817 0.750162 0.779080
O O4 0.395824 0.744616 0.903581
O O5 0.750000 0.832278 0.792747
O O6 0.603672 0.779034 0.723212
O O7 0.602243 0.735583 0.849003
O O8 0.605600 0.000000 0.799532
O O9 0.250000 0.840034 0.716804
O O10 0.097737 0.760523 0.654503
O O11 0.101389 0.000000 0.720267
O O12 0.250000 0.834097 0.342103
O O13 0.112171 0.771586 0.411832
O O14 0.103265 0.000000 0.347155
O O15 0.500000 0.147236 0.500000
O O16 0.645471 0.264418 0.465190
O O17 0.648923 0.000000 0.519506
O O18 0.250000 0.336384 0.086557
O O19 0.102274 0.500000 0.079946
O O20 0.104220 0.240202 0.027524
O O21 0.250000 0.837404 0.963580
O O22 0.398362 0.000000 0.959643
O O23 0.750000 0.358478 0.379003
O O24 0.596583 0.500000 0.402202
#
# Coordination Sequence:
#
# PCOD9403080 Si02
#       8
#     8   8   8   8   8   8   8   8
#     4   9  15  22  32  48  73 104 138 177 219 261
#     4   8  13  22  36  52  70  97 135 175 213 255
#     4   9  16  26  41  60  81 107 142 184 226 267
#     4   8  14  26  45  66  87 114 149 187 225 267
#     4  10  20  33  50  72  96 122 152 187 230 280
#     4   9  15  21  29  44  68  97 130 171 217 259
#     4   9  15  21  29  42  64  99 141 177 209 253
#     4  10  20  33  49  69  92 120 155 193 233 277
#
# _framework density 22.713989000000002
#
# number of rings (size 3 to 8) (size 9 to 14) (size 15 to 20)
#    0.000    3.000    0.000    3.000    0.000    7.500 
#    0.000    0.625    0.000    2.250    0.000    0.000 
#    0.000    0.000    0.000    1.125    0.000   24.500 
#
# Total GULP energy -357508.624946 kJ/mol
# GULP energy per Si atom -5586.072265 kJ/mol
# Density = 2.266229 g / cm^3
# Si number density = 22.713989 Si / 1000 Ang^3
#
#
#
# Elastic Constant Matrix: (Units=GPa)
#
#
# Indices 1 2 3 4 5 6 
#
# 1 61.4257 6.8916 12.7970 0.0000 0.0000 0.0000
# 2 6.8916 189.9185 137.4962 0.0000 0.0000 0.0000
# 3 12.7970 137.4962 263.0753 0.0000 0.0000 0.0000
# 4 0.0000 0.0000 0.0000 50.2891 0.0000 0.0000
# 5 0.0000 0.0000 0.0000 0.0000 30.1694 0.0000
# 6 0.0000 0.0000 0.0000 0.0000 0.0000 1.7145
#
#
#
# Elastic Compliance Matrix: (Units=1/GPa)
#
#
# Indices 1 2 3 4 5 6 
#
# 1 0.016447 -0.000028 -0.000785 0.000000 0.000000 0.000000
# 2 -0.000028 0.008471 -0.004426 0.000000 0.000000 0.000000
# 3 -0.000785 -0.004426 0.006153 0.000000 0.000000 0.000000
# 4 0.000000 0.000000 0.000000 0.019885 0.000000 0.000000
# 5 0.000000 0.000000 0.000000 0.000000 0.033146 0.000000
# 6 0.000000 0.000000 0.000000 0.000000 0.000000 0.583268
#
#
# Mechanical properties :
#
#
# Convention : Reuss Voigt Hill
#
# Bulk Modulus (GPa) = 48.56473 92.08766 70.32620
# Shear Modulus (GPa) = 7.30235 40.25024 23.77629
#
# Velocity S-wave (km/s) = 1.79496 4.21413 3.23889
# Velocity P-wave (km/s) = 5.07181 8.01928 6.70940
#
# Compressibility (1/GPa) = 0.02059108
#
# Stress axis : x y z
#
# Youngs Moduli (GPa) = 60.80286 118.05547 162.53507
#
# Poissons Ratio (x) = 0.00334 0.12763
# Poissons Ratio (y) = 0.00172 0.71934
# Poissons Ratio (z) = 0.04774 0.52249
#
# Static dielectric constant tensor:
#      x y z
#    x 1.855750 0.000000 0.000000 
#    y 0.000000 1.796150 0.000000 
#    z 0.000000 0.000000 1.810840 
# 
# From -- ./inp_files/34086.got.cif
#   From: 2010.05.17/outbox.cif.g08.bks.cpg/sg51_18_cif.got.tgz:34086.got - 2010.06.03 11:52:47.
