data_PCOD9403864
_publ_section_title
;
Structure prediction by ZEFSAII (Michael W. Deem and Ramdas Pophale) SiO2 
 PCOD9403864
Probable space group: P M M A
;
_chemical_formula_sum "Si O2"
_cell_formula_units_Z 56
_cell_length_a 23.960403
_cell_length_b 8.715592
_cell_length_c 15.767161
_cell_angle_alpha 90.000000
_cell_angle_beta 90.000000
_cell_angle_gamma 90.000000
_cell_volume 3292.641989
_symmetry_space_group_name_H-M "P M M A"
_symmetry_group_IT_number 51
_symmetry_cell_setting 'orthorhombic'
loop_
_space_group_symop_operation_xyz
x,y,z
1/2-x,-y,z
1/2+x,-y,-z
-x,y,-z
-x,-y,-z
1/2+x,y,-z
1/2-x,y,z
x,-y,z
loop_
_atom_site_type_symbol
_atom_site_label
_atom_site_fract_x
_atom_site_fract_y
_atom_site_fract_z
Si Si1 0.315427 0.816395 0.315990
Si Si2 0.002264 0.184228 0.900119
Si Si3 0.313258 0.313475 0.000837
Si Si4 0.817589 0.324077 0.503685
Si Si5 0.815417 0.816282 0.323467
Si Si6 0.881618 0.684529 0.165085
Si Si7 0.886653 0.315444 0.837737
O O1 0.250000 0.770811 0.302856
O O2 0.333083 0.761746 0.409823
O O3 0.354822 0.742254 0.245521
O O4 0.318109 0.000000 0.311004
O O5 0.057559 0.250273 0.856344
O O6 0.947699 0.246530 0.852557
O O7 0.003248 0.000000 0.897461
O O8 0.000000 0.231396 0.000000
O O9 0.250000 0.257725 0.006976
O O10 0.312033 0.500000 0.001502
O O11 0.349780 0.265795 0.081069
O O12 0.342091 0.267052 0.913384
O O13 0.750000 0.325079 0.503259
O O14 0.836955 0.500000 0.505007
O O15 0.833653 0.241973 0.416344
O O16 0.750000 0.770616 0.310473
O O17 0.854057 0.745964 0.250881
O O18 0.817820 0.000000 0.320915
O O19 0.883926 0.500000 0.167433
O O20 0.889924 0.500000 0.836716
#
# Coordination Sequence:
#
# PCOD9403864 Si02
#       7
#     8   8   8   8   8   8   8
#     4  10  20  34  53  81 116 149 180 220 275 331
#     4  11  23  39  57  76 105 142 185 231 279 328
#     4   9  18  31  49  76 108 139 172 217 270 317
#     4   9  17  31  53  80 109 144 185 225 266 319
#     4  10  20  34  53  81 116 149 180 220 275 331
#     4  11  21  35  56  79 107 142 186 231 270 319
#     4  11  21  35  56  79 107 142 186 231 270 319
#
# _framework density 17.007618999999998
#
# number of rings (size 3 to 8) (size 9 to 14) (size 15 to 20)
#    0.000    1.857    1.429    3.429    0.000    5.143 
#    0.000    0.000    0.000    4.286    0.000    6.000 
#    0.000    0.000    0.000    0.000    0.000    0.000 
#
# Total GULP energy -312637.872036 kJ/mol
# GULP energy per Si atom -5582.819144 kJ/mol
# Density = 1.696891 g / cm^3
# Si number density = 17.007619 Si / 1000 Ang^3
#
#
#
# Elastic Constant Matrix: (Units=GPa)
#
#
# Indices 1 2 3 4 5 6 
#
# 1 54.8351 13.5420 8.9584 0.0000 0.0000 0.0000
# 2 13.5420 56.4467 23.1337 0.0000 0.0000 0.0000
# 3 8.9584 23.1337 98.8215 0.0000 0.0000 0.0000
# 4 0.0000 0.0000 0.0000 27.2021 0.0000 0.0000
# 5 0.0000 0.0000 0.0000 0.0000 -2.1496 0.0000
# 6 0.0000 0.0000 0.0000 0.0000 0.0000 21.6534
#
#
#
# Elastic Compliance Matrix: (Units=1/GPa)
#
#
# Indices 1 2 3 4 5 6 
#
# 1 0.019434 -0.004358 -0.000741 0.000000 0.000000 0.000000
# 2 -0.004358 0.020573 -0.004421 0.000000 0.000000 0.000000
# 3 -0.000741 -0.004421 0.011221 0.000000 0.000000 0.000000
# 4 0.000000 0.000000 0.000000 0.036762 0.000000 0.000000
# 5 0.000000 0.000000 0.000000 0.000000 -0.465197 0.000000
# 6 0.000000 0.000000 0.000000 0.000000 0.000000 0.046182
#
#
# Mechanical properties :
#
#
# Convention : Reuss Voigt Hill
#
# Bulk Modulus (GPa) = 31.06859 33.48571 32.27715
# Shear Modulus (GPa) = -16.59731 20.30579 1.85424
#
# Velocity S-wave (km/s) = -3.12729 3.45907 1.04528
# Velocity P-wave (km/s) = 2.29504 5.97369 4.52505
#
# Compressibility (1/GPa) = 0.03218685
#
# Stress axis : x y z
#
# Youngs Moduli (GPa) = 51.45623 48.60656 89.11532
#
# Poissons Ratio (x) = 0.21185 0.06607
# Poissons Ratio (y) = 0.22427 0.39398
# Poissons Ratio (z) = 0.03815 0.21489
#
# Static dielectric constant tensor:
#      x y z
#    x 1.553300 0.000000 0.000000 
#    y 0.000000 1.571500 0.000000 
#    z 0.000000 0.000000 1.556470 
# 
# From -- ./inp_files/25642.got.cif
#   From: 2010.05.17/outbox.cif.g08.bks.cpg/sg51_13_cif.got.tgz:25642.got - 2010.06.03 11:52:47.
