data_PCOD9403452
_publ_section_title
;
Structure prediction by ZEFSAII (Michael W. Deem and Ramdas Pophale) SiO2 
 PCOD9403452
Probable space group: P M M A
;
_chemical_formula_sum "Si O2"
_cell_formula_units_Z 56
_cell_length_a 16.959756
_cell_length_b 7.666356
_cell_length_c 19.116827
_cell_angle_alpha 90.000000
_cell_angle_beta 90.000000
_cell_angle_gamma 90.000000
_cell_volume 2485.560808
_symmetry_space_group_name_H-M "P M M A"
_symmetry_group_IT_number 51
_symmetry_cell_setting 'orthorhombic'
loop_
_space_group_symop_operation_xyz
x,y,z
1/2-x,-y,z
1/2+x,-y,-z
-x,y,-z
-x,-y,-z
1/2+x,y,-z
1/2-x,y,z
x,-y,z
loop_
_atom_site_type_symbol
_atom_site_label
_atom_site_fract_x
_atom_site_fract_y
_atom_site_fract_z
Si Si1 0.750000 0.784375 0.053782
Si Si2 0.662509 0.289010 0.665371
Si Si3 0.582021 0.198001 0.022962
Si Si4 0.991151 0.713946 0.579529
Si Si5 0.008252 0.297128 0.843398
Si Si6 0.250000 0.794752 0.785080
Si Si7 0.588788 0.708461 0.293392
Si Si8 0.835964 0.795799 0.829378
O O1 0.830699 0.728110 0.016041
O O2 0.750000 0.722944 0.135098
O O3 0.750000 0.000000 0.052581
O O4 0.750000 0.239901 0.639224
O O5 0.658720 0.500000 0.669062
O O6 0.590662 0.231845 0.616567
O O7 0.657109 0.226342 0.745433
O O8 0.565810 0.192899 0.106114
O O9 0.582043 0.000000 0.994586
O O10 0.500000 0.287119 0.000000
O O11 0.990740 0.500000 0.577920
O O12 0.061922 0.773145 0.630790
O O13 0.000000 0.773362 0.500000
O O14 0.030096 0.500000 0.848530
O O15 0.916133 0.278941 0.861176
O O16 0.024468 0.236485 0.764542
O O17 0.326906 0.749008 0.739760
O O18 0.250000 0.000000 0.794691
O O19 0.584080 0.500000 0.297989
O O20 0.750000 0.722215 0.849336
O O21 0.835318 0.000000 0.845579
#
# Coordination Sequence:
#
# PCOD9403452 Si02
#       8
#     4   8   8   8   8   4   8   8
#     4   9  18  35  59  87 113 148 195 236 282 338
#     4   9  16  29  50  75 102 134 175 221 270 321
#     4  10  21  39  61  84 116 156 196 239 285 339
#     4   9  17  32  52  77 109 144 184 231 282 337
#     4  11  21  35  58  84 114 145 183 236 289 339
#     4  11  21  35  59  85 113 146 187 236 286 344
#     4  10  20  35  55  83 112 142 185 237 289 340
#     4  10  20  33  52  79 108 141 182 223 269 329
#
# _framework density 22.530125999999999
#
# number of rings (size 3 to 8) (size 9 to 14) (size 15 to 20)
#    0.000    2.143    2.857    1.071    0.000    1.714 
#    2.571    0.357    0.000    1.714    0.000    0.000 
#    0.000    0.000    0.000    0.000    0.000    0.000 
#
# Total GULP energy -312665.782151 kJ/mol
# GULP energy per Si atom -5583.317538 kJ/mol
# Density = 2.247885 g / cm^3
# Si number density = 22.530126 Si / 1000 Ang^3
#
#
#
# Elastic Constant Matrix: (Units=GPa)
#
#
# Indices 1 2 3 4 5 6 
#
# 1 203.2331 -0.7529 52.0900 0.0000 0.0000 0.0000
# 2 -0.7529 39.3154 5.7836 0.0000 0.0000 0.0000
# 3 52.0900 5.7836 89.1580 0.0000 0.0000 0.0000
# 4 0.0000 0.0000 0.0000 13.6284 0.0000 0.0000
# 5 0.0000 0.0000 0.0000 0.0000 33.7100 0.0000
# 6 0.0000 0.0000 0.0000 0.0000 0.0000 2.9257
#
#
#
# Elastic Compliance Matrix: (Units=1/GPa)
#
#
# Indices 1 2 3 4 5 6 
#
# 1 0.005802 0.000616 -0.003430 0.000000 0.000000 0.000000
# 2 0.000616 0.025746 -0.002030 0.000000 0.000000 0.000000
# 3 -0.003430 -0.002030 0.013351 0.000000 0.000000 0.000000
# 4 0.000000 0.000000 0.000000 0.073376 0.000000 0.000000
# 5 0.000000 0.000000 0.000000 0.000000 0.029665 0.000000
# 6 0.000000 0.000000 0.000000 0.000000 0.000000 0.341801
#
#
# Mechanical properties :
#
#
# Convention : Reuss Voigt Hill
#
# Bulk Modulus (GPa) = 28.39985 49.54975 38.97480
# Shear Modulus (GPa) = 9.78157 28.35855 19.07006
#
# Velocity S-wave (km/s) = 2.08590 3.55166 2.91249
# Velocity P-wave (km/s) = 4.29348 6.23373 5.35226
#
# Compressibility (1/GPa) = 0.03521146
#
# Stress axis : x y z
#
# Youngs Moduli (GPa) = 172.36141 38.84142 74.89838
#
# Poissons Ratio (x) = -0.02391 0.25687
# Poissons Ratio (y) = -0.10611 0.15203
# Poissons Ratio (z) = 0.59113 0.07884
#
# Static dielectric constant tensor:
#      x y z
#    x 1.835150 0.000000 0.000000 
#    y 0.000000 1.835350 0.000000 
#    z 0.000000 0.000000 1.858580 
# 
# From -- ./inp_files/33539.got.cif
#   From: 2010.05.17/outbox.cif.g08.bks.cpg/sg51_17_cif.got.tgz:33539.got - 2010.06.03 11:52:47.
