data_PCOD9403122
_publ_section_title
;
Structure prediction by ZEFSAII (Michael W. Deem and Ramdas Pophale) SiO2 
 PCOD9403122
Probable space group: P M M A
;
_chemical_formula_sum "Si O2"
_cell_formula_units_Z 56
_cell_length_a 18.541638
_cell_length_b 9.070292
_cell_length_c 19.888004
_cell_angle_alpha 90.000000
_cell_angle_beta 90.000000
_cell_angle_gamma 90.000000
_cell_volume 3344.726145
_symmetry_space_group_name_H-M "P M M A"
_symmetry_group_IT_number 51
_symmetry_cell_setting 'orthorhombic'
loop_
_space_group_symop_operation_xyz
x,y,z
1/2-x,-y,z
1/2+x,-y,-z
-x,y,-z
-x,-y,-z
1/2+x,y,-z
1/2-x,y,z
x,-y,z
loop_
_atom_site_type_symbol
_atom_site_label
_atom_site_fract_x
_atom_site_fract_y
_atom_site_fract_z
Si Si1 0.431562 0.333062 0.949510
Si Si2 0.165376 0.321501 0.071500
Si Si3 0.960385 0.324157 0.428660
Si Si4 0.165441 0.331185 0.365827
Si Si5 0.967633 0.824321 0.849626
Si Si6 0.542144 0.174698 0.695297
Si Si7 0.665508 0.170871 0.491501
O O1 0.417924 0.500000 0.925117
O O2 0.462787 0.231048 0.891124
O O3 0.500000 0.340207 0.000000
O O4 0.364708 0.284577 0.996345
O O5 0.250000 0.280728 0.080921
O O6 0.160370 0.500000 0.077682
O O7 0.105988 0.250597 0.121674
O O8 0.955270 0.500000 0.423673
O O9 0.883078 0.247666 0.435970
O O10 0.000000 0.289718 0.500000
O O11 0.000504 0.258067 0.364288
O O12 0.250000 0.333040 0.351805
O O13 0.138602 0.500000 0.365629
O O14 0.123750 0.230183 0.313808
O O15 0.155291 0.260840 0.439397
O O16 0.979548 0.789268 0.771248
O O17 0.959620 0.000000 0.857040
O O18 0.536255 0.000000 0.684923
O O19 0.750000 0.175778 0.475196
O O20 0.644600 0.000000 0.501459
#
# Coordination Sequence:
#
# PCOD9403122 Si02
#       7
#     8   8   8   8   8   8   8
#     4   8  15  30  52  75  99 132 171 207 244 292
#     4   9  18  33  54  80 108 138 172 208 248 298
#     4  11  22  35  54  79 102 130 175 228 270 309
#     4  10  20  33  49  71  99 130 167 210 255 307
#     4  10  21  34  49  74 106 139 175 212 254 306
#     4  11  23  36  51  72 102 140 177 216 263 315
#     4  10  20  34  54  77 100 129 163 205 262 320
#
# _framework density 16.742775000000002
#
# number of rings (size 3 to 8) (size 9 to 14) (size 15 to 20)
#    0.000    2.143    1.429    3.000    0.000    8.000 
#    0.000    2.857    0.000    0.857    0.000    4.000 
#    0.000    0.000    0.000    0.000    0.000    0.000 
#
# Total GULP energy -312128.542406 kJ/mol
# GULP energy per Si atom -5573.723972 kJ/mol
# Density = 1.670467 g / cm^3
# Si number density = 16.742775 Si / 1000 Ang^3
#
#
#
# Elastic Constant Matrix: (Units=GPa)
#
#
# Indices 1 2 3 4 5 6 
#
# 1 35.7012 23.2110 30.7915 0.0000 0.0000 0.0000
# 2 23.2110 51.0241 48.8116 0.0000 0.0000 0.0000
# 3 30.7915 48.8116 98.2805 0.0000 0.0000 0.0000
# 4 0.0000 0.0000 0.0000 32.2764 0.0000 0.0000
# 5 0.0000 0.0000 0.0000 0.0000 17.3320 0.0000
# 6 0.0000 0.0000 0.0000 0.0000 0.0000 19.8390
#
#
#
# Elastic Compliance Matrix: (Units=1/GPa)
#
#
# Indices 1 2 3 4 5 6 
#
# 1 0.042171 -0.012468 -0.007020 0.000000 0.000000 0.000000
# 2 -0.012468 0.041026 -0.016469 0.000000 0.000000 0.000000
# 3 -0.007020 -0.016469 0.020554 0.000000 0.000000 0.000000
# 4 0.000000 0.000000 0.000000 0.030982 0.000000 0.000000
# 5 0.000000 0.000000 0.000000 0.000000 0.057697 0.000000
# 6 0.000000 0.000000 0.000000 0.000000 0.000000 0.050406
#
#
# Mechanical properties :
#
#
# Convention : Reuss Voigt Hill
#
# Bulk Modulus (GPa) = 31.41134 43.40377 37.40755
# Shear Modulus (GPa) = 15.36753 19.36893 17.36823
#
# Velocity S-wave (km/s) = 3.03291 3.40494 3.22430
# Velocity P-wave (km/s) = 5.57374 6.43726 6.02100
#
# Compressibility (1/GPa) = 0.03183564
#
# Stress axis : x y z
#
# Youngs Moduli (GPa) = 23.71311 24.37505 48.65277
#
# Poissons Ratio (x) = 0.30391 0.34153
# Poissons Ratio (y) = 0.29566 0.80127
# Poissons Ratio (z) = 0.16646 0.40144
#
# Static dielectric constant tensor:
#      x y z
#    x 1.598480 0.000000 0.000000 
#    y 0.000000 1.568270 0.000000 
#    z 0.000000 0.000000 1.563500 
# 
# From -- ./inp_files/33712.got.cif
#   From: 2010.05.17/outbox.cif.g08.bks.cpg/sg51_17_cif.got.tgz:33712.got - 2010.06.03 11:52:47.
