data_PCOD9403145
_publ_section_title
;
Structure prediction by ZEFSAII (Michael W. Deem and Ramdas Pophale) SiO2 
 PCOD9403145
Probable space group: P M M A
;
_chemical_formula_sum "Si O2"
_cell_formula_units_Z 48
_cell_length_a 7.672933
_cell_length_b 13.628550
_cell_length_c 24.935348
_cell_angle_alpha 90.000000
_cell_angle_beta 90.000000
_cell_angle_gamma 90.000000
_cell_volume 2607.513055
_symmetry_space_group_name_H-M "P M M A"
_symmetry_group_IT_number 51
_symmetry_cell_setting 'orthorhombic'
loop_
_space_group_symop_operation_xyz
x,y,z
1/2-x,-y,z
1/2+x,-y,-z
-x,y,-z
-x,-y,-z
1/2+x,y,-z
1/2-x,y,z
x,-y,z
loop_
_atom_site_type_symbol
_atom_site_label
_atom_site_fract_x
_atom_site_fract_y
_atom_site_fract_z
Si Si1 0.036872 0.892060 0.599363
Si Si2 0.959441 0.882634 0.173282
Si Si3 0.457428 0.683355 0.559093
Si Si4 0.952863 0.392559 0.672714
Si Si5 0.959281 0.112964 0.057606
Si Si6 0.951841 0.183702 0.286693
O O1 0.250000 0.891701 0.599279
O O2 0.981311 0.796867 0.565706
O O3 0.976635 0.871323 0.660643
O O4 0.979787 0.000000 0.581332
O O5 0.750000 0.865316 0.173454
O O6 0.023364 0.846131 0.114881
O O7 0.030780 0.838941 0.228655
O O8 0.985443 0.000000 0.174779
O O9 0.500000 0.646836 0.500000
O O10 0.250000 0.681928 0.566463
O O11 0.534293 0.623773 0.608700
O O12 0.750000 0.389429 0.687667
O O13 0.024379 0.500000 0.686216
O O14 0.040914 0.298786 0.699704
O O15 0.750000 0.108673 0.060914
O O16 0.025255 0.000000 0.055313
O O17 0.000000 0.159930 0.000000
O O18 0.750000 0.151880 0.284166
#
# Coordination Sequence:
#
# PCOD9403145 Si02
#       6
#     8   8   8   8   8   8
#     4   8  14  25  42  64  88 113 139 166 199 239
#     4   8  13  22  39  63  89 118 150 180 211 248
#     4  10  20  33  50  70  90 112 139 172 206 244
#     4  10  21  36  51  65  84 110 136 168 214 262
#     4   8  13  21  33  51  79 116 154 185 209 237
#     4   9  16  27  46  68  87 109 140 178 213 249
#
# _framework density 18.408346000000002
#
# number of rings (size 3 to 8) (size 9 to 14) (size 15 to 20)
#    0.000    3.167    0.000    3.500    0.000    4.000 
#    0.000    0.833    0.000   17.500    0.000    0.000 
#    0.000    0.667    0.000    1.500    0.000    2.667 
#
# Total GULP energy -267298.709498 kJ/mol
# GULP energy per Si atom -5568.723115 kJ/mol
# Density = 1.836645 g / cm^3
# Si number density = 18.408346 Si / 1000 Ang^3
#
#
#
# Elastic Constant Matrix: (Units=GPa)
#
#
# Indices 1 2 3 4 5 6 
#
# 1 33.5374 -10.2343 -8.6932 0.0000 0.0000 0.0000
# 2 -10.2343 23.3365 -19.3635 0.0000 0.0000 0.0000
# 3 -8.6932 -19.3635 102.7890 0.0000 0.0000 0.0000
# 4 0.0000 0.0000 0.0000 5.6422 0.0000 0.0000
# 5 0.0000 0.0000 0.0000 0.0000 11.9430 0.0000
# 6 0.0000 0.0000 0.0000 0.0000 0.0000 30.2348
#
#
#
# Elastic Compliance Matrix: (Units=1/GPa)
#
#
# Indices 1 2 3 4 5 6 
#
# 1 0.038996 0.023514 0.007728 0.000000 0.000000 0.000000
# 2 0.023514 0.064969 0.014227 0.000000 0.000000 0.000000
# 3 0.007728 0.014227 0.013062 0.000000 0.000000 0.000000
# 4 0.000000 0.000000 0.000000 0.177237 0.000000 0.000000
# 5 0.000000 0.000000 0.000000 0.000000 0.083731 0.000000
# 6 0.000000 0.000000 0.000000 0.000000 0.000000 0.033074
#
#
# Mechanical properties :
#
#
# Convention : Reuss Voigt Hill
#
# Bulk Modulus (GPa) = 4.80850 9.23122 7.01986
# Shear Modulus (GPa) = 12.83850 22.76092 17.79971
#
# Velocity S-wave (km/s) = 2.64375 3.52013 3.11293
# Velocity P-wave (km/s) = 3.45500 4.64191 4.09172
#
# Compressibility (1/GPa) = 0.20796498
#
# Stress axis : x y z
#
# Youngs Moduli (GPa) = 25.64364 15.39202 76.55566
#
# Poissons Ratio (x) = -0.36193 -0.59159
# Poissons Ratio (y) = -0.60298 -1.08919
# Poissons Ratio (z) = -0.19816 -0.21899
#
# Static dielectric constant tensor:
#      x y z
#    x 1.695050 0.000000 0.000000 
#    y 0.000000 1.621810 0.000000 
#    z 0.000000 0.000000 1.692830 
# 
# From -- ./inp_files/34628.got.cif
#   From: 2010.05.17/outbox.cif.g08.bks.cpg/sg51_18_cif.got.tgz:34628.got - 2010.06.03 11:52:47.
