data_PCOD9403018
_publ_section_title
;
Structure prediction by ZEFSAII (Michael W. Deem and Ramdas Pophale) SiO2 
 PCOD9403018
Probable space group: P M M A
;
_chemical_formula_sum "Si O2"
_cell_formula_units_Z 56
_cell_length_a 15.634008
_cell_length_b 7.524926
_cell_length_c 22.056825
_cell_angle_alpha 90.000000
_cell_angle_beta 90.000000
_cell_angle_gamma 90.000000
_cell_volume 2594.869735
_symmetry_space_group_name_H-M "P M M A"
_symmetry_group_IT_number 51
_symmetry_cell_setting 'orthorhombic'
loop_
_space_group_symop_operation_xyz
x,y,z
1/2-x,-y,z
1/2+x,-y,-z
-x,y,-z
-x,-y,-z
1/2+x,y,-z
1/2-x,y,z
x,-y,z
loop_
_atom_site_type_symbol
_atom_site_label
_atom_site_fract_x
_atom_site_fract_y
_atom_site_fract_z
Si Si1 0.750000 0.783637 0.396646
Si Si2 0.250000 0.294315 0.461773
Si Si3 0.559703 0.289304 0.554724
Si Si4 0.408503 0.706210 0.020282
Si Si5 0.429533 0.214373 0.661369
Si Si6 0.842740 0.214420 0.108411
Si Si7 0.982256 0.781674 0.205012
Si Si8 0.656364 0.206682 0.848819
O O1 0.750000 0.715727 0.465273
O O2 0.837244 0.725766 0.363576
O O3 0.750000 0.000000 0.398774
O O4 0.250000 0.500000 0.441169
O O5 0.342926 0.217031 0.442631
O O6 0.500000 0.216508 0.500000
O O7 0.569492 0.500000 0.542551
O O8 0.505134 0.265697 0.615526
O O9 0.421924 0.500000 0.035685
O O10 0.352219 0.721139 0.960217
O O11 0.500000 0.784434 0.000000
O O12 0.368502 0.788587 0.080137
O O13 0.449556 0.275048 0.729370
O O14 0.426479 0.000000 0.662611
O O15 0.750000 0.265942 0.133154
O O16 0.918837 0.276340 0.151427
O O17 0.846502 0.000000 0.106377
O O18 0.077270 0.718281 0.188921
O O19 0.982186 0.000000 0.204150
O O20 0.750000 0.287775 0.840423
O O21 0.661749 0.000000 0.831527
#
# Coordination Sequence:
#
# PCOD9403018 Si02
#       8
#     4   4   8   8   8   8   8   8
#     4  10  20  32  54  86 116 142 175 218 267 324
#     4  10  20  36  58  82 110 144 183 222 267 318
#     4  10  20  36  58  81 108 143 182 224 266 314
#     4  11  22  35  53  78 109 140 172 218 275 323
#     4  10  21  36  55  82 114 146 179 220 271 321
#     4  10  20  34  56  81 103 134 176 216 261 319
#     4   9  19  36  55  78 109 142 175 219 264 311
#     4  10  20  36  59  80 100 136 185 226 265 318
#
# _framework density 21.581043999999999
#
# number of rings (size 3 to 8) (size 9 to 14) (size 15 to 20)
#    0.000    2.000    2.857    0.857    1.000    3.714 
#    1.286    1.429    0.000    0.000    0.000    0.000 
#    0.000    0.000    0.000    0.000    0.000    0.000 
#
# Total GULP energy -312776.458574 kJ/mol
# GULP energy per Si atom -5585.293903 kJ/mol
# Density = 2.153192 g / cm^3
# Si number density = 21.581044 Si / 1000 Ang^3
#
#
#
# Elastic Constant Matrix: (Units=GPa)
#
#
# Indices 1 2 3 4 5 6 
#
# 1 201.3090 3.8545 47.7951 0.0000 0.0000 0.0000
# 2 3.8545 55.0667 -14.8444 0.0000 0.0000 0.0000
# 3 47.7951 -14.8444 86.0921 0.0000 0.0000 0.0000
# 4 0.0000 0.0000 0.0000 43.9659 0.0000 0.0000
# 5 0.0000 0.0000 0.0000 0.0000 4.5836 0.0000
# 6 0.0000 0.0000 0.0000 0.0000 0.0000 1.2076
#
#
#
# Elastic Compliance Matrix: (Units=1/GPa)
#
#
# Indices 1 2 3 4 5 6 
#
# 1 0.005814 -0.001339 -0.003459 0.000000 0.000000 0.000000
# 2 -0.001339 0.019354 0.004081 0.000000 0.000000 0.000000
# 3 -0.003459 0.004081 0.014239 0.000000 0.000000 0.000000
# 4 0.000000 0.000000 0.000000 0.022745 0.000000 0.000000
# 5 0.000000 0.000000 0.000000 0.000000 0.218169 0.000000
# 6 0.000000 0.000000 0.000000 0.000000 0.000000 0.828096
#
#
# Mechanical properties :
#
#
# Convention : Reuss Voigt Hill
#
# Bulk Modulus (GPa) = 26.33524 46.23090 36.28307
# Shear Modulus (GPa) = 4.45431 30.32893 17.39162
#
# Velocity S-wave (km/s) = 1.43822 3.75287 2.84187
# Velocity P-wave (km/s) = 3.87136 6.34407 5.25522
#
# Compressibility (1/GPa) = 0.03797193
#
# Stress axis : x y z
#
# Youngs Moduli (GPa) = 171.98858 51.67010 70.22819
#
# Poissons Ratio (x) = 0.06921 0.24291
# Poissons Ratio (y) = 0.23036 -0.28657
# Poissons Ratio (z) = 0.59488 -0.21085
#
# Static dielectric constant tensor:
#      x y z
#    x 1.822660 0.000000 0.000000 
#    y 0.000000 1.807260 0.000000 
#    z 0.000000 0.000000 1.715500 
# 
# From -- ./inp_files/33518.got.cif
#   From: 2010.05.17/outbox.cif.g08.bks.cpg/sg51_17_cif.got.tgz:33518.got - 2010.06.03 11:52:47.
