data_PCOD9403215
_publ_section_title
;
Structure prediction by ZEFSAII (Michael W. Deem and Ramdas Pophale) SiO2 
 PCOD9403215
Probable space group: P M M A
;
_chemical_formula_sum "Si O2"
_cell_formula_units_Z 40
_cell_length_a 27.316684
_cell_length_b 8.660612
_cell_length_c 9.392261
_cell_angle_alpha 90.000000
_cell_angle_beta 90.000000
_cell_angle_gamma 90.000000
_cell_volume 2222.013605
_symmetry_space_group_name_H-M "P M M A"
_symmetry_group_IT_number 51
_symmetry_cell_setting 'orthorhombic'
loop_
_space_group_symop_operation_xyz
x,y,z
1/2-x,-y,z
1/2+x,-y,-z
-x,y,-z
-x,-y,-z
1/2+x,y,-z
1/2-x,y,z
x,-y,z
loop_
_atom_site_type_symbol
_atom_site_label
_atom_site_fract_x
_atom_site_fract_y
_atom_site_fract_z
Si Si1 0.656151 0.313050 0.660213
Si Si2 0.250000 0.315087 0.832230
Si Si3 0.750000 0.311786 0.841756
Si Si4 0.550571 0.815854 0.346836
Si Si5 0.158757 0.815628 0.660226
Si Si6 0.048407 0.316229 0.332366
O O1 0.657063 0.500000 0.647247
O O2 0.701210 0.263296 0.758120
O O3 0.661703 0.243944 0.502377
O O4 0.602445 0.271361 0.722108
O O5 0.250000 0.500000 0.831084
O O6 0.298198 0.257203 0.751567
O O7 0.250000 0.260136 0.995400
O O8 0.750000 0.500000 0.841898
O O9 0.603849 0.777895 0.283471
O O10 0.500761 0.760947 0.271586
O O11 0.550556 0.734683 0.501690
O O12 0.548153 0.000000 0.367786
O O13 0.163870 0.000000 0.659622
O O14 0.043080 0.500000 0.323243
#
# Coordination Sequence:
#
# PCOD9403215 Si02
#       6
#     8   4   4   8   8   8
#     4   9  17  31  52  76 100 127 161 201 242 284
#     4  11  22  35  52  70  92 127 164 199 244 292
#     4   9  19  35  52  70  94 125 162 201 242 290
#     4   9  16  26  42  65  96 129 155 186 232 281
#     4  10  20  33  50  74 101 127 160 200 238 283
#     4   9  15  23  41  70  99 123 152 193 236 278
#
# _framework density 18.00169
#
# number of rings (size 3 to 8) (size 9 to 14) (size 15 to 20)
#    0.000    2.600    0.000    3.900    0.000    4.000 
#    0.000    2.000    0.000    1.200    0.000    8.400 
#    0.000    0.000    0.000    0.000    0.000    0.000 
#
# Total GULP energy -222826.500321 kJ/mol
# GULP energy per Si atom -5570.662508 kJ/mol
# Density = 1.796072 g / cm^3
# Si number density = 18.001690 Si / 1000 Ang^3
#
#
#
# Elastic Constant Matrix: (Units=GPa)
#
#
# Indices 1 2 3 4 5 6 
#
# 1 224.2189 44.5079 69.6683 0.0000 0.0000 0.0000
# 2 44.5079 35.3404 17.1735 0.0000 0.0000 0.0000
# 3 69.6683 17.1735 57.5969 0.0000 0.0000 0.0000
# 4 0.0000 0.0000 0.0000 185.4828 0.0000 0.0000
# 5 0.0000 0.0000 0.0000 0.0000 -4.2955 0.0000
# 6 0.0000 0.0000 0.0000 0.0000 0.0000 33.1398
#
#
#
# Elastic Compliance Matrix: (Units=1/GPa)
#
#
# Indices 1 2 3 4 5 6 
#
# 1 0.008244 -0.006475 -0.008041 0.000000 0.000000 0.000000
# 2 -0.006475 0.038176 -0.003551 0.000000 0.000000 0.000000
# 3 -0.008041 -0.003551 0.028147 0.000000 0.000000 0.000000
# 4 0.000000 0.000000 0.000000 0.005391 0.000000 0.000000
# 5 0.000000 0.000000 0.000000 0.000000 -0.232801 0.000000
# 6 0.000000 0.000000 0.000000 0.000000 0.000000 0.030175
#
#
# Mechanical properties :
#
#
# Convention : Reuss Voigt Hill
#
# Bulk Modulus (GPa) = 26.01911 64.42841 45.22376
# Shear Modulus (GPa) = -67.82075 55.25252 -6.28412
#
# Velocity S-wave (km/s) = -6.14463 5.54613 -1.87041
# Velocity P-wave (km/s) = 5.98806 8.76816 4.52901
#
# Compressibility (1/GPa) = 0.03843328
#
# Stress axis : x y z
#
# Youngs Moduli (GPa) = 121.30714 26.19441 35.52790
#
# Poissons Ratio (x) = 0.16960 0.28567
# Poissons Ratio (y) = 0.78542 0.12617
# Poissons Ratio (z) = 0.97540 0.09302
#
# Static dielectric constant tensor:
#      x y z
#    x 1.690250 0.000000 0.000000 
#    y 0.000000 1.605270 0.000000 
#    z 0.000000 0.000000 1.564070 
# 
# From -- ./inp_files/12215.got.cif
#   From: 2010.05.17/outbox.cif.g08.bks.cpg/sg51_7_cif.got.tgz:12215.got - 2010.06.03 11:52:47.
