data_PCOD9403602
_publ_section_title
;
Structure prediction by ZEFSAII (Michael W. Deem and Ramdas Pophale) SiO2 
 PCOD9403602
Probable space group: P M M A
;
_chemical_formula_sum "Si O2"
_cell_formula_units_Z 56
_cell_length_a 17.555130
_cell_length_b 9.989742
_cell_length_c 18.768306
_cell_angle_alpha 90.000000
_cell_angle_beta 90.000000
_cell_angle_gamma 90.000000
_cell_volume 3291.420711
_symmetry_space_group_name_H-M "P M M A"
_symmetry_group_IT_number 51
_symmetry_cell_setting 'orthorhombic'
loop_
_space_group_symop_operation_xyz
x,y,z
1/2-x,-y,z
1/2+x,-y,-z
-x,y,-z
-x,-y,-z
1/2+x,y,-z
1/2-x,y,z
x,-y,z
loop_
_atom_site_type_symbol
_atom_site_label
_atom_site_fract_x
_atom_site_fract_y
_atom_site_fract_z
Si Si1 0.158527 0.651896 0.942993
Si Si2 0.421685 0.154464 0.044789
Si Si3 0.912740 0.152609 0.787356
Si Si4 0.014287 0.659114 0.417382
Si Si5 0.840893 0.150561 0.179294
Si Si6 0.436718 0.848005 0.690309
Si Si7 0.162486 0.659371 0.325163
O O1 0.250000 0.645755 0.939122
O O2 0.129083 0.500000 0.943929
O O3 0.130435 0.737617 0.875099
O O4 0.134663 0.737864 0.010982
O O5 0.427517 0.178474 0.129315
O O6 0.395568 0.000000 0.034917
O O7 0.500000 0.167284 0.000000
O O8 0.859585 0.256485 0.745203
O O9 0.992760 0.157103 0.745642
O O10 0.882843 0.000000 0.781020
O O11 0.003340 0.500000 0.408099
O O12 0.098876 0.690740 0.385845
O O13 0.000000 0.690584 0.500000
O O14 0.955149 0.742471 0.370187
O O15 0.750000 0.146501 0.173141
O O16 0.864590 0.180131 0.259968
O O17 0.870338 0.000000 0.161761
O O18 0.431940 0.000000 0.662372
O O19 0.250000 0.687757 0.346234
O O20 0.156670 0.500000 0.310919
#
# Coordination Sequence:
#
# PCOD9403602 Si02
#       7
#     8   8   8   8   8   8   8
#     4  10  21  34  47  67  96 128 162 201 245 292
#     4  10  20  34  51  70  94 126 166 209 252 299
#     4   9  18  31  48  70  94 122 158 201 244 285
#     4   9  18  33  52  74 100 129 160 192 230 282
#     4   9  17  31  51  71  93 125 162 198 238 286
#     4   9  17  31  51  73  96 122 155 194 235 280
#     4   9  18  33  52  72  96 128 163 198 238 285
#
# _framework density 17.013929999999998
#
# number of rings (size 3 to 8) (size 9 to 14) (size 15 to 20)
#    0.000    2.714    0.000    1.286    0.000    5.714 
#    0.000    6.429    0.000    0.857    0.000    0.000 
#    0.000    0.000    0.000    0.000    0.000    0.000 
#
# Total GULP energy -311966.741393 kJ/mol
# GULP energy per Si atom -5570.834668 kJ/mol
# Density = 1.697521 g / cm^3
# Si number density = 17.013930 Si / 1000 Ang^3
#
#
#
# Elastic Constant Matrix: (Units=GPa)
#
#
# Indices 1 2 3 4 5 6 
#
# 1 25.9325 28.3524 20.8761 0.0000 0.0000 0.0000
# 2 28.3524 85.2178 72.6772 0.0000 0.0000 0.0000
# 3 20.8761 72.6772 127.2864 0.0000 0.0000 0.0000
# 4 0.0000 0.0000 0.0000 -301.6823 0.0000 0.0000
# 5 0.0000 0.0000 0.0000 0.0000 17.3637 0.0000
# 6 0.0000 0.0000 0.0000 0.0000 0.0000 16.1815
#
#
#
# Elastic Compliance Matrix: (Units=1/GPa)
#
#
# Indices 1 2 3 4 5 6 
#
# 1 0.061228 -0.023013 0.003098 0.000000 0.000000 0.000000
# 2 -0.023013 0.031522 -0.014224 0.000000 0.000000 0.000000
# 3 0.003098 -0.014224 0.015470 0.000000 0.000000 0.000000
# 4 0.000000 0.000000 0.000000 -0.003315 0.000000 0.000000
# 5 0.000000 0.000000 0.000000 0.000000 0.057591 0.000000
# 6 0.000000 0.000000 0.000000 0.000000 0.000000 0.061799
#
#
# Mechanical properties :
#
#
# Convention : Reuss Voigt Hill
#
# Bulk Modulus (GPa) = 25.03636 53.58312 39.30974
# Shear Modulus (GPa) = 16.34588 -45.85870 -14.75641
#
# Velocity S-wave (km/s) = 3.10294 -5.19732 -2.94821
# Velocity P-wave (km/s) = 5.25212 2.11048 3.40078
#
# Compressibility (1/GPa) = 0.03994190
#
# Stress axis : x y z
#
# Youngs Moduli (GPa) = 16.33231 31.72404 64.64273
#
# Poissons Ratio (x) = 0.73006 -0.20025
# Poissons Ratio (y) = 0.37585 0.91947
# Poissons Ratio (z) = -0.05059 0.45124
#
# Static dielectric constant tensor:
#      x y z
#    x 1.600420 0.000000 0.000000 
#    y 0.000000 1.583780 0.000000 
#    z 0.000000 0.000000 1.559940 
# 
# From -- ./inp_files/30386.got.cif
#   From: 2010.05.17/outbox.cif.g08.bks.cpg/sg51_16_cif.got.tgz:30386.got - 2010.06.03 11:52:47.
