data_PCOD9403515
_publ_section_title
;
Structure prediction by ZEFSAII (Michael W. Deem and Ramdas Pophale) SiO2 
 PCOD9403515
Probable space group: P M M A
;
_chemical_formula_sum "Si O2"
_cell_formula_units_Z 56
_cell_length_a 19.642613
_cell_length_b 8.008530
_cell_length_c 16.927856
_cell_angle_alpha 90.000000
_cell_angle_beta 90.000000
_cell_angle_gamma 90.000000
_cell_volume 2662.894882
_symmetry_space_group_name_H-M "P M M A"
_symmetry_group_IT_number 51
_symmetry_cell_setting 'orthorhombic'
loop_
_space_group_symop_operation_xyz
x,y,z
1/2-x,-y,z
1/2+x,-y,-z
-x,y,-z
-x,-y,-z
1/2+x,y,-z
1/2-x,y,z
x,-y,z
loop_
_atom_site_type_symbol
_atom_site_label
_atom_site_fract_x
_atom_site_fract_y
_atom_site_fract_z
Si Si1 0.046210 0.201375 0.926736
Si Si2 0.827346 0.698953 0.350155
Si Si3 0.418519 0.694680 0.340565
Si Si4 0.922438 0.806349 0.492735
Si Si5 0.172998 0.796056 0.019584
Si Si6 0.168454 0.197563 0.195279
Si Si7 0.049932 0.700605 0.749197
O O1 0.030591 0.257224 0.838603
O O2 0.042386 0.000000 0.926557
O O3 0.122080 0.255275 0.951341
O O4 0.000000 0.259672 0.000000
O O5 0.750000 0.766899 0.353530
O O6 0.821436 0.500000 0.339554
O O7 0.871793 0.726348 0.429398
O O8 0.876309 0.763678 0.279571
O O9 0.425259 0.500000 0.360988
O O10 0.394090 0.787695 0.418633
O O11 0.368698 0.712749 0.266392
O O12 0.491412 0.762269 0.310348
O O13 0.000000 0.736215 0.500000
O O14 0.928476 0.000000 0.470821
O O15 0.250000 0.738642 0.008118
O O16 0.148246 0.744934 0.107103
O O17 0.173985 0.000000 0.021678
O O18 0.250000 0.216170 0.199897
O O19 0.152749 0.000000 0.201224
O O20 0.049886 0.500000 0.742736
#
# Coordination Sequence:
#
# PCOD9403515 Si02
#       7
#     8   8   8   8   8   8   8
#     4  10  20  33  53  81 110 143 189 239 284 336
#     4  10  22  42  65  87 117 157 196 236 286 345
#     4  11  22  36  58  83 113 151 188 228 278 340
#     4  11  23  39  62  89 115 146 187 237 288 338
#     4   8  15  30  51  74 103 141 182 226 281 336
#     4   9  18  34  56  81 111 146 186 236 286 333
#     4  10  22  38  56  82 114 150 190 234 284 338
#
# _framework density 21.029744000000001
#
# number of rings (size 3 to 8) (size 9 to 14) (size 15 to 20)
#    0.000    2.143    1.429    2.571    0.000    5.429 
#    0.000    0.714    0.000    0.857    0.000    0.000 
#    0.000    0.000    0.000    0.000    0.000    0.000 
#
# Total GULP energy -312593.749974 kJ/mol
# GULP energy per Si atom -5582.031250 kJ/mol
# Density = 2.098188 g / cm^3
# Si number density = 21.029744 Si / 1000 Ang^3
#
#
#
# Elastic Constant Matrix: (Units=GPa)
#
#
# Indices 1 2 3 4 5 6 
#
# 1 60.4597 10.9389 27.4102 0.0000 0.0000 0.0000
# 2 10.9389 18.7469 -1.4475 0.0000 0.0000 0.0000
# 3 27.4102 -1.4475 97.8600 0.0000 0.0000 0.0000
# 4 0.0000 0.0000 0.0000 23.2642 0.0000 0.0000
# 5 0.0000 0.0000 0.0000 0.0000 31.9409 0.0000
# 6 0.0000 0.0000 0.0000 0.0000 0.0000 13.5186
#
#
#
# Elastic Compliance Matrix: (Units=1/GPa)
#
#
# Indices 1 2 3 4 5 6 
#
# 1 0.021782 -0.013196 -0.006296 0.000000 0.000000 0.000000
# 2 -0.013196 0.061397 0.004604 0.000000 0.000000 0.000000
# 3 -0.006296 0.004604 0.012050 0.000000 0.000000 0.000000
# 4 0.000000 0.000000 0.000000 0.042985 0.000000 0.000000
# 5 0.000000 0.000000 0.000000 0.000000 0.031308 0.000000
# 6 0.000000 0.000000 0.000000 0.000000 0.000000 0.073972
#
#
# Mechanical properties :
#
#
# Convention : Reuss Voigt Hill
#
# Bulk Modulus (GPa) = 15.27791 27.87442 21.57616
# Shear Modulus (GPa) = 16.94409 23.08908 20.01659
#
# Velocity S-wave (km/s) = 2.84160 3.31709 3.08851
# Velocity P-wave (km/s) = 4.24817 5.28718 4.79590
#
# Compressibility (1/GPa) = 0.06545398
#
# Stress axis : x y z
#
# Youngs Moduli (GPa) = 45.90961 16.28732 82.98523
#
# Poissons Ratio (x) = 0.21493 0.52249
# Poissons Ratio (y) = 0.60582 -0.38209
# Poissons Ratio (z) = 0.28906 -0.07499
#
# Static dielectric constant tensor:
#      x y z
#    x 1.791840 0.000000 0.000000 
#    y 0.000000 1.757820 0.000000 
#    z 0.000000 0.000000 1.731560 
# 
# From -- ./inp_files/25651.got.cif
#   From: 2010.05.17/outbox.cif.g08.bks.cpg/sg51_13_cif.got.tgz:25651.got - 2010.06.03 11:52:47.
