data_PCOD9403086
_publ_section_title
;
Structure prediction by ZEFSAII (Michael W. Deem and Ramdas Pophale) SiO2 
 PCOD9403086
Probable space group: P M M A
;
_chemical_formula_sum "Si O2"
_cell_formula_units_Z 40
_cell_length_a 9.277692
_cell_length_b 7.357747
_cell_length_c 26.598461
_cell_angle_alpha 90.000000
_cell_angle_beta 90.000000
_cell_angle_gamma 90.000000
_cell_volume 1815.688362
_symmetry_space_group_name_H-M "P M M A"
_symmetry_group_IT_number 51
_symmetry_cell_setting 'orthorhombic'
loop_
_space_group_symop_operation_xyz
x,y,z
1/2-x,-y,z
1/2+x,-y,-z
-x,y,-z
-x,-y,-z
1/2+x,y,-z
1/2-x,y,z
x,-y,z
loop_
_atom_site_type_symbol
_atom_site_label
_atom_site_fract_x
_atom_site_fract_y
_atom_site_fract_z
Si Si1 0.913587 0.217107 0.351276
Si Si2 0.416282 0.277940 0.849529
Si Si3 0.583788 0.221989 0.550226
Si Si4 0.413600 0.282895 0.249006
Si Si5 0.916266 0.278267 0.949897
O O1 0.750000 0.287374 0.348688
O O2 0.000816 0.283996 0.399824
O O3 0.000085 0.249987 0.300159
O O4 0.904111 0.000000 0.357143
O O5 0.250000 0.220515 0.849839
O O6 0.415897 0.500000 0.849288
O O7 0.498985 0.216082 0.799508
O O8 0.500351 0.221481 0.899665
O O9 0.500000 0.277888 0.500000
O O10 0.750000 0.279678 0.549965
O O11 0.584316 0.000000 0.550552
O O12 0.250000 0.212623 0.251524
O O13 0.404134 0.500000 0.243142
O O14 0.750000 0.220451 0.949903
O O15 0.915922 0.500000 0.949992
O O16 0.000000 0.220650 0.000000
#
# Coordination Sequence:
#
# PCOD9403086 Si02
#       5
#     8   8   8   8   8
#     4  10  20  33  50  73  99 126 158 196 236 278
#     4   9  16  26  40  58  82 114 151 189 230 277
#     4   9  16  27  45  69  96 124 154 190 232 277
#     4  10  20  33  49  69  94 126 162 197 235 282
#     4   9  15  22  33  51  77 109 145 185 229 276
#
# _framework density 22.030213
#
# number of rings (size 3 to 8) (size 9 to 14) (size 15 to 20)
#    0.000    2.600    0.000    3.000    0.000    9.600 
#    0.000    0.000    0.000    0.600    0.000    0.000 
#    0.000    0.800    0.000    3.000    0.000    6.600 
#
# Total GULP energy -223646.330750 kJ/mol
# GULP energy per Si atom -5591.158269 kJ/mol
# Density = 2.198007 g / cm^3
# Si number density = 22.030213 Si / 1000 Ang^3
#
#
#
# Elastic Constant Matrix: (Units=GPa)
#
#
# Indices 1 2 3 4 5 6 
#
# 1 293.4757 8.6812 182.2046 0.0000 0.0000 0.0000
# 2 8.6812 82.0198 2.0473 0.0000 0.0000 0.0000
# 3 182.2046 2.0473 277.9187 0.0000 0.0000 0.0000
# 4 0.0000 0.0000 0.0000 13.9745 0.0000 0.0000
# 5 0.0000 0.0000 0.0000 0.0000 49.5797 0.0000
# 6 0.0000 0.0000 0.0000 0.0000 0.0000 -0.5919
#
#
#
# Elastic Compliance Matrix: (Units=1/GPa)
#
#
# Indices 1 2 3 4 5 6 
#
# 1 0.005768 -0.000516 -0.003778 0.000000 0.000000 0.000000
# 2 -0.000516 0.012241 0.000248 0.000000 0.000000 0.000000
# 3 -0.003778 0.000248 0.006073 0.000000 0.000000 0.000000
# 4 0.000000 0.000000 0.000000 0.071559 0.000000 0.000000
# 5 0.000000 0.000000 0.000000 0.000000 0.020170 0.000000
# 6 0.000000 0.000000 0.000000 0.000000 0.000000 -1.689476
#
#
# Mechanical properties :
#
#
# Convention : Reuss Voigt Hill
#
# Bulk Modulus (GPa) = 62.53784 115.47559 89.00671
# Shear Modulus (GPa) = -3.20463 43.29122 20.04330
#
# Velocity S-wave (km/s) = -1.20740 4.43774 3.01958
# Velocity P-wave (km/s) = 5.14832 8.87630 7.25582
#
# Compressibility (1/GPa) = 0.01599032
#
# Stress axis : x y z
#
# Youngs Moduli (GPa) = 173.36490 81.69525 164.66022
#
# Poissons Ratio (x) = 0.04217 0.62206
# Poissons Ratio (y) = 0.08949 -0.04088
# Poissons Ratio (z) = 0.65494 -0.02028
#
# Static dielectric constant tensor:
#      x y z
#    x 1.753840 0.000000 0.000000 
#    y 0.000000 1.923460 0.000000 
#    z 0.000000 0.000000 1.733930 
# 
# From -- ./inp_files/31364.got.cif
#   From: 2010.05.17/outbox.cif.g08.bks.cpg/sg51_16_cif.got.tgz:31364.got - 2010.06.03 11:52:47.
