data_PCOD9403699
_publ_section_title
;
Structure prediction by ZEFSAII (Michael W. Deem and Ramdas Pophale) SiO2 
 PCOD9403699
Probable space group: P M M A
;
_chemical_formula_sum "Si O2"
_cell_formula_units_Z 44
_cell_length_a 9.317049
_cell_length_b 7.762000
_cell_length_c 31.142047
_cell_angle_alpha 90.000000
_cell_angle_beta 90.000000
_cell_angle_gamma 90.000000
_cell_volume 2252.159652
_symmetry_space_group_name_H-M "P M M A"
_symmetry_group_IT_number 51
_symmetry_cell_setting 'orthorhombic'
loop_
_space_group_symop_operation_xyz
x,y,z
1/2-x,-y,z
1/2+x,-y,-z
-x,y,-z
-x,-y,-z
1/2+x,y,-z
1/2-x,y,z
x,-y,z
loop_
_atom_site_type_symbol
_atom_site_label
_atom_site_fract_x
_atom_site_fract_y
_atom_site_fract_z
Si Si1 0.412481 0.792686 0.288673
Si Si2 0.424557 0.802631 0.889862
Si Si3 0.912672 0.705409 0.374016
Si Si4 0.076080 0.500000 0.954274
Si Si5 0.912380 0.206151 0.540925
Si Si6 0.584809 0.789666 0.205777
O O1 0.250000 0.727481 0.293399
O O2 0.506970 0.753189 0.330253
O O3 0.488275 0.729215 0.245175
O O4 0.405570 0.000000 0.285282
O O5 0.250000 0.806028 0.888485
O O6 0.465467 0.668112 0.926406
O O7 0.467967 0.743306 0.841952
O O8 0.472482 0.000000 0.897322
O O9 0.750000 0.775198 0.374837
O O10 0.904908 0.500000 0.375817
O O11 0.002556 0.763504 0.415223
O O12 0.250000 0.500000 0.958938
O O13 0.000000 0.500000 0.000000
O O14 0.750000 0.274861 0.542906
O O15 0.000000 0.275166 0.500000
O O16 0.902015 0.000000 0.535500
O O17 0.750000 0.732852 0.211376
O O18 0.586848 0.000000 0.206097
#
# Coordination Sequence:
#
# PCOD9403699 Si02
#       6
#     8   8   8   4   8   8
#     4  10  20  34  54  80 109 141 175 214 266 324
#     4   8  15  30  52  76 103 138 180 224 271 323
#     4  11  24  39  54  76 107 143 182 221 262 312
#     4  10  20  34  52  76 106 140 180 226 273 326
#     4  10  21  38  61  86 108 134 172 217 266 320
#     4   8  14  28  51  75  99 131 172 215 258 308
#
# _framework density 19.536804
#
# number of rings (size 3 to 8) (size 9 to 14) (size 15 to 20)
#    0.000    2.545    0.000    3.273    0.000    6.545 
#    1.636    0.909    0.000    1.091    0.000    0.000 
#    0.000    0.000    0.000    0.000    0.000    0.000 
#
# Total GULP energy -245575.565701 kJ/mol
# GULP energy per Si atom -5581.262857 kJ/mol
# Density = 1.949234 g / cm^3
# Si number density = 19.536804 Si / 1000 Ang^3
#
#
#
# Elastic Constant Matrix: (Units=GPa)
#
#
# Indices 1 2 3 4 5 6 
#
# 1 137.4090 25.4105 99.3397 0.0000 0.0000 0.0000
# 2 25.4105 51.0900 39.3116 0.0000 0.0000 0.0000
# 3 99.3397 39.3116 210.8420 0.0000 0.0000 0.0000
# 4 0.0000 0.0000 0.0000 64.5602 0.0000 0.0000
# 5 0.0000 0.0000 0.0000 0.0000 39.8279 0.0000
# 6 0.0000 0.0000 0.0000 0.0000 0.0000 9.6510
#
#
#
# Elastic Compliance Matrix: (Units=1/GPa)
#
#
# Indices 1 2 3 4 5 6 
#
# 1 0.011171 -0.001758 -0.004935 0.000000 0.000000 0.000000
# 2 -0.001758 0.023129 -0.003484 0.000000 0.000000 0.000000
# 3 -0.004935 -0.003484 0.007718 0.000000 0.000000 0.000000
# 4 0.000000 0.000000 0.000000 0.015489 0.000000 0.000000
# 5 0.000000 0.000000 0.000000 0.000000 0.025108 0.000000
# 6 0.000000 0.000000 0.000000 0.000000 0.000000 0.103617
#
#
# Mechanical properties :
#
#
# Convention : Reuss Voigt Hill
#
# Bulk Modulus (GPa) = 46.16407 80.82941 63.49674
# Shear Modulus (GPa) = 23.38561 38.49311 30.93936
#
# Velocity S-wave (km/s) = 3.46353 4.44361 3.98382
# Velocity P-wave (km/s) = 6.29883 8.23348 7.33026
#
# Compressibility (1/GPa) = 0.02166187
#
# Stress axis : x y z
#
# Youngs Moduli (GPa) = 89.52006 43.23660 129.57164
#
# Poissons Ratio (x) = 0.07603 0.63947
# Poissons Ratio (y) = 0.15742 0.45140
# Poissons Ratio (z) = 0.44181 0.15063
#
# Static dielectric constant tensor:
#      x y z
#    x 1.679600 0.000000 0.000000 
#    y 0.000000 1.712450 0.000000 
#    z 0.000000 0.000000 1.654620 
# 
# From -- ./inp_files/36832.got.cif
#   From: 2010.05.17/outbox.cif.g08.bks.cpg/sg51_19_cif.got.tgz:36832.got - 2010.06.03 11:52:47.
