data_PCOD9403397
_publ_section_title
;
Structure prediction by ZEFSAII (Michael W. Deem and Ramdas Pophale) SiO2 
 PCOD9403397
Probable space group: P M M A
;
_chemical_formula_sum "Si O2"
_cell_formula_units_Z 48
_cell_length_a 31.280071
_cell_length_b 8.764749
_cell_length_c 9.858083
_cell_angle_alpha 90.000000
_cell_angle_beta 90.000000
_cell_angle_gamma 90.000000
_cell_volume 2702.711466
_symmetry_space_group_name_H-M "P M M A"
_symmetry_group_IT_number 51
_symmetry_cell_setting 'orthorhombic'
loop_
_space_group_symop_operation_xyz
x,y,z
1/2-x,-y,z
1/2+x,-y,-z
-x,y,-z
-x,-y,-z
1/2+x,y,-z
1/2-x,y,z
x,-y,z
loop_
_atom_site_type_symbol
_atom_site_label
_atom_site_fract_x
_atom_site_fract_y
_atom_site_fract_z
Si Si1 0.299966 0.182737 0.191183
Si Si2 0.485767 0.816416 0.650380
Si Si3 0.565338 0.682613 0.789906
Si Si4 0.387576 0.816697 0.695388
Si Si5 0.141501 0.682949 0.416689
Si Si6 0.631925 0.316575 0.015055
O O1 0.250000 0.219482 0.178774
O O2 0.319800 0.247464 0.330331
O O3 0.305049 0.000000 0.188310
O O4 0.328031 0.256050 0.071335
O O5 0.500000 0.763160 0.500000
O O6 0.520104 0.756881 0.758126
O O7 0.437370 0.768767 0.680860
O O8 0.486977 0.000000 0.650084
O O9 0.560572 0.500000 0.790543
O O10 0.598487 0.722825 0.668737
O O11 0.589566 0.727619 0.928083
O O12 0.362935 0.750068 0.566041
O O13 0.370008 0.753477 0.836427
O O14 0.385645 0.000000 0.693098
O O15 0.144811 0.500000 0.419392
O O16 0.633405 0.500000 0.020285
#
# Coordination Sequence:
#
# PCOD9403397 Si02
#       6
#     8   8   8   8   8   8
#     4  10  21  39  64  90 113 141 179 223 274 337
#     4  10  20  33  51  78 110 148 193 237 280 326
#     4   9  19  34  53  77 106 147 191 231 274 324
#     4  11  22  36  55  81 114 152 191 235 284 329
#     4  10  20  35  57  84 113 146 184 227 276 328
#     4  10  22  39  57  82 115 150 188 230 283 339
#
# _framework density 17.759941999999999
#
# number of rings (size 3 to 8) (size 9 to 14) (size 15 to 20)
#    0.000    2.000    1.667    3.000    0.000    7.000 
#    0.000    4.167    0.000    5.000    0.000    0.000 
#    0.000    0.000    0.000    0.000    0.000    0.000 
#
# Total GULP energy -268038.651986 kJ/mol
# GULP energy per Si atom -5584.138583 kJ/mol
# Density = 1.771952 g / cm^3
# Si number density = 17.759942 Si / 1000 Ang^3
#
#
#
# Elastic Constant Matrix: (Units=GPa)
#
#
# Indices 1 2 3 4 5 6 
#
# 1 102.0990 37.3896 55.6624 0.0000 0.0000 0.0000
# 2 37.3896 45.1752 42.6830 0.0000 0.0000 0.0000
# 3 55.6624 42.6830 153.0991 0.0000 0.0000 0.0000
# 4 0.0000 0.0000 0.0000 27.7697 0.0000 0.0000
# 5 0.0000 0.0000 0.0000 0.0000 14.8023 0.0000
# 6 0.0000 0.0000 0.0000 0.0000 0.0000 12.2389
#
#
#
# Elastic Compliance Matrix: (Units=1/GPa)
#
#
# Indices 1 2 3 4 5 6 
#
# 1 0.014818 -0.009739 -0.002672 0.000000 0.000000 0.000000
# 2 -0.009739 0.036454 -0.006622 0.000000 0.000000 0.000000
# 3 -0.002672 -0.006622 0.009349 0.000000 0.000000 0.000000
# 4 0.000000 0.000000 0.000000 0.036010 0.000000 0.000000
# 5 0.000000 0.000000 0.000000 0.000000 0.067557 0.000000
# 6 0.000000 0.000000 0.000000 0.000000 0.000000 0.081706
#
#
# Mechanical properties :
#
#
# Convention : Reuss Voigt Hill
#
# Bulk Modulus (GPa) = 44.33843 63.53815 53.93829
# Shear Modulus (GPa) = 17.15383 21.93808 19.54596
#
# Velocity S-wave (km/s) = 3.11122 3.51843 3.32107
# Velocity P-wave (km/s) = 6.15840 7.23599 6.71883
#
# Compressibility (1/GPa) = 0.02255380
#
# Stress axis : x y z
#
# Youngs Moduli (GPa) = 67.48623 27.43202 106.95893
#
# Poissons Ratio (x) = 0.26717 0.28580
# Poissons Ratio (y) = 0.65728 0.70829
# Poissons Ratio (z) = 0.18033 0.18166
#
# Static dielectric constant tensor:
#      x y z
#    x 1.587860 0.000000 0.000000 
#    y 0.000000 1.593410 0.000000 
#    z 0.000000 0.000000 1.592970 
# 
# From -- ./inp_files/12763.got.cif
#   From: 2010.05.17/outbox.cif.g08.bks.cpg/sg51_7_cif.got.tgz:12763.got - 2010.06.03 11:52:47.
