data_PCOD9403031
_publ_section_title
;
Structure prediction by ZEFSAII (Michael W. Deem and Ramdas Pophale) SiO2 
 PCOD9403031
Probable space group: P M M A
;
_chemical_formula_sum "Si O2"
_cell_formula_units_Z 64
_cell_length_a 8.953256
_cell_length_b 18.906723
_cell_length_c 26.958525
_cell_angle_alpha 90.000000
_cell_angle_beta 90.000000
_cell_angle_gamma 90.000000
_cell_volume 4563.450988
_symmetry_space_group_name_H-M "P M M A"
_symmetry_group_IT_number 51
_symmetry_cell_setting 'orthorhombic'
loop_
_space_group_symop_operation_xyz
x,y,z
1/2-x,-y,z
1/2+x,-y,-z
-x,y,-z
-x,-y,-z
1/2+x,y,-z
1/2-x,y,z
x,-y,z
loop_
_atom_site_type_symbol
_atom_site_label
_atom_site_fract_x
_atom_site_fract_y
_atom_site_fract_z
Si Si1 0.930279 0.582468 0.739695
Si Si2 0.070060 0.082793 0.947628
Si Si3 0.428091 0.583294 0.446252
Si Si4 0.429329 0.838527 0.848787
Si Si5 0.928528 0.338194 0.353953
Si Si6 0.569807 0.918002 0.252455
Si Si7 0.422523 0.208189 0.305313
Si Si8 0.421512 0.710531 0.199109
O O1 0.750000 0.591186 0.733091
O O2 0.961603 0.500000 0.746616
O O3 0.973863 0.631950 0.786294
O O4 0.010436 0.612712 0.690937
O O5 0.250000 0.087451 0.950775
O O6 0.018511 0.128460 0.900598
O O7 0.032437 0.000000 0.939271
O O8 0.000000 0.104592 0.000000
O O9 0.500000 0.596588 0.500000
O O10 0.250000 0.594821 0.447610
O O11 0.453240 0.500000 0.434437
O O12 0.503721 0.630819 0.404360
O O13 0.250000 0.838345 0.849428
O O14 0.474172 0.887790 0.801932
O O15 0.486179 0.759753 0.837607
O O16 0.750000 0.339321 0.354697
O O17 0.988246 0.259345 0.342202
O O18 0.750000 0.912671 0.255762
O O19 0.496755 0.866979 0.293283
O O20 0.527880 0.000000 0.257162
O O21 0.250000 0.201394 0.320323
O O22 0.425408 0.249275 0.252338
O O23 0.250000 0.707646 0.182426
#
# Coordination Sequence:
#
# PCOD9403031 Si02
#       8
#     8   8   8   8   8   8   8   8
#     4   9  17  29  43  59  82 111 139 167 201 241
#     4   9  17  28  40  55  76 102 133 167 200 234
#     4  10  20  33  47  63  85 112 142 176 211 245
#     4   9  16  26  40  56  77 107 137 164 199 242
#     4  11  20  29  43  62  84 111 143 175 208 245
#     4   9  16  26  41  61  84 109 137 169 205 245
#     4   9  17  29  42  57  80 109 140 172 205 242
#     4   8  15  26  39  56  77 102 133 167 199 234
#
# _framework density 14.024475000000001
#
# number of rings (size 3 to 8) (size 9 to 14) (size 15 to 20)
#    0.000    2.750    0.000    3.375    0.000    7.750 
#    0.000    0.000    0.000    2.250    0.000    0.000 
#    0.000    1.000    0.000    3.000    0.000    4.625 
#
# Total GULP energy -356517.599752 kJ/mol
# GULP energy per Si atom -5570.587496 kJ/mol
# Density = 1.399255 g / cm^3
# Si number density = 14.024475 Si / 1000 Ang^3
#
#
#
# Elastic Constant Matrix: (Units=GPa)
#
#
# Indices 1 2 3 4 5 6 
#
# 1 52.3255 46.8184 43.2294 0.0000 0.0000 0.0000
# 2 46.8184 120.1281 63.0490 0.0000 0.0000 0.0000
# 3 43.2294 63.0490 89.5204 0.0000 0.0000 0.0000
# 4 0.0000 0.0000 0.0000 26.5932 0.0000 0.0000
# 5 0.0000 0.0000 0.0000 0.0000 20.8483 0.0000
# 6 0.0000 0.0000 0.0000 0.0000 0.0000 22.2096
#
#
#
# Elastic Compliance Matrix: (Units=1/GPa)
#
#
# Indices 1 2 3 4 5 6 
#
# 1 0.035829 -0.007747 -0.011846 0.000000 0.000000 0.000000
# 2 -0.007747 0.014881 -0.006740 0.000000 0.000000 0.000000
# 3 -0.011846 -0.006740 0.021638 0.000000 0.000000 0.000000
# 4 0.000000 0.000000 0.000000 0.037604 0.000000 0.000000
# 5 0.000000 0.000000 0.000000 0.000000 0.047966 0.000000
# 6 0.000000 0.000000 0.000000 0.000000 0.000000 0.045026
#
#
# Mechanical properties :
#
#
# Convention : Reuss Voigt Hill
#
# Bulk Modulus (GPa) = 50.80464 63.12971 56.96718
# Shear Modulus (GPa) = 19.07171 21.18870 20.13021
#
# Velocity S-wave (km/s) = 3.69167 3.89117 3.79273
# Velocity P-wave (km/s) = 7.38075 8.08084 7.73872
#
# Compressibility (1/GPa) = 0.01968324
#
# Stress axis : x y z
#
# Youngs Moduli (GPa) = 27.91026 67.20000 46.21534
#
# Poissons Ratio (x) = 0.52057 0.54746
# Poissons Ratio (y) = 0.21621 0.31148
# Poissons Ratio (z) = 0.33062 0.45291
#
# Static dielectric constant tensor:
#      x y z
#    x 1.473030 0.000000 0.000000 
#    y 0.000000 1.466630 0.000000 
#    z 0.000000 0.000000 1.439750 
# 
# From -- ./inp_files/35158.got.cif
#   From: 2010.05.17/outbox.cif.g08.bks.cpg/sg51_18_cif.got.tgz:35158.got - 2010.06.03 11:52:47.
