data_PCOD9403849
_publ_section_title
;
Structure prediction by ZEFSAII (Michael W. Deem and Ramdas Pophale) SiO2 
 PCOD9403849
Probable space group: P M M A
;
_chemical_formula_sum "Si O2"
_cell_formula_units_Z 48
_cell_length_a 8.764084
_cell_length_b 18.894772
_cell_length_c 14.569282
_cell_angle_alpha 90.000000
_cell_angle_beta 90.000000
_cell_angle_gamma 90.000000
_cell_volume 2412.605628
_symmetry_space_group_name_H-M "P M M A"
_symmetry_group_IT_number 51
_symmetry_cell_setting 'orthorhombic'
loop_
_space_group_symop_operation_xyz
x,y,z
1/2-x,-y,z
1/2+x,-y,-z
-x,y,-z
-x,-y,-z
1/2+x,y,-z
1/2-x,y,z
x,-y,z
loop_
_atom_site_type_symbol
_atom_site_label
_atom_site_fract_x
_atom_site_fract_y
_atom_site_fract_z
Si Si1 0.066616 0.214311 0.100820
Si Si2 0.433499 0.080580 0.211671
Si Si3 0.576396 0.415999 0.906944
Si Si4 0.433182 0.418880 0.397847
Si Si5 0.928645 0.329117 0.240055
Si Si6 0.924908 0.086184 0.405166
O O1 0.250000 0.218051 0.096836
O O2 0.019627 0.135656 0.133865
O O3 0.006817 0.266341 0.181298
O O4 0.000000 0.229160 0.000000
O O5 0.250000 0.079004 0.214373
O O6 0.490298 0.105897 0.311592
O O7 0.488538 0.000000 0.196847
O O8 0.750000 0.388962 0.893614
O O9 0.587240 0.500000 0.913242
O O10 0.464775 0.395324 0.825901
O O11 0.500000 0.388960 0.000000
O O12 0.500000 0.412840 0.500000
O O13 0.250000 0.414298 0.398653
O O14 0.471450 0.500000 0.365497
O O15 0.498692 0.355981 0.334937
O O16 0.750000 0.315103 0.250300
O O17 0.750000 0.108861 0.400923
O O18 0.000000 0.111171 0.500000
O O19 0.928485 0.000000 0.407901
#
# Coordination Sequence:
#
# PCOD9403849 Si02
#       6
#     8   8   8   8   8   8
#     4  11  24  42  62  84 114 151 193 243 301 364
#     4   9  19  37  60  85 113 147 190 242 300 362
#     4  10  20  34  53  79 111 146 186 232 280 331
#     4  10  21  39  64  94 127 162 201 244 290 341
#     4  12  24  38  58  83 115 154 195 238 286 342
#     4   9  16  27  48  79 113 146 178 217 268 328
#
# _framework density 19.895500999999999
#
# number of rings (size 3 to 8) (size 9 to 14) (size 15 to 20)
#    0.000    1.833    0.000    4.500    0.000    7.667 
#    0.000    0.833    0.000    4.000    0.000    0.000 
#    0.000    0.000    0.000    0.000    0.000    0.000 
#
# Total GULP energy -267846.897988 kJ/mol
# GULP energy per Si atom -5580.143708 kJ/mol
# Density = 1.985022 g / cm^3
# Si number density = 19.895501 Si / 1000 Ang^3
#
#
#
# Elastic Constant Matrix: (Units=GPa)
#
#
# Indices 1 2 3 4 5 6 
#
# 1 75.6355 34.9169 30.2148 0.0000 0.0000 0.0000
# 2 34.9169 91.2628 62.0462 0.0000 0.0000 0.0000
# 3 30.2148 62.0462 106.5149 0.0000 0.0000 0.0000
# 4 0.0000 0.0000 0.0000 48.1213 0.0000 0.0000
# 5 0.0000 0.0000 0.0000 0.0000 33.6059 0.0000
# 6 0.0000 0.0000 0.0000 0.0000 0.0000 15.2092
#
#
#
# Elastic Compliance Matrix: (Units=1/GPa)
#
#
# Indices 1 2 3 4 5 6 
#
# 1 0.016227 -0.005098 -0.001634 0.000000 0.000000 0.000000
# 2 -0.005098 0.019744 -0.010055 0.000000 0.000000 0.000000
# 3 -0.001634 -0.010055 0.015709 0.000000 0.000000 0.000000
# 4 0.000000 0.000000 0.000000 0.020781 0.000000 0.000000
# 5 0.000000 0.000000 0.000000 0.000000 0.029757 0.000000
# 6 0.000000 0.000000 0.000000 0.000000 0.000000 0.065750
#
#
# Mechanical properties :
#
#
# Convention : Reuss Voigt Hill
#
# Bulk Modulus (GPa) = 55.22663 58.64099 56.93381
# Shear Modulus (GPa) = 24.08762 29.13629 26.61195
#
# Velocity S-wave (km/s) = 3.48330 3.83099 3.66127
# Velocity P-wave (km/s) = 6.63298 7.00765 6.82288
#
# Compressibility (1/GPa) = 0.01810721
#
# Stress axis : x y z
#
# Youngs Moduli (GPa) = 61.62439 50.64892 63.65851
#
# Poissons Ratio (x) = 0.25821 0.10399
# Poissons Ratio (y) = 0.31416 0.64008
# Poissons Ratio (z) = 0.10067 0.50927
#
# Static dielectric constant tensor:
#      x y z
#    x 1.684590 0.000000 0.000000 
#    y 0.000000 1.753520 0.000000 
#    z 0.000000 0.000000 1.636570 
# 
# From -- ./inp_files/21402.got.cif
#   From: 2010.05.17/outbox.cif.g08.bks.cpg/sg51_11_cif.got.tgz:21402.got - 2010.06.03 11:52:47.
