data_PCOD9403792
_publ_section_title
;
Structure prediction by ZEFSAII (Michael W. Deem and Ramdas Pophale) SiO2 
 PCOD9403792
Probable space group: P M M A
;
_chemical_formula_sum "Si O2"
_cell_formula_units_Z 48
_cell_length_a 19.314328
_cell_length_b 7.745515
_cell_length_c 15.854122
_cell_angle_alpha 90.000000
_cell_angle_beta 90.000000
_cell_angle_gamma 90.000000
_cell_volume 2371.767412
_symmetry_space_group_name_H-M "P M M A"
_symmetry_group_IT_number 51
_symmetry_cell_setting 'orthorhombic'
loop_
_space_group_symop_operation_xyz
x,y,z
1/2-x,-y,z
1/2+x,-y,-z
-x,y,-z
-x,-y,-z
1/2+x,y,-z
1/2-x,y,z
x,-y,z
loop_
_atom_site_type_symbol
_atom_site_label
_atom_site_fract_x
_atom_site_fract_y
_atom_site_fract_z
Si Si1 0.329533 0.209061 0.395880
Si Si2 0.828614 0.706186 0.903950
Si Si3 0.572604 0.297792 0.757700
Si Si4 0.829638 0.791333 0.094239
Si Si5 0.085493 0.203527 0.746041
Si Si6 0.170269 0.210664 0.586985
O O1 0.250000 0.261297 0.377412
O O2 0.382167 0.275182 0.326361
O O3 0.346493 0.265922 0.491462
O O4 0.331443 0.000000 0.394173
O O5 0.750000 0.775324 0.893700
O O6 0.824661 0.500000 0.891029
O O7 0.882201 0.775953 0.835249
O O8 0.850721 0.737026 0.000220
O O9 0.561888 0.500000 0.773501
O O10 0.496641 0.220868 0.748297
O O11 0.750000 0.734806 0.107678
O O12 0.878377 0.726295 0.169310
O O13 0.829995 0.000000 0.094714
O O14 0.119712 0.274207 0.660302
O O15 0.102092 0.000000 0.745446
O O16 0.250000 0.258147 0.605461
O O17 0.168108 0.000000 0.585106
#
# Coordination Sequence:
#
# PCOD9403792 Si02
#       6
#     8   8   8   8   8   8
#     4   9  18  34  57  81 101 127 169 216 257 299
#     4   9  19  36  55  72  94 131 174 210 249 301
#     4  11  23  36  50  72 106 143 175 208 250 301
#     4   9  18  33  55  81 103 126 163 213 262 302
#     4  10  20  34  53  77 106 137 168 205 252 306
#     4   8  15  31  56  81 102 129 168 211 254 304
#
# _framework density 20.238071999999999
#
# number of rings (size 3 to 8) (size 9 to 14) (size 15 to 20)
#    0.000    2.667    0.000    2.500    0.000    6.333 
#    0.000    9.167    0.000    2.500    0.000    0.000 
#    0.000    0.000    0.000    0.000    0.000    0.000 
#
# Total GULP energy -267875.662966 kJ/mol
# GULP energy per Si atom -5580.742978 kJ/mol
# Density = 2.019201 g / cm^3
# Si number density = 20.238072 Si / 1000 Ang^3
#
#
#
# Elastic Constant Matrix: (Units=GPa)
#
#
# Indices 1 2 3 4 5 6 
#
# 1 105.5400 -13.1343 103.4491 0.0000 0.0000 0.0000
# 2 -13.1343 22.3945 -12.4667 0.0000 0.0000 0.0000
# 3 103.4491 -12.4667 154.3259 0.0000 0.0000 0.0000
# 4 0.0000 0.0000 0.0000 34.2280 0.0000 0.0000
# 5 0.0000 0.0000 0.0000 0.0000 -135.5127 0.0000
# 6 0.0000 0.0000 0.0000 0.0000 0.0000 -0.0681
#
#
#
# Elastic Compliance Matrix: (Units=1/GPa)
#
#
# Indices 1 2 3 4 5 6 
#
# 1 0.028467 0.006359 -0.018569 0.000000 0.000000 0.000000
# 2 0.006359 0.048177 -0.000371 0.000000 0.000000 0.000000
# 3 -0.018569 -0.000371 0.018897 0.000000 0.000000 0.000000
# 4 0.000000 0.000000 0.000000 0.029216 0.000000 0.000000
# 5 0.000000 0.000000 0.000000 0.000000 -0.007379 0.000000
# 6 0.000000 0.000000 0.000000 0.000000 0.000000-14.684424
#
#
# Mechanical properties :
#
#
# Convention : Reuss Voigt Hill
#
# Bulk Modulus (GPa) = 14.20859 48.66187 31.43523
# Shear Modulus (GPa) = -0.34439 -6.64307 -3.49373
#
# Velocity S-wave (km/s) = -0.41296 -1.81372 -1.31532
# Velocity P-wave (km/s) = 2.60933 4.43968 3.64139
#
# Compressibility (1/GPa) = 0.07037995
#
# Stress axis : x y z
#
# Youngs Moduli (GPa) = 35.12786 20.75688 52.91825
#
# Poissons Ratio (x) = -0.13199 0.98263
# Poissons Ratio (y) = -0.22338 0.01962
# Poissons Ratio (z) = 0.65228 0.00770
#
# Static dielectric constant tensor:
#      x y z
#    x 1.680840 0.000000 0.000000 
#    y 0.000000 1.748030 0.000000 
#    z 0.000000 0.000000 1.714470 
# 
# From -- ./inp_files/24747.got.cif
#   From: 2010.05.17/outbox.cif.g08.bks.cpg/sg51_13_cif.got.tgz:24747.got - 2010.06.03 11:52:47.
