data_PCOD9403608
_publ_section_title
;
Structure prediction by ZEFSAII (Michael W. Deem and Ramdas Pophale) SiO2 
 PCOD9403608
Probable space group: P M M A
;
_chemical_formula_sum "Si O2"
_cell_formula_units_Z 64
_cell_length_a 7.845881
_cell_length_b 20.507573
_cell_length_c 20.972989
_cell_angle_alpha 90.000000
_cell_angle_beta 90.000000
_cell_angle_gamma 90.000000
_cell_volume 3374.553455
_symmetry_space_group_name_H-M "P M M A"
_symmetry_group_IT_number 51
_symmetry_cell_setting 'orthorhombic'
loop_
_space_group_symop_operation_xyz
x,y,z
1/2-x,-y,z
1/2+x,-y,-z
-x,y,-z
-x,-y,-z
1/2+x,y,-z
1/2-x,y,z
x,-y,z
loop_
_atom_site_type_symbol
_atom_site_label
_atom_site_fract_x
_atom_site_fract_y
_atom_site_fract_z
Si Si1 0.045456 0.573407 0.678375
Si Si2 0.044606 0.074268 0.322168
Si Si3 0.955418 0.825043 0.072032
Si Si4 0.958304 0.574758 0.177507
Si Si5 0.455422 0.074249 0.821958
Si Si6 0.544329 0.824657 0.572079
Si Si7 0.952008 0.322944 0.571450
Si Si8 0.044638 0.676488 0.927965
O O1 0.250000 0.570021 0.681541
O O2 0.982964 0.500000 0.663048
O O3 0.986512 0.590535 0.750103
O O4 0.003025 0.626154 0.625322
O O5 0.250000 0.072446 0.326713
O O6 0.980505 0.124832 0.374985
O O7 0.999895 0.094153 0.250102
O O8 0.981504 0.000000 0.331854
O O9 0.750000 0.823273 0.076654
O O10 0.019484 0.875368 0.125063
O O11 0.018355 0.750767 0.081614
O O12 0.000000 0.845026 0.000000
O O13 0.750000 0.576036 0.176816
O O14 0.008452 0.500000 0.163612
O O15 0.018882 0.626132 0.125102
O O16 0.250000 0.072499 0.826581
O O17 0.518497 0.000000 0.831594
O O18 0.500000 0.844584 0.500000
O O19 0.750000 0.823085 0.576870
O O20 0.478225 0.750589 0.581512
O O21 0.750000 0.317716 0.573278
O O22 0.000000 0.344337 0.500000
O O23 0.250000 0.678176 0.923429
O O24 0.000000 0.656539 0.000000
#
# Coordination Sequence:
#
# PCOD9403608 Si02
#       8
#     8   8   8   8   8   8   8   8
#     4   9  18  33  52  73  96 123 158 198 237 280
#     4   9  18  33  51  71  97 127 157 191 234 283
#     4   9  18  31  46  66  92 121 153 190 230 272
#     4   8  15  29  48  68  91 120 152 186 226 273
#     4   9  18  32  48  68  94 121 153 194 234 274
#     4   9  19  34  50  71  98 126 158 195 233 276
#     4  10  20  34  51  71  97 127 158 194 235 279
#     4   9  17  30  47  67  92 121 153 188 227 272
#
# _framework density 18.965471000000001
#
# number of rings (size 3 to 8) (size 9 to 14) (size 15 to 20)
#    0.000    3.000    0.000    1.125    0.000    3.750 
#    0.000    1.875    0.000    0.750    0.000    0.000 
#    0.000    0.000    0.000    0.000    0.000    0.000 
#
# Total GULP energy -356822.011984 kJ/mol
# GULP energy per Si atom -5575.343937 kJ/mol
# Density = 1.892231 g / cm^3
# Si number density = 18.965471 Si / 1000 Ang^3
#
#
#
# Elastic Constant Matrix: (Units=GPa)
#
#
# Indices 1 2 3 4 5 6 
#
# 1 19.2911 7.6813 4.7744 0.0000 0.0000 0.0000
# 2 7.6813 128.2006 146.7470 0.0000 0.0000 0.0000
# 3 4.7744 146.7470 202.7762 0.0000 0.0000 0.0000
# 4 0.0000 0.0000 0.0000 45.8146 0.0000 0.0000
# 5 0.0000 0.0000 0.0000 0.0000 23.5419 0.0000
# 6 0.0000 0.0000 0.0000 0.0000 0.0000 -0.1441
#
#
#
# Elastic Compliance Matrix: (Units=1/GPa)
#
#
# Indices 1 2 3 4 5 6 
#
# 1 0.054446 -0.010458 0.006287 0.000000 0.000000 0.000000
# 2 -0.010458 0.047461 -0.034101 0.000000 0.000000 0.000000
# 3 0.006287 -0.034101 0.029462 0.000000 0.000000 0.000000
# 4 0.000000 0.000000 0.000000 0.021827 0.000000 0.000000
# 5 0.000000 0.000000 0.000000 0.000000 0.042477 0.000000
# 6 0.000000 0.000000 0.000000 0.000000 0.000000 -6.938837
#
#
# Mechanical properties :
#
#
# Convention : Reuss Voigt Hill
#
# Bulk Modulus (GPa) = 18.24025 74.29705 46.26865
# Shear Modulus (GPa) = -0.75207 26.58015 12.91404
#
# Velocity S-wave (km/s) = -0.63040 3.74773 2.61228
# Velocity P-wave (km/s) = 3.01805 7.61493 5.79206
#
# Compressibility (1/GPa) = 0.05482381
#
# Stress axis : x y z
#
# Youngs Moduli (GPa) = 18.36688 21.07005 33.94228
#
# Poissons Ratio (x) = 0.22036 -0.21338
# Poissons Ratio (y) = 0.19209 1.15745
# Poissons Ratio (z) = -0.11546 0.71850
#
# Static dielectric constant tensor:
#      x y z
#    x 1.685420 0.000000 0.000000 
#    y 0.000000 1.675110 0.000000 
#    z 0.000000 0.000000 1.585640 
# 
# From -- ./inp_files/28436.got.cif
#   From: 2010.05.17/outbox.cif.g08.bks.cpg/sg51_15_cif.got.tgz:28436.got - 2010.06.03 11:52:47.
