data_PCOD9403032
_publ_section_title
;
Structure prediction by ZEFSAII (Michael W. Deem and Ramdas Pophale) SiO2 
 PCOD9403032
Probable space group: P M M A
;
_chemical_formula_sum "Si O2"
_cell_formula_units_Z 56
_cell_length_a 9.112870
_cell_length_b 15.827263
_cell_length_c 21.269681
_cell_angle_alpha 90.000000
_cell_angle_beta 90.000000
_cell_angle_gamma 90.000000
_cell_volume 3067.764167
_symmetry_space_group_name_H-M "P M M A"
_symmetry_group_IT_number 51
_symmetry_cell_setting 'orthorhombic'
loop_
_space_group_symop_operation_xyz
x,y,z
1/2-x,-y,z
1/2+x,-y,-z
-x,y,-z
-x,-y,-z
1/2+x,y,-z
1/2-x,y,z
x,-y,z
loop_
_atom_site_type_symbol
_atom_site_label
_atom_site_fract_x
_atom_site_fract_y
_atom_site_fract_z
Si Si1 0.588894 0.403233 0.554846
Si Si2 0.919802 0.898220 0.435226
Si Si3 0.074186 0.407303 0.194589
Si Si4 0.926225 0.814176 0.682930
Si Si5 0.424937 0.901268 0.933084
Si Si6 0.075787 0.633187 0.677035
Si Si7 0.924889 0.787204 0.828513
O O1 0.500000 0.357210 0.500000
O O2 0.750000 0.366190 0.567836
O O3 0.612671 0.500000 0.534926
O O4 0.487665 0.407938 0.615081
O O5 0.750000 0.867889 0.433046
O O6 0.000000 0.869526 0.500000
O O7 0.005773 0.873302 0.371238
O O8 0.916269 0.000000 0.437724
O O9 0.250000 0.403996 0.204757
O O10 0.043727 0.500000 0.163464
O O11 0.036073 0.313687 0.167576
O O12 0.991895 0.407366 0.260859
O O13 0.750000 0.809061 0.675271
O O14 0.952145 0.825715 0.758345
O O15 0.008275 0.726232 0.672489
O O16 0.250000 0.891588 0.938263
O O17 0.488796 0.840763 0.879728
O O18 0.456372 0.000000 0.918196
O O19 0.500000 0.882594 0.000000
O O20 0.250000 0.632615 0.679418
O O21 0.750000 0.793013 0.839421
#
# Coordination Sequence:
#
# PCOD9403032 Si02
#       7
#     8   8   8   8   8   8   8
#     4  10  20  33  47  63  86 117 155 201 254 313
#     4  10  21  37  56  77 102 134 175 224 278 338
#     4   9  18  34  55  78 107 145 185 224 271 327
#     4  10  21  37  55  76 104 138 177 220 270 325
#     4  10  21  37  59  87 119 155 191 227 271 326
#     4  11  21  32  48  71  98 127 165 213 264 318
#     4   9  19  35  56  84 116 149 186 231 280 329
#
# _framework density 18.254337
#
# number of rings (size 3 to 8) (size 9 to 14) (size 15 to 20)
#    0.000    2.143    0.000    4.286    0.000    8.571 
#    0.000    5.714    0.000    0.429    0.000    0.000 
#    0.000    0.000    0.000    0.000    0.000    0.000 
#
# Total GULP energy -311856.953786 kJ/mol
# GULP energy per Si atom -5568.874175 kJ/mol
# Density = 1.821279 g / cm^3
# Si number density = 18.254337 Si / 1000 Ang^3
#
#
#
# Elastic Constant Matrix: (Units=GPa)
#
#
# Indices 1 2 3 4 5 6 
#
# 1 65.8900 52.4046 64.9061 0.0000 0.0000 0.0000
# 2 52.4046 79.7740 68.6559 0.0000 0.0000 0.0000
# 3 64.9061 68.6559 110.0419 0.0000 0.0000 0.0000
# 4 0.0000 0.0000 0.0000 37.8305 0.0000 0.0000
# 5 0.0000 0.0000 0.0000 0.0000 31.6530 0.0000
# 6 0.0000 0.0000 0.0000 0.0000 0.0000 23.0923
#
#
#
# Elastic Compliance Matrix: (Units=1/GPa)
#
#
# Indices 1 2 3 4 5 6 
#
# 1 0.042075 -0.013565 -0.016354 0.000000 0.000000 0.000000
# 2 -0.013565 0.031445 -0.011618 0.000000 0.000000 0.000000
# 3 -0.016354 -0.011618 0.025982 0.000000 0.000000 0.000000
# 4 0.000000 0.000000 0.000000 0.026434 0.000000 0.000000
# 5 0.000000 0.000000 0.000000 0.000000 0.031593 0.000000
# 6 0.000000 0.000000 0.000000 0.000000 0.000000 0.043304
#
#
# Mechanical properties :
#
#
# Convention : Reuss Voigt Hill
#
# Bulk Modulus (GPa) = 60.86883 69.73767 65.30325
# Shear Modulus (GPa) = 17.27816 23.16446 20.22131
#
# Velocity S-wave (km/s) = 3.07990 3.56614 3.33190
# Velocity P-wave (km/s) = 6.78712 7.43255 7.11715
#
# Compressibility (1/GPa) = 0.01642877
#
# Stress axis : x y z
#
# Youngs Moduli (GPa) = 23.76684 31.80157 38.48846
#
# Poissons Ratio (x) = 0.43139 0.62944
# Poissons Ratio (y) = 0.32240 0.44714
# Poissons Ratio (z) = 0.38868 0.36946
#
# Static dielectric constant tensor:
#      x y z
#    x 1.663690 0.000000 0.000000 
#    y 0.000000 1.740480 0.000000 
#    z 0.000000 0.000000 1.519260 
# 
# From -- ./inp_files/31946.got.cif
#   From: 2010.05.17/outbox.cif.g08.bks.cpg/sg51_16_cif.got.tgz:31946.got - 2010.06.03 11:52:47.
