data_PCOD9403414
_publ_section_title
;
Structure prediction by ZEFSAII (Michael W. Deem and Ramdas Pophale) SiO2 
 PCOD9403414
Probable space group: P M M A
;
_chemical_formula_sum "Si O2"
_cell_formula_units_Z 56
_cell_length_a 14.563967
_cell_length_b 9.327103
_cell_length_c 24.359350
_cell_angle_alpha 90.000000
_cell_angle_beta 90.000000
_cell_angle_gamma 90.000000
_cell_volume 3308.964855
_symmetry_space_group_name_H-M "P M M A"
_symmetry_group_IT_number 51
_symmetry_cell_setting 'orthorhombic'
loop_
_space_group_symop_operation_xyz
x,y,z
1/2-x,-y,z
1/2+x,-y,-z
-x,y,-z
-x,-y,-z
1/2+x,y,-z
1/2-x,y,z
x,-y,z
loop_
_atom_site_type_symbol
_atom_site_label
_atom_site_fract_x
_atom_site_fract_y
_atom_site_fract_z
Si Si1 0.990152 0.328045 0.063355
Si Si2 0.639889 0.666493 0.440715
Si Si3 0.356371 0.328121 0.151942
Si Si4 0.856441 0.171917 0.144619
Si Si5 0.642484 0.169181 0.551677
Si Si6 0.489370 0.828464 0.640221
Si Si7 0.510012 0.828051 0.766834
O O1 0.976046 0.500000 0.065492
O O2 0.082362 0.295263 0.098115
O O3 0.907006 0.250062 0.094384
O O4 0.000000 0.285688 0.000000
O O5 0.750000 0.676753 0.435955
O O6 0.613657 0.500000 0.441412
O O7 0.614400 0.741371 0.498257
O O8 0.591818 0.747722 0.390898
O O9 0.250000 0.286598 0.146231
O O10 0.360295 0.500000 0.159964
O O11 0.406876 0.249859 0.202133
O O12 0.750000 0.213350 0.150272
O O13 0.917697 0.204896 0.198477
O O14 0.860395 0.000000 0.136660
O O15 0.750000 0.196404 0.562808
O O16 0.580125 0.201321 0.604118
O O17 0.632088 0.000000 0.538885
O O18 0.500717 0.785722 0.703452
O O19 0.473236 0.000000 0.638757
O O20 0.523963 0.000000 0.769041
#
# Coordination Sequence:
#
# PCOD9403414 Si02
#       7
#     8   8   8   8   8   8   8
#     4   9  18  32  51  76 103 130 164 205 244 286
#     4  10  21  35  50  71  99 129 161 198 242 293
#     4   9  18  33  51  71  99 134 167 201 244 290
#     4   9  18  33  51  71  99 134 167 201 244 291
#     4   9  18  33  51  71  97 127 159 198 244 293
#     4  10  20  33  52  76  98 125 162 202 245 290
#     4   9  19  34  51  73  99 127 164 207 245 287
#
# _framework density 16.923722999999999
#
# number of rings (size 3 to 8) (size 9 to 14) (size 15 to 20)
#    0.000    2.714    0.000    0.857    0.000    6.286 
#    0.000    4.286    0.000    1.714    0.000    0.000 
#    0.000    0.000    0.000    0.000    0.000    0.000 
#
# Total GULP energy -312297.635251 kJ/mol
# GULP energy per Si atom -5576.743487 kJ/mol
# Density = 1.688520 g / cm^3
# Si number density = 16.923723 Si / 1000 Ang^3
#
#
#
# Elastic Constant Matrix: (Units=GPa)
#
#
# Indices 1 2 3 4 5 6 
#
# 1 122.4564 45.9841 74.9340 0.0000 0.0000 0.0000
# 2 45.9841 28.1276 56.1639 0.0000 0.0000 0.0000
# 3 74.9340 56.1639 174.4223 0.0000 0.0000 0.0000
# 4 0.0000 0.0000 0.0000 18.6006 0.0000 0.0000
# 5 0.0000 0.0000 0.0000 0.0000 24.9091 0.0000
# 6 0.0000 0.0000 0.0000 0.0000 0.0000 26.5208
#
#
#
# Elastic Compliance Matrix: (Units=1/GPa)
#
#
# Indices 1 2 3 4 5 6 
#
# 1 0.023418 -0.050963 0.006349 0.000000 0.000000 0.000000
# 2 -0.050963 0.210479 -0.045880 0.000000 0.000000 0.000000
# 3 0.006349 -0.045880 0.017779 0.000000 0.000000 0.000000
# 4 0.000000 0.000000 0.000000 0.053762 0.000000 0.000000
# 5 0.000000 0.000000 0.000000 0.000000 0.040146 0.000000
# 6 0.000000 0.000000 0.000000 0.000000 0.000000 0.037706
#
#
# Mechanical properties :
#
#
# Convention : Reuss Voigt Hill
#
# Bulk Modulus (GPa) = 14.14644 75.46334 44.80489
# Shear Modulus (GPa) = 8.50571 23.86771 16.18671
#
# Velocity S-wave (km/s) = 2.24429 3.75948 3.09601
# Velocity P-wave (km/s) = 3.88495 7.97070 6.26996
#
# Compressibility (1/GPa) = 0.07068915
#
# Stress axis : x y z
#
# Youngs Moduli (GPa) = 42.70184 4.75106 56.24681
#
# Poissons Ratio (x) = 0.24213 -0.35713
# Poissons Ratio (y) = 2.17621 2.58060
# Poissons Ratio (z) = -0.27113 0.21798
#
# Static dielectric constant tensor:
#      x y z
#    x 1.567090 0.000000 0.000000 
#    y 0.000000 1.566540 0.000000 
#    z 0.000000 0.000000 1.543120 
# 
# From -- ./inp_files/33438.got.cif
#   From: 2010.05.17/outbox.cif.g08.bks.cpg/sg51_17_cif.got.tgz:33438.got - 2010.06.03 11:52:47.
