data_PCOD9403299
_publ_section_title
;
Structure prediction by ZEFSAII (Michael W. Deem and Ramdas Pophale) SiO2 
 PCOD9403299
Probable space group: P M M A
;
_chemical_formula_sum "Si O2"
_cell_formula_units_Z 40
_cell_length_a 8.548931
_cell_length_b 12.913186
_cell_length_c 18.387078
_cell_angle_alpha 90.000000
_cell_angle_beta 90.000000
_cell_angle_gamma 90.000000
_cell_volume 2029.821914
_symmetry_space_group_name_H-M "P M M A"
_symmetry_group_IT_number 51
_symmetry_cell_setting 'orthorhombic'
loop_
_space_group_symop_operation_xyz
x,y,z
1/2-x,-y,z
1/2+x,-y,-z
-x,y,-z
-x,-y,-z
1/2+x,y,-z
1/2-x,y,z
x,-y,z
loop_
_atom_site_type_symbol
_atom_site_label
_atom_site_fract_x
_atom_site_fract_y
_atom_site_fract_z
Si Si1 0.940955 0.500000 0.857081
Si Si2 0.438928 0.280184 0.079629
Si Si3 0.936052 0.883367 0.364969
Si Si4 0.063782 0.326714 0.422812
Si Si5 0.940952 0.500000 0.689532
Si Si6 0.436604 0.880673 0.203442
O O1 0.750000 0.500000 0.856564
O O2 0.991380 0.604648 0.897197
O O3 0.992918 0.500000 0.772957
O O4 0.250000 0.279316 0.078211
O O5 0.488241 0.198803 0.141533
O O6 0.500000 0.253634 0.000000
O O7 0.750000 0.879815 0.374230
O O8 0.011975 0.790897 0.409611
O O9 0.978810 0.866027 0.280287
O O10 0.991207 0.000000 0.383895
O O11 0.250000 0.331847 0.424485
O O12 0.009154 0.399432 0.356376
O O13 0.000000 0.364227 0.500000
O O14 0.750000 0.500000 0.691340
O O15 0.250000 0.865485 0.215862
O O16 0.460029 0.000000 0.180481
#
# Coordination Sequence:
#
# PCOD9403299 Si02
#       6
#     4   8   8   8   4   8
#     4   9  17  32  53  75 100 133 174 215 258 312
#     4  10  20  33  51  75 105 139 174 215 262 314
#     4  10  21  37  57  82 111 143 182 227 272 320
#     4  11  22  37  58  83 113 146 180 221 270 323
#     4   9  19  36  59  83 106 139 182 225 270 322
#     4   9  18  34  55  77 102 137 180 221 265 319
#
# _framework density 19.706161999999999
#
# number of rings (size 3 to 8) (size 9 to 14) (size 15 to 20)
#    0.000    2.200    0.000    3.000    0.000    6.000 
#    0.000    1.500    0.000    2.400    0.000    0.000 
#    0.000    0.000    0.000    0.000    0.000    0.000 
#
# Total GULP energy -223419.680782 kJ/mol
# GULP energy per Si atom -5585.492020 kJ/mol
# Density = 1.966131 g / cm^3
# Si number density = 19.706162 Si / 1000 Ang^3
#
#
#
# Elastic Constant Matrix: (Units=GPa)
#
#
# Indices 1 2 3 4 5 6 
#
# 1 15.9319 12.7574 1.5817 0.0000 0.0000 0.0000
# 2 12.7574 60.0943 0.4993 0.0000 0.0000 0.0000
# 3 1.5817 0.4993 36.6374 0.0000 0.0000 0.0000
# 4 0.0000 0.0000 0.0000 -52.5307 0.0000 0.0000
# 5 0.0000 0.0000 0.0000 0.0000 32.7955 0.0000
# 6 0.0000 0.0000 0.0000 0.0000 0.0000 13.8501
#
#
#
# Elastic Compliance Matrix: (Units=1/GPa)
#
#
# Indices 1 2 3 4 5 6 
#
# 1 0.075964 -0.016101 -0.003060 0.000000 0.000000 0.000000
# 2 -0.016101 0.020055 0.000422 0.000000 0.000000 0.000000
# 3 -0.003060 0.000422 0.027421 0.000000 0.000000 0.000000
# 4 0.000000 0.000000 0.000000 -0.019036 0.000000 0.000000
# 5 0.000000 0.000000 0.000000 0.000000 0.030492 0.000000
# 6 0.000000 0.000000 0.000000 0.000000 0.000000 0.072202
#
#
# Mechanical properties :
#
#
# Convention : Reuss Voigt Hill
#
# Bulk Modulus (GPa) = 11.63313 15.81559 13.72436
# Shear Modulus (GPa) = 18.29966 5.34466 11.82216
#
# Velocity S-wave (km/s) = 3.05064 1.64866 2.45199
# Velocity P-wave (km/s) = 4.28073 3.41573 3.87246
#
# Compressibility (1/GPa) = 0.08596138
#
# Stress axis : x y z
#
# Youngs Moduli (GPa) = 13.16416 49.86272 36.46854
#
# Poissons Ratio (x) = 0.80283 0.11160
# Poissons Ratio (y) = 0.21195 -0.01538
# Poissons Ratio (z) = 0.04028 -0.02103
#
# Static dielectric constant tensor:
#      x y z
#    x 1.675780 0.000000 0.000000 
#    y 0.000000 1.699160 0.000000 
#    z 0.000000 0.000000 1.660190 
# 
# From -- ./inp_files/31466.got.cif
#   From: 2010.05.17/outbox.cif.g08.bks.cpg/sg51_16_cif.got.tgz:31466.got - 2010.06.03 11:52:47.
