data_PCOD9403381
_publ_section_title
;
Structure prediction by ZEFSAII (Michael W. Deem and Ramdas Pophale) SiO2 
 PCOD9403381
Probable space group: P M M A
;
_chemical_formula_sum "Si O2"
_cell_formula_units_Z 64
_cell_length_a 25.176423
_cell_length_b 9.479116
_cell_length_c 13.426691
_cell_angle_alpha 90.000000
_cell_angle_beta 90.000000
_cell_angle_gamma 90.000000
_cell_volume 3204.282950
_symmetry_space_group_name_H-M "P M M A"
_symmetry_group_IT_number 51
_symmetry_cell_setting 'orthorhombic'
loop_
_space_group_symop_operation_xyz
x,y,z
1/2-x,-y,z
1/2+x,-y,-z
-x,y,-z
-x,-y,-z
1/2+x,y,-z
1/2-x,y,z
x,-y,z
loop_
_atom_site_type_symbol
_atom_site_label
_atom_site_fract_x
_atom_site_fract_y
_atom_site_fract_z
Si Si1 0.310119 0.168102 0.748404
Si Si2 0.450072 0.836091 0.436345
Si Si3 0.187757 0.656120 0.329299
Si Si4 0.587043 0.666866 0.177482
Si Si5 0.165050 0.160816 0.517587
Si Si6 0.097181 0.665587 0.050030
Si Si7 0.027859 0.330387 0.243139
Si Si8 0.313046 0.166326 0.138618
O O1 0.250000 0.210900 0.778652
O O2 0.359264 0.250197 0.796798
O O3 0.315784 0.188177 0.628951
O O4 0.315226 0.000000 0.767253
O O5 0.500000 0.786081 0.500000
O O6 0.398452 0.832077 0.505998
O O7 0.445162 0.743557 0.337424
O O8 0.458512 0.000000 0.407622
O O9 0.250000 0.640100 0.308971
O O10 0.162813 0.500000 0.324559
O O11 0.183930 0.727697 0.436484
O O12 0.169789 0.761417 0.242736
O O13 0.595524 0.500000 0.196676
O O14 0.534250 0.713065 0.236603
O O15 0.574054 0.681964 0.060212
O O16 0.181399 0.000000 0.490350
O O17 0.110619 0.500000 0.063289
O O18 0.057319 0.704645 0.139374
O O19 0.150313 0.757657 0.058318
O O20 0.029173 0.500000 0.253345
O O21 0.250000 0.187634 0.122128
O O22 0.322641 0.000000 0.142299
#
# Coordination Sequence:
#
# PCOD9403381 Si02
#       8
#     8   8   8   8   8   8   8   8
#     4  10  22  40  61  85 115 153 196 241 289 342
#     4  10  21  36  55  81 113 147 182 222 271 329
#     4  10  20  33  51  77 108 141 177 219 268 323
#     4  10  22  40  61  84 112 148 190 238 293 349
#     4  10  20  35  56  80 108 145 186 226 272 328
#     4  10  21  38  60  84 111 146 190 241 294 346
#     4  10  21  38  60  86 116 150 190 237 289 345
#     4  10  21  36  54  79 113 150 187 230 282 343
#
# _framework density 19.973267
#
# number of rings (size 3 to 8) (size 9 to 14) (size 15 to 20)
#    0.000    2.000    0.000    3.000    0.000   10.000 
#    0.000    2.500    0.000    2.250    0.000    0.000 
#    0.000    0.000    0.000    0.000    0.000    0.000 
#
# Total GULP energy -357336.054381 kJ/mol
# GULP energy per Si atom -5583.375850 kJ/mol
# Density = 1.992781 g / cm^3
# Si number density = 19.973267 Si / 1000 Ang^3
#
#
#
# Elastic Constant Matrix: (Units=GPa)
#
#
# Indices 1 2 3 4 5 6 
#
# 1 102.8809 24.6838 11.2262 0.0000 0.0000 0.0000
# 2 24.6838 34.8354 7.2067 0.0000 0.0000 0.0000
# 3 11.2262 7.2067 31.1748 0.0000 0.0000 0.0000
# 4 0.0000 0.0000 0.0000 33.2271 0.0000 0.0000
# 5 0.0000 0.0000 0.0000 0.0000 31.5031 0.0000
# 6 0.0000 0.0000 0.0000 0.0000 0.0000 19.9094
#
#
#
# Elastic Compliance Matrix: (Units=1/GPa)
#
#
# Indices 1 2 3 4 5 6 
#
# 1 0.011887 -0.007916 -0.002451 0.000000 0.000000 0.000000
# 2 -0.007916 0.035420 -0.005338 0.000000 0.000000 0.000000
# 3 -0.002451 -0.005338 0.034194 0.000000 0.000000 0.000000
# 4 0.000000 0.000000 0.000000 0.030096 0.000000 0.000000
# 5 0.000000 0.000000 0.000000 0.000000 0.031743 0.000000
# 6 0.000000 0.000000 0.000000 0.000000 0.000000 0.050228
#
#
# Mechanical properties :
#
#
# Convention : Reuss Voigt Hill
#
# Bulk Modulus (GPa) = 19.96319 28.34717 24.15518
# Shear Modulus (GPa) = 20.68929 25.31287 23.00108
#
# Velocity S-wave (km/s) = 3.22195 3.56383 3.39719
# Velocity P-wave (km/s) = 4.88446 5.58192 5.24480
#
# Compressibility (1/GPa) = 0.05009220
#
# Stress axis : x y z
#
# Youngs Moduli (GPa) = 84.12869 28.23302 29.24527
#
# Poissons Ratio (x) = 0.22348 0.07167
# Poissons Ratio (y) = 0.66593 0.15610
# Poissons Ratio (z) = 0.20616 0.15069
#
# Static dielectric constant tensor:
#      x y z
#    x 1.741980 0.000000 0.000000 
#    y 0.000000 1.683730 0.000000 
#    z 0.000000 0.000000 1.684620 
# 
# From -- ./inp_files/26206.got.cif
#   From: 2010.05.17/outbox.cif.g08.bks.cpg/sg51_14_cif.got.tgz:26206.got - 2010.06.03 11:52:47.
