data_PCOD9403185
_publ_section_title
;
Structure prediction by ZEFSAII (Michael W. Deem and Ramdas Pophale) SiO2 
 PCOD9403185
Probable space group: P M M A
;
_chemical_formula_sum "Si O2"
_cell_formula_units_Z 48
_cell_length_a 9.378620
_cell_length_b 14.044279
_cell_length_c 20.990979
_cell_angle_alpha 90.000000
_cell_angle_beta 90.000000
_cell_angle_gamma 90.000000
_cell_volume 2764.846865
_symmetry_space_group_name_H-M "P M M A"
_symmetry_group_IT_number 51
_symmetry_cell_setting 'orthorhombic'
loop_
_space_group_symop_operation_xyz
x,y,z
1/2-x,-y,z
1/2+x,-y,-z
-x,y,-z
-x,-y,-z
1/2+x,y,-z
1/2-x,y,z
x,-y,z
loop_
_atom_site_type_symbol
_atom_site_label
_atom_site_fract_x
_atom_site_fract_y
_atom_site_fract_z
Si Si1 0.584784 0.883869 0.563638
Si Si2 0.419496 0.112350 0.066395
Si Si3 0.912092 0.113004 0.312627
Si Si4 0.095351 0.612581 0.945141
Si Si5 0.078573 0.796496 0.201543
Si Si6 0.578111 0.607850 0.202162
O O1 0.500000 0.855550 0.500000
O O2 0.750000 0.853225 0.563413
O O3 0.499348 0.850397 0.626087
O O4 0.586550 0.000000 0.564545
O O5 0.250000 0.125068 0.056719
O O6 0.460407 0.175484 0.128305
O O7 0.443649 0.000000 0.082214
O O8 0.500000 0.130918 0.000000
O O9 0.750000 0.151480 0.308189
O O10 0.002679 0.130815 0.249239
O O11 0.900164 0.000000 0.321604
O O12 0.250000 0.658433 0.946490
O O13 0.111045 0.500000 0.960138
O O14 0.043079 0.611917 0.873342
O O15 0.000000 0.654929 0.000000
O O16 0.250000 0.798794 0.205881
O O17 0.014943 0.695513 0.225731
O O18 0.750000 0.621870 0.208625
O O19 0.546764 0.500000 0.224564
#
# Coordination Sequence:
#
# PCOD9403185 Si02
#       6
#     8   8   8   8   8   8
#     4   9  16  27  45  70 102 138 171 201 234 276
#     4   9  19  35  52  69  91 121 158 201 249 299
#     4  10  20  33  50  73 101 134 170 204 240 286
#     4   8  14  25  41  59  78 102 133 172 222 279
#     4  11  22  34  50  72  97 125 160 205 254 302
#     4   9  19  35  50  64  87 119 154 195 243 295
#
# _framework density 17.360817999999998
#
# number of rings (size 3 to 8) (size 9 to 14) (size 15 to 20)
#    0.000    2.667    0.000    3.000    0.000    6.667 
#    0.000    6.667    0.000    0.000    0.000    0.000 
#    0.000    0.667    0.000    2.500    0.000    3.833 
#
# Total GULP energy -267253.759576 kJ/mol
# GULP energy per Si atom -5567.786658 kJ/mol
# Density = 1.732130 g / cm^3
# Si number density = 17.360818 Si / 1000 Ang^3
#
#
#
# Elastic Constant Matrix: (Units=GPa)
#
#
# Indices 1 2 3 4 5 6 
#
# 1 70.1953 26.4969 43.4060 0.0000 0.0000 0.0000
# 2 26.4969 55.7799 7.4138 0.0000 0.0000 0.0000
# 3 43.4060 7.4138 82.6963 0.0000 0.0000 0.0000
# 4 0.0000 0.0000 0.0000 0.0847 0.0000 0.0000
# 5 0.0000 0.0000 0.0000 0.0000 25.0596 0.0000
# 6 0.0000 0.0000 0.0000 0.0000 0.0000 15.6104
#
#
#
# Elastic Compliance Matrix: (Units=1/GPa)
#
#
# Indices 1 2 3 4 5 6 
#
# 1 0.026219 -0.010754 -0.012798 0.000000 0.000000 0.000000
# 2 -0.010754 0.022554 0.003622 0.000000 0.000000 0.000000
# 3 -0.012798 0.003622 0.018485 0.000000 0.000000 0.000000
# 4 0.000000 0.000000 0.000000 11.808175 0.000000 0.000000
# 5 0.000000 0.000000 0.000000 0.000000 0.039905 0.000000
# 6 0.000000 0.000000 0.000000 0.000000 0.000000 0.064060
#
#
# Mechanical properties :
#
#
# Convention : Reuss Voigt Hill
#
# Bulk Modulus (GPa) = 36.49604 40.36720 38.43162
# Shear Modulus (GPa) = 0.41568 16.90792 8.66180
#
# Velocity S-wave (km/s) = 0.48985 3.12414 2.23609
# Velocity P-wave (km/s) = 4.62468 6.02628 5.37139
#
# Compressibility (1/GPa) = 0.02740024
#
# Stress axis : x y z
#
# Youngs Moduli (GPa) = 38.14052 44.33722 54.09775
#
# Poissons Ratio (x) = 0.47679 0.69233
# Poissons Ratio (y) = 0.41015 -0.19596
# Poissons Ratio (z) = 0.48811 -0.16061
#
# Static dielectric constant tensor:
#      x y z
#    x 1.616350 0.000000 0.000000 
#    y 0.000000 1.638070 0.000000 
#    z 0.000000 0.000000 1.637830 
# 
# From -- ./inp_files/27562.got.cif
#   From: 2010.05.17/outbox.cif.g08.bks.cpg/sg51_14_cif.got.tgz:27562.got - 2010.06.03 11:52:47.
