data_PCOD9403161
_publ_section_title
;
Structure prediction by ZEFSAII (Michael W. Deem and Ramdas Pophale) SiO2 
 PCOD9403161
Probable space group: P M M A
;
_chemical_formula_sum "Si O2"
_cell_formula_units_Z 40
_cell_length_a 9.423922
_cell_length_b 9.262069
_cell_length_c 26.780740
_cell_angle_alpha 90.000000
_cell_angle_beta 90.000000
_cell_angle_gamma 90.000000
_cell_volume 2337.557314
_symmetry_space_group_name_H-M "P M M A"
_symmetry_group_IT_number 51
_symmetry_cell_setting 'orthorhombic'
loop_
_space_group_symop_operation_xyz
x,y,z
1/2-x,-y,z
1/2+x,-y,-z
-x,y,-z
-x,-y,-z
1/2+x,y,-z
1/2-x,y,z
x,-y,z
loop_
_atom_site_type_symbol
_atom_site_label
_atom_site_fract_x
_atom_site_fract_y
_atom_site_fract_z
Si Si1 0.919797 0.170862 0.251520
Si Si2 0.422694 0.666009 0.849425
Si Si3 0.586454 0.675893 0.547978
Si Si4 0.419078 0.171460 0.949669
Si Si5 0.920871 0.328852 0.659436
O O1 0.750000 0.193637 0.257152
O O2 0.965713 0.247189 0.199967
O O3 0.000970 0.240667 0.297891
O O4 0.944935 0.000000 0.248569
O O5 0.250000 0.667681 0.849905
O O6 0.468995 0.500000 0.847101
O O7 0.467597 0.742546 0.900692
O O8 0.500000 0.726715 0.500000
O O9 0.750000 0.719828 0.543183
O O10 0.583785 0.500000 0.547767
O O11 0.534679 0.717408 0.603295
O O12 0.250000 0.193611 0.955996
O O13 0.441759 0.000000 0.941751
O O14 0.500000 0.214587 0.000000
O O15 0.750000 0.312207 0.662401
O O16 0.951226 0.500000 0.665114
#
# Coordination Sequence:
#
# PCOD9403161 Si02
#       5
#     8   8   8   8   8
#     4  10  20  33  50  72  96 124 162 204 242 286
#     4   9  17  30  49  71  94 122 157 197 240 283
#     4   8  14  25  42  66  95 124 154 190 233 281
#     4   9  17  30  48  69  94 124 156 190 230 278
#     4   9  18  32  49  71 100 130 159 195 241 290
#
# _framework density 17.111878999999998
#
# number of rings (size 3 to 8) (size 9 to 14) (size 15 to 20)
#    0.000    3.000    0.000    2.400    0.000    5.200 
#    0.000    3.000    0.000    4.200    0.000    0.000 
#    0.000    0.000    0.000    0.000    0.000    0.000 
#
# Total GULP energy -222889.484242 kJ/mol
# GULP energy per Si atom -5572.237106 kJ/mol
# Density = 1.707293 g / cm^3
# Si number density = 17.111879 Si / 1000 Ang^3
#
#
#
# Elastic Constant Matrix: (Units=GPa)
#
#
# Indices 1 2 3 4 5 6 
#
# 1 24.6780 37.9796 62.3979 0.0000 0.0000 0.0000
# 2 37.9796 76.6104 92.8052 0.0000 0.0000 0.0000
# 3 62.3979 92.8052 221.6292 0.0000 0.0000 0.0000
# 4 0.0000 0.0000 0.0000 -45.7858 0.0000 0.0000
# 5 0.0000 0.0000 0.0000 0.0000 35.2833 0.0000
# 6 0.0000 0.0000 0.0000 0.0000 0.0000 17.8325
#
#
#
# Elastic Compliance Matrix: (Units=1/GPa)
#
#
# Indices 1 2 3 4 5 6 
#
# 1 0.294997 -0.092612 -0.044274 0.000000 0.000000 0.000000
# 2 -0.092612 0.055566 0.002807 0.000000 0.000000 0.000000
# 3 -0.044274 0.002807 0.015802 0.000000 0.000000 0.000000
# 4 0.000000 0.000000 0.000000 -0.021841 0.000000 0.000000
# 5 0.000000 0.000000 0.000000 0.000000 0.028342 0.000000
# 6 0.000000 0.000000 0.000000 0.000000 0.000000 0.056077
#
#
# Mechanical properties :
#
#
# Convention : Reuss Voigt Hill
#
# Bulk Modulus (GPa) = 10.18266 78.80924 44.49595
# Shear Modulus (GPa) = 6.85086 10.11500 8.48293
#
# Velocity S-wave (km/s) = 2.00306 2.43391 2.22892
# Velocity P-wave (km/s) = 3.36352 7.35213 5.71695
#
# Compressibility (1/GPa) = 0.09820614
#
# Stress axis : x y z
#
# Youngs Moduli (GPa) = 3.38987 17.99678 63.28445
#
# Poissons Ratio (x) = 1.66672 2.80183
# Poissons Ratio (y) = 0.31394 -0.17761
# Poissons Ratio (z) = 0.15008 -0.05051
#
# Static dielectric constant tensor:
#      x y z
#    x 1.568910 0.000000 0.000000 
#    y 0.000000 1.570270 0.000000 
#    z 0.000000 0.000000 1.572650 
# 
# From -- ./inp_files/28797.got.cif
#   From: 2010.05.17/outbox.cif.g08.bks.cpg/sg51_15_cif.got.tgz:28797.got - 2010.06.03 11:52:47.
