data_PCOD9403622
_publ_section_title
;
Structure prediction by ZEFSAII (Michael W. Deem and Ramdas Pophale) SiO2 
 PCOD9403622
Probable space group: P M M A
;
_chemical_formula_sum "Si O2"
_cell_formula_units_Z 48
_cell_length_a 15.240490
_cell_length_b 8.979701
_cell_length_c 19.673884
_cell_angle_alpha 90.000000
_cell_angle_beta 90.000000
_cell_angle_gamma 90.000000
_cell_volume 2692.470247
_symmetry_space_group_name_H-M "P M M A"
_symmetry_group_IT_number 51
_symmetry_cell_setting 'orthorhombic'
loop_
_space_group_symop_operation_xyz
x,y,z
1/2-x,-y,z
1/2+x,-y,-z
-x,y,-z
-x,-y,-z
1/2+x,y,-z
1/2-x,y,z
x,-y,z
loop_
_atom_site_type_symbol
_atom_site_label
_atom_site_fract_x
_atom_site_fract_y
_atom_site_fract_z
Si Si1 0.903338 0.830668 0.034639
Si Si2 0.064231 0.679478 0.684116
Si Si3 0.250000 0.179673 0.470840
Si Si4 0.654220 0.820089 0.891539
Si Si5 0.054335 0.179660 0.431521
Si Si6 0.250000 0.320762 0.619520
Si Si7 0.977402 0.322019 0.162046
O O1 0.912922 0.737723 0.103063
O O2 0.877311 0.000000 0.051175
O O3 0.847345 0.773924 0.971092
O O4 0.000000 0.835345 0.000000
O O5 0.056552 0.500000 0.680245
O O6 0.161527 0.720852 0.659040
O O7 0.050199 0.723530 0.762288
O O8 0.994000 0.750792 0.633122
O O9 0.156913 0.224383 0.437339
O O10 0.250000 0.244242 0.546511
O O11 0.250000 0.000000 0.473904
O O12 0.750000 0.786355 0.862240
O O13 0.573276 0.744357 0.854277
O O14 0.641950 0.000000 0.890998
O O15 0.000000 0.222320 0.500000
O O16 0.050839 0.000000 0.427023
O O17 0.250000 0.500000 0.611066
O O18 0.980488 0.500000 0.158343
#
# Coordination Sequence:
#
# PCOD9403622 Si02
#       7
#     8   8   4   8   8   4   8
#     4   8  15  30  52  74  97 130 169 210 255 305
#     4  10  22  38  55  78 109 144 180 217 263 319
#     4  10  20  36  56  84 112 133 170 223 274 315
#     4   9  18  34  55  77 102 136 178 220 262 312
#     4  10  20  35  58  83 109 139 174 221 268 314
#     4  10  20  36  58  78 102 141 180 215 262 321
#     4  10  20  34  51  75 108 141 173 214 263 312
#
# _framework density 17.827494999999999
#
# number of rings (size 3 to 8) (size 9 to 14) (size 15 to 20)
#    0.000    2.500    1.667    1.500    0.000    5.667 
#    3.000    0.000    0.000    0.000    0.000    0.000 
#    0.000    0.000    0.000    0.000    0.000    0.000 
#
# Total GULP energy -267557.485514 kJ/mol
# GULP energy per Si atom -5574.114282 kJ/mol
# Density = 1.778692 g / cm^3
# Si number density = 17.827495 Si / 1000 Ang^3
#
#
#
# Elastic Constant Matrix: (Units=GPa)
#
#
# Indices 1 2 3 4 5 6 
#
# 1 131.3915 26.9295 61.8052 0.0000 0.0000 0.0000
# 2 26.9295 19.9394 37.2774 0.0000 0.0000 0.0000
# 3 61.8052 37.2774 135.1359 0.0000 0.0000 0.0000
# 4 0.0000 0.0000 0.0000 42.7226 0.0000 0.0000
# 5 0.0000 0.0000 0.0000 0.0000 16.3319 0.0000
# 6 0.0000 0.0000 0.0000 0.0000 0.0000 8.8876
#
#
#
# Elastic Compliance Matrix: (Units=1/GPa)
#
#
# Indices 1 2 3 4 5 6 
#
# 1 0.010751 -0.011001 -0.001883 0.000000 0.000000 0.000000
# 2 -0.011001 0.114815 -0.026641 0.000000 0.000000 0.000000
# 3 -0.001883 -0.026641 0.015610 0.000000 0.000000 0.000000
# 4 0.000000 0.000000 0.000000 0.023407 0.000000 0.000000
# 5 0.000000 0.000000 0.000000 0.000000 0.061230 0.000000
# 6 0.000000 0.000000 0.000000 0.000000 0.000000 0.112516
#
#
# Mechanical properties :
#
#
# Convention : Reuss Voigt Hill
#
# Bulk Modulus (GPa) = 16.09576 59.83233 37.96404
# Shear Modulus (GPa) = 11.41330 24.28540 17.84935
#
# Velocity S-wave (km/s) = 2.53298 3.69486 3.16765
# Velocity P-wave (km/s) = 4.19558 7.19982 5.89238
#
# Compressibility (1/GPa) = 0.06212816
#
# Stress axis : x y z
#
# Youngs Moduli (GPa) = 93.01472 8.70968 64.06236
#
# Poissons Ratio (x) = 0.09581 0.12060
# Poissons Ratio (y) = 1.02321 1.70666
# Poissons Ratio (z) = 0.17510 0.23203
#
# Static dielectric constant tensor:
#      x y z
#    x 1.642560 0.000000 0.000000 
#    y 0.000000 1.599240 0.000000 
#    z 0.000000 0.000000 1.589740 
# 
# From -- ./inp_files/29662.got.cif
#   From: 2010.05.17/outbox.cif.g08.bks.cpg/sg51_15_cif.got.tgz:29662.got - 2010.06.03 11:52:47.
