data_PCOD9403613
_publ_section_title
;
Structure prediction by ZEFSAII (Michael W. Deem and Ramdas Pophale) SiO2 
 PCOD9403613
Probable space group: P M M A
;
_chemical_formula_sum "Si O2"
_cell_formula_units_Z 40
_cell_length_a 7.378220
_cell_length_b 8.219969
_cell_length_c 29.608819
_cell_angle_alpha 90.000000
_cell_angle_beta 90.000000
_cell_angle_gamma 90.000000
_cell_volume 1795.737556
_symmetry_space_group_name_H-M "P M M A"
_symmetry_group_IT_number 51
_symmetry_cell_setting 'orthorhombic'
loop_
_space_group_symop_operation_xyz
x,y,z
1/2-x,-y,z
1/2+x,-y,-z
-x,y,-z
-x,-y,-z
1/2+x,y,-z
1/2-x,y,z
x,-y,z
loop_
_atom_site_type_symbol
_atom_site_label
_atom_site_fract_x
_atom_site_fract_y
_atom_site_fract_z
Si Si1 0.961064 0.313950 0.394475
Si Si2 0.532872 0.000000 0.446825
Si Si3 0.471336 0.322824 0.103964
Si Si4 0.968315 0.688501 0.707614
Si Si5 0.466289 0.000000 0.053121
Si Si6 0.970343 0.182864 0.802999
O O1 0.750000 0.328526 0.406682
O O2 0.036931 0.500000 0.397809
O O3 0.038503 0.167358 0.424423
O O4 0.970750 0.259929 0.342037
O O5 0.500000 0.000000 0.500000
O O6 0.750000 0.000000 0.438779
O O7 0.250000 0.321266 0.103034
O O8 0.529545 0.500000 0.087152
O O9 0.525776 0.299132 0.156306
O O10 0.534367 0.166397 0.075949
O O11 0.750000 0.698878 0.707018
O O12 0.019851 0.500000 0.712440
O O13 0.033448 0.778120 0.752498
O O14 0.250000 0.000000 0.060770
O O15 0.500000 0.000000 0.000000
O O16 0.750000 0.190307 0.801406
O O17 0.020847 0.000000 0.815639
#
# Coordination Sequence:
#
# PCOD9403613 Si02
#       6
#     8   4   8   8   4   8
#     4   9  19  36  54  72 100 135 165 195 236 289
#     4  10  22  38  55  76  98 124 163 206 249 292
#     4   9  16  28  47  70  97 128 161 198 241 289
#     4   9  17  28  45  73 103 129 160 197 236 278
#     4  10  20  34  51  72  96 122 159 204 249 296
#     4   9  15  24  41  69 102 130 157 195 240 280
#
# _framework density 22.274968000000001
#
# number of rings (size 3 to 8) (size 9 to 14) (size 15 to 20)
#    0.000    2.800    1.000    0.600    1.400    4.000 
#    0.000    0.000    0.000    1.200    0.000    0.000 
#    0.000    0.000    0.000    0.000    0.000    0.000 
#
# Total GULP energy -223226.505720 kJ/mol
# GULP energy per Si atom -5580.662643 kJ/mol
# Density = 2.222427 g / cm^3
# Si number density = 22.274968 Si / 1000 Ang^3
#
#
#
# Elastic Constant Matrix: (Units=GPa)
#
#
# Indices 1 2 3 4 5 6 
#
# 1 74.7546 8.9587 -5.5577 0.0000 0.0000 0.0000
# 2 8.9587 180.6778 106.7278 0.0000 0.0000 0.0000
# 3 -5.5577 106.7278 141.4445 0.0000 0.0000 0.0000
# 4 0.0000 0.0000 0.0000 14.7213 0.0000 0.0000
# 5 0.0000 0.0000 0.0000 0.0000 13.3069 0.0000
# 6 0.0000 0.0000 0.0000 0.0000 0.0000 -12.8046
#
#
#
# Elastic Compliance Matrix: (Units=1/GPa)
#
#
# Indices 1 2 3 4 5 6 
#
# 1 0.013735 -0.001804 0.001901 0.000000 0.000000 0.000000
# 2 -0.001804 0.010222 -0.007784 0.000000 0.000000 0.000000
# 3 0.001901 -0.007784 0.013018 0.000000 0.000000 0.000000
# 4 0.000000 0.000000 0.000000 0.067929 0.000000 0.000000
# 5 0.000000 0.000000 0.000000 0.000000 0.075149 0.000000
# 6 0.000000 0.000000 0.000000 0.000000 0.000000 -0.078097
#
#
# Mechanical properties :
#
#
# Convention : Reuss Voigt Hill
#
# Bulk Modulus (GPa) = 46.29500 68.57049 57.43275
# Shear Modulus (GPa) = 40.15083 22.16127 31.15605
#
# Velocity S-wave (km/s) = 4.25020 3.15762 3.74398
# Velocity P-wave (km/s) = 6.70180 6.64414 6.67303
#
# Compressibility (1/GPa) = 0.02160060
#
# Stress axis : x y z
#
# Youngs Moduli (GPa) = 72.80894 97.82486 76.81542
#
# Poissons Ratio (x) = 0.17645 -0.14601
# Poissons Ratio (y) = 0.13133 0.59795
# Poissons Ratio (z) = -0.13839 0.76149
#
# Static dielectric constant tensor:
#      x y z
#    x 1.881310 0.000000 0.000000 
#    y 0.000000 1.827080 0.000000 
#    z 0.000000 0.000000 1.770200 
# 
# From -- ./inp_files/36029.got.cif
#   From: 2010.05.17/outbox.cif.g08.bks.cpg/sg51_19_cif.got.tgz:36029.got - 2010.06.03 11:52:47.
