data_PCOD9403246
_publ_section_title
;
Structure prediction by ZEFSAII (Michael W. Deem and Ramdas Pophale) SiO2 
 PCOD9403246
Probable space group: P M M A
;
_chemical_formula_sum "Si O2"
_cell_formula_units_Z 56
_cell_length_a 14.851837
_cell_length_b 9.150173
_cell_length_c 18.773901
_cell_angle_alpha 90.000000
_cell_angle_beta 90.000000
_cell_angle_gamma 90.000000
_cell_volume 2551.314532
_symmetry_space_group_name_H-M "P M M A"
_symmetry_group_IT_number 51
_symmetry_cell_setting 'orthorhombic'
loop_
_space_group_symop_operation_xyz
x,y,z
1/2-x,-y,z
1/2+x,-y,-z
-x,y,-z
-x,-y,-z
1/2+x,y,-z
1/2-x,y,z
x,-y,z
loop_
_atom_site_type_symbol
_atom_site_label
_atom_site_fract_x
_atom_site_fract_y
_atom_site_fract_z
Si Si1 0.604702 0.327399 0.642658
Si Si2 0.889750 0.166498 0.503499
Si Si3 0.139739 0.832544 0.932562
Si Si4 0.642895 0.664631 0.207840
Si Si5 0.360452 0.666944 0.076073
Si Si6 0.645078 0.162416 0.786259
Si Si7 0.413021 0.825199 0.651348
O O1 0.614295 0.500000 0.648967
O O2 0.640937 0.270975 0.566711
O O3 0.642384 0.246201 0.711728
O O4 0.501758 0.273095 0.643745
O O5 0.859803 0.198750 0.422795
O O6 0.000000 0.170469 0.500000
O O7 0.865203 0.000000 0.521866
O O8 0.250000 0.834223 0.931696
O O9 0.109145 0.739331 0.864527
O O10 0.109423 0.000000 0.928069
O O11 0.112958 0.758116 0.006643
O O12 0.750000 0.650721 0.199104
O O13 0.605937 0.500000 0.219050
O O14 0.628926 0.769064 0.275586
O O15 0.250000 0.663361 0.076751
O O16 0.391159 0.500000 0.071880
O O17 0.392643 0.743446 0.148656
O O18 0.750000 0.144890 0.803743
O O19 0.604176 0.000000 0.780290
O O20 0.432199 0.000000 0.653776
#
# Coordination Sequence:
#
# PCOD9403246 Si02
#       7
#     8   8   8   8   8   8   8
#     4  11  21  33  53  78 103 131 165 207 253 299
#     4   8  16  32  52  73  97 128 167 207 245 292
#     4   9  16  27  45  69  97 131 170 206 243 292
#     4  10  20  33  50  75 106 135 166 209 257 298
#     4   9  16  27  45  70  99 129 164 207 251 292
#     4  10  20  34  52  74 102 135 170 208 250 297
#     4  10  20  35  55  76 100 132 170 208 247 298
#
# _framework density 21.949470000000002
#
# number of rings (size 3 to 8) (size 9 to 14) (size 15 to 20)
#    0.000    2.429    0.000    4.286    0.000    8.286 
#    0.000    0.714    0.000    1.714    0.000    6.000 
#    0.000    0.000    0.000    0.000    0.000    0.000 
#
# Total GULP energy -312691.698034 kJ/mol
# GULP energy per Si atom -5583.780322 kJ/mol
# Density = 2.189951 g / cm^3
# Si number density = 21.949470 Si / 1000 Ang^3
#
#
#
# Elastic Constant Matrix: (Units=GPa)
#
#
# Indices 1 2 3 4 5 6 
#
# 1 34.3167 -3.7404 -8.2884 0.0000 0.0000 0.0000
# 2 -3.7404 166.9789 86.7163 0.0000 0.0000 0.0000
# 3 -8.2884 86.7163 175.7264 0.0000 0.0000 0.0000
# 4 0.0000 0.0000 0.0000 38.1255 0.0000 0.0000
# 5 0.0000 0.0000 0.0000 0.0000 17.0439 0.0000
# 6 0.0000 0.0000 0.0000 0.0000 0.0000 11.6470
#
#
#
# Elastic Compliance Matrix: (Units=1/GPa)
#
#
# Indices 1 2 3 4 5 6 
#
# 1 0.029477 -0.000083 0.001431 0.000000 0.000000 0.000000
# 2 -0.000083 0.008053 -0.003978 0.000000 0.000000 0.000000
# 3 0.001431 -0.003978 0.007721 0.000000 0.000000 0.000000
# 4 0.000000 0.000000 0.000000 0.026229 0.000000 0.000000
# 5 0.000000 0.000000 0.000000 0.000000 0.058672 0.000000
# 6 0.000000 0.000000 0.000000 0.000000 0.000000 0.085859
#
#
# Mechanical properties :
#
#
# Convention : Reuss Voigt Hill
#
# Bulk Modulus (GPa) = 25.00509 58.48856 41.74682
# Shear Modulus (GPa) = 21.31290 33.51895 27.41592
#
# Velocity S-wave (km/s) = 3.11947 3.91205 3.53802
# Velocity P-wave (km/s) = 4.93878 6.86369 5.97921
#
# Compressibility (1/GPa) = 0.03999186
#
# Stress axis : x y z
#
# Youngs Moduli (GPa) = 33.92479 124.18316 129.51609
#
# Poissons Ratio (x) = 0.01031 -0.18538
# Poissons Ratio (y) = 0.00282 0.51517
# Poissons Ratio (z) = -0.04856 0.49396
#
# Static dielectric constant tensor:
#      x y z
#    x 1.942050 0.000000 0.000000 
#    y 0.000000 1.766530 0.000000 
#    z 0.000000 0.000000 1.795780 
# 
# From -- ./inp_files/25771.got.cif
#   From: 2010.05.17/outbox.cif.g08.bks.cpg/sg51_13_cif.got.tgz:25771.got - 2010.06.03 11:52:47.
