data_PCOD9403733
_publ_section_title
;
Structure prediction by ZEFSAII (Michael W. Deem and Ramdas Pophale) SiO2 
 PCOD9403733
Probable space group: P M M A
;
_chemical_formula_sum "Si O2"
_cell_formula_units_Z 64
_cell_length_a 8.754033
_cell_length_b 18.790544
_cell_length_c 20.057666
_cell_angle_alpha 90.000000
_cell_angle_beta 90.000000
_cell_angle_gamma 90.000000
_cell_volume 3299.346501
_symmetry_space_group_name_H-M "P M M A"
_symmetry_group_IT_number 51
_symmetry_cell_setting 'orthorhombic'
loop_
_space_group_symop_operation_xyz
x,y,z
1/2-x,-y,z
1/2+x,-y,-z
-x,y,-z
-x,-y,-z
1/2+x,y,-z
1/2-x,y,z
x,-y,z
loop_
_atom_site_type_symbol
_atom_site_label
_atom_site_fract_x
_atom_site_fract_y
_atom_site_fract_z
Si Si1 0.571205 0.835067 0.824002
Si Si2 0.065845 0.919467 0.707037
Si Si3 0.566357 0.150655 0.428960
Si Si4 0.421987 0.084278 0.933598
Si Si5 0.434914 0.288605 0.073895
Si Si6 0.066044 0.416289 0.313634
Si Si7 0.935879 0.419117 0.837908
Si Si8 0.066984 0.316063 0.572145
O O1 0.750000 0.825821 0.811847
O O2 0.490802 0.857362 0.755979
O O3 0.532326 0.900322 0.872683
O O4 0.517407 0.769105 0.869847
O O5 0.250000 0.919999 0.710257
O O6 0.018184 0.898591 0.632346
O O7 0.013926 0.000000 0.724486
O O8 0.500000 0.128698 0.500000
O O9 0.750000 0.148780 0.432500
O O10 0.521568 0.233301 0.416553
O O11 0.250000 0.112501 0.923095
O O12 0.408384 0.000000 0.941632
O O13 0.500000 0.114071 0.000000
O O14 0.250000 0.284913 0.069812
O O15 0.482848 0.364172 0.105390
O O16 0.500000 0.278305 0.000000
O O17 0.250000 0.409710 0.317350
O O18 0.029085 0.500000 0.324032
O O19 0.018826 0.397676 0.237552
O O20 0.992933 0.366152 0.369008
O O21 0.750000 0.419439 0.837380
O O22 0.986914 0.500000 0.849760
O O23 0.250000 0.319467 0.569436
O O24 0.000000 0.337297 0.500000
#
# Coordination Sequence:
#
# PCOD9403733 Si02
#       8
#     8   8   8   8   8   8   8   8
#     4  11  23  36  53  80 112 143 180 226 271 323
#     4  10  22  40  60  83 113 148 184 225 278 335
#     4   9  20  38  58  83 113 146 186 229 278 332
#     4  10  20  34  53  75 101 138 180 221 268 321
#     4  10  22  38  56  83 113 144 183 226 274 326
#     4   9  18  33  55  81 109 146 190 233 278 329
#     4   8  16  34  58  81 108 144 184 226 275 330
#     4  10  20  34  53  79 112 150 189 231 277 328
#
# _framework density 19.397780999999998
#
# number of rings (size 3 to 8) (size 9 to 14) (size 15 to 20)
#    0.000    2.375    0.000    2.625    1.750    6.500 
#    0.000    0.625    0.000    0.750    0.000    0.000 
#    0.000    0.000    0.000    0.000    0.000    0.000 
#
# Total GULP energy -356948.970452 kJ/mol
# GULP energy per Si atom -5577.327663 kJ/mol
# Density = 1.935363 g / cm^3
# Si number density = 19.397781 Si / 1000 Ang^3
#
#
#
# Elastic Constant Matrix: (Units=GPa)
#
#
# Indices 1 2 3 4 5 6 
#
# 1 9.7994 25.8655 19.7449 0.0000 0.0000 0.0000
# 2 25.8655 87.2904 70.1623 0.0000 0.0000 0.0000
# 3 19.7449 70.1623 132.5622 0.0000 0.0000 0.0000
# 4 0.0000 0.0000 0.0000 18.5833 0.0000 0.0000
# 5 0.0000 0.0000 0.0000 0.0000 28.1682 0.0000
# 6 0.0000 0.0000 0.0000 0.0000 0.0000 118.5039
#
#
#
# Elastic Compliance Matrix: (Units=1/GPa)
#
#
# Indices 1 2 3 4 5 6 
#
# 1 0.471544 -0.144927 0.006471 0.000000 0.000000 0.000000
# 2 -0.144927 0.064481 -0.012542 0.000000 0.000000 0.000000
# 3 0.006471 -0.012542 0.013218 0.000000 0.000000 0.000000
# 4 0.000000 0.000000 0.000000 0.053812 0.000000 0.000000
# 5 0.000000 0.000000 0.000000 0.000000 0.035501 0.000000
# 6 0.000000 0.000000 0.000000 0.000000 0.000000 0.008439
#
#
# Mechanical properties :
#
#
# Convention : Reuss Voigt Hill
#
# Bulk Modulus (GPa) = 4.04453 51.24415 27.64434
# Shear Modulus (GPa) = 4.84775 40.64302 22.74539
#
# Velocity S-wave (km/s) = 1.58258 4.58235 3.42801
# Velocity P-wave (km/s) = 2.33002 7.38052 5.47271
#
# Compressibility (1/GPa) = 0.24724743
#
# Stress axis : x y z
#
# Youngs Moduli (GPa) = 2.12069 15.50844 75.65529
#
# Poissons Ratio (x) = 2.24760 -0.48958
# Poissons Ratio (y) = 0.30735 0.94885
# Poissons Ratio (z) = -0.01372 0.19450
#
# Static dielectric constant tensor:
#      x y z
#    x 1.674010 0.000000 0.000000 
#    y 0.000000 1.708890 0.000000 
#    z 0.000000 0.000000 1.656270 
# 
# From -- ./inp_files/32415.got.cif
#   From: 2010.05.17/outbox.cif.g08.bks.cpg/sg51_17_cif.got.tgz:32415.got - 2010.06.03 11:52:47.
