data_PCOD9403863
_publ_section_title
;
Structure prediction by ZEFSAII (Michael W. Deem and Ramdas Pophale) SiO2 
 PCOD9403863
Probable space group: P M M A
;
_chemical_formula_sum "Si O2"
_cell_formula_units_Z 40
_cell_length_a 13.681387
_cell_length_b 13.350190
_cell_length_c 12.055933
_cell_angle_alpha 90.000000
_cell_angle_beta 90.000000
_cell_angle_gamma 90.000000
_cell_volume 2202.005504
_symmetry_space_group_name_H-M "P M M A"
_symmetry_group_IT_number 51
_symmetry_cell_setting 'orthorhombic'
loop_
_space_group_symop_operation_xyz
x,y,z
1/2-x,-y,z
1/2+x,-y,-z
-x,y,-z
-x,-y,-z
1/2+x,y,-z
1/2-x,y,z
x,-y,z
loop_
_atom_site_type_symbol
_atom_site_label
_atom_site_fract_x
_atom_site_fract_y
_atom_site_fract_z
Si Si1 0.476337 0.883946 0.870448
Si Si2 0.972211 0.614052 0.630576
Si Si3 0.364983 0.268320 0.730629
Si Si4 0.865905 0.187086 0.695180
Si Si5 0.632128 0.108381 0.455761
O O1 0.396385 0.801591 0.833352
O O2 0.570933 0.855926 0.796177
O O3 0.447169 0.000000 0.849113
O O4 0.500000 0.875167 0.000000
O O5 0.938383 0.500000 0.644780
O O6 0.894763 0.697850 0.668681
O O7 0.000000 0.626026 0.500000
O O8 0.067264 0.636288 0.707289
O O9 0.250000 0.289279 0.730509
O O10 0.393356 0.197265 0.626247
O O11 0.750000 0.176592 0.712962
O O12 0.894413 0.129203 0.582264
O O13 0.750000 0.106182 0.453328
O O14 0.596402 0.000000 0.418563
#
# Coordination Sequence:
#
# PCOD9403863 Si02
#       5
#     8   8   8   8   8
#     4  10  22  37  54  80 111 145 185 225 265 311
#     4  10  20  34  53  81 114 143 174 219 275 329
#     4  10  20  35  54  79 110 144 180 220 268 323
#     4  10  20  35  54  79 110 144 180 220 268 323
#     4   9  16  27  47  76 105 135 170 206 254 318
#
# _framework density 18.165258999999999
#
# number of rings (size 3 to 8) (size 9 to 14) (size 15 to 20)
#    0.000    2.200    2.000    1.200    0.000    4.000 
#    0.000    7.000    0.000    9.600    0.000   11.200 
#    0.000    0.000    0.000    0.000    0.000    0.000 
#
# Total GULP energy -223151.985820 kJ/mol
# GULP energy per Si atom -5578.799645 kJ/mol
# Density = 1.812391 g / cm^3
# Si number density = 18.165259 Si / 1000 Ang^3
#
#
#
# Elastic Constant Matrix: (Units=GPa)
#
#
# Indices 1 2 3 4 5 6 
#
# 1 47.7557 -20.9653 -4.3932 0.0000 0.0000 0.0000
# 2 -20.9653 68.2658 11.3501 0.0000 0.0000 0.0000
# 3 -4.3932 11.3501 84.3346 0.0000 0.0000 0.0000
# 4 0.0000 0.0000 0.0000 -1.2159 0.0000 0.0000
# 5 0.0000 0.0000 0.0000 0.0000 20.4654 0.0000
# 6 0.0000 0.0000 0.0000 0.0000 0.0000 14.7674
#
#
#
# Elastic Compliance Matrix: (Units=1/GPa)
#
#
# Indices 1 2 3 4 5 6 
#
# 1 0.024209 0.007391 0.000266 0.000000 0.000000 0.000000
# 2 0.007391 0.017240 -0.001935 0.000000 0.000000 0.000000
# 3 0.000266 -0.001935 0.012132 0.000000 0.000000 0.000000
# 4 0.000000 0.000000 0.000000 -0.822413 0.000000 0.000000
# 5 0.000000 0.000000 0.000000 0.000000 0.048863 0.000000
# 6 0.000000 0.000000 0.000000 0.000000 0.000000 0.067717
#
#
# Mechanical properties :
#
#
# Convention : Reuss Voigt Hill
#
# Bulk Modulus (GPa) = 15.37882 19.14883 17.26382
# Shear Modulus (GPa) = -7.78790 21.09434 6.65322
#
# Velocity S-wave (km/s) = -2.07281 3.41140 1.91587
# Velocity P-wave (km/s) = 1.66003 5.10698 3.79717
#
# Compressibility (1/GPa) = 0.06502449
#
# Stress axis : x y z
#
# Youngs Moduli (GPa) = 41.30699 58.00422 82.42758
#
# Poissons Ratio (x) = -0.42869 -0.02196
# Poissons Ratio (y) = -0.30528 0.15952
# Poissons Ratio (z) = -0.01101 0.11225
#
# Static dielectric constant tensor:
#      x y z
#    x 1.650890 0.000000 0.000000 
#    y 0.000000 1.636260 0.000000 
#    z 0.000000 0.000000 1.608810 
# 
# From -- ./inp_files/16153.got.cif
#   From: 2010.05.17/outbox.cif.g08.bks.cpg/sg51_9_cif.got.tgz:16153.got - 2010.06.03 11:52:47.
