data_PCOD9403019
_publ_section_title
;
Structure prediction by ZEFSAII (Michael W. Deem and Ramdas Pophale) SiO2 
 PCOD9403019
Probable space group: P M M A
;
_chemical_formula_sum "Si O2"
_cell_formula_units_Z 30
_cell_length_a 15.081151
_cell_length_b 8.123296
_cell_length_c 13.822069
_cell_angle_alpha 90.000000
_cell_angle_beta 90.000000
_cell_angle_gamma 90.000000
_cell_volume 1693.323063
_symmetry_space_group_name_H-M "P M M A"
_symmetry_group_IT_number 51
_symmetry_cell_setting 'orthorhombic'
loop_
_space_group_symop_operation_xyz
x,y,z
1/2-x,-y,z
1/2+x,-y,-z
-x,y,-z
-x,-y,-z
1/2+x,y,-z
1/2-x,y,z
x,-y,z
loop_
_atom_site_type_symbol
_atom_site_label
_atom_site_fract_x
_atom_site_fract_y
_atom_site_fract_z
Si Si1 0.250000 0.304848 0.507114
Si Si2 0.051475 0.680177 0.232563
Si Si3 0.941641 0.000000 0.905214
Si Si4 0.250000 0.258795 0.292988
Si Si5 0.436012 0.803420 0.591920
Si Si6 0.750000 0.000000 0.878947
O O1 0.250000 0.500000 0.482168
O O2 0.250000 0.205837 0.405217
O O3 0.161460 0.260900 0.565515
O O4 0.035171 0.500000 0.187380
O O5 0.150247 0.671503 0.279892
O O6 0.981099 0.714993 0.317229
O O7 0.046188 0.835853 0.160115
O O8 0.839243 0.000000 0.937918
O O9 0.000000 0.000000 0.000000
O O10 0.250000 0.146025 0.198195
O O11 0.500000 0.775582 0.500000
O O12 0.432953 0.000000 0.609699
#
# Coordination Sequence:
#
# PCOD9403019 Si02
#       6
#     4   8   4   4   8   2
#     4  12  23  33  51  81 119 162 200 239 282 335
#     4  11  21  38  61  88 120 156 196 242 294 350
#     4  10  22  42  62  87 115 144 194 247 307 355
#     4  10  20  32  57  88 119 151 191 245 292 334
#     4  11  23  36  54  81 119 162 199 233 283 346
#     4   8  20  36  60  86 108 144 184 244 304 356
#
# _framework density 17.716643999999999
#
# number of rings (size 3 to 8) (size 9 to 14) (size 15 to 20)
#    0.000    1.333    4.000    2.400    1.867    1.600 
#    0.000    1.333    0.000    0.000    0.000    0.000 
#    0.000    0.000    0.000    0.000    0.000    0.000 
#
# Total GULP energy -167065.419460 kJ/mol
# GULP energy per Si atom -5568.847315 kJ/mol
# Density = 1.767632 g / cm^3
# Si number density = 17.716644 Si / 1000 Ang^3
#
#
#
# Elastic Constant Matrix: (Units=GPa)
#
#
# Indices 1 2 3 4 5 6 
#
# 1 163.2059 47.9314 65.3821 0.0000 0.0000 0.0000
# 2 47.9314 108.4428 43.3418 0.0000 0.0000 0.0000
# 3 65.3821 43.3418 81.9354 0.0000 0.0000 0.0000
# 4 0.0000 0.0000 0.0000 5.9279 0.0000 0.0000
# 5 0.0000 0.0000 0.0000 0.0000 40.3472 0.0000
# 6 0.0000 0.0000 0.0000 0.0000 0.0000 -57.6241
#
#
#
# Elastic Compliance Matrix: (Units=1/GPa)
#
#
# Indices 1 2 3 4 5 6 
#
# 1 0.009179 -0.001432 -0.006566 0.000000 0.000000 0.000000
# 2 -0.001432 0.011917 -0.005161 0.000000 0.000000 0.000000
# 3 -0.006566 -0.005161 0.020175 0.000000 0.000000 0.000000
# 4 0.000000 0.000000 0.000000 0.168693 0.000000 0.000000
# 5 0.000000 0.000000 0.000000 0.000000 0.024785 0.000000
# 6 0.000000 0.000000 0.000000 0.000000 0.000000 -0.017354
#
#
# Mechanical properties :
#
#
# Convention : Reuss Voigt Hill
#
# Bulk Modulus (GPa) = 66.88622 74.09942 70.49282
# Shear Modulus (GPa) = 20.10477 10.85880 15.48179
#
# Velocity S-wave (km/s) = 3.37233 2.47840 2.95931
# Velocity P-wave (km/s) = 7.28002 7.07852 7.17998
#
# Compressibility (1/GPa) = 0.01495076
#
# Stress axis : x y z
#
# Youngs Moduli (GPa) = 108.94998 83.91192 49.56728
#
# Poissons Ratio (x) = 0.12020 0.32548
# Poissons Ratio (y) = 0.15606 0.25581
# Poissons Ratio (z) = 0.71542 0.43306
#
# Static dielectric constant tensor:
#      x y z
#    x 1.597990 0.000000 0.000000 
#    y 0.000000 1.674820 0.000000 
#    z 0.000000 0.000000 1.547690 
# 
# From -- ./inp_files/15872.got.cif
#   From: 2010.05.17/outbox.cif.g08.bks.cpg/sg51_8_cif.got.tgz:15872.got - 2010.06.03 11:52:47.
