data_PCOD9403463
_publ_section_title
;
Structure prediction by ZEFSAII (Michael W. Deem and Ramdas Pophale) SiO2 
 PCOD9403463
Probable space group: P M M A
;
_chemical_formula_sum "Si O2"
_cell_formula_units_Z 48
_cell_length_a 9.460481
_cell_length_b 7.806552
_cell_length_c 31.608743
_cell_angle_alpha 90.000000
_cell_angle_beta 90.000000
_cell_angle_gamma 90.000000
_cell_volume 2334.423788
_symmetry_space_group_name_H-M "P M M A"
_symmetry_group_IT_number 51
_symmetry_cell_setting 'orthorhombic'
loop_
_space_group_symop_operation_xyz
x,y,z
1/2-x,-y,z
1/2+x,-y,-z
-x,y,-z
-x,-y,-z
1/2+x,y,-z
1/2-x,y,z
x,-y,z
loop_
_atom_site_type_symbol
_atom_site_label
_atom_site_fract_x
_atom_site_fract_y
_atom_site_fract_z
Si Si1 0.587985 0.793014 0.798834
Si Si2 0.409193 0.796235 0.039111
Si Si3 0.911190 0.706200 0.540291
Si Si4 0.589405 0.793271 0.376821
Si Si5 0.912600 0.209048 0.703280
Si Si6 0.409737 0.297389 0.880052
O O1 0.750000 0.737408 0.807664
O O2 0.550671 0.736875 0.751088
O O3 0.481873 0.734962 0.834888
O O4 0.588547 0.000000 0.798936
O O5 0.250000 0.725423 0.040984
O O6 0.492122 0.773222 0.082768
O O7 0.396767 0.000000 0.032171
O O8 0.500000 0.724552 0.000000
O O9 0.750000 0.771244 0.540686
O O10 0.904401 0.500000 0.536816
O O11 0.000000 0.770806 0.500000
O O12 0.993483 0.747593 0.583200
O O13 0.750000 0.730131 0.381663
O O14 0.516141 0.731136 0.333567
O O15 0.594564 0.000000 0.374532
O O16 0.750000 0.259689 0.694684
O O17 0.914827 0.000000 0.703156
O O18 0.250000 0.226957 0.881816
O O19 0.402374 0.500000 0.886546
#
# Coordination Sequence:
#
# PCOD9403463 Si02
#       6
#     8   8   8   8   8   8
#     4   9  18  34  57  82 105 134 176 221 264 312
#     4  10  21  38  61  86 109 136 174 218 263 313
#     4  10  21  37  56  76 100 134 175 216 260 311
#     4  10  20  33  52  80 110 138 171 212 259 311
#     4   8  15  30  52  77 105 136 171 214 262 310
#     4  11  24  38  52  76 111 147 181 217 260 310
#
# _framework density 20.561819
#
# number of rings (size 3 to 8) (size 9 to 14) (size 15 to 20)
#    0.000    2.333    0.000    3.500    0.000    8.000 
#    0.000    2.500    0.000    1.000    0.000    0.000 
#    0.000    0.000    0.000    0.000    0.000    0.000 
#
# Total GULP energy -268077.173323 kJ/mol
# GULP energy per Si atom -5584.941111 kJ/mol
# Density = 2.051502 g / cm^3
# Si number density = 20.561819 Si / 1000 Ang^3
#
#
#
# Elastic Constant Matrix: (Units=GPa)
#
#
# Indices 1 2 3 4 5 6 
#
# 1 210.7616 8.1834 127.5860 0.0000 0.0000 0.0000
# 2 8.1834 24.5246 -3.0828 0.0000 0.0000 0.0000
# 3 127.5860 -3.0828 160.6345 0.0000 0.0000 0.0000
# 4 0.0000 0.0000 0.0000 66.4281 0.0000 0.0000
# 5 0.0000 0.0000 0.0000 0.0000 43.1435 0.0000
# 6 0.0000 0.0000 0.0000 0.0000 0.0000 6.8067
#
#
#
# Elastic Compliance Matrix: (Units=1/GPa)
#
#
# Indices 1 2 3 4 5 6 
#
# 1 0.009542 -0.004147 -0.007658 0.000000 0.000000 0.000000
# 2 -0.004147 0.042676 0.004112 0.000000 0.000000 0.000000
# 3 -0.007658 0.004112 0.012387 0.000000 0.000000 0.000000
# 4 0.000000 0.000000 0.000000 0.015054 0.000000 0.000000
# 5 0.000000 0.000000 0.000000 0.000000 0.023178 0.000000
# 6 0.000000 0.000000 0.000000 0.000000 0.000000 0.146914
#
#
# Mechanical properties :
#
#
# Convention : Reuss Voigt Hill
#
# Bulk Modulus (GPa) = 20.31695 73.47711 46.89703
# Shear Modulus (GPa) = 17.75933 40.82459 29.29196
#
# Velocity S-wave (km/s) = 2.94207 4.46068 3.77846
# Velocity P-wave (km/s) = 4.63070 7.89573 6.47248
#
# Compressibility (1/GPa) = 0.04921998
#
# Stress axis : x y z
#
# Youngs Moduli (GPa) = 104.80443 23.43238 80.73128
#
# Poissons Ratio (x) = 0.09716 0.61825
# Poissons Ratio (y) = 0.43457 -0.33200
# Poissons Ratio (z) = 0.80260 -0.09636
#
# Static dielectric constant tensor:
#      x y z
#    x 1.726360 0.000000 0.000000 
#    y 0.000000 1.763580 0.000000 
#    z 0.000000 0.000000 1.693150 
# 
# From -- ./inp_files/36930.got.cif
#   From: 2010.05.17/outbox.cif.g08.bks.cpg/sg51_19_cif.got.tgz:36930.got - 2010.06.03 11:52:47.
