data_PCOD9403495
_publ_section_title
;
Structure prediction by ZEFSAII (Michael W. Deem and Ramdas Pophale) SiO2 
 PCOD9403495
Probable space group: P M M A
;
_chemical_formula_sum "Si O2"
_cell_formula_units_Z 48
_cell_length_a 13.966131
_cell_length_b 16.384423
_cell_length_c 9.870827
_cell_angle_alpha 90.000000
_cell_angle_beta 90.000000
_cell_angle_gamma 90.000000
_cell_volume 2258.711710
_symmetry_space_group_name_H-M "P M M A"
_symmetry_group_IT_number 51
_symmetry_cell_setting 'orthorhombic'
loop_
_space_group_symop_operation_xyz
x,y,z
1/2-x,-y,z
1/2+x,-y,-z
-x,y,-z
-x,-y,-z
1/2+x,y,-z
1/2-x,y,z
x,-y,z
loop_
_atom_site_type_symbol
_atom_site_label
_atom_site_fract_x
_atom_site_fract_y
_atom_site_fract_z
Si Si1 0.140335 0.240097 0.015449
Si Si2 0.432850 0.235237 0.298781
Si Si3 0.636958 0.410335 0.123408
Si Si4 0.353636 0.806497 0.714883
Si Si5 0.531523 0.410121 0.656245
Si Si6 0.886791 0.088587 0.519837
O O1 0.250000 0.238677 0.063773
O O2 0.117233 0.333048 0.971367
O O3 0.137038 0.188832 0.876659
O O4 0.076466 0.213955 0.140583
O O5 0.546569 0.232814 0.335479
O O6 0.405107 0.329759 0.316719
O O7 0.375085 0.167492 0.383588
O O8 0.750000 0.405192 0.162252
O O9 0.623209 0.500000 0.059253
O O10 0.562941 0.405492 0.247833
O O11 0.250000 0.764073 0.690795
O O12 0.349533 0.888870 0.628780
O O13 0.500000 0.407347 0.500000
O O14 0.575449 0.500000 0.681548
O O15 0.000000 0.082802 0.500000
O O16 0.853928 0.000000 0.569656
#
# Coordination Sequence:
#
# PCOD9403495 Si02
#       6
#     8   8   8   8   8   8
#     4  10  21  36  54  83 118 154 201 245 294 356
#     4  11  21  36  59  87 119 158 191 244 306 349
#     4   9  18  33  54  79 112 155 204 252 292 344
#     4  10  20  35  58  84 112 150 196 241 288 351
#     4  10  20  33  52  84 119 153 198 243 292 354
#     4   9  20  39  61  84 111 147 195 243 295 358
#
# _framework density 21.251052999999999
#
# number of rings (size 3 to 8) (size 9 to 14) (size 15 to 20)
#    0.000    2.167    1.667    2.000    0.000    1.667 
#    0.000    3.333    0.000    6.000    0.000    0.000 
#    0.000    0.000    0.000    0.000    0.000    0.000 
#
# Total GULP energy -267392.646467 kJ/mol
# GULP energy per Si atom -5570.680135 kJ/mol
# Density = 2.120268 g / cm^3
# Si number density = 21.251053 Si / 1000 Ang^3
#
#
#
# Elastic Constant Matrix: (Units=GPa)
#
#
# Indices 1 2 3 4 5 6 
#
# 1 82.1957 18.7338 6.6565 0.0000 0.0000 0.0000
# 2 18.7338 150.2055 62.2805 0.0000 0.0000 0.0000
# 3 6.6565 62.2805 93.7128 0.0000 0.0000 0.0000
# 4 0.0000 0.0000 0.0000 -21.7546 0.0000 0.0000
# 5 0.0000 0.0000 0.0000 0.0000 260.5290 0.0000
# 6 0.0000 0.0000 0.0000 0.0000 0.0000 -38.2052
#
#
#
# Elastic Compliance Matrix: (Units=1/GPa)
#
#
# Indices 1 2 3 4 5 6 
#
# 1 0.012525 -0.001647 0.000205 0.000000 0.000000 0.000000
# 2 -0.001647 0.009407 -0.006134 0.000000 0.000000 0.000000
# 3 0.000205 -0.006134 0.014733 0.000000 0.000000 0.000000
# 4 0.000000 0.000000 0.000000 -0.045967 0.000000 0.000000
# 5 0.000000 0.000000 0.000000 0.000000 0.003838 0.000000
# 6 0.000000 0.000000 0.000000 0.000000 0.000000 -0.026174
#
#
# Mechanical properties :
#
#
# Convention : Reuss Voigt Hill
#
# Bulk Modulus (GPa) = 46.48683 55.71729 51.10206
# Shear Modulus (GPa) = -536.76954 56.01007 -240.37974
#
# Velocity S-wave (km/s) = -15.91016 5.13942 -10.64706
# Velocity P-wave (km/s) = 17.76481 7.84179 11.27153
#
# Compressibility (1/GPa) = 0.02151147
#
# Stress axis : x y z
#
# Youngs Moduli (GPa) = 79.84104 106.30885 67.87370
#
# Poissons Ratio (x) = 0.17510 -0.01391
# Poissons Ratio (y) = 0.13151 0.41637
# Poissons Ratio (z) = -0.01637 0.65215
#
# Static dielectric constant tensor:
#      x y z
#    x 1.849490 0.000000 0.000000 
#    y 0.000000 1.824540 0.000000 
#    z 0.000000 0.000000 1.763450 
# 
# From -- ./inp_files/8278.got.cif
#   From: 2010.05.17/outbox.cif.g08.bks.cpg/sg51_5_cif.got.tgz:8278.got - 2010.06.03 11:52:47.
