data_PCOD9403583
_publ_section_title
;
Structure prediction by ZEFSAII (Michael W. Deem and Ramdas Pophale) SiO2 
 PCOD9403583
Probable space group: P M M A
;
_chemical_formula_sum "Si O2"
_cell_formula_units_Z 52
_cell_length_a 8.705795
_cell_length_b 18.864470
_cell_length_c 19.020621
_cell_angle_alpha 90.000000
_cell_angle_beta 90.000000
_cell_angle_gamma 90.000000
_cell_volume 3123.760555
_symmetry_space_group_name_H-M "P M M A"
_symmetry_group_IT_number 51
_symmetry_cell_setting 'orthorhombic'
loop_
_space_group_symop_operation_xyz
x,y,z
1/2-x,-y,z
1/2+x,-y,-z
-x,y,-z
-x,-y,-z
1/2+x,y,-z
1/2-x,y,z
x,-y,z
loop_
_atom_site_type_symbol
_atom_site_label
_atom_site_fract_x
_atom_site_fract_y
_atom_site_fract_z
Si Si1 0.065870 0.361838 0.346321
Si Si2 0.066772 0.500000 0.578554
Si Si3 0.065405 0.850604 0.282679
Si Si4 0.935051 0.922049 0.154665
Si Si5 0.064950 0.222089 0.923066
Si Si6 0.566022 0.785471 0.576992
Si Si7 0.566365 0.706688 0.215794
O O1 0.250000 0.366370 0.348604
O O2 0.019034 0.291024 0.390195
O O3 0.992259 0.430337 0.381355
O O4 0.011982 0.350927 0.265848
O O5 0.250000 0.500000 0.575508
O O6 0.000000 0.500000 0.500000
O O7 0.250000 0.844758 0.276733
O O8 0.025354 0.845420 0.365143
O O9 0.005285 0.912279 0.232480
O O10 0.986050 0.781061 0.249856
O O11 0.750000 0.917783 0.160186
O O12 0.985770 0.855210 0.107138
O O13 0.975758 0.000000 0.126542
O O14 0.250000 0.220649 0.925773
O O15 0.021413 0.282099 0.865658
O O16 0.000000 0.234148 0.000000
O O17 0.500000 0.796018 0.500000
O O18 0.750000 0.783870 0.572107
O O19 0.750000 0.699387 0.219931
#
# Coordination Sequence:
#
# PCOD9403583 Si02
#       7
#     8   4   8   8   8   8   8
#     4  10  20  34  50  71  98 129 165 202 238 282
#     4  12  24  36  50  72 105 142 173 204 242 284
#     4   9  17  29  44  65  89 114 151 196 236 278
#     4   9  18  32  47  64  89 122 157 191 232 286
#     4   9  18  30  46  70  99 126 154 192 236 282
#     4   9  18  29  44  66  90 115 147 190 236 278
#     4   9  17  31  49  69  93 124 160 197 237 280
#
# _framework density 16.646602999999999
#
# number of rings (size 3 to 8) (size 9 to 14) (size 15 to 20)
#    0.000    2.615    0.000    4.385    0.000    8.615 
#    0.000    0.000    0.000    0.462    0.000    0.538 
#    0.000    0.000    0.000    0.000    0.000    0.000 
#
# Total GULP energy -289593.438290 kJ/mol
# GULP energy per Si atom -5569.104582 kJ/mol
# Density = 1.660871 g / cm^3
# Si number density = 16.646603 Si / 1000 Ang^3
#
#
#
# Elastic Constant Matrix: (Units=GPa)
#
#
# Indices 1 2 3 4 5 6 
#
# 1 36.1316 16.2005 30.0139 0.0000 0.0000 0.0000
# 2 16.2005 43.3425 34.8122 0.0000 0.0000 0.0000
# 3 30.0139 34.8122 148.9628 0.0000 0.0000 0.0000
# 4 0.0000 0.0000 0.0000 17.1817 0.0000 0.0000
# 5 0.0000 0.0000 0.0000 0.0000 32.3766 0.0000
# 6 0.0000 0.0000 0.0000 0.0000 0.0000 18.3719
#
#
#
# Elastic Compliance Matrix: (Units=1/GPa)
#
#
# Indices 1 2 3 4 5 6 
#
# 1 0.036118 -0.009424 -0.005075 0.000000 0.000000 0.000000
# 2 -0.009424 0.030862 -0.005314 0.000000 0.000000 0.000000
# 3 -0.005075 -0.005314 0.008977 0.000000 0.000000 0.000000
# 4 0.000000 0.000000 0.000000 0.058202 0.000000 0.000000
# 5 0.000000 0.000000 0.000000 0.000000 0.030887 0.000000
# 6 0.000000 0.000000 0.000000 0.000000 0.000000 0.054431
#
#
# Mechanical properties :
#
#
# Convention : Reuss Voigt Hill
#
# Bulk Modulus (GPa) = 27.52355 43.38778 35.45566
# Shear Modulus (GPa) = 18.43577 23.41340 20.92459
#
# Velocity S-wave (km/s) = 3.33149 3.75440 3.54925
# Velocity P-wave (km/s) = 5.60075 6.70184 6.17588
#
# Compressibility (1/GPa) = 0.03633253
#
# Stress axis : x y z
#
# Youngs Moduli (GPa) = 27.68733 32.40192 111.39107
#
# Poissons Ratio (x) = 0.30535 0.56529
# Poissons Ratio (y) = 0.26092 0.59190
# Poissons Ratio (z) = 0.14051 0.17217
#
# Static dielectric constant tensor:
#      x y z
#    x 1.557950 0.000000 0.000000 
#    y 0.000000 1.586560 0.000000 
#    z 0.000000 0.000000 1.585210 
# 
# From -- ./inp_files/27953.got.cif
#   From: 2010.05.17/outbox.cif.g08.bks.cpg/sg51_14_cif.got.tgz:27953.got - 2010.06.03 11:52:47.
