data_PCOD9403824
_publ_section_title
;
Structure prediction by ZEFSAII (Michael W. Deem and Ramdas Pophale) SiO2 
 PCOD9403824
Probable space group: P M M A
;
_chemical_formula_sum "Si O2"
_cell_formula_units_Z 64
_cell_length_a 15.548363
_cell_length_b 9.073183
_cell_length_c 23.693694
_cell_angle_alpha 90.000000
_cell_angle_beta 90.000000
_cell_angle_gamma 90.000000
_cell_volume 3342.543878
_symmetry_space_group_name_H-M "P M M A"
_symmetry_group_IT_number 51
_symmetry_cell_setting 'orthorhombic'
loop_
_space_group_symop_operation_xyz
x,y,z
1/2-x,-y,z
1/2+x,-y,-z
-x,y,-z
-x,-y,-z
1/2+x,y,-z
1/2-x,y,z
x,-y,z
loop_
_atom_site_type_symbol
_atom_site_label
_atom_site_fract_x
_atom_site_fract_y
_atom_site_fract_z
Si Si1 0.022512 0.823531 0.136568
Si Si2 0.098666 0.666728 0.582750
Si Si3 0.095799 0.333138 0.370569
Si Si4 0.349584 0.834712 0.475472
Si Si5 0.847799 0.175839 0.074268
Si Si6 0.153345 0.175317 0.692522
Si Si7 0.149038 0.325022 0.046989
Si Si8 0.014255 0.322849 0.255392
O O1 0.924180 0.790326 0.117530
O O2 0.039738 0.747509 0.196293
O O3 0.086596 0.759054 0.089642
O O4 0.031419 0.000000 0.140316
O O5 0.132842 0.500000 0.585199
O O6 0.104610 0.729156 0.520046
O O7 0.146084 0.770479 0.627786
O O8 0.000443 0.662762 0.603489
O O9 0.130721 0.500000 0.372479
O O10 0.145105 0.225553 0.412065
O O11 0.080900 0.286740 0.305970
O O12 0.250000 0.837401 0.492591
O O13 0.385130 0.000000 0.478415
O O14 0.750000 0.208414 0.093857
O O15 0.851935 0.000000 0.062597
O O16 0.863229 0.262478 0.016114
O O17 0.250000 0.206735 0.713233
O O18 0.078495 0.258560 0.726215
O O19 0.138917 0.000000 0.695525
O O20 0.250000 0.301451 0.061311
O O21 0.132152 0.500000 0.048243
O O22 0.009179 0.500000 0.252457
#
# Coordination Sequence:
#
# PCOD9403824 Si02
#       8
#     8   8   8   8   8   8   8   8
#     4  11  22  36  58  86 115 151 192 233 280 333
#     4  10  20  34  54  79 105 134 171 213 260 320
#     4   9  20  38  56  74  98 132 173 214 260 314
#     4  11  23  35  50  77 107 132 165 211 262 318
#     4   9  19  36  57  84 120 156 187 223 272 331
#     4  10  20  34  53  78 109 143 179 221 269 323
#     4  10  21  37  58  85 116 150 190 236 284 332
#     4  10  22  39  57  78 106 141 184 230 272 322
#
# _framework density 19.147093999999999
#
# number of rings (size 3 to 8) (size 9 to 14) (size 15 to 20)
#    0.000    2.000    0.000    4.125    0.000   11.750 
#    0.000    1.875    0.000    0.750    0.000    0.000 
#    0.000    0.000    0.000    0.000    0.000    0.000 
#
# Total GULP energy -357379.091924 kJ/mol
# GULP energy per Si atom -5584.048311 kJ/mol
# Density = 1.910351 g / cm^3
# Si number density = 19.147094 Si / 1000 Ang^3
#
#
#
# Elastic Constant Matrix: (Units=GPa)
#
#
# Indices 1 2 3 4 5 6 
#
# 1 26.1353 12.1815 12.0852 0.0000 0.0000 0.0000
# 2 12.1815 55.3767 24.4935 0.0000 0.0000 0.0000
# 3 12.0852 24.4935 81.8471 0.0000 0.0000 0.0000
# 4 0.0000 0.0000 0.0000 29.8920 0.0000 0.0000
# 5 0.0000 0.0000 0.0000 0.0000 11.1297 0.0000
# 6 0.0000 0.0000 0.0000 0.0000 0.0000 27.3481
#
#
#
# Elastic Compliance Matrix: (Units=1/GPa)
#
#
# Indices 1 2 3 4 5 6 
#
# 1 0.043814 -0.007810 -0.004132 0.000000 0.000000 0.000000
# 2 -0.007810 0.022205 -0.005492 0.000000 0.000000 0.000000
# 3 -0.004132 -0.005492 0.014472 0.000000 0.000000 0.000000
# 4 0.000000 0.000000 0.000000 0.033454 0.000000 0.000000
# 5 0.000000 0.000000 0.000000 0.000000 0.089850 0.000000
# 6 0.000000 0.000000 0.000000 0.000000 0.000000 0.036566
#
#
# Mechanical properties :
#
#
# Convention : Reuss Voigt Hill
#
# Bulk Modulus (GPa) = 21.91929 28.98661 25.45295
# Shear Modulus (GPa) = 17.21553 21.31388 19.26470
#
# Velocity S-wave (km/s) = 3.00179 3.34003 3.17542
# Velocity P-wave (km/s) = 4.84634 5.48144 5.17364
#
# Compressibility (1/GPa) = 0.04562191
#
# Stress axis : x y z
#
# Youngs Moduli (GPa) = 22.82401 45.03422 69.10123
#
# Poissons Ratio (x) = 0.35173 0.28553
# Poissons Ratio (y) = 0.17826 0.37950
# Poissons Ratio (z) = 0.09431 0.24732
#
# Static dielectric constant tensor:
#      x y z
#    x 1.679130 0.000000 0.000000 
#    y 0.000000 1.652040 0.000000 
#    z 0.000000 0.000000 1.650950 
# 
# From -- ./inp_files/33925.got.cif
#   From: 2010.05.17/outbox.cif.g08.bks.cpg/sg51_17_cif.got.tgz:33925.got - 2010.06.03 11:52:47.
