data_PCOD9403219
_publ_section_title
;
Structure prediction by ZEFSAII (Michael W. Deem and Ramdas Pophale) SiO2 
 PCOD9403219
Probable space group: P M M A
;
_chemical_formula_sum "Si O2"
_cell_formula_units_Z 48
_cell_length_a 9.364899
_cell_length_b 7.488743
_cell_length_c 32.053227
_cell_angle_alpha 90.000000
_cell_angle_beta 90.000000
_cell_angle_gamma 90.000000
_cell_volume 2247.935178
_symmetry_space_group_name_H-M "P M M A"
_symmetry_group_IT_number 51
_symmetry_cell_setting 'orthorhombic'
loop_
_space_group_symop_operation_xyz
x,y,z
1/2-x,-y,z
1/2+x,-y,-z
-x,y,-z
-x,-y,-z
1/2+x,y,-z
1/2-x,y,z
x,-y,z
loop_
_atom_site_type_symbol
_atom_site_label
_atom_site_fract_x
_atom_site_fract_y
_atom_site_fract_z
Si Si1 0.587901 0.785877 0.460555
Si Si2 0.413320 0.286585 0.631940
Si Si3 0.087707 0.285945 0.793624
Si Si4 0.912521 0.786212 0.877458
Si Si5 0.085718 0.281234 0.287483
Si Si6 0.914911 0.218332 0.041392
O O1 0.500000 0.717302 0.500000
O O2 0.750000 0.716189 0.461311
O O3 0.528429 0.748947 0.414435
O O4 0.594521 0.000000 0.464464
O O5 0.250000 0.216798 0.634197
O O6 0.404846 0.500000 0.636444
O O7 0.510205 0.221395 0.669824
O O8 0.250000 0.217478 0.796572
O O9 0.096438 0.500000 0.789695
O O10 0.997350 0.248729 0.834990
O O11 0.004963 0.221455 0.752541
O O12 0.750000 0.717292 0.876068
O O13 0.001818 0.720667 0.917298
O O14 0.903507 0.000000 0.882062
O O15 0.250000 0.224724 0.284835
O O16 0.085784 0.500000 0.287393
O O17 0.750000 0.275598 0.041015
O O18 0.913747 0.000000 0.041701
O O19 0.000000 0.273007 0.000000
#
# Coordination Sequence:
#
# PCOD9403219 Si02
#       6
#     8   8   8   8   8   8
#     4   9  18  32  48  66  91 123 155 186 225 275
#     4   9  17  30  48  69  92 118 151 192 234 275
#     4  10  20  34  53  75  99 131 169 204 242 294
#     4  10  20  33  50  74 103 132 164 205 250 293
#     4   9  17  30  49  72  96 123 157 197 239 283
#     4   9  16  27  45  69  97 129 165 204 246 293
#
# _framework density 21.352927999999999
#
# number of rings (size 3 to 8) (size 9 to 14) (size 15 to 20)
#    0.000    2.667    0.000    2.000    0.000    7.000 
#    0.000    0.833    0.000    3.500    0.000    0.000 
#    0.000    0.000    0.000    0.000    0.000    0.000 
#
# Total GULP energy -268093.863989 kJ/mol
# GULP energy per Si atom -5585.288833 kJ/mol
# Density = 2.130433 g / cm^3
# Si number density = 21.352928 Si / 1000 Ang^3
#
#
#
# Elastic Constant Matrix: (Units=GPa)
#
#
# Indices 1 2 3 4 5 6 
#
# 1 203.7887 6.5361 147.7154 0.0000 0.0000 0.0000
# 2 6.5361 59.3963 -0.7563 0.0000 0.0000 0.0000
# 3 147.7154 -0.7563 253.9269 0.0000 0.0000 0.0000
# 4 0.0000 0.0000 0.0000 19.5050 0.0000 0.0000
# 5 0.0000 0.0000 0.0000 0.0000 41.9711 0.0000
# 6 0.0000 0.0000 0.0000 0.0000 0.0000 26.2695
#
#
#
# Elastic Compliance Matrix: (Units=1/GPa)
#
#
# Indices 1 2 3 4 5 6 
#
# 1 0.008544 -0.001004 -0.004973 0.000000 0.000000 0.000000
# 2 -0.001004 0.016955 0.000634 0.000000 0.000000 0.000000
# 3 -0.004973 0.000634 0.006833 0.000000 0.000000 0.000000
# 4 0.000000 0.000000 0.000000 0.051269 0.000000 0.000000
# 5 0.000000 0.000000 0.000000 0.000000 0.023826 0.000000
# 6 0.000000 0.000000 0.000000 0.000000 0.000000 0.038067
#
#
# Mechanical properties :
#
#
# Convention : Reuss Voigt Hill
#
# Bulk Modulus (GPa) = 46.19644 91.56692 68.88168
# Shear Modulus (GPa) = 30.60079 41.79021 36.19550
#
# Velocity S-wave (km/s) = 3.78973 4.42873 4.12163
# Velocity P-wave (km/s) = 6.38992 8.31428 7.41479
#
# Compressibility (1/GPa) = 0.02164669
#
# Stress axis : x y z
#
# Youngs Moduli (GPa) = 117.03971 58.98111 146.34606
#
# Poissons Ratio (x) = 0.05919 0.72782
# Poissons Ratio (y) = 0.11745 -0.09282
# Poissons Ratio (z) = 0.58207 -0.03741
#
# Static dielectric constant tensor:
#      x y z
#    x 1.742940 0.000000 0.000000 
#    y 0.000000 1.837620 0.000000 
#    z 0.000000 0.000000 1.729470 
# 
# From -- ./inp_files/34554.got.cif
#   From: 2010.05.17/outbox.cif.g08.bks.cpg/sg51_18_cif.got.tgz:34554.got - 2010.06.03 11:52:47.
