data_PCOD9403782
_publ_section_title
;
Structure prediction by ZEFSAII (Michael W. Deem and Ramdas Pophale) SiO2 
 PCOD9403782
Probable space group: P M M A
;
_chemical_formula_sum "Si O2"
_cell_formula_units_Z 56
_cell_length_a 8.981534
_cell_length_b 18.787620
_cell_length_c 19.429761
_cell_angle_alpha 90.000000
_cell_angle_beta 90.000000
_cell_angle_gamma 90.000000
_cell_volume 3278.609888
_symmetry_space_group_name_H-M "P M M A"
_symmetry_group_IT_number 51
_symmetry_cell_setting 'orthorhombic'
loop_
_space_group_symop_operation_xyz
x,y,z
1/2-x,-y,z
1/2+x,-y,-z
-x,y,-z
-x,-y,-z
1/2+x,y,-z
1/2-x,y,z
x,-y,z
loop_
_atom_site_type_symbol
_atom_site_label
_atom_site_fract_x
_atom_site_fract_y
_atom_site_fract_z
Si Si1 0.920434 0.913418 0.069555
Si Si2 0.428725 0.720253 0.426250
Si Si3 0.071147 0.579603 0.345673
Si Si4 0.072004 0.793892 0.703733
Si Si5 0.073178 0.915839 0.212996
Si Si6 0.071079 0.416366 0.927276
Si Si7 0.071094 0.348152 0.784771
O O1 0.750000 0.888622 0.073971
O O2 0.011169 0.895070 0.137798
O O3 0.917190 0.000000 0.066503
O O4 0.000000 0.888432 0.000000
O O5 0.500000 0.734506 0.500000
O O6 0.250000 0.726129 0.428934
O O7 0.469332 0.640406 0.400495
O O8 0.494653 0.770950 0.367168
O O9 0.250000 0.581544 0.338419
O O10 0.026007 0.500000 0.365813
O O11 0.999929 0.601005 0.272837
O O12 0.250000 0.795653 0.695580
O O13 0.035722 0.731851 0.759691
O O14 0.009775 0.867776 0.731661
O O15 0.250000 0.904770 0.215925
O O16 0.043797 0.000000 0.222405
O O17 0.250000 0.411388 0.932847
O O18 0.034062 0.500000 0.915125
O O19 0.022584 0.370301 0.861283
O O20 0.000000 0.395020 0.000000
O O21 0.250000 0.356157 0.782096
#
# Coordination Sequence:
#
# PCOD9403782 Si02
#       7
#     8   8   8   8   8   8   8
#     4   9  16  27  45  70 100 132 165 202 245 293
#     4  10  20  35  54  76 104 136 169 203 243 294
#     4   9  18  31  48  73 103 133 166 205 247 291
#     4  10  20  35  55  77 101 130 166 206 250 302
#     4  10  20  34  53  77 104 134 169 209 254 305
#     4   9  17  29  45  66  93 126 166 211 254 293
#     4   9  18  32  49  69  95 129 168 209 252 299
#
# _framework density 17.080410000000001
#
# number of rings (size 3 to 8) (size 9 to 14) (size 15 to 20)
#    0.000    2.571    0.000    2.143    0.000    5.429 
#    0.000    2.143    0.000    2.143    0.000    0.000 
#    0.000    0.000    0.000    0.000    0.000    0.000 
#
# Total GULP energy -312317.152615 kJ/mol
# GULP energy per Si atom -5577.092011 kJ/mol
# Density = 1.704153 g / cm^3
# Si number density = 17.080410 Si / 1000 Ang^3
#
#
#
# Elastic Constant Matrix: (Units=GPa)
#
#
# Indices 1 2 3 4 5 6 
#
# 1 58.1245 41.5525 56.0528 0.0000 0.0000 0.0000
# 2 41.5525 57.5954 56.9123 0.0000 0.0000 0.0000
# 3 56.0528 56.9123 152.4278 0.0000 0.0000 0.0000
# 4 0.0000 0.0000 0.0000 10.3965 0.0000 0.0000
# 5 0.0000 0.0000 0.0000 0.0000 32.4004 0.0000
# 6 0.0000 0.0000 0.0000 0.0000 0.0000 18.9905
#
#
#
# Elastic Compliance Matrix: (Units=1/GPa)
#
#
# Indices 1 2 3 4 5 6 
#
# 1 0.038746 -0.021986 -0.006039 0.000000 0.000000 0.000000
# 2 -0.021986 0.039989 -0.006846 0.000000 0.000000 0.000000
# 3 -0.006039 -0.006846 0.011337 0.000000 0.000000 0.000000
# 4 0.000000 0.000000 0.000000 0.096186 0.000000 0.000000
# 5 0.000000 0.000000 0.000000 0.000000 0.030864 0.000000
# 6 0.000000 0.000000 0.000000 0.000000 0.000000 0.052658
#
#
# Mechanical properties :
#
#
# Convention : Reuss Voigt Hill
#
# Bulk Modulus (GPa) = 49.18752 64.13144 56.65948
# Shear Modulus (GPa) = 14.43842 19.93283 17.18563
#
# Velocity S-wave (km/s) = 2.91059 3.41984 3.17544
# Velocity P-wave (km/s) = 6.33684 7.29535 6.83292
#
# Compressibility (1/GPa) = 0.02033036
#
# Stress axis : x y z
#
# Youngs Moduli (GPa) = 25.80923 25.00692 88.20393
#
# Poissons Ratio (x) = 0.54980 0.53269
# Poissons Ratio (y) = 0.56744 0.60383
# Poissons Ratio (z) = 0.15587 0.17119
#
# Static dielectric constant tensor:
#      x y z
#    x 1.567120 0.000000 0.000000 
#    y 0.000000 1.586960 0.000000 
#    z 0.000000 0.000000 1.552790 
# 
# From -- ./inp_files/28217.got.cif
#   From: 2010.05.17/outbox.cif.g08.bks.cpg/sg51_15_cif.got.tgz:28217.got - 2010.06.03 11:52:47.
