data_PCOD9403955
_publ_section_title
;
Structure prediction by ZEFSAII (Michael W. Deem and Ramdas Pophale) SiO2 
 PCOD9403955
Probable space group: P M M A
;
_chemical_formula_sum "Si O2"
_cell_formula_units_Z 28
_cell_length_a 9.419452
_cell_length_b 7.716112
_cell_length_c 20.545762
_cell_angle_alpha 90.000000
_cell_angle_beta 90.000000
_cell_angle_gamma 90.000000
_cell_volume 1493.297758
_symmetry_space_group_name_H-M "P M M A"
_symmetry_group_IT_number 51
_symmetry_cell_setting 'orthorhombic'
loop_
_space_group_symop_operation_xyz
x,y,z
1/2-x,-y,z
1/2+x,-y,-z
-x,y,-z
-x,-y,-z
1/2+x,y,-z
1/2-x,y,z
x,-y,z
loop_
_atom_site_type_symbol
_atom_site_label
_atom_site_fract_x
_atom_site_fract_y
_atom_site_fract_z
Si Si1 0.422569 0.801375 0.167686
Si Si2 0.911739 0.791280 0.688323
Si Si3 0.578004 0.500000 0.931323
Si Si4 0.910170 0.292300 0.438815
O O1 0.250000 0.805162 0.169909
O O2 0.464864 0.737811 0.239965
O O3 0.462375 0.668576 0.111360
O O4 0.470557 0.000000 0.157148
O O5 0.750000 0.727002 0.678207
O O6 0.010067 0.741579 0.628610
O O7 0.905191 0.000000 0.691164
O O8 0.750000 0.500000 0.939192
O O9 0.500000 0.500000 0.000000
O O10 0.750000 0.223278 0.438475
O O11 0.901752 0.500000 0.446383
O O12 0.000000 0.223781 0.500000
#
# Coordination Sequence:
#
# PCOD9403955 Si02
#       4
#     8   8   4   8
#     4   8  16  32  53  78 106 136 175 217 257 310
#     4   9  18  33  54  78 100 128 171 218 262 310
#     4  10  20  34  54  80 107 140 175 210 257 308
#     4  10  21  35  50  72 102 137 175 215 260 310
#
# _framework density 18.750447999999999
#
# number of rings (size 3 to 8) (size 9 to 14) (size 15 to 20)
#    0.000    2.857    0.000    2.571    2.000    3.429 
#    0.000    1.429    0.000    1.714    0.000    0.000 
#    0.000    0.000    0.000    0.000    0.000    0.000 
#
# Total GULP energy -156145.000459 kJ/mol
# GULP energy per Si atom -5576.607159 kJ/mol
# Density = 1.870777 g / cm^3
# Si number density = 18.750448 Si / 1000 Ang^3
#
#
#
# Elastic Constant Matrix: (Units=GPa)
#
#
# Indices 1 2 3 4 5 6 
#
# 1 85.6471 27.9512 86.1795 0.0000 0.0000 0.0000
# 2 27.9512 64.0231 59.7469 0.0000 0.0000 0.0000
# 3 86.1795 59.7469 212.0219 0.0000 0.0000 0.0000
# 4 0.0000 0.0000 0.0000 45.8734 0.0000 0.0000
# 5 0.0000 0.0000 0.0000 0.0000 34.7857 0.0000
# 6 0.0000 0.0000 0.0000 0.0000 0.0000 14.5694
#
#
#
# Elastic Compliance Matrix: (Units=1/GPa)
#
#
# Indices 1 2 3 4 5 6 
#
# 1 0.019868 -0.001544 -0.007640 0.000000 0.000000 0.000000
# 2 -0.001544 0.021312 -0.005378 0.000000 0.000000 0.000000
# 3 -0.007640 -0.005378 0.009338 0.000000 0.000000 0.000000
# 4 0.000000 0.000000 0.000000 0.021799 0.000000 0.000000
# 5 0.000000 0.000000 0.000000 0.000000 0.028747 0.000000
# 6 0.000000 0.000000 0.000000 0.000000 0.000000 0.068637
#
#
# Mechanical properties :
#
#
# Convention : Reuss Voigt Hill
#
# Bulk Modulus (GPa) = 46.74479 78.82749 62.78614
# Shear Modulus (GPa) = 24.27693 31.56668 27.92180
#
# Velocity S-wave (km/s) = 3.60215 4.10752 3.86311
# Velocity P-wave (km/s) = 6.50267 8.03910 7.31136
#
# Compressibility (1/GPa) = 0.02139276
#
# Stress axis : x y z
#
# Youngs Moduli (GPa) = 50.33326 46.92116 107.09309
#
# Poissons Ratio (x) = 0.07243 0.81824
# Poissons Ratio (y) = 0.07770 0.57598
# Poissons Ratio (z) = 0.38457 0.25236
#
# Static dielectric constant tensor:
#      x y z
#    x 1.640770 0.000000 0.000000 
#    y 0.000000 1.682790 0.000000 
#    z 0.000000 0.000000 1.635380 
# 
# From -- ./inp_files/22724.got.cif
#   From: 2010.05.17/outbox.cif.g08.bks.cpg/sg51_12_cif.got.tgz:22724.got - 2010.06.03 11:52:47.
