data_PCOD9403455
_publ_section_title
;
Structure prediction by ZEFSAII (Michael W. Deem and Ramdas Pophale) SiO2 
 PCOD9403455
Probable space group: P M M A
;
_chemical_formula_sum "Si O2"
_cell_formula_units_Z 64
_cell_length_a 18.906717
_cell_length_b 8.403573
_cell_length_c 21.181319
_cell_angle_alpha 90.000000
_cell_angle_beta 90.000000
_cell_angle_gamma 90.000000
_cell_volume 3365.372190
_symmetry_space_group_name_H-M "P M M A"
_symmetry_group_IT_number 51
_symmetry_cell_setting 'orthorhombic'
loop_
_space_group_symop_operation_xyz
x,y,z
1/2-x,-y,z
1/2+x,-y,-z
-x,y,-z
-x,-y,-z
1/2+x,y,-z
1/2-x,y,z
x,-y,z
loop_
_atom_site_type_symbol
_atom_site_label
_atom_site_fract_x
_atom_site_fract_y
_atom_site_fract_z
Si Si1 0.832053 0.192076 0.752902
Si Si2 0.574807 0.309941 0.118107
Si Si3 0.331246 0.307811 0.000591
Si Si4 0.919530 0.807682 0.496518
Si Si5 0.832426 0.192275 0.233468
Si Si6 0.668824 0.806081 0.376526
Si Si7 0.914681 0.809480 0.877179
Si Si8 0.668366 0.309771 0.615548
O O1 0.750000 0.242075 0.762438
O O2 0.880303 0.246113 0.811037
O O3 0.856072 0.253945 0.684715
O O4 0.833152 0.000000 0.751261
O O5 0.569214 0.500000 0.113759
O O6 0.616151 0.263876 0.181603
O O7 0.496072 0.240797 0.117044
O O8 0.621874 0.252374 0.058801
O O9 0.250000 0.251078 0.997115
O O10 0.329773 0.500000 0.998585
O O11 0.368923 0.255992 0.064845
O O12 0.881013 0.750107 0.432821
O O13 0.877250 0.757109 0.558487
O O14 0.000000 0.751171 0.500000
O O15 0.920010 0.000000 0.494254
O O16 0.750000 0.235737 0.221879
O O17 0.850665 0.242070 0.305252
O O18 0.836692 0.000000 0.230562
O O19 0.750000 0.757677 0.388370
O O20 0.667935 0.000000 0.376659
O O21 0.910572 0.000000 0.878379
O O22 0.750000 0.255068 0.608644
O O23 0.667290 0.500000 0.613479
#
# Coordination Sequence:
#
# PCOD9403455 Si02
#       8
#     8   8   8   8   8   8   8   8
#     4   9  19  37  59  81 106 139 180 225 273 326
#     4  11  23  38  56  81 115 152 185 217 266 333
#     4  10  22  40  60  81 109 147 187 226 270 324
#     4  10  20  33  52  79 109 143 183 225 271 324
#     4   9  18  34  56  80 105 138 185 237 281 321
#     4   8  15  30  52  75 101 137 180 224 270 321
#     4  11  23  38  58  85 114 143 181 230 277 320
#     4  10  21  36  55  80 109 142 181 224 270 322
#
# _framework density 19.017213000000002
#
# number of rings (size 3 to 8) (size 9 to 14) (size 15 to 20)
#    0.000    2.250    0.000    3.375    0.000    7.500 
#    0.000    4.375    0.000    0.750    0.000    0.000 
#    0.000    0.000    0.000    0.000    0.000    0.000 
#
# Total GULP energy -357375.894100 kJ/mol
# GULP energy per Si atom -5583.998345 kJ/mol
# Density = 1.897393 g / cm^3
# Si number density = 19.017213 Si / 1000 Ang^3
#
#
#
# Elastic Constant Matrix: (Units=GPa)
#
#
# Indices 1 2 3 4 5 6 
#
# 1 112.1409 6.6003 84.7083 0.0000 0.0000 0.0000
# 2 6.6003 3.7972 2.9142 0.0000 0.0000 0.0000
# 3 84.7083 2.9142 147.0556 0.0000 0.0000 0.0000
# 4 0.0000 0.0000 0.0000 56.8960 0.0000 0.0000
# 5 0.0000 0.0000 0.0000 0.0000 -18.1418 0.0000
# 6 0.0000 0.0000 0.0000 0.0000 0.0000 22.9826
#
#
#
# Elastic Compliance Matrix: (Units=1/GPa)
#
#
# Indices 1 2 3 4 5 6 
#
# 1 0.017584 -0.023143 -0.009670 0.000000 0.000000 0.000000
# 2 -0.023143 0.297876 0.007428 0.000000 0.000000 0.000000
# 3 -0.009670 0.007428 0.012223 0.000000 0.000000 0.000000
# 4 0.000000 0.000000 0.000000 0.017576 0.000000 0.000000
# 5 0.000000 0.000000 0.000000 0.000000 -0.055121 0.000000
# 6 0.000000 0.000000 0.000000 0.000000 0.000000 0.043511
#
#
# Mechanical properties :
#
#
# Convention : Reuss Voigt Hill
#
# Bulk Modulus (GPa) = 3.61125 50.15991 26.88558
# Shear Modulus (GPa) = 10.48825 23.59876 17.04351
#
# Velocity S-wave (km/s) = 2.35098 3.52649 2.99693
# Velocity P-wave (km/s) = 3.04508 6.55857 5.11309
#
# Compressibility (1/GPa) = 0.27691255
#
# Stress axis : x y z
#
# Youngs Moduli (GPa) = 56.86902 3.35711 81.81038
#
# Poissons Ratio (x) = 0.07769 0.79114
# Poissons Ratio (y) = 1.31612 -0.60769
# Poissons Ratio (z) = 0.54995 -0.02494
#
# Static dielectric constant tensor:
#      x y z
#    x 1.641550 0.000000 0.000000 
#    y 0.000000 1.659960 0.000000 
#    z 0.000000 0.000000 1.640470 
# 
# From -- ./inp_files/33840.got.cif
#   From: 2010.05.17/outbox.cif.g08.bks.cpg/sg51_17_cif.got.tgz:33840.got - 2010.06.03 11:52:47.
