data_PCOD9403213
_publ_section_title
;
Structure prediction by ZEFSAII (Michael W. Deem and Ramdas Pophale) SiO2 
 PCOD9403213
Probable space group: P M M A
;
_chemical_formula_sum "Si O2"
_cell_formula_units_Z 48
_cell_length_a 8.757100
_cell_length_b 24.098472
_cell_length_c 14.113053
_cell_angle_alpha 90.000000
_cell_angle_beta 90.000000
_cell_angle_gamma 90.000000
_cell_volume 2978.316091
_symmetry_space_group_name_H-M "P M M A"
_symmetry_group_IT_number 51
_symmetry_cell_setting 'orthorhombic'
loop_
_space_group_symop_operation_xyz
x,y,z
1/2-x,-y,z
1/2+x,-y,-z
-x,y,-z
-x,-y,-z
1/2+x,y,-z
1/2-x,y,z
x,-y,z
loop_
_atom_site_type_symbol
_atom_site_label
_atom_site_fract_x
_atom_site_fract_y
_atom_site_fract_z
Si Si1 0.567640 0.435013 0.396263
Si Si2 0.932776 0.726386 0.103715
Si Si3 0.932709 0.228460 0.603002
Si Si4 0.566568 0.663017 0.721136
Si Si5 0.067442 0.935667 0.895509
Si Si6 0.933614 0.167067 0.791245
O O1 0.500000 0.421728 0.500000
O O2 0.750000 0.427369 0.398141
O O3 0.535290 0.500000 0.377633
O O4 0.493276 0.394711 0.319482
O O5 0.750000 0.727216 0.101422
O O6 0.992620 0.681636 0.179948
O O7 0.995220 0.785629 0.141270
O O8 0.000000 0.715787 0.000000
O O9 0.750000 0.227766 0.595818
O O10 0.976535 0.288598 0.645710
O O11 0.976820 0.184255 0.684061
O O12 0.000000 0.218852 0.500000
O O13 0.750000 0.663112 0.730163
O O14 0.250000 0.928829 0.898174
O O15 0.994370 0.892262 0.823470
O O16 0.033197 0.000000 0.872341
O O17 0.000000 0.924581 0.000000
O O18 0.750000 0.169706 0.799210
#
# Coordination Sequence:
#
# PCOD9403213 Si02
#       6
#     8   8   8   8   8   8
#     4  10  20  33  50  74 103 135 170 207 249 296
#     4  11  21  34  52  74 101 132 165 202 246 293
#     4   9  19  32  48  71  98 127 159 198 241 288
#     4  10  20  34  51  74 102 131 166 205 248 297
#     4  10  20  33  50  73  99 128 162 200 244 293
#     4  10  20  34  50  72 101 131 164 201 244 291
#
# _framework density 16.116489999999999
#
# number of rings (size 3 to 8) (size 9 to 14) (size 15 to 20)
#    0.000    2.000    0.000    5.500    0.000    7.333 
#    0.000    0.000    0.000    1.000    0.000    0.000 
#    0.000    0.000    0.000    0.000    0.000    0.000 
#
# Total GULP energy -267976.357790 kJ/mol
# GULP energy per Si atom -5582.840787 kJ/mol
# Density = 1.607981 g / cm^3
# Si number density = 16.116490 Si / 1000 Ang^3
#
#
#
# Elastic Constant Matrix: (Units=GPa)
#
#
# Indices 1 2 3 4 5 6 
#
# 1 87.4138 53.1268 61.8667 0.0000 0.0000 0.0000
# 2 53.1268 90.9432 77.7931 0.0000 0.0000 0.0000
# 3 61.8667 77.7931 146.5182 0.0000 0.0000 0.0000
# 4 0.0000 0.0000 0.0000 22.1085 0.0000 0.0000
# 5 0.0000 0.0000 0.0000 0.0000 32.3122 0.0000
# 6 0.0000 0.0000 0.0000 0.0000 0.0000 27.4799
#
#
#
# Elastic Compliance Matrix: (Units=1/GPa)
#
#
# Indices 1 2 3 4 5 6 
#
# 1 0.018866 -0.007707 -0.003874 0.000000 0.000000 0.000000
# 2 -0.007707 0.023294 -0.009113 0.000000 0.000000 0.000000
# 3 -0.003874 -0.009113 0.013300 0.000000 0.000000 0.000000
# 4 0.000000 0.000000 0.000000 0.045231 0.000000 0.000000
# 5 0.000000 0.000000 0.000000 0.000000 0.030948 0.000000
# 6 0.000000 0.000000 0.000000 0.000000 0.000000 0.036390
#
#
# Mechanical properties :
#
#
# Convention : Reuss Voigt Hill
#
# Bulk Modulus (GPa) = 71.07242 78.93872 75.00557
# Shear Modulus (GPa) = 23.35273 25.18605 24.26939
#
# Velocity S-wave (km/s) = 3.81070 3.95745 3.88477
# Velocity P-wave (km/s) = 7.97225 8.36471 8.17084
#
# Compressibility (1/GPa) = 0.01407016
#
# Stress axis : x y z
#
# Youngs Moduli (GPa) = 53.00637 42.92974 75.19028
#
# Poissons Ratio (x) = 0.33086 0.29128
# Poissons Ratio (y) = 0.40853 0.68525
# Poissons Ratio (z) = 0.20534 0.39124
#
# Static dielectric constant tensor:
#      x y z
#    x 1.537420 0.000000 0.000000 
#    y 0.000000 1.531940 0.000000 
#    z 0.000000 0.000000 1.518780 
# 
# From -- ./inp_files/14428.got.cif
#   From: 2010.05.17/outbox.cif.g08.bks.cpg/sg51_8_cif.got.tgz:14428.got - 2010.06.03 11:52:47.
