data_PCOD9403292
_publ_section_title
;
Structure prediction by ZEFSAII (Michael W. Deem and Ramdas Pophale) SiO2 
 PCOD9403292
Probable space group: P M M A
;
_chemical_formula_sum "Si O2"
_cell_formula_units_Z 40
_cell_length_a 9.416239
_cell_length_b 7.620560
_cell_length_c 26.692835
_cell_angle_alpha 90.000000
_cell_angle_beta 90.000000
_cell_angle_gamma 90.000000
_cell_volume 1915.398142
_symmetry_space_group_name_H-M "P M M A"
_symmetry_group_IT_number 51
_symmetry_cell_setting 'orthorhombic'
loop_
_space_group_symop_operation_xyz
x,y,z
1/2-x,-y,z
1/2+x,-y,-z
-x,y,-z
-x,-y,-z
1/2+x,y,-z
1/2-x,y,z
x,-y,z
loop_
_atom_site_type_symbol
_atom_site_label
_atom_site_fract_x
_atom_site_fract_y
_atom_site_fract_z
Si Si1 0.911268 0.208819 0.354454
Si Si2 0.589297 0.291187 0.546889
Si Si3 0.588985 0.710730 0.744828
Si Si4 0.914833 0.286113 0.048178
Si Si5 0.584960 0.714347 0.159357
O O1 0.750000 0.280194 0.355038
O O2 0.002736 0.267552 0.402033
O O3 0.993101 0.253015 0.303457
O O4 0.902064 0.000000 0.357402
O O5 0.500000 0.218489 0.500000
O O6 0.750000 0.220292 0.549964
O O7 0.601893 0.500000 0.538957
O O8 0.750000 0.777348 0.739016
O O9 0.597364 0.500000 0.749364
O O10 0.512168 0.776569 0.795146
O O11 0.750000 0.237908 0.043660
O O12 0.921623 0.500000 0.047822
O O13 0.963648 0.230736 0.103697
O O14 0.000000 0.222507 0.000000
O O15 0.750000 0.766191 0.166173
O O16 0.583792 0.500000 0.159855
#
# Coordination Sequence:
#
# PCOD9403292 Si02
#       5
#     8   8   8   8   8
#     4  11  24  39  55  77 105 138 174 210 252 301
#     4  10  21  38  61  87 112 139 172 208 247 293
#     4  10  20  33  51  75 100 129 168 212 257 304
#     4   8  13  20  31  50  79 116 155 194 240 293
#     4   8  14  25  40  59  86 122 162 202 246 297
#
# _framework density 20.883386000000002
#
# number of rings (size 3 to 8) (size 9 to 14) (size 15 to 20)
#    0.000    2.600    0.000    3.600    0.000    7.600 
#    0.000    4.000    0.000    0.000    0.000    0.000 
#    0.000    0.800    0.000    2.600    0.000    5.200 
#
# Total GULP energy -223306.234095 kJ/mol
# GULP energy per Si atom -5582.655852 kJ/mol
# Density = 2.083585 g / cm^3
# Si number density = 20.883386 Si / 1000 Ang^3
#
#
#
# Elastic Constant Matrix: (Units=GPa)
#
#
# Indices 1 2 3 4 5 6 
#
# 1 187.4209 6.8800 135.0884 0.0000 0.0000 0.0000
# 2 6.8800 42.8371 -3.5603 0.0000 0.0000 0.0000
# 3 135.0884 -3.5603 225.3942 0.0000 0.0000 0.0000
# 4 0.0000 0.0000 0.0000 -100.1080 0.0000 0.0000
# 5 0.0000 0.0000 0.0000 0.0000 46.2715 0.0000
# 6 0.0000 0.0000 0.0000 0.0000 0.0000 2.5374
#
#
#
# Elastic Compliance Matrix: (Units=1/GPa)
#
#
# Indices 1 2 3 4 5 6 
#
# 1 0.009564 -0.002015 -0.005764 0.000000 0.000000 0.000000
# 2 -0.002015 0.023800 0.001584 0.000000 0.000000 0.000000
# 3 -0.005764 0.001584 0.007916 0.000000 0.000000 0.000000
# 4 0.000000 0.000000 0.000000 -0.009989 0.000000 0.000000
# 5 0.000000 0.000000 0.000000 0.000000 0.021612 0.000000
# 6 0.000000 0.000000 0.000000 0.000000 0.000000 0.394097
#
#
# Mechanical properties :
#
#
# Convention : Reuss Voigt Hill
#
# Bulk Modulus (GPa) = 34.61524 81.38540 58.00032
# Shear Modulus (GPa) = 10.66053 10.88979 10.77516
#
# Velocity S-wave (km/s) = 2.26183 2.28602 2.27396
# Velocity P-wave (km/s) = 4.84073 6.78409 5.89307
#
# Compressibility (1/GPa) = 0.02888901
#
# Stress axis : x y z
#
# Youngs Moduli (GPa) = 104.55737 42.01767 126.32141
#
# Poissons Ratio (x) = 0.08467 0.72812
# Poissons Ratio (y) = 0.21070 -0.20005
# Poissons Ratio (z) = 0.60267 -0.06654
#
# Static dielectric constant tensor:
#      x y z
#    x 1.673680 0.000000 0.000000 
#    y 0.000000 1.786110 0.000000 
#    z 0.000000 0.000000 1.722390 
# 
# From -- ./inp_files/34313.got.cif
#   From: 2010.05.17/outbox.cif.g08.bks.cpg/sg51_18_cif.got.tgz:34313.got - 2010.06.03 11:52:47.
