data_PCOD9403326
_publ_section_title
;
Structure prediction by ZEFSAII (Michael W. Deem and Ramdas Pophale) SiO2 
 PCOD9403326
Probable space group: P M M A
;
_chemical_formula_sum "Si O2"
_cell_formula_units_Z 64
_cell_length_a 8.768626
_cell_length_b 17.406673
_cell_length_c 21.496774
_cell_angle_alpha 90.000000
_cell_angle_beta 90.000000
_cell_angle_gamma 90.000000
_cell_volume 3281.108624
_symmetry_space_group_name_H-M "P M M A"
_symmetry_group_IT_number 51
_symmetry_cell_setting 'orthorhombic'
loop_
_space_group_symop_operation_xyz
x,y,z
1/2-x,-y,z
1/2+x,-y,-z
-x,y,-z
-x,-y,-z
1/2+x,y,-z
1/2-x,y,z
x,-y,z
loop_
_atom_site_type_symbol
_atom_site_label
_atom_site_fract_x
_atom_site_fract_y
_atom_site_fract_z
Si Si1 0.566168 0.743641 0.064521
Si Si2 0.569893 0.083070 0.089002
Si Si3 0.071313 0.299861 0.195073
Si Si4 0.569329 0.412040 0.299011
Si Si5 0.074168 0.916303 0.660829
Si Si6 0.573007 0.621291 0.566493
Si Si7 0.575731 0.880616 0.786074
Si Si8 0.572913 0.193695 0.565144
O O1 0.750000 0.743559 0.063826
O O2 0.509667 0.833454 0.067551
O O3 0.509211 0.701387 0.127204
O O4 0.500000 0.711384 0.000000
O O5 0.750000 0.082707 0.075735
O O6 0.538228 0.087714 0.162372
O O7 0.505515 0.000000 0.067898
O O8 0.250000 0.317412 0.186886
O O9 0.058564 0.211481 0.217500
O O10 0.003623 0.354670 0.248428
O O11 0.750000 0.397428 0.301438
O O12 0.543106 0.500000 0.278692
O O13 0.505291 0.404864 0.369416
O O14 0.250000 0.907379 0.680474
O O15 0.966055 0.914228 0.720113
O O16 0.024367 0.847112 0.617606
O O17 0.059685 0.000000 0.629485
O O18 0.500000 0.597547 0.500000
O O19 0.750000 0.598285 0.566885
O O20 0.565101 0.714172 0.568896
O O21 0.750000 0.897553 0.804605
O O22 0.500000 0.170335 0.500000
O O23 0.750000 0.171296 0.569841
#
# Coordination Sequence:
#
# PCOD9403326 Si02
#       8
#     8   8   8   8   8   8   8   8
#     4  10  20  35  56  82 113 150 193 240 287 336
#     4   9  18  32  49  72 106 147 187 228 277 330
#     4  10  21  38  60  85 113 147 188 232 279 334
#     4  11  24  40  60  89 122 153 185 223 271 328
#     4  11  23  35  48  69  98 134 176 223 276 330
#     4  10  21  38  61  88 117 151 190 229 272 326
#     4  10  20  33  51  76 103 134 177 226 273 323
#     4  10  21  37  56  76  98 129 172 220 269 322
#
# _framework density 19.505603000000001
#
# number of rings (size 3 to 8) (size 9 to 14) (size 15 to 20)
#    0.000    1.875    0.000    3.750    0.000   11.000 
#    0.000    0.000    0.000    0.375    0.000    0.000 
#    0.000    0.000    0.000    0.000    0.000    0.000 
#
# Total GULP energy -357181.072472 kJ/mol
# GULP energy per Si atom -5580.954257 kJ/mol
# Density = 1.946121 g / cm^3
# Si number density = 19.505603 Si / 1000 Ang^3
#
#
#
# Elastic Constant Matrix: (Units=GPa)
#
#
# Indices 1 2 3 4 5 6 
#
# 1 79.4327 42.0616 35.1400 0.0000 0.0000 0.0000
# 2 42.0616 58.0435 46.8455 0.0000 0.0000 0.0000
# 3 35.1400 46.8455 123.7880 0.0000 0.0000 0.0000
# 4 0.0000 0.0000 0.0000 225.8071 0.0000 0.0000
# 5 0.0000 0.0000 0.0000 0.0000 31.3700 0.0000
# 6 0.0000 0.0000 0.0000 0.0000 0.0000 12.7687
#
#
#
# Elastic Compliance Matrix: (Units=1/GPa)
#
#
# Indices 1 2 3 4 5 6 
#
# 1 0.020435 -0.014579 -0.000284 0.000000 0.000000 0.000000
# 2 -0.014579 0.035206 -0.009184 0.000000 0.000000 0.000000
# 3 -0.000284 -0.009184 0.011635 0.000000 0.000000 0.000000
# 4 0.000000 0.000000 0.000000 0.004429 0.000000 0.000000
# 5 0.000000 0.000000 0.000000 0.000000 0.031878 0.000000
# 6 0.000000 0.000000 0.000000 0.000000 0.000000 0.078317
#
#
# Mechanical properties :
#
#
# Convention : Reuss Voigt Hill
#
# Bulk Modulus (GPa) = 52.13595 56.59537 54.36566
# Shear Modulus (GPa) = 21.15178 63.13697 42.14438
#
# Velocity S-wave (km/s) = 3.29659 5.69552 4.65330
# Velocity P-wave (km/s) = 6.42470 8.50469 7.53679
#
# Compressibility (1/GPa) = 0.01918062
#
# Stress axis : x y z
#
# Youngs Moduli (GPa) = 48.93596 28.40420 85.95107
#
# Poissons Ratio (x) = 0.41412 0.02437
# Poissons Ratio (y) = 0.71346 0.78941
# Poissons Ratio (z) = 0.01388 0.26088
#
# Static dielectric constant tensor:
#      x y z
#    x 1.644740 0.000000 0.000000 
#    y 0.000000 1.702760 0.000000 
#    z 0.000000 0.000000 1.665180 
# 
# From -- ./inp_files/32331.got.cif
#   From: 2010.05.17/outbox.cif.g08.bks.cpg/sg51_17_cif.got.tgz:32331.got - 2010.06.03 11:52:47.
