data_PCOD9403369
_publ_section_title
;
Structure prediction by ZEFSAII (Michael W. Deem and Ramdas Pophale) SiO2 
 PCOD9403369
Probable space group: P M M A
;
_chemical_formula_sum "Si O2"
_cell_formula_units_Z 56
_cell_length_a 8.712070
_cell_length_b 14.876224
_cell_length_c 24.003281
_cell_angle_alpha 90.000000
_cell_angle_beta 90.000000
_cell_angle_gamma 90.000000
_cell_volume 3110.890142
_symmetry_space_group_name_H-M "P M M A"
_symmetry_group_IT_number 51
_symmetry_cell_setting 'orthorhombic'
loop_
_space_group_symop_operation_xyz
x,y,z
1/2-x,-y,z
1/2+x,-y,-z
-x,y,-z
-x,-y,-z
1/2+x,y,-z
1/2-x,y,z
x,-y,z
loop_
_atom_site_type_symbol
_atom_site_label
_atom_site_fract_x
_atom_site_fract_y
_atom_site_fract_z
Si Si1 0.065987 0.779381 0.334047
Si Si2 0.566758 0.896424 0.889531
Si Si3 0.431077 0.893574 0.767575
Si Si4 0.064945 0.896541 0.439344
Si Si5 0.936601 0.396755 0.160869
Si Si6 0.566548 0.274867 0.058397
Si Si7 0.435203 0.604485 0.712393
O O1 0.250000 0.781507 0.331879
O O2 0.015212 0.829444 0.390555
O O3 0.999971 0.835075 0.281896
O O4 0.007763 0.677620 0.328049
O O5 0.750000 0.888173 0.892926
O O6 0.511708 0.875673 0.826607
O O7 0.487683 0.826430 0.930392
O O8 0.523975 0.000000 0.900964
O O9 0.250000 0.874467 0.773410
O O10 0.450402 0.000000 0.755466
O O11 0.250000 0.894764 0.441838
O O12 0.000000 0.873353 0.500000
O O13 0.018628 0.000000 0.426582
O O14 0.750000 0.394078 0.161119
O O15 0.981789 0.500000 0.150610
O O16 0.989542 0.332723 0.111429
O O17 0.983848 0.372663 0.223825
O O18 0.750000 0.278859 0.056654
O O19 0.500000 0.308013 0.000000
O O20 0.250000 0.610822 0.710050
O O21 0.475751 0.500000 0.702008
#
# Coordination Sequence:
#
# PCOD9403369 Si02
#       7
#     8   8   8   8   8   8   8
#     4  11  21  32  51  79 111 143 175 217 265 312
#     4  10  21  37  55  74  99 131 167 212 264 312
#     4  10  20  33  51  77 107 138 172 209 254 313
#     4   9  19  35  53  75 106 144 183 221 262 307
#     4   8  16  33  55  76  99 129 164 204 253 305
#     4  11  22  35  53  75 100 131 168 210 254 307
#     4   9  18  34  56  80 105 135 174 219 265 315
#
# _framework density 18.001277999999999
#
# number of rings (size 3 to 8) (size 9 to 14) (size 15 to 20)
#    0.000    2.286    0.000    3.857    0.000    5.429 
#    0.000    2.143    0.000    3.429    0.000    0.000 
#    0.000    0.000    0.000    0.000    0.000    0.000 
#
# Total GULP energy -312642.375744 kJ/mol
# GULP energy per Si atom -5582.899567 kJ/mol
# Density = 1.796031 g / cm^3
# Si number density = 18.001278 Si / 1000 Ang^3
#
#
#
# Elastic Constant Matrix: (Units=GPa)
#
#
# Indices 1 2 3 4 5 6 
#
# 1 28.4315 26.0080 17.1027 0.0000 0.0000 0.0000
# 2 26.0080 85.6613 66.4045 0.0000 0.0000 0.0000
# 3 17.1027 66.4045 83.0807 0.0000 0.0000 0.0000
# 4 0.0000 0.0000 0.0000 21.3863 0.0000 0.0000
# 5 0.0000 0.0000 0.0000 0.0000 29.4581 0.0000
# 6 0.0000 0.0000 0.0000 0.0000 0.0000 22.6781
#
#
#
# Elastic Compliance Matrix: (Units=1/GPa)
#
#
# Indices 1 2 3 4 5 6 
#
# 1 0.049409 -0.018708 0.004782 0.000000 0.000000 0.000000
# 2 -0.018708 0.037772 -0.026339 0.000000 0.000000 0.000000
# 3 0.004782 -0.026339 0.032104 0.000000 0.000000 0.000000
# 4 0.000000 0.000000 0.000000 0.046759 0.000000 0.000000
# 5 0.000000 0.000000 0.000000 0.000000 0.033947 0.000000
# 6 0.000000 0.000000 0.000000 0.000000 0.000000 0.044095
#
#
# Mechanical properties :
#
#
# Convention : Reuss Voigt Hill
#
# Bulk Modulus (GPa) = 25.80332 46.24486 36.02409
# Shear Modulus (GPa) = 14.81327 20.54840 17.68083
#
# Velocity S-wave (km/s) = 2.87174 3.38227 3.13741
# Velocity P-wave (km/s) = 5.03598 6.40301 5.76019
#
# Compressibility (1/GPa) = 0.03875471
#
# Stress axis : x y z
#
# Youngs Moduli (GPa) = 20.23909 26.47468 31.14851
#
# Poissons Ratio (x) = 0.49530 -0.14895
# Poissons Ratio (y) = 0.37864 0.82042
# Poissons Ratio (z) = -0.09678 0.69732
#
# Static dielectric constant tensor:
#      x y z
#    x 1.608440 0.000000 0.000000 
#    y 0.000000 1.626870 0.000000 
#    z 0.000000 0.000000 1.597910 
# 
# From -- ./inp_files/31954.got.cif
#   From: 2010.05.17/outbox.cif.g08.bks.cpg/sg51_16_cif.got.tgz:31954.got - 2010.06.03 11:52:47.
