data_PCOD9403483
_publ_section_title
;
Structure prediction by ZEFSAII (Michael W. Deem and Ramdas Pophale) SiO2 
 PCOD9403483
Probable space group: P M M A
;
_chemical_formula_sum "Si O2"
_cell_formula_units_Z 64
_cell_length_a 14.426638
_cell_length_b 8.465639
_cell_length_c 26.826642
_cell_angle_alpha 90.000000
_cell_angle_beta 90.000000
_cell_angle_gamma 90.000000
_cell_volume 3276.356815
_symmetry_space_group_name_H-M "P M M A"
_symmetry_group_IT_number 51
_symmetry_cell_setting 'orthorhombic'
loop_
_space_group_symop_operation_xyz
x,y,z
1/2-x,-y,z
1/2+x,-y,-z
-x,y,-z
-x,-y,-z
1/2+x,y,-z
1/2-x,y,z
x,-y,z
loop_
_atom_site_type_symbol
_atom_site_label
_atom_site_fract_x
_atom_site_fract_y
_atom_site_fract_z
Si Si1 0.463670 0.813799 0.371940
Si Si2 0.644053 0.808967 0.423250
Si Si3 0.863080 0.182854 0.025740
Si Si4 0.641168 0.808813 0.917522
Si Si5 0.355821 0.689904 0.276951
Si Si6 0.638851 0.315724 0.532990
Si Si7 0.143702 0.191261 0.864461
Si Si8 0.465063 0.311246 0.179393
O O1 0.568819 0.758568 0.382511
O O2 0.411258 0.732261 0.326659
O O3 0.410024 0.780487 0.423462
O O4 0.464963 0.000000 0.362083
O O5 0.750000 0.759750 0.413064
O O6 0.616310 0.743488 0.477510
O O7 0.642033 0.000000 0.426073
O O8 0.750000 0.180271 0.024065
O O9 0.885341 0.251336 0.079994
O O10 0.894233 0.000000 0.026820
O O11 0.892841 0.249423 0.972157
O O12 0.750000 0.768185 0.912589
O O13 0.586659 0.744732 0.870533
O O14 0.634427 0.000000 0.918150
O O15 0.250000 0.749968 0.278733
O O16 0.351245 0.500000 0.273602
O O17 0.410016 0.747865 0.227944
O O18 0.750000 0.300512 0.538515
O O19 0.614272 0.500000 0.537950
O O20 0.250000 0.238994 0.855136
O O21 0.069663 0.249298 0.824848
O O22 0.142088 0.000000 0.866483
O O23 0.466017 0.500000 0.180588
#
# Coordination Sequence:
#
# PCOD9403483 Si02
#       8
#     8   8   8   8   8   8   8   8
#     4  11  22  35  56  84 109 138 180 228 274 314
#     4   9  19  36  55  78 113 150 179 213 260 311
#     4   7  12  26  49  76 104 135 172 214 259 308
#     4   9  17  31  53  79 106 138 178 221 263 314
#     4  10  23  43  61  76 101 139 178 216 263 319
#     4  10  20  33  52  81 116 152 186 218 257 311
#     4   9  18  35  58  80 104 137 178 221 262 311
#     4  11  23  37  54  77 107 141 176 219 273 328
#
# _framework density 19.533891000000001
#
# number of rings (size 3 to 8) (size 9 to 14) (size 15 to 20)
#    0.000    2.500    0.000    3.750    0.000    7.500 
#    0.000    3.750    0.000    4.500    0.000    0.000 
#    0.000    0.000    0.000    0.000    0.000    0.000 
#
# Total GULP energy -357197.166549 kJ/mol
# GULP energy per Si atom -5581.205727 kJ/mol
# Density = 1.948943 g / cm^3
# Si number density = 19.533891 Si / 1000 Ang^3
#
#
#
# Elastic Constant Matrix: (Units=GPa)
#
#
# Indices 1 2 3 4 5 6 
#
# 1 116.6736 18.1108 84.0890 0.0000 0.0000 0.0000
# 2 18.1108 6.6599 8.4849 0.0000 0.0000 0.0000
# 3 84.0890 8.4849 110.8224 0.0000 0.0000 0.0000
# 4 0.0000 0.0000 0.0000 29.3363 0.0000 0.0000
# 5 0.0000 0.0000 0.0000 0.0000 34.7225 0.0000
# 6 0.0000 0.0000 0.0000 0.0000 0.0000 10.1962
#
#
#
# Elastic Compliance Matrix: (Units=1/GPa)
#
#
# Indices 1 2 3 4 5 6 
#
# 1 0.033114 -0.064311 -0.020202 0.000000 0.000000 0.000000
# 2 -0.064311 0.291282 0.026496 0.000000 0.000000 0.000000
# 3 -0.020202 0.026496 0.022323 0.000000 0.000000 0.000000
# 4 0.000000 0.000000 0.000000 0.034087 0.000000 0.000000
# 5 0.000000 0.000000 0.000000 0.000000 0.028800 0.000000
# 6 0.000000 0.000000 0.000000 0.000000 0.000000 0.098076
#
#
# Mechanical properties :
#
#
# Convention : Reuss Voigt Hill
#
# Bulk Modulus (GPa) = 4.33490 50.61391 27.47441
# Shear Modulus (GPa) = 7.13663 23.08242 15.10952
#
# Velocity S-wave (km/s) = 1.91348 3.44126 2.78421
# Velocity P-wave (km/s) = 2.66568 6.46195 4.94280
#
# Compressibility (1/GPa) = 0.23068577
#
# Stress axis : x y z
#
# Youngs Moduli (GPa) = 30.19914 3.43310 44.79598
#
# Poissons Ratio (x) = 0.22079 0.90496
# Poissons Ratio (y) = 1.94213 -1.18691
# Poissons Ratio (z) = 0.61008 -0.09096
#
# Static dielectric constant tensor:
#      x y z
#    x 1.723820 0.000000 0.000000 
#    y 0.000000 1.673840 0.000000 
#    z 0.000000 0.000000 1.664250 
# 
# From -- ./inp_files/35843.got.cif
#   From: 2010.05.17/outbox.cif.g08.bks.cpg/sg51_18_cif.got.tgz:35843.got - 2010.06.03 11:52:47.
