data_PCOD9403953
_publ_section_title
;
Structure prediction by ZEFSAII (Michael W. Deem and Ramdas Pophale) SiO2 
 PCOD9403953
Probable space group: P M M A
;
_chemical_formula_sum "Si O2"
_cell_formula_units_Z 48
_cell_length_a 9.018115
_cell_length_b 9.200649
_cell_length_c 31.964237
_cell_angle_alpha 90.000000
_cell_angle_beta 90.000000
_cell_angle_gamma 90.000000
_cell_volume 2652.152998
_symmetry_space_group_name_H-M "P M M A"
_symmetry_group_IT_number 51
_symmetry_cell_setting 'orthorhombic'
loop_
_space_group_symop_operation_xyz
x,y,z
1/2-x,-y,z
1/2+x,-y,-z
-x,y,-z
-x,-y,-z
1/2+x,y,-z
1/2-x,y,z
x,-y,z
loop_
_atom_site_type_symbol
_atom_site_label
_atom_site_fract_x
_atom_site_fract_y
_atom_site_fract_z
Si Si1 0.926969 0.328316 0.291562
Si Si2 0.073867 0.826288 0.370657
Si Si3 0.428163 0.828965 0.043547
Si Si4 0.569336 0.666968 0.872471
Si Si5 0.920782 0.822916 0.457444
Si Si6 0.428751 0.171016 0.212386
O O1 0.750000 0.308624 0.292260
O O2 0.959409 0.500000 0.290199
O O3 0.997355 0.257369 0.332798
O O4 0.995176 0.251022 0.250998
O O5 0.250000 0.802663 0.370268
O O6 0.006300 0.780695 0.415328
O O7 0.048008 0.000000 0.365728
O O8 0.250000 0.816235 0.040375
O O9 0.478930 0.740476 0.084177
O O10 0.463118 0.000000 0.049333
O O11 0.500000 0.780079 0.000000
O O12 0.750000 0.668586 0.873011
O O13 0.521301 0.500000 0.869490
O O14 0.524765 0.757209 0.831570
O O15 0.750000 0.776193 0.456118
O O16 0.000000 0.773537 0.500000
O O17 0.921938 0.000000 0.458326
O O18 0.250000 0.186478 0.216147
O O19 0.462765 0.000000 0.212700
#
# Coordination Sequence:
#
# PCOD9403953 Si02
#       6
#     8   8   8   8   8   8
#     4  11  24  39  54  75 105 139 173 211 259 314
#     4  10  20  34  54  80 107 137 177 221 263 311
#     4   9  17  30  48  70  97 130 169 212 256 303
#     4   9  17  30  50  75 102 133 169 209 254 305
#     4   9  16  27  46  74 108 143 178 219 265 310
#     4  10  20  35  57  82 104 130 169 214 258 308
#
# _framework density 18.098503999999998
#
# number of rings (size 3 to 8) (size 9 to 14) (size 15 to 20)
#    0.000    2.333    0.000    3.000    0.000    9.667 
#    0.000    0.833    0.000    3.500    0.000    0.000 
#    0.000    0.000    0.000    0.000    0.000    0.000 
#
# Total GULP energy -267935.434346 kJ/mol
# GULP energy per Si atom -5581.988216 kJ/mol
# Density = 1.805731 g / cm^3
# Si number density = 18.098504 Si / 1000 Ang^3
#
#
#
# Elastic Constant Matrix: (Units=GPa)
#
#
# Indices 1 2 3 4 5 6 
#
# 1 57.4602 64.4787 76.3993 0.0000 0.0000 0.0000
# 2 64.4787 102.0295 107.7384 0.0000 0.0000 0.0000
# 3 76.3993 107.7384 230.0529 0.0000 0.0000 0.0000
# 4 0.0000 0.0000 0.0000 -15.3158 0.0000 0.0000
# 5 0.0000 0.0000 0.0000 0.0000 34.9851 0.0000
# 6 0.0000 0.0000 0.0000 0.0000 0.0000 19.5968
#
#
#
# Elastic Compliance Matrix: (Units=1/GPa)
#
#
# Indices 1 2 3 4 5 6 
#
# 1 0.062043 -0.034525 -0.004435 0.000000 0.000000 0.000000
# 2 -0.034525 0.038602 -0.006613 0.000000 0.000000 0.000000
# 3 -0.004435 -0.006613 0.008917 0.000000 0.000000 0.000000
# 4 0.000000 0.000000 0.000000 -0.065292 0.000000 0.000000
# 5 0.000000 0.000000 0.000000 0.000000 0.028584 0.000000
# 6 0.000000 0.000000 0.000000 0.000000 0.000000 0.051029
#
#
# Mechanical properties :
#
#
# Convention : Reuss Voigt Hill
#
# Bulk Modulus (GPa) = 54.30198 98.53059 76.41628
# Shear Modulus (GPa) = 22.60738 17.24831 19.92784
#
# Velocity S-wave (km/s) = 3.53814 3.09046 3.32185
# Velocity P-wave (km/s) = 6.83812 8.20330 7.55162
#
# Compressibility (1/GPa) = 0.01841554
#
# Stress axis : x y z
#
# Youngs Moduli (GPa) = 16.11787 25.90513 112.15136
#
# Poissons Ratio (x) = 0.89439 0.49741
# Poissons Ratio (y) = 0.55648 0.74161
# Poissons Ratio (z) = 0.07149 0.17130
#
# Static dielectric constant tensor:
#      x y z
#    x 1.606980 0.000000 0.000000 
#    y 0.000000 1.604560 0.000000 
#    z 0.000000 0.000000 1.592440 
# 
# From -- ./inp_files/36976.got.cif
#   From: 2010.05.17/outbox.cif.g08.bks.cpg/sg51_19_cif.got.tgz:36976.got - 2010.06.03 11:52:47.
