data_PCOD9403812
_publ_section_title
;
Structure prediction by ZEFSAII (Michael W. Deem and Ramdas Pophale) SiO2 
 PCOD9403812
Probable space group: P M M A
;
_chemical_formula_sum "Si O2"
_cell_formula_units_Z 52
_cell_length_a 8.714837
_cell_length_b 12.356419
_cell_length_c 28.438540
_cell_angle_alpha 90.000000
_cell_angle_beta 90.000000
_cell_angle_gamma 90.000000
_cell_volume 3062.380789
_symmetry_space_group_name_H-M "P M M A"
_symmetry_group_IT_number 51
_symmetry_cell_setting 'orthorhombic'
loop_
_space_group_symop_operation_xyz
x,y,z
1/2-x,-y,z
1/2+x,-y,-z
-x,y,-z
-x,-y,-z
1/2+x,y,-z
1/2-x,y,z
x,-y,z
loop_
_atom_site_type_symbol
_atom_site_label
_atom_site_fract_x
_atom_site_fract_y
_atom_site_fract_z
Si Si1 0.065998 0.669967 0.130578
Si Si2 0.567888 0.500000 0.695395
Si Si3 0.928791 0.870806 0.724517
Si Si4 0.433207 0.873424 0.826245
Si Si5 0.934798 0.625692 0.449298
Si Si6 0.566535 0.500000 0.948119
Si Si7 0.568242 0.500000 0.202222
Si Si8 0.434068 0.285209 0.648525
O O1 0.250000 0.661094 0.136325
O O2 0.023678 0.606057 0.082747
O O3 0.013406 0.793060 0.137040
O O4 0.981275 0.603201 0.171513
O O5 0.750000 0.500000 0.688081
O O6 0.526507 0.500000 0.750083
O O7 0.491914 0.394719 0.672801
O O8 0.750000 0.841297 0.729633
O O9 0.013932 0.842682 0.773278
O O10 0.997544 0.811207 0.679411
O O11 0.940844 0.000000 0.718828
O O12 0.250000 0.863200 0.829521
O O13 0.474507 0.000000 0.833087
O O14 0.750000 0.626240 0.451379
O O15 0.982010 0.500000 0.439975
O O16 0.982081 0.701996 0.406039
O O17 0.000000 0.656760 0.500000
O O18 0.750000 0.500000 0.951498
O O19 0.500000 0.500000 0.000000
O O20 0.750000 0.500000 0.211358
O O21 0.250000 0.280026 0.650195
#
# Coordination Sequence:
#
# PCOD9403812 Si02
#       8
#     8   4   8   8   8   4   4   8
#     4  10  20  35  53  77 107 138 175 215 260 308
#     4  12  23  33  47  71 103 137 168 202 252 306
#     4  10  21  36  53  75 104 139 177 214 253 301
#     4  10  20  34  53  78 106 139 179 217 255 302
#     4   9  18  33  51  72  98 126 159 201 252 307
#     4   9  20  36  56  81 108 139 174 217 263 312
#     4  11  21  33  49  70 101 138 172 209 254 302
#     4  11  21  35  52  73 102 131 165 208 254 306
#
# _framework density 16.980253000000001
#
# number of rings (size 3 to 8) (size 9 to 14) (size 15 to 20)
#    0.000    1.846    0.769    4.615    0.000    4.923 
#    0.000    0.000    0.000    0.923    0.000    0.000 
#    0.000    0.000    0.000    0.000    0.000    0.000 
#
# Total GULP energy -290256.042820 kJ/mol
# GULP energy per Si atom -5581.846977 kJ/mol
# Density = 1.694161 g / cm^3
# Si number density = 16.980253 Si / 1000 Ang^3
#
#
#
# Elastic Constant Matrix: (Units=GPa)
#
#
# Indices 1 2 3 4 5 6 
#
# 1 39.9936 27.1663 15.6763 0.0000 0.0000 0.0000
# 2 27.1663 69.8811 47.1387 0.0000 0.0000 0.0000
# 3 15.6763 47.1387 114.8991 0.0000 0.0000 0.0000
# 4 0.0000 0.0000 0.0000 -14.5421 0.0000 0.0000
# 5 0.0000 0.0000 0.0000 0.0000 30.5269 0.0000
# 6 0.0000 0.0000 0.0000 0.0000 0.0000 -110.3089
#
#
#
# Elastic Compliance Matrix: (Units=1/GPa)
#
#
# Indices 1 2 3 4 5 6 
#
# 1 0.034074 -0.013979 0.001086 0.000000 0.000000 0.000000
# 2 -0.013979 0.025520 -0.008563 0.000000 0.000000 0.000000
# 3 0.001086 -0.008563 0.012068 0.000000 0.000000 0.000000
# 4 0.000000 0.000000 0.000000 -0.068766 0.000000 0.000000
# 5 0.000000 0.000000 0.000000 0.000000 0.032758 0.000000
# 6 0.000000 0.000000 0.000000 0.000000 0.000000 -0.009065
#
#
# Mechanical properties :
#
#
# Convention : Reuss Voigt Hill
#
# Bulk Modulus (GPa) = 34.78129 44.97070 39.87599
# Shear Modulus (GPa) = 63.22448 -9.87865 26.67292
#
# Velocity S-wave (km/s) = 6.10860 -2.41461 3.96766
# Velocity P-wave (km/s) = 8.38338 4.33218 6.67266
#
# Compressibility (1/GPa) = 0.02875109
#
# Stress axis : x y z
#
# Youngs Moduli (GPa) = 29.34829 39.18439 82.86300
#
# Poissons Ratio (x) = 0.54775 -0.09000
# Poissons Ratio (y) = 0.41025 0.70954
# Poissons Ratio (z) = -0.03187 0.33553
#
# Static dielectric constant tensor:
#      x y z
#    x 1.568410 0.000000 0.000000 
#    y 0.000000 1.582430 0.000000 
#    z 0.000000 0.000000 1.570450 
# 
# From -- ./inp_files/37386.got.cif
#   From: 2010.05.17/outbox.cif.g08.bks.cpg/sg51_19_cif.got.tgz:37386.got - 2010.06.03 11:52:47.
