data_PCOD9403537
_publ_section_title
;
Structure prediction by ZEFSAII (Michael W. Deem and Ramdas Pophale) SiO2 
 PCOD9403537
Probable space group: P M M A
;
_chemical_formula_sum "Si O2"
_cell_formula_units_Z 40
_cell_length_a 15.480417
_cell_length_b 9.426575
_cell_length_c 14.633230
_cell_angle_alpha 90.000000
_cell_angle_beta 90.000000
_cell_angle_gamma 90.000000
_cell_volume 2135.387918
_symmetry_space_group_name_H-M "P M M A"
_symmetry_group_IT_number 51
_symmetry_cell_setting 'orthorhombic'
loop_
_space_group_symop_operation_xyz
x,y,z
1/2-x,-y,z
1/2+x,-y,-z
-x,y,-z
-x,-y,-z
1/2+x,y,-z
1/2-x,y,z
x,-y,z
loop_
_atom_site_type_symbol
_atom_site_label
_atom_site_fract_x
_atom_site_fract_y
_atom_site_fract_z
Si Si1 0.354341 0.336153 0.578259
Si Si2 0.645189 0.835849 0.599339
Si Si3 0.405718 0.333449 0.221198
Si Si4 0.898527 0.667685 0.214351
Si Si5 0.250000 0.668732 0.082901
Si Si6 0.250000 0.829828 0.892310
O O1 0.250000 0.325301 0.586870
O O2 0.375153 0.500000 0.557323
O O3 0.382768 0.238891 0.494602
O O4 0.392352 0.301208 0.677279
O O5 0.750000 0.826437 0.602650
O O6 0.610177 0.756747 0.688163
O O7 0.620612 0.000000 0.599846
O O8 0.397243 0.500000 0.245713
O O9 0.502583 0.311871 0.185250
O O10 0.333707 0.302581 0.145421
O O11 0.875523 0.500000 0.203060
O O12 0.832814 0.765825 0.160191
O O13 0.250000 0.500000 0.059133
O O14 0.250000 0.764604 0.993624
O O15 0.250000 0.000000 0.892188
#
# Coordination Sequence:
#
# PCOD9403537 Si02
#       6
#     8   8   8   8   4   4
#     4   9  17  32  56  82 112 154 199 242 286 338
#     4  10  20  33  53  83 122 163 197 238 290 346
#     4  10  21  38  64  91 116 152 200 249 292 342
#     4  10  21  40  64  90 118 152 198 248 294 343
#     4  10  22  42  65  88 115 150 193 244 298 352
#     4  12  26  42  63  88 117 154 189 238 302 362
#
# _framework density 18.731959
#
# number of rings (size 3 to 8) (size 9 to 14) (size 15 to 20)
#    0.000    2.000    2.000    1.500    0.000    4.800 
#    0.000    8.000    0.000    0.000    0.000    0.000 
#    0.000    0.000    0.000    0.000    0.000    0.000 
#
# Total GULP energy -223476.760936 kJ/mol
# GULP energy per Si atom -5586.919023 kJ/mol
# Density = 1.868932 g / cm^3
# Si number density = 18.731959 Si / 1000 Ang^3
#
#
#
# Elastic Constant Matrix: (Units=GPa)
#
#
# Indices 1 2 3 4 5 6 
#
# 1 94.1157 81.5257 73.2837 0.0000 0.0000 0.0000
# 2 81.5257 119.6716 101.4306 0.0000 0.0000 0.0000
# 3 73.2837 101.4306 122.7421 0.0000 0.0000 0.0000
# 4 0.0000 0.0000 0.0000 -43.2977 0.0000 0.0000
# 5 0.0000 0.0000 0.0000 0.0000 -12.3750 0.0000
# 6 0.0000 0.0000 0.0000 0.0000 0.0000 16.2269
#
#
#
# Elastic Compliance Matrix: (Units=1/GPa)
#
#
# Indices 1 2 3 4 5 6 
#
# 1 0.026246 -0.015349 -0.002987 0.000000 0.000000 0.000000
# 2 -0.015349 0.036868 -0.021303 0.000000 0.000000 0.000000
# 3 -0.002987 -0.021303 0.027534 0.000000 0.000000 0.000000
# 4 0.000000 0.000000 0.000000 -0.023096 0.000000 0.000000
# 5 0.000000 0.000000 0.000000 0.000000 -0.080808 0.000000
# 6 0.000000 0.000000 0.000000 0.000000 0.000000 0.061626
#
#
# Mechanical properties :
#
#
# Convention : Reuss Voigt Hill
#
# Bulk Modulus (GPa) = 87.93186 94.33438 91.13312
# Shear Modulus (GPa) = 38.04076 -2.53654 17.75211
#
# Velocity S-wave (km/s) = 4.51132 -1.16493 3.08180
# Velocity P-wave (km/s) = 8.61279 6.97567 7.83710
#
# Compressibility (1/GPa) = 0.01137244
#
# Stress axis : x y z
#
# Youngs Moduli (GPa) = 38.10050 27.12379 36.31817
#
# Poissons Ratio (x) = 0.41631 0.10848
# Poissons Ratio (y) = 0.58479 0.77368
# Poissons Ratio (z) = 0.11380 0.57781
#
# Static dielectric constant tensor:
#      x y z
#    x 1.674340 0.000000 0.000000 
#    y 0.000000 1.622630 0.000000 
#    z 0.000000 0.000000 1.609520 
# 
# From -- ./inp_files/23745.got.cif
#   From: 2010.05.17/outbox.cif.g08.bks.cpg/sg51_12_cif.got.tgz:23745.got - 2010.06.03 11:52:47.
