data_PCOD9403107
_publ_section_title
;
Structure prediction by ZEFSAII (Michael W. Deem and Ramdas Pophale) SiO2 
 PCOD9403107
Probable space group: P M M A
;
_chemical_formula_sum "Si O2"
_cell_formula_units_Z 48
_cell_length_a 14.303424
_cell_length_b 7.884773
_cell_length_c 21.536743
_cell_angle_alpha 90.000000
_cell_angle_beta 90.000000
_cell_angle_gamma 90.000000
_cell_volume 2428.897752
_symmetry_space_group_name_H-M "P M M A"
_symmetry_group_IT_number 51
_symmetry_cell_setting 'orthorhombic'
loop_
_space_group_symop_operation_xyz
x,y,z
1/2-x,-y,z
1/2+x,-y,-z
-x,y,-z
-x,-y,-z
1/2+x,y,-z
1/2-x,y,z
x,-y,z
loop_
_atom_site_type_symbol
_atom_site_label
_atom_site_fract_x
_atom_site_fract_y
_atom_site_fract_z
Si Si1 0.355485 0.293087 0.468225
Si Si2 0.957389 0.292815 0.404648
Si Si3 0.644002 0.698724 0.891669
Si Si4 0.855944 0.701738 0.281481
Si Si5 0.045853 0.802942 0.844347
Si Si6 0.139125 0.799468 0.968924
O O1 0.250000 0.233851 0.456436
O O2 0.353868 0.500000 0.466840
O O3 0.391814 0.245689 0.537004
O O4 0.436933 0.237956 0.420859
O O5 0.959260 0.500000 0.403502
O O6 0.914292 0.230646 0.340189
O O7 0.750000 0.765897 0.884726
O O8 0.644680 0.500000 0.877206
O O9 0.565334 0.784231 0.850023
O O10 0.617830 0.720579 0.964299
O O11 0.750000 0.770430 0.278592
O O12 0.848404 0.500000 0.291275
O O13 0.909756 0.727110 0.217135
O O14 0.087509 0.728788 0.908503
O O15 0.071985 0.000000 0.844003
O O16 0.250000 0.781763 0.958631
O O17 0.117036 0.000000 0.974940
#
# Coordination Sequence:
#
# PCOD9403107 Si02
#       6
#     8   8   8   8   8   8
#     4   8  12  20  38  64  93 124 159 201 248 297
#     4   8  14  24  39  63  95 128 161 199 248 303
#     4  10  21  36  54  76 100 126 160 205 255 303
#     4  10  20  33  49  70  99 133 166 204 252 302
#     4  11  22  35  52  73  99 133 171 207 244 293
#     4   9  18  33  52  74 100 129 162 202 249 299
#
# _framework density 19.762052000000001
#
# number of rings (size 3 to 8) (size 9 to 14) (size 15 to 20)
#    0.000    2.667    0.000    3.500    0.000    7.333 
#    0.000    2.500    0.000    3.000    0.000    2.333 
#    0.000    1.333    0.000    0.000    0.000    0.000 
#
# Total GULP energy -267790.026257 kJ/mol
# GULP energy per Si atom -5578.958880 kJ/mol
# Density = 1.971707 g / cm^3
# Si number density = 19.762052 Si / 1000 Ang^3
#
#
#
# Elastic Constant Matrix: (Units=GPa)
#
#
# Indices 1 2 3 4 5 6 
#
# 1 164.9932 0.2068 95.3493 0.0000 0.0000 0.0000
# 2 0.2068 17.2964 -1.8811 0.0000 0.0000 0.0000
# 3 95.3493 -1.8811 94.1836 0.0000 0.0000 0.0000
# 4 0.0000 0.0000 0.0000 96.1838 0.0000 0.0000
# 5 0.0000 0.0000 0.0000 0.0000 23.9399 0.0000
# 6 0.0000 0.0000 0.0000 0.0000 0.0000 6.2397
#
#
#
# Elastic Compliance Matrix: (Units=1/GPa)
#
#
# Indices 1 2 3 4 5 6 
#
# 1 0.014662 -0.001793 -0.014879 0.000000 0.000000 0.000000
# 2 -0.001793 0.058161 0.002977 0.000000 0.000000 0.000000
# 3 -0.014879 0.002977 0.025740 0.000000 0.000000 0.000000
# 4 0.000000 0.000000 0.000000 0.010397 0.000000 0.000000
# 5 0.000000 0.000000 0.000000 0.000000 0.041771 0.000000
# 6 0.000000 0.000000 0.000000 0.000000 0.000000 0.160264
#
#
# Mechanical properties :
#
#
# Convention : Reuss Voigt Hill
#
# Bulk Modulus (GPa) = 14.05045 51.53592 32.79319
# Shear Modulus (GPa) = 13.80801 37.45922 25.63362
#
# Velocity S-wave (km/s) = 2.64619 4.35847 3.60545
# Velocity P-wave (km/s) = 4.05730 7.17379 5.82773
#
# Compressibility (1/GPa) = 0.07117210
#
# Stress axis : x y z
#
# Youngs Moduli (GPa) = 68.20558 17.19377 38.85003
#
# Poissons Ratio (x) = 0.03084 0.57804
# Poissons Ratio (y) = 0.12232 -0.11567
# Poissons Ratio (z) = 1.01482 -0.05119
#
# Static dielectric constant tensor:
#      x y z
#    x 1.715310 0.000000 0.000000 
#    y 0.000000 1.717100 0.000000 
#    z 0.000000 0.000000 1.668260 
# 
# From -- ./inp_files/29479.got.cif
#   From: 2010.05.17/outbox.cif.g08.bks.cpg/sg51_15_cif.got.tgz:29479.got - 2010.06.03 11:52:47.
