data_PCOD9403539
_publ_section_title
;
Structure prediction by ZEFSAII (Michael W. Deem and Ramdas Pophale) SiO2 
 PCOD9403539
Probable space group: P M M A
;
_chemical_formula_sum "Si O2"
_cell_formula_units_Z 64
_cell_length_a 32.580211
_cell_length_b 8.512041
_cell_length_c 12.512992
_cell_angle_alpha 90.000000
_cell_angle_beta 90.000000
_cell_angle_gamma 90.000000
_cell_volume 3470.154142
_symmetry_space_group_name_H-M "P M M A"
_symmetry_group_IT_number 51
_symmetry_cell_setting 'orthorhombic'
loop_
_space_group_symop_operation_xyz
x,y,z
1/2-x,-y,z
1/2+x,-y,-z
-x,y,-z
-x,-y,-z
1/2+x,y,-z
1/2-x,y,z
x,-y,z
loop_
_atom_site_type_symbol
_atom_site_label
_atom_site_fract_x
_atom_site_fract_y
_atom_site_fract_z
Si Si1 0.428765 0.187952 0.132004
Si Si2 0.898027 0.813650 0.241294
Si Si3 0.297370 0.310602 0.139184
Si Si4 0.967027 0.678067 0.592464
Si Si5 0.637308 0.687760 0.034787
Si Si6 0.011102 0.688936 0.801589
Si Si7 0.638244 0.812794 0.691429
Si Si8 0.612583 0.311369 0.479455
O O1 0.474273 0.260488 0.119727
O O2 0.402637 0.238386 0.239152
O O3 0.432151 0.000000 0.134672
O O4 0.399806 0.240625 0.035060
O O5 0.865936 0.753044 0.153568
O O6 0.942805 0.753207 0.200827
O O7 0.886432 0.753006 0.359645
O O8 0.899225 0.000000 0.243093
O O9 0.250000 0.262670 0.138630
O O10 0.367348 0.500000 0.963616
O O11 0.323838 0.233273 0.233177
O O12 0.321179 0.272798 0.029190
O O13 0.954735 0.500000 0.625877
O O14 0.928668 0.755738 0.535545
O O15 0.000000 0.662858 0.500000
O O16 0.990306 0.751273 0.691600
O O17 0.700675 0.500000 0.847816
O O18 0.014399 0.500000 0.801192
O O19 0.643468 0.735059 0.574603
O O20 0.635673 0.000000 0.679665
O O21 0.610084 0.500000 0.470488
#
# Coordination Sequence:
#
# PCOD9403539 Si02
#       8
#     8   8   8   8   8   8   8   8
#     4  10  20  34  52  78 111 144 182 235 289 327
#     4  12  25  38  51  75 111 150 192 239 284 328
#     4   9  19  38  66  95 116 137 172 218 267 326
#     4   9  16  28  47  72  99 134 185 238 274 311
#     4  10  21  39  60  81 107 144 186 226 274 335
#     4  11  20  33  52  75 103 144 197 242 282 328
#     4  10  20  33  53  86 121 147 174 216 275 334
#     4  11  20  34  55  78 107 148 191 229 272 322
#
# _framework density 18.442985
#
# number of rings (size 3 to 8) (size 9 to 14) (size 15 to 20)
#    0.000    1.750    2.500    3.000    0.000    2.250 
#    0.000    3.125    0.000    0.750    0.000    1.750 
#    0.000    0.000    0.000    0.000    0.000    0.000 
#
# Total GULP energy -356797.576451 kJ/mol
# GULP energy per Si atom -5574.962132 kJ/mol
# Density = 1.840101 g / cm^3
# Si number density = 18.442985 Si / 1000 Ang^3
#
#
#
# Elastic Constant Matrix: (Units=GPa)
#
#
# Indices 1 2 3 4 5 6 
#
# 1 90.5185 34.2461 46.2956 0.0000 0.0000 0.0000
# 2 34.2461 64.7166 30.6104 0.0000 0.0000 0.0000
# 3 46.2956 30.6104 97.5470 0.0000 0.0000 0.0000
# 4 0.0000 0.0000 0.0000 33.6884 0.0000 0.0000
# 5 0.0000 0.0000 0.0000 0.0000 15.2307 0.0000
# 6 0.0000 0.0000 0.0000 0.0000 0.0000 41.7519
#
#
#
# Elastic Compliance Matrix: (Units=1/GPa)
#
#
# Indices 1 2 3 4 5 6 
#
# 1 0.016262 -0.005819 -0.005892 0.000000 0.000000 0.000000
# 2 -0.005819 0.020227 -0.003586 0.000000 0.000000 0.000000
# 3 -0.005892 -0.003586 0.014173 0.000000 0.000000 0.000000
# 4 0.000000 0.000000 0.000000 0.029684 0.000000 0.000000
# 5 0.000000 0.000000 0.000000 0.000000 0.065657 0.000000
# 6 0.000000 0.000000 0.000000 0.000000 0.000000 0.023951
#
#
# Mechanical properties :
#
#
# Convention : Reuss Voigt Hill
#
# Bulk Modulus (GPa) = 49.82714 52.78736 51.30725
# Shear Modulus (GPa) = 24.12691 27.57618 25.85155
#
# Velocity S-wave (km/s) = 3.62081 3.87099 3.74799
# Velocity P-wave (km/s) = 6.67502 6.97592 6.82713
#
# Compressibility (1/GPa) = 0.02006938
#
# Stress axis : x y z
#
# Youngs Moduli (GPa) = 61.49154 49.43867 70.55605
#
# Poissons Ratio (x) = 0.28766 0.41573
# Poissons Ratio (y) = 0.35779 0.25300
# Poissons Ratio (z) = 0.36232 0.17728
#
# Static dielectric constant tensor:
#      x y z
#    x 1.652820 0.000000 0.000000 
#    y 0.000000 1.648940 0.000000 
#    z 0.000000 0.000000 1.687910 
# 
# From -- ./inp_files/19503.got.cif
#   From: 2010.05.17/outbox.cif.g08.bks.cpg/sg51_10_cif.got.tgz:19503.got - 2010.06.03 11:52:47.
