data_PCOD9403894
_publ_section_title
;
Structure prediction by ZEFSAII (Michael W. Deem and Ramdas Pophale) SiO2 
 PCOD9403894
Probable space group: P M M A
;
_chemical_formula_sum "Si O2"
_cell_formula_units_Z 40
_cell_length_a 9.250981
_cell_length_b 10.224755
_cell_length_c 25.572914
_cell_angle_alpha 90.000000
_cell_angle_beta 90.000000
_cell_angle_gamma 90.000000
_cell_volume 2418.916726
_symmetry_space_group_name_H-M "P M M A"
_symmetry_group_IT_number 51
_symmetry_cell_setting 'orthorhombic'
loop_
_space_group_symop_operation_xyz
x,y,z
1/2-x,-y,z
1/2+x,-y,-z
-x,y,-z
-x,-y,-z
1/2+x,y,-z
1/2-x,y,z
x,-y,z
loop_
_atom_site_type_symbol
_atom_site_label
_atom_site_fract_x
_atom_site_fract_y
_atom_site_fract_z
Si Si1 0.581001 0.841207 0.166500
Si Si2 0.579966 0.000000 0.554606
Si Si3 0.923547 0.265569 0.617414
Si Si4 0.923303 0.153376 0.728529
Si Si5 0.920206 0.158558 0.051622
Si Si6 0.424272 0.500000 0.557041
O O1 0.750000 0.806649 0.171266
O O2 0.494288 0.799387 0.217613
O O3 0.527700 0.796750 0.109106
O O4 0.573289 0.000000 0.165914
O O5 0.500000 0.000000 0.500000
O O6 0.549049 0.129143 0.587883
O O7 0.750000 0.000000 0.543886
O O8 0.750000 0.294166 0.613846
O O9 0.960787 0.239546 0.678032
O O10 0.016821 0.375579 0.589206
O O11 0.750000 0.154845 0.733497
O O12 0.964679 0.000000 0.719650
O O13 0.750000 0.186944 0.048149
O O14 0.934437 0.000000 0.051504
O O15 0.000000 0.208441 0.000000
O O16 0.250000 0.500000 0.552078
O O17 0.500000 0.500000 0.500000
#
# Coordination Sequence:
#
# PCOD9403894 Si02
#       6
#     8   4   8   8   8   4
#     4   8  14  23  34  52  81 115 150 192 239 283
#     4  10  20  34  54  78 102 126 157 196 239 286
#     4  10  20  37  57  77 103 132 161 201 246 290
#     4   9  16  28  47  70  94 121 155 195 239 287
#     4   8  13  20  29  43  68 105 149 193 234 276
#     4  12  26  42  58  78 102 132 167 200 241 296
#
# _framework density 16.536328999999999
#
# number of rings (size 3 to 8) (size 9 to 14) (size 15 to 20)
#    0.000    2.800    1.000    2.700    0.000    4.000 
#    0.000    4.000    0.000    0.000    0.000    0.000 
#    0.000    0.000    0.000    0.900    0.000   12.200 
#
# Total GULP energy -222739.359218 kJ/mol
# GULP energy per Si atom -5568.483980 kJ/mol
# Density = 1.649869 g / cm^3
# Si number density = 16.536329 Si / 1000 Ang^3
#
#
#
# Elastic Constant Matrix: (Units=GPa)
#
#
# Indices 1 2 3 4 5 6 
#
# 1 53.0080 39.3825 77.9375 0.0000 0.0000 0.0000
# 2 39.3825 54.6277 45.3158 0.0000 0.0000 0.0000
# 3 77.9375 45.3158 206.2886 0.0000 0.0000 0.0000
# 4 0.0000 0.0000 0.0000 11.8269 0.0000 0.0000
# 5 0.0000 0.0000 0.0000 0.0000 35.7060 0.0000
# 6 0.0000 0.0000 0.0000 0.0000 0.0000 13.8705
#
#
#
# Elastic Compliance Matrix: (Units=1/GPa)
#
#
# Indices 1 2 3 4 5 6 
#
# 1 0.080199 -0.039965 -0.021521 0.000000 0.000000 0.000000
# 2 -0.039965 0.042301 0.005807 0.000000 0.000000 0.000000
# 3 -0.021521 0.005807 0.011703 0.000000 0.000000 0.000000
# 4 0.000000 0.000000 0.000000 0.084553 0.000000 0.000000
# 5 0.000000 0.000000 0.000000 0.000000 0.028006 0.000000
# 6 0.000000 0.000000 0.000000 0.000000 0.000000 0.072096
#
#
# Mechanical properties :
#
#
# Convention : Reuss Voigt Hill
#
# Bulk Modulus (GPa) = 43.77441 71.02177 57.39809
# Shear Modulus (GPa) = 11.41993 22.36658 16.89325
#
# Velocity S-wave (km/s) = 2.63077 3.68172 3.19969
# Velocity P-wave (km/s) = 5.97972 7.81765 6.95962
#
# Compressibility (1/GPa) = 0.02284440
#
# Stress axis : x y z
#
# Youngs Moduli (GPa) = 12.46892 23.64030 85.45075
#
# Poissons Ratio (x) = 0.94480 1.83896
# Poissons Ratio (y) = 0.49833 -0.49621
# Poissons Ratio (z) = 0.26834 -0.13728
#
# Static dielectric constant tensor:
#      x y z
#    x 1.550290 0.000000 0.000000 
#    y 0.000000 1.571830 0.000000 
#    z 0.000000 0.000000 1.645730 
# 
# From -- ./inp_files/36047.got.cif
#   From: 2010.05.17/outbox.cif.g08.bks.cpg/sg51_19_cif.got.tgz:36047.got - 2010.06.03 11:52:47.
