data_PCOD9403012
_publ_section_title
;
Structure prediction by ZEFSAII (Michael W. Deem and Ramdas Pophale) SiO2 
 PCOD9403012
Probable space group: P M M A
;
_chemical_formula_sum "Si O2"
_cell_formula_units_Z 40
_cell_length_a 16.263441
_cell_length_b 7.490705
_cell_length_c 15.164726
_cell_angle_alpha 90.000000
_cell_angle_beta 90.000000
_cell_angle_gamma 90.000000
_cell_volume 1847.437268
_symmetry_space_group_name_H-M "P M M A"
_symmetry_group_IT_number 51
_symmetry_cell_setting 'orthorhombic'
loop_
_space_group_symop_operation_xyz
x,y,z
1/2-x,-y,z
1/2+x,-y,-z
-x,y,-z
-x,-y,-z
1/2+x,y,-z
1/2-x,y,z
x,-y,z
loop_
_atom_site_type_symbol
_atom_site_label
_atom_site_fract_x
_atom_site_fract_y
_atom_site_fract_z
Si Si1 0.250000 0.284287 0.723379
Si Si2 0.914337 0.717668 0.600214
Si Si3 0.250000 0.792074 0.932170
Si Si4 0.105012 0.717478 0.594885
Si Si5 0.842653 0.718260 0.783606
Si Si6 0.084401 0.710870 0.038644
O O1 0.250000 0.500000 0.720253
O O2 0.250000 0.237679 0.826628
O O3 0.330300 0.222211 0.668423
O O4 0.913188 0.500000 0.599016
O O5 0.877064 0.773187 0.506096
O O6 0.867853 0.778858 0.686869
O O7 0.010098 0.769825 0.608802
O O8 0.165686 0.724403 0.977551
O O9 0.250000 0.000000 0.949220
O O10 0.106975 0.500000 0.596688
O O11 0.750000 0.769366 0.804156
O O12 0.845766 0.500000 0.782087
O O13 0.897623 0.783289 0.864037
O O14 0.070717 0.500000 0.050868
O O15 0.000000 0.786606 0.000000
#
# Coordination Sequence:
#
# PCOD9403012 Si02
#       6
#     4   8   4   8   8   8
#     4  10  20  32  53  78 104 138 185 230 271 322
#     4   8  14  24  40  69 109 141 165 205 272 332
#     4  12  26  42  57  78 114 154 191 236 283 340
#     4   8  15  26  41  69 107 139 169 213 266 323
#     4   9  16  26  45  74 106 136 169 215 272 328
#     4  10  21  38  62  87 112 144 187 238 287 336
#
# _framework density 21.651615
#
# number of rings (size 3 to 8) (size 9 to 14) (size 15 to 20)
#    0.000    2.800    1.000    2.100    4.200    0.400 
#    0.000    0.000    0.000    0.000    0.000    5.600 
#    0.000    0.000    0.000    0.000    0.000    0.000 
#
# Total GULP energy -223189.475918 kJ/mol
# GULP energy per Si atom -5579.736898 kJ/mol
# Density = 2.160233 g / cm^3
# Si number density = 21.651615 Si / 1000 Ang^3
#
#
#
# Elastic Constant Matrix: (Units=GPa)
#
#
# Indices 1 2 3 4 5 6 
#
# 1 59.6561 -9.9215 23.9554 0.0000 0.0000 0.0000
# 2 -9.9215 55.7643 -13.1337 0.0000 0.0000 0.0000
# 3 23.9554 -13.1337 112.6973 0.0000 0.0000 0.0000
# 4 0.0000 0.0000 0.0000 -44.5018 0.0000 0.0000
# 5 0.0000 0.0000 0.0000 0.0000 -2.0294 0.0000
# 6 0.0000 0.0000 0.0000 0.0000 0.0000 16.4309
#
#
#
# Elastic Compliance Matrix: (Units=1/GPa)
#
#
# Indices 1 2 3 4 5 6 
#
# 1 0.018647 0.002451 -0.003678 0.000000 0.000000 0.000000
# 2 0.002451 0.018761 0.001665 0.000000 0.000000 0.000000
# 3 -0.003678 0.001665 0.009849 0.000000 0.000000 0.000000
# 4 0.000000 0.000000 0.000000 -0.022471 0.000000 0.000000
# 5 0.000000 0.000000 0.000000 0.000000 -0.492757 0.000000
# 6 0.000000 0.000000 0.000000 0.000000 0.000000 0.060861
#
#
# Mechanical properties :
#
#
# Convention : Reuss Voigt Hill
#
# Bulk Modulus (GPa) = 20.77488 25.54644 23.16066
# Shear Modulus (GPa) = -12.75700 9.12776 -1.81462
#
# Velocity S-wave (km/s) = -2.42997 2.05545 -0.91647
# Velocity P-wave (km/s) = 1.32020 4.17824 3.09843
#
# Compressibility (1/GPa) = 0.04813506
#
# Stress axis : x y z
#
# Youngs Moduli (GPa) = 53.62674 53.30202 101.53080
#
# Poissons Ratio (x) = -0.13067 0.37344
# Poissons Ratio (y) = -0.13146 -0.16908
# Poissons Ratio (z) = 0.19724 -0.08876
#
# Static dielectric constant tensor:
#      x y z
#    x 1.791210 0.000000 0.000000 
#    y 0.000000 1.834710 0.000000 
#    z 0.000000 0.000000 1.769900 
# 
# From -- ./inp_files/23788.got.cif
#   From: 2010.05.17/outbox.cif.g08.bks.cpg/sg51_12_cif.got.tgz:23788.got - 2010.06.03 11:52:47.
