data_PCOD9403228
_publ_section_title
;
Structure prediction by ZEFSAII (Michael W. Deem and Ramdas Pophale) SiO2 
 PCOD9403228
Probable space group: P M M A
;
_chemical_formula_sum "Si O2"
_cell_formula_units_Z 48
_cell_length_a 7.520090
_cell_length_b 9.444983
_cell_length_c 31.788905
_cell_angle_alpha 90.000000
_cell_angle_beta 90.000000
_cell_angle_gamma 90.000000
_cell_volume 2257.874440
_symmetry_space_group_name_H-M "P M M A"
_symmetry_group_IT_number 51
_symmetry_cell_setting 'orthorhombic'
loop_
_space_group_symop_operation_xyz
x,y,z
1/2-x,-y,z
1/2+x,-y,-z
-x,y,-z
-x,-y,-z
1/2+x,y,-z
1/2-x,y,z
x,-y,z
loop_
_atom_site_type_symbol
_atom_site_label
_atom_site_fract_x
_atom_site_fract_y
_atom_site_fract_z
Si Si1 0.032900 0.336909 0.290274
Si Si2 0.032353 0.837277 0.372501
Si Si3 0.460820 0.839620 0.952263
Si Si4 0.540456 0.658935 0.871501
Si Si5 0.037082 0.661562 0.452653
Si Si6 0.467745 0.162796 0.207881
O O1 0.250000 0.338396 0.290329
O O2 0.974712 0.500000 0.289806
O O3 0.977009 0.254492 0.332234
O O4 0.977807 0.251732 0.248756
O O5 0.250000 0.838008 0.372559
O O6 0.972244 0.762253 0.415498
O O7 0.975262 0.000000 0.369553
O O8 0.250000 0.847514 0.947929
O O9 0.524355 0.734305 0.916416
O O10 0.533798 0.000000 0.946866
O O11 0.500000 0.794093 0.000000
O O12 0.750000 0.646292 0.862735
O O13 0.465335 0.500000 0.871522
O O14 0.469588 0.758860 0.834400
O O15 0.250000 0.654327 0.448253
O O16 0.968399 0.500000 0.448761
O O17 0.000000 0.711882 0.500000
O O18 0.250000 0.160316 0.207713
O O19 0.525856 0.000000 0.209579
#
# Coordination Sequence:
#
# PCOD9403228 Si02
#       6
#     8   8   8   8   8   8
#     4   9  15  23  37  59  89 122 154 190 233 280
#     4   9  16  25  38  58  85 116 150 188 230 276
#     4  10  21  37  57  79 102 131 168 208 250 295
#     4  10  20  33  50  74 104 136 168 202 242 289
#     4   9  17  29  44  62  85 114 148 186 229 276
#     4   9  16  26  42  65  94 127 161 197 237 281
#
# _framework density 21.258932999999999
#
# number of rings (size 3 to 8) (size 9 to 14) (size 15 to 20)
#    0.000    2.667    0.000    2.500    0.000    8.667 
#    0.000    0.000    0.000    0.000    0.000    1.167 
#    0.000    6.667    0.000    0.000    0.000    0.000 
#
# Total GULP energy -268097.489716 kJ/mol
# GULP energy per Si atom -5585.364369 kJ/mol
# Density = 2.121055 g / cm^3
# Si number density = 21.258933 Si / 1000 Ang^3
#
#
#
# Elastic Constant Matrix: (Units=GPa)
#
#
# Indices 1 2 3 4 5 6 
#
# 1 53.6639 4.7705 -5.8947 0.0000 0.0000 0.0000
# 2 4.7705 216.8933 155.4841 0.0000 0.0000 0.0000
# 3 -5.8947 155.4841 208.9506 0.0000 0.0000 0.0000
# 4 0.0000 0.0000 0.0000 43.6340 0.0000 0.0000
# 5 0.0000 0.0000 0.0000 0.0000 10.9843 0.0000
# 6 0.0000 0.0000 0.0000 0.0000 0.0000 0.2152
#
#
#
# Elastic Compliance Matrix: (Units=1/GPa)
#
#
# Indices 1 2 3 4 5 6 
#
# 1 0.018986 -0.001718 0.001814 0.000000 0.000000 0.000000
# 2 -0.001718 0.010037 -0.007517 0.000000 0.000000 0.000000
# 3 0.001814 -0.007517 0.010431 0.000000 0.000000 0.000000
# 4 0.000000 0.000000 0.000000 0.022918 0.000000 0.000000
# 5 0.000000 0.000000 0.000000 0.000000 0.091039 0.000000
# 6 0.000000 0.000000 0.000000 0.000000 0.000000 4.646892
#
#
# Mechanical properties :
#
#
# Convention : Reuss Voigt Hill
#
# Bulk Modulus (GPa) = 40.63086 87.58086 64.10586
# Shear Modulus (GPa) = 1.03662 32.64324 16.83993
#
# Velocity S-wave (km/s) = 0.69905 3.92281 2.81754
# Velocity P-wave (km/s) = 4.45033 7.86158 6.38788
#
# Compressibility (1/GPa) = 0.02461184
#
# Stress axis : x y z
#
# Youngs Moduli (GPa) = 52.66905 99.62730 95.86895
#
# Poissons Ratio (x) = 0.17116 -0.17391
# Poissons Ratio (y) = 0.09049 0.72069
# Poissons Ratio (z) = -0.09554 0.74895
#
# Static dielectric constant tensor:
#      x y z
#    x 1.840370 0.000000 0.000000 
#    y 0.000000 1.741400 0.000000 
#    z 0.000000 0.000000 1.734660 
# 
# From -- ./inp_files/36500.got.cif
#   From: 2010.05.17/outbox.cif.g08.bks.cpg/sg51_19_cif.got.tgz:36500.got - 2010.06.03 11:52:47.
