data_PCOD9403671
_publ_section_title
;
Structure prediction by ZEFSAII (Michael W. Deem and Ramdas Pophale) SiO2 
 PCOD9403671
Probable space group: P M M A
;
_chemical_formula_sum "Si O2"
_cell_formula_units_Z 56
_cell_length_a 14.599455
_cell_length_b 9.371205
_cell_length_c 21.625194
_cell_angle_alpha 90.000000
_cell_angle_beta 90.000000
_cell_angle_gamma 90.000000
_cell_volume 2958.639795
_symmetry_space_group_name_H-M "P M M A"
_symmetry_group_IT_number 51
_symmetry_cell_setting 'orthorhombic'
loop_
_space_group_symop_operation_xyz
x,y,z
1/2-x,-y,z
1/2+x,-y,-z
-x,y,-z
-x,-y,-z
1/2+x,y,-z
1/2-x,y,z
x,-y,z
loop_
_atom_site_type_symbol
_atom_site_label
_atom_site_fract_x
_atom_site_fract_y
_atom_site_fract_z
Si Si1 0.463049 0.328626 0.219986
Si Si2 0.899983 0.159895 0.530338
Si Si3 0.145846 0.827026 0.970463
Si Si4 0.640079 0.332071 0.652657
Si Si5 0.959718 0.827926 0.904392
Si Si6 0.145497 0.326086 0.716300
Si Si7 0.144318 0.343257 0.584113
O O1 0.458606 0.500000 0.211364
O O2 0.404413 0.294786 0.281395
O O3 0.432386 0.247583 0.158847
O O4 0.568542 0.286668 0.234554
O O5 0.896826 0.239961 0.595419
O O6 0.853271 0.253490 0.477623
O O7 0.000000 0.150264 0.500000
O O8 0.863014 0.000000 0.536705
O O9 0.250000 0.775624 0.959169
O O10 0.063413 0.783488 0.924471
O O11 0.148317 0.000000 0.967671
O O12 0.108198 0.790958 0.038971
O O13 0.750000 0.314998 0.654868
O O14 0.620256 0.500000 0.641203
O O15 0.958886 0.000000 0.898023
O O16 0.250000 0.278316 0.729054
O O17 0.145996 0.500000 0.713209
O O18 0.108537 0.278092 0.648336
O O19 0.250000 0.362118 0.601574
O O20 0.102508 0.500000 0.572530
#
# Coordination Sequence:
#
# PCOD9403671 Si02
#       7
#     8   8   8   8   8   8   8
#     4  10  20  34  52  74 104 138 168 207 256 298
#     4  11  23  35  49  73 102 129 162 212 272 321
#     4   8  15  31  54  77 103 135 169 205 244 289
#     4  10  22  39  56  74  99 137 183 219 251 305
#     4   9  18  32  52  78 103 131 171 210 243 292
#     4   8  15  29  49  72  97 129 170 209 249 307
#     4   9  17  31  52  73  91 119 164 211 253 305
#
# _framework density 18.927616
#
# number of rings (size 3 to 8) (size 9 to 14) (size 15 to 20)
#    0.000    2.714    0.000    3.429    0.000    6.286 
#    0.000    2.143    0.000    1.714    0.000    0.000 
#    0.000    0.000    0.000    0.000    0.000    0.000 
#
# Total GULP energy -311880.660873 kJ/mol
# GULP energy per Si atom -5569.297516 kJ/mol
# Density = 1.888454 g / cm^3
# Si number density = 18.927616 Si / 1000 Ang^3
#
#
#
# Elastic Constant Matrix: (Units=GPa)
#
#
# Indices 1 2 3 4 5 6 
#
# 1 63.6213 8.8501 4.0313 0.0000 0.0000 0.0000
# 2 8.8501 33.1258 32.8478 0.0000 0.0000 0.0000
# 3 4.0313 32.8478 95.7631 0.0000 0.0000 0.0000
# 4 0.0000 0.0000 0.0000 38.2595 0.0000 0.0000
# 5 0.0000 0.0000 0.0000 0.0000 16.5051 0.0000
# 6 0.0000 0.0000 0.0000 0.0000 0.0000 49.4550
#
#
#
# Elastic Compliance Matrix: (Units=1/GPa)
#
#
# Indices 1 2 3 4 5 6 
#
# 1 0.016420 -0.005609 0.001233 0.000000 0.000000 0.000000
# 2 -0.005609 0.047665 -0.016113 0.000000 0.000000 0.000000
# 3 0.001233 -0.016113 0.015918 0.000000 0.000000 0.000000
# 4 0.000000 0.000000 0.000000 0.026137 0.000000 0.000000
# 5 0.000000 0.000000 0.000000 0.000000 0.060587 0.000000
# 6 0.000000 0.000000 0.000000 0.000000 0.000000 0.020220
#
#
# Mechanical properties :
#
#
# Convention : Reuss Voigt Hill
#
# Bulk Modulus (GPa) = 25.62619 31.55208 28.58914
# Shear Modulus (GPa) = 20.75250 30.62933 25.69091
#
# Velocity S-wave (km/s) = 3.31481 4.02709 3.68819
# Velocity P-wave (km/s) = 5.31216 6.19107 5.76838
#
# Compressibility (1/GPa) = 0.03902258
#
# Stress axis : x y z
#
# Youngs Moduli (GPa) = 60.90063 20.97991 62.82363
#
# Poissons Ratio (x) = 0.11769 -0.07745
# Poissons Ratio (y) = 0.34162 1.01230
# Poissons Ratio (z) = -0.07508 0.33806
#
# Static dielectric constant tensor:
#      x y z
#    x 1.685960 0.000000 0.000000 
#    y 0.000000 1.649630 0.000000 
#    z 0.000000 0.000000 1.643250 
# 
# From -- ./inp_files/33284.got.cif
#   From: 2010.05.17/outbox.cif.g08.bks.cpg/sg51_17_cif.got.tgz:33284.got - 2010.06.03 11:52:47.
