data_PCOD9403500
_publ_section_title
;
Structure prediction by ZEFSAII (Michael W. Deem and Ramdas Pophale) SiO2 
 PCOD9403500
Probable space group: P M M A
;
_chemical_formula_sum "Si O2"
_cell_formula_units_Z 64
_cell_length_a 15.075126
_cell_length_b 7.541662
_cell_length_c 24.946633
_cell_angle_alpha 90.000000
_cell_angle_beta 90.000000
_cell_angle_gamma 90.000000
_cell_volume 2836.220248
_symmetry_space_group_name_H-M "P M M A"
_symmetry_group_IT_number 51
_symmetry_cell_setting 'orthorhombic'
loop_
_space_group_symop_operation_xyz
x,y,z
1/2-x,-y,z
1/2+x,-y,-z
-x,y,-z
-x,-y,-z
1/2+x,y,-z
1/2-x,y,z
x,-y,z
loop_
_atom_site_type_symbol
_atom_site_label
_atom_site_fract_x
_atom_site_fract_y
_atom_site_fract_z
Si Si1 0.012711 0.286667 0.060596
Si Si2 0.456224 0.205561 0.373509
Si Si3 0.352748 0.788958 0.474820
Si Si4 0.344785 0.203711 0.750200
Si Si5 0.150717 0.703677 0.597964
Si Si6 0.457811 0.781415 0.258109
Si Si7 0.844829 0.713964 0.126585
Si Si8 0.850931 0.212215 0.847551
O O1 0.007508 0.500000 0.058019
O O2 0.098850 0.246936 0.096444
O O3 0.928729 0.221334 0.094359
O O4 0.000000 0.220731 0.000000
O O5 0.415352 0.283322 0.427891
O O6 0.563277 0.212241 0.376472
O O7 0.421254 0.273838 0.316310
O O8 0.429415 0.000000 0.374767
O O9 0.250000 0.766002 0.458796
O O10 0.363367 0.709551 0.533766
O O11 0.369616 0.000000 0.482218
O O12 0.250000 0.284125 0.732643
O O13 0.440579 0.284168 0.739685
O O14 0.343304 0.205093 0.814680
O O15 0.345572 0.000000 0.731232
O O16 0.250000 0.780189 0.607570
O O17 0.151921 0.500000 0.615474
O O18 0.407147 0.722997 0.204334
O O19 0.460085 0.000000 0.256613
O O20 0.750000 0.751629 0.099782
O O21 0.851120 0.500000 0.132905
O O22 0.750000 0.279955 0.847363
O O23 0.847058 0.000000 0.841702
#
# Coordination Sequence:
#
# PCOD9403500 Si02
#       8
#     8   8   8   8   8   8   8   8
#     4  10  21  36  56  82 110 142 179 222 270 319
#     4  10  20  33  53  80 107 139 179 222 268 318
#     4   9  18  33  53  77 105 137 177 224 270 319
#     4   9  16  28  49  73  96 127 166 207 255 310
#     4  10  21  36  53  75 106 143 179 219 272 327
#     4   9  18  33  52  77 108 140 175 218 265 316
#     4   9  17  30  49  73 100 129 164 208 257 308
#     4  10  21  38  59  82 111 148 186 223 266 316
#
# _framework density 22.565242999999999
#
# number of rings (size 3 to 8) (size 9 to 14) (size 15 to 20)
#    0.000    2.500    1.250    0.750    0.000    4.750 
#    0.000    6.250    0.000    3.000    0.000    1.750 
#    0.000    0.000    0.000    0.000    0.000    0.000 
#
# Total GULP energy -357063.127671 kJ/mol
# GULP energy per Si atom -5579.111370 kJ/mol
# Density = 2.251388 g / cm^3
# Si number density = 22.565243 Si / 1000 Ang^3
#
#
#
# Elastic Constant Matrix: (Units=GPa)
#
#
# Indices 1 2 3 4 5 6 
#
# 1 114.7822 3.6578 64.8052 0.0000 0.0000 0.0000
# 2 3.6578 57.2633 -0.3754 0.0000 0.0000 0.0000
# 3 64.8052 -0.3754 152.2560 0.0000 0.0000 0.0000
# 4 0.0000 0.0000 0.0000 17.3948 0.0000 0.0000
# 5 0.0000 0.0000 0.0000 0.0000 -4.5698 0.0000
# 6 0.0000 0.0000 0.0000 0.0000 0.0000 8.4094
#
#
#
# Elastic Compliance Matrix: (Units=1/GPa)
#
#
# Indices 1 2 3 4 5 6 
#
# 1 0.011502 -0.000767 -0.004897 0.000000 0.000000 0.000000
# 2 -0.000767 0.017515 0.000370 0.000000 0.000000 0.000000
# 3 -0.004897 0.000370 0.008653 0.000000 0.000000 0.000000
# 4 0.000000 0.000000 0.000000 0.057488 0.000000 0.000000
# 5 0.000000 0.000000 0.000000 0.000000 -0.218827 0.000000
# 6 0.000000 0.000000 0.000000 0.000000 0.000000 0.118915
#
#
# Mechanical properties :
#
#
# Convention : Reuss Voigt Hill
#
# Bulk Modulus (GPa) = 36.92720 51.16405 44.04562
# Shear Modulus (GPa) = 336.44132 21.32780 178.88456
#
# Velocity S-wave (km/s) = 12.22378 3.07768 8.91328
# Velocity P-wave (km/s) = 14.68427 5.94580 11.20224
#
# Compressibility (1/GPa) = 0.02708031
#
# Stress axis : x y z
#
# Youngs Moduli (GPa) = 86.94445 57.09522 115.56320
#
# Poissons Ratio (x) = 0.04378 0.56595
# Poissons Ratio (y) = 0.06667 -0.04271
# Poissons Ratio (z) = 0.42580 -0.02110
#
# Static dielectric constant tensor:
#      x y z
#    x 1.859630 0.000000 0.000000 
#    y 0.000000 1.867050 0.000000 
#    z 0.000000 0.000000 1.837580 
# 
# From -- ./inp_files/35848.got.cif
#   From: 2010.05.17/outbox.cif.g08.bks.cpg/sg51_18_cif.got.tgz:35848.got - 2010.06.03 11:52:47.
