data_PCOD9403298
_publ_section_title
;
Structure prediction by ZEFSAII (Michael W. Deem and Ramdas Pophale) SiO2 
 PCOD9403298
Probable space group: P M M A
;
_chemical_formula_sum "Si O2"
_cell_formula_units_Z 56
_cell_length_a 19.490918
_cell_length_b 8.943853
_cell_length_c 18.298209
_cell_angle_alpha 90.000000
_cell_angle_beta 90.000000
_cell_angle_gamma 90.000000
_cell_volume 3189.815255
_symmetry_space_group_name_H-M "P M M A"
_symmetry_group_IT_number 51
_symmetry_cell_setting 'orthorhombic'
loop_
_space_group_symop_operation_xyz
x,y,z
1/2-x,-y,z
1/2+x,-y,-z
-x,y,-z
-x,-y,-z
1/2+x,y,-z
1/2-x,y,z
x,-y,z
loop_
_atom_site_type_symbol
_atom_site_label
_atom_site_fract_x
_atom_site_fract_y
_atom_site_fract_z
Si Si1 0.829074 0.817505 0.321213
Si Si2 0.591132 0.179118 0.769120
Si Si3 0.669067 0.321919 0.633586
Si Si4 0.434656 0.819630 0.803407
Si Si5 0.666691 0.827924 0.482593
Si Si6 0.927955 0.320350 0.038002
Si Si7 0.830144 0.679827 0.905871
O O1 0.750000 0.769929 0.310273
O O2 0.878873 0.769648 0.256344
O O3 0.854141 0.771465 0.402226
O O4 0.828676 0.000000 0.322917
O O5 0.624846 0.244952 0.696278
O O6 0.511392 0.222145 0.778213
O O7 0.632137 0.241880 0.838680
O O8 0.595522 0.000000 0.767649
O O9 0.750000 0.282152 0.643014
O O10 0.663554 0.500000 0.639179
O O11 0.647214 0.267302 0.553048
O O12 0.421175 0.753821 0.883296
O O13 0.431837 0.000000 0.807564
O O14 0.750000 0.829669 0.479865
O O15 0.643997 0.000000 0.492132
O O16 0.928563 0.500000 0.046862
O O17 0.867889 0.280315 0.981387
O O18 0.000000 0.277121 0.000000
O O19 0.750000 0.717697 0.907220
O O20 0.836504 0.500000 0.896723
#
# Coordination Sequence:
#
# PCOD9403298 Si02
#       7
#     8   8   8   8   8   8   8
#     4   8  15  31  55  80 105 134 170 213 260 307
#     4  11  22  34  50  75 107 139 173 212 255 306
#     4  10  20  33  51  75 103 136 174 215 259 307
#     4  10  21  35  54  80 107 136 172 212 256 307
#     4   8  14  28  52  77 100 131 171 212 255 304
#     4  10  20  36  56  75  99 136 174 207 255 315
#     4  10  21  37  56  77 102 134 174 217 259 305
#
# _framework density 17.555875
#
# number of rings (size 3 to 8) (size 9 to 14) (size 15 to 20)
#    0.000    2.429    1.429    2.143    0.000    4.857 
#    0.000    1.429    0.000    5.143    0.000    0.000 
#    0.000    0.000    0.000    0.000    0.000    0.000 
#
# Total GULP energy -312383.037652 kJ/mol
# GULP energy per Si atom -5578.268529 kJ/mol
# Density = 1.751592 g / cm^3
# Si number density = 17.555875 Si / 1000 Ang^3
#
#
#
# Elastic Constant Matrix: (Units=GPa)
#
#
# Indices 1 2 3 4 5 6 
#
# 1 116.4359 37.7191 96.4751 0.0000 0.0000 0.0000
# 2 37.7191 21.3701 47.4466 0.0000 0.0000 0.0000
# 3 96.4751 47.4466 201.1733 0.0000 0.0000 0.0000
# 4 0.0000 0.0000 0.0000 117.1745 0.0000 0.0000
# 5 0.0000 0.0000 0.0000 0.0000 20.3564 0.0000
# 6 0.0000 0.0000 0.0000 0.0000 0.0000 16.8745
#
#
#
# Elastic Compliance Matrix: (Units=1/GPa)
#
#
# Indices 1 2 3 4 5 6 
#
# 1 0.020760 -0.030520 -0.002758 0.000000 0.000000 0.000000
# 2 -0.030520 0.143101 -0.019114 0.000000 0.000000 0.000000
# 3 -0.002758 -0.019114 0.010801 0.000000 0.000000 0.000000
# 4 0.000000 0.000000 0.000000 0.008534 0.000000 0.000000
# 5 0.000000 0.000000 0.000000 0.000000 0.049125 0.000000
# 6 0.000000 0.000000 0.000000 0.000000 0.000000 0.059261
#
#
# Mechanical properties :
#
#
# Convention : Reuss Voigt Hill
#
# Bulk Modulus (GPa) = 14.31041 78.02899 46.16970
# Shear Modulus (GPa) = 11.91444 41.37032 26.64238
#
# Velocity S-wave (km/s) = 2.60793 4.85964 3.89983
# Velocity P-wave (km/s) = 4.15180 8.71956 6.82892
#
# Compressibility (1/GPa) = 0.06987922
#
# Stress axis : x y z
#
# Youngs Moduli (GPa) = 48.16912 6.98807 92.58073
#
# Poissons Ratio (x) = 0.21327 0.25531
# Poissons Ratio (y) = 1.47011 1.76960
# Poissons Ratio (z) = 0.13284 0.13357
#
# Static dielectric constant tensor:
#      x y z
#    x 1.588860 0.000000 0.000000 
#    y 0.000000 1.590520 0.000000 
#    z 0.000000 0.000000 1.580960 
# 
# From -- ./inp_files/25653.got.cif
#   From: 2010.05.17/outbox.cif.g08.bks.cpg/sg51_13_cif.got.tgz:25653.got - 2010.06.03 11:52:47.
