data_PCOD9403358
_publ_section_title
;
Structure prediction by ZEFSAII (Michael W. Deem and Ramdas Pophale) SiO2 
 PCOD9403358
Probable space group: P M M A
;
_chemical_formula_sum "Si O2"
_cell_formula_units_Z 64
_cell_length_a 9.216631
_cell_length_b 16.536440
_cell_length_c 23.689975
_cell_angle_alpha 90.000000
_cell_angle_beta 90.000000
_cell_angle_gamma 90.000000
_cell_volume 3610.595380
_symmetry_space_group_name_H-M "P M M A"
_symmetry_group_IT_number 51
_symmetry_cell_setting 'orthorhombic'
loop_
_space_group_symop_operation_xyz
x,y,z
1/2-x,-y,z
1/2+x,-y,-z
-x,y,-z
-x,-y,-z
1/2+x,y,-z
1/2-x,y,z
x,-y,z
loop_
_atom_site_type_symbol
_atom_site_label
_atom_site_fract_x
_atom_site_fract_y
_atom_site_fract_z
Si Si1 0.924450 0.265809 0.738108
Si Si2 0.419996 0.174716 0.641335
Si Si3 0.919864 0.330338 0.440486
Si Si4 0.574940 0.092132 0.939088
Si Si5 0.074035 0.749624 0.131424
Si Si6 0.424972 0.591416 0.060894
Si Si7 0.421178 0.407138 0.673086
Si Si8 0.089865 0.905370 0.447611
O O1 0.750000 0.262487 0.733641
O O2 0.968104 0.254403 0.803095
O O3 0.999241 0.199550 0.698139
O O4 0.984450 0.349758 0.712721
O O5 0.250000 0.161193 0.649938
O O6 0.437579 0.248036 0.595967
O O7 0.500966 0.103371 0.609521
O O8 0.750000 0.340594 0.452395
O O9 0.964057 0.395568 0.392699
O O10 0.000000 0.332052 0.500000
O O11 0.750000 0.096763 0.945400
O O12 0.528488 0.167055 0.899390
O O13 0.541861 0.000000 0.918629
O O14 0.500000 0.101411 0.000000
O O15 0.250000 0.749634 0.130260
O O16 0.028174 0.667364 0.099259
O O17 0.250000 0.595874 0.054599
O O18 0.458027 0.500000 0.082765
O O19 0.500000 0.598828 0.000000
O O20 0.250000 0.382500 0.676680
O O21 0.433464 0.500000 0.689402
O O22 0.250000 0.867849 0.443532
O O23 0.000000 0.870460 0.500000
O O24 0.107112 0.000000 0.459256
#
# Coordination Sequence:
#
# PCOD9403358 Si02
#       8
#     8   8   8   8   8   8   8   8
#     4  10  20  34  52  73  96 125 169 215 250 295
#     4  10  20  35  52  69  96 133 168 205 253 303
#     4   9  18  30  46  69  93 120 154 193 241 295
#     4   9  17  31  52  77 104 133 164 199 243 295
#     4   9  18  32  50  73 101 133 167 206 252 299
#     4   9  17  30  48  71 101 134 166 203 249 300
#     4   9  19  36  52  67  95 131 162 199 251 305
#     4  10  20  33  51  77 105 131 162 202 250 305
#
# _framework density 17.725608000000001
#
# number of rings (size 3 to 8) (size 9 to 14) (size 15 to 20)
#    0.000    2.625    0.000    2.625    0.000    5.250 
#    0.000    4.375    0.000    3.750    0.000    0.000 
#    0.000    0.000    0.000    0.000    0.000    0.000 
#
# Total GULP energy -356528.012470 kJ/mol
# GULP energy per Si atom -5570.750195 kJ/mol
# Density = 1.768526 g / cm^3
# Si number density = 17.725608 Si / 1000 Ang^3
#
#
#
# Elastic Constant Matrix: (Units=GPa)
#
#
# Indices 1 2 3 4 5 6 
#
# 1 64.8880 36.0473 49.9694 0.0000 0.0000 0.0000
# 2 36.0473 88.0044 68.4231 0.0000 0.0000 0.0000
# 3 49.9694 68.4231 140.0525 0.0000 0.0000 0.0000
# 4 0.0000 0.0000 0.0000 12.6877 0.0000 0.0000
# 5 0.0000 0.0000 0.0000 0.0000 27.6970 0.0000
# 6 0.0000 0.0000 0.0000 0.0000 0.0000 17.8703
#
#
#
# Elastic Compliance Matrix: (Units=1/GPa)
#
#
# Indices 1 2 3 4 5 6 
#
# 1 0.022432 -0.004782 -0.005667 0.000000 0.000000 0.000000
# 2 -0.004782 0.019342 -0.007744 0.000000 0.000000 0.000000
# 3 -0.005667 -0.007744 0.012945 0.000000 0.000000 0.000000
# 4 0.000000 0.000000 0.000000 0.078816 0.000000 0.000000
# 5 0.000000 0.000000 0.000000 0.000000 0.036105 0.000000
# 6 0.000000 0.000000 0.000000 0.000000 0.000000 0.055959
#
#
# Mechanical properties :
#
#
# Convention : Reuss Voigt Hill
#
# Bulk Modulus (GPa) = 54.54349 66.86938 60.70644
# Shear Modulus (GPa) = 18.64997 20.88470 19.76733
#
# Velocity S-wave (km/s) = 3.24720 3.43625 3.34306
# Velocity P-wave (km/s) = 6.70052 7.31781 7.01596
#
# Compressibility (1/GPa) = 0.01833399
#
# Stress axis : x y z
#
# Youngs Moduli (GPa) = 44.57909 51.69964 77.24773
#
# Poissons Ratio (x) = 0.24723 0.43778
# Poissons Ratio (y) = 0.21318 0.59818
# Poissons Ratio (z) = 0.25264 0.40034
#
# Static dielectric constant tensor:
#      x y z
#    x 1.609410 0.000000 0.000000 
#    y 0.000000 1.664450 0.000000 
#    z 0.000000 0.000000 1.578040 
# 
# From -- ./inp_files/35123.got.cif
#   From: 2010.05.17/outbox.cif.g08.bks.cpg/sg51_18_cif.got.tgz:35123.got - 2010.06.03 11:52:47.
