data_PCOD9403373
_publ_section_title
;
Structure prediction by ZEFSAII (Michael W. Deem and Ramdas Pophale) SiO2 
 PCOD9403373
Probable space group: P M M A
;
_chemical_formula_sum "Si O2"
_cell_formula_units_Z 48
_cell_length_a 9.270272
_cell_length_b 7.762540
_cell_length_c 31.813773
_cell_angle_alpha 90.000000
_cell_angle_beta 90.000000
_cell_angle_gamma 90.000000
_cell_volume 2289.346376
_symmetry_space_group_name_H-M "P M M A"
_symmetry_group_IT_number 51
_symmetry_cell_setting 'orthorhombic'
loop_
_space_group_symop_operation_xyz
x,y,z
1/2-x,-y,z
1/2+x,-y,-z
-x,y,-z
-x,-y,-z
1/2+x,y,-z
1/2-x,y,z
x,-y,z
loop_
_atom_site_type_symbol
_atom_site_label
_atom_site_fract_x
_atom_site_fract_y
_atom_site_fract_z
Si Si1 0.586078 0.705587 0.375296
Si Si2 0.414598 0.292454 0.124999
Si Si3 0.086233 0.206641 0.459444
Si Si4 0.916443 0.289187 0.042025
Si Si5 0.086105 0.206717 0.291085
Si Si6 0.414319 0.792568 0.790445
O O1 0.750000 0.774693 0.375190
O O2 0.593786 0.500000 0.375468
O O3 0.500490 0.759388 0.416888
O O4 0.500254 0.758279 0.333655
O O5 0.250000 0.228059 0.126194
O O6 0.408570 0.500000 0.122131
O O7 0.500197 0.231125 0.083805
O O8 0.499808 0.248575 0.167246
O O9 0.250000 0.273877 0.457382
O O10 0.000000 0.274152 0.500000
O O11 0.095570 0.000000 0.464015
O O12 0.750000 0.234003 0.041945
O O13 0.916265 0.500000 0.042225
O O14 0.000000 0.235246 0.000000
O O15 0.250000 0.273701 0.292956
O O16 0.999654 0.273066 0.250477
O O17 0.095021 0.000000 0.286728
O O18 0.250000 0.727343 0.791971
O O19 0.407376 0.000000 0.787047
#
# Coordination Sequence:
#
# PCOD9403373 Si02
#       6
#     8   8   8   8   8   8
#     4  11  24  39  56  82 115 149 183 221 269 321
#     4  10  20  33  51  77 107 139 176 218 265 316
#     4  10  21  38  61  87 113 145 186 228 270 318
#     4   9  16  27  45  70 101 136 174 217 263 312
#     4  10  21  38  60  83 106 137 179 223 267 318
#     4  10  21  37  57  80 106 139 178 219 266 320
#
# _framework density 20.966684000000001
#
# number of rings (size 3 to 8) (size 9 to 14) (size 15 to 20)
#    0.000    2.000    0.000    3.500    0.000   10.333 
#    0.000    0.000    0.000    0.500    0.000    0.000 
#    0.000    0.000    0.000    0.000    0.000    0.000 
#
# Total GULP energy -268313.740304 kJ/mol
# GULP energy per Si atom -5589.869590 kJ/mol
# Density = 2.091896 g / cm^3
# Si number density = 20.966684 Si / 1000 Ang^3
#
#
#
# Elastic Constant Matrix: (Units=GPa)
#
#
# Indices 1 2 3 4 5 6 
#
# 1 271.7621 9.7335 159.8247 0.0000 0.0000 0.0000
# 2 9.7335 29.5482 -2.5671 0.0000 0.0000 0.0000
# 3 159.8247 -2.5671 247.3935 0.0000 0.0000 0.0000
# 4 0.0000 0.0000 0.0000 24.2827 0.0000 0.0000
# 5 0.0000 0.0000 0.0000 0.0000 48.4780 0.0000
# 6 0.0000 0.0000 0.0000 0.0000 0.0000 18.1280
#
#
#
# Elastic Compliance Matrix: (Units=1/GPa)
#
#
# Indices 1 2 3 4 5 6 
#
# 1 0.006093 -0.002351 -0.003961 0.000000 0.000000 0.000000
# 2 -0.002351 0.034781 0.001880 0.000000 0.000000 0.000000
# 3 -0.003961 0.001880 0.006621 0.000000 0.000000 0.000000
# 4 0.000000 0.000000 0.000000 0.041182 0.000000 0.000000
# 5 0.000000 0.000000 0.000000 0.000000 0.020628 0.000000
# 6 0.000000 0.000000 0.000000 0.000000 0.000000 0.055163
#
#
# Mechanical properties :
#
#
# Convention : Reuss Voigt Hill
#
# Bulk Modulus (GPa) = 25.88650 98.07625 61.98138
# Shear Modulus (GPa) = 26.85158 43.62525 35.23841
#
# Velocity S-wave (km/s) = 3.58254 4.56641 4.10406
# Velocity P-wave (km/s) = 5.43011 8.64185 7.21691
#
# Compressibility (1/GPa) = 0.03863017
#
# Stress axis : x y z
#
# Youngs Moduli (GPa) = 164.11382 28.75143 151.04532
#
# Poissons Ratio (x) = 0.06760 0.59828
# Poissons Ratio (y) = 0.38589 -0.28396
# Poissons Ratio (z) = 0.65004 -0.05405
#
# Static dielectric constant tensor:
#      x y z
#    x 1.740970 0.000000 0.000000 
#    y 0.000000 1.788540 0.000000 
#    z 0.000000 0.000000 1.693500 
# 
# From -- ./inp_files/36893.got.cif
#   From: 2010.05.17/outbox.cif.g08.bks.cpg/sg51_19_cif.got.tgz:36893.got - 2010.06.03 11:52:47.
