data_PCOD9403841
_publ_section_title
;
Structure prediction by ZEFSAII (Michael W. Deem and Ramdas Pophale) SiO2 
 PCOD9403841
Probable space group: P M M A
;
_chemical_formula_sum "Si O2"
_cell_formula_units_Z 56
_cell_length_a 8.477098
_cell_length_b 18.687191
_cell_length_c 16.611363
_cell_angle_alpha 90.000000
_cell_angle_beta 90.000000
_cell_angle_gamma 90.000000
_cell_volume 2631.458330
_symmetry_space_group_name_H-M "P M M A"
_symmetry_group_IT_number 51
_symmetry_cell_setting 'orthorhombic'
loop_
_space_group_symop_operation_xyz
x,y,z
1/2-x,-y,z
1/2+x,-y,-z
-x,y,-z
-x,-y,-z
1/2+x,y,-z
1/2-x,y,z
x,-y,z
loop_
_atom_site_type_symbol
_atom_site_label
_atom_site_fract_x
_atom_site_fract_y
_atom_site_fract_z
Si Si1 0.431031 0.843359 0.135186
Si Si2 0.440466 0.000000 0.089013
Si Si3 0.560201 0.580850 0.232828
Si Si4 0.570543 0.226603 0.582052
Si Si5 0.938934 0.000000 0.408800
Si Si6 0.428668 0.397165 0.413766
Si Si7 0.570121 0.135403 0.299312
Si Si8 0.061416 0.688684 0.910750
O O1 0.250000 0.840785 0.107111
O O2 0.447417 0.845625 0.230540
O O3 0.514333 0.772030 0.103254
O O4 0.499404 0.922612 0.118219
O O5 0.250000 0.000000 0.100167
O O6 0.500000 0.000000 0.000000
O O7 0.750000 0.585172 0.232891
O O8 0.513905 0.500000 0.207273
O O9 0.508327 0.588758 0.326654
O O10 0.504721 0.639673 0.165778
O O11 0.500000 0.196167 0.500000
O O12 0.750000 0.200694 0.596441
O O13 0.576508 0.311461 0.578640
O O14 0.440988 0.205025 0.646393
O O15 0.982010 0.069239 0.355239
O O16 0.000000 0.000000 0.500000
O O17 0.750000 0.000000 0.414195
O O18 0.500000 0.421772 0.500000
O O19 0.250000 0.422855 0.408436
O O20 0.750000 0.123167 0.270652
O O21 0.250000 0.683988 0.912120
O O22 0.000000 0.667133 0.000000
#
# Coordination Sequence:
#
# PCOD9403841 Si02
#       8
#     8   4   8   8   4   8   8   8
#     4  11  23  40  62  90 122 157 199 246 301 363
#     4  10  23  40  60  86 116 150 187 230 281 342
#     4  10  23  43  65  91 126 167 211 260 314 373
#     4  10  20  34  53  79 110 146 191 242 295 352
#     4  10  23  38  52  74 108 152 203 256 309 370
#     4  10  21  37  60  90 124 162 204 252 307 369
#     4  11  22  36  54  78 109 148 194 245 302 360
#     4  11  24  43  68  97 129 166 209 260 319 382
#
# _framework density 21.280975000000002
#
# number of rings (size 3 to 8) (size 9 to 14) (size 15 to 20)
#    0.000    1.571    0.000    4.286    0.000   10.571 
#    0.000    0.000    0.000    0.000    0.000    0.000 
#    0.000    0.000    0.000    0.000    0.000    0.000 
#
# Total GULP energy -312048.187192 kJ/mol
# GULP energy per Si atom -5572.289057 kJ/mol
# Density = 2.123254 g / cm^3
# Si number density = 21.280975 Si / 1000 Ang^3
#
#
#
# Elastic Constant Matrix: (Units=GPa)
#
#
# Indices 1 2 3 4 5 6 
#
# 1 51.9472 33.5219 21.7385 0.0000 0.0000 0.0000
# 2 33.5219 104.0058 49.9068 0.0000 0.0000 0.0000
# 3 21.7385 49.9068 131.4055 0.0000 0.0000 0.0000
# 4 0.0000 0.0000 0.0000 -23.9868 0.0000 0.0000
# 5 0.0000 0.0000 0.0000 0.0000 36.9842 0.0000
# 6 0.0000 0.0000 0.0000 0.0000 0.0000 29.2053
#
#
#
# Elastic Compliance Matrix: (Units=1/GPa)
#
#
# Indices 1 2 3 4 5 6 
#
# 1 0.024483 -0.007273 -0.001288 0.000000 0.000000 0.000000
# 2 -0.007273 0.013918 -0.004083 0.000000 0.000000 0.000000
# 3 -0.001288 -0.004083 0.009374 0.000000 0.000000 0.000000
# 4 0.000000 0.000000 0.000000 -0.041690 0.000000 0.000000
# 5 0.000000 0.000000 0.000000 0.000000 0.027039 0.000000
# 6 0.000000 0.000000 0.000000 0.000000 0.000000 0.034240
#
#
# Mechanical properties :
#
#
# Convention : Reuss Voigt Hill
#
# Bulk Modulus (GPa) = 44.47020 55.29923 49.88471
# Shear Modulus (GPa) = 49.92668 20.58660 35.25664
#
# Velocity S-wave (km/s) = 4.84888 3.11363 4.07470
# Velocity P-wave (km/s) = 7.23125 6.24243 6.75496
#
# Compressibility (1/GPa) = 0.02248697
#
# Stress axis : x y z
#
# Youngs Moduli (GPa) = 40.84542 71.84889 106.68108
#
# Poissons Ratio (x) = 0.52255 0.13740
# Poissons Ratio (y) = 0.29706 0.43556
# Poissons Ratio (z) = 0.05261 0.29335
#
# Static dielectric constant tensor:
#      x y z
#    x 1.768640 0.000000 0.000000 
#    y 0.000000 1.745090 0.000000 
#    z 0.000000 0.000000 1.708870 
# 
# From -- ./inp_files/21916.got.cif
#   From: 2010.05.17/outbox.cif.g08.bks.cpg/sg51_11_cif.got.tgz:21916.got - 2010.06.03 11:52:47.
