data_PCOD9403928
_publ_section_title
;
Structure prediction by ZEFSAII (Michael W. Deem and Ramdas Pophale) SiO2 
 PCOD9403928
Probable space group: P M M A
;
_chemical_formula_sum "Si O2"
_cell_formula_units_Z 64
_cell_length_a 14.839106
_cell_length_b 8.777907
_cell_length_c 25.071485
_cell_angle_alpha 90.000000
_cell_angle_beta 90.000000
_cell_angle_gamma 90.000000
_cell_volume 3265.718682
_symmetry_space_group_name_H-M "P M M A"
_symmetry_group_IT_number 51
_symmetry_cell_setting 'orthorhombic'
loop_
_space_group_symop_operation_xyz
x,y,z
1/2-x,-y,z
1/2+x,-y,-z
-x,y,-z
-x,-y,-z
1/2+x,y,-z
1/2-x,y,z
x,-y,z
loop_
_atom_site_type_symbol
_atom_site_label
_atom_site_fract_x
_atom_site_fract_y
_atom_site_fract_z
Si Si1 0.541480 0.681001 0.261372
Si Si2 0.021015 0.319126 0.941576
Si Si3 0.857049 0.322315 0.463982
Si Si4 0.646960 0.316561 0.588458
Si Si5 0.354655 0.686205 0.846195
Si Si6 0.032868 0.179114 0.630654
Si Si7 0.151625 0.673259 0.131703
Si Si8 0.849902 0.821337 0.756795
O O1 0.549033 0.500000 0.262686
O O2 0.590212 0.734760 0.206831
O O3 0.577622 0.748191 0.316723
O O4 0.436971 0.729655 0.261128
O O5 0.041487 0.500000 0.949213
O O6 0.097851 0.260084 0.901078
O O7 0.929016 0.306420 0.908508
O O8 0.000000 0.253281 0.000000
O O9 0.750000 0.310569 0.454161
O O10 0.883413 0.500000 0.457778
O O11 0.871057 0.280923 0.525938
O O12 0.912311 0.225552 0.421971
O O13 0.750000 0.269658 0.600826
O O14 0.642495 0.500000 0.593869
O O15 0.568601 0.240845 0.622290
O O16 0.250000 0.729840 0.843109
O O17 0.358904 0.500000 0.846688
O O18 0.030102 0.000000 0.637265
O O19 0.250000 0.681191 0.105476
O O20 0.142634 0.500000 0.154541
O O21 0.149581 0.791870 0.179593
O O22 0.750000 0.770603 0.737920
O O23 0.859886 0.000000 0.744810
#
# Coordination Sequence:
#
# PCOD9403928 Si02
#       8
#     8   8   8   8   8   8   8   8
#     4  11  22  38  58  78 105 147 195 237 277 329
#     4   9  16  27  47  79 115 143 173 221 279 331
#     4   9  19  38  63  87 113 150 197 243 284 334
#     4   9  19  38  63  88 115 152 196 238 283 339
#     4   9  18  33  53  78 107 141 184 231 277 324
#     4  12  25  37  54  85 121 153 188 237 295 349
#     4   9  16  28  48  75 105 137 174 213 259 323
#     4  10  20  34  54  79 105 135 172 219 278 336
#
# _framework density 19.597524
#
# number of rings (size 3 to 8) (size 9 to 14) (size 15 to 20)
#    0.000    2.250    1.250    3.000    0.000    4.750 
#    0.000    5.000    0.000    1.500    0.000    0.000 
#    0.000    0.000    0.000    0.000    0.000    0.000 
#
# Total GULP energy -357027.803996 kJ/mol
# GULP energy per Si atom -5578.559437 kJ/mol
# Density = 1.955292 g / cm^3
# Si number density = 19.597524 Si / 1000 Ang^3
#
#
#
# Elastic Constant Matrix: (Units=GPa)
#
#
# Indices 1 2 3 4 5 6 
#
# 1 86.4443 24.7400 56.5467 0.0000 0.0000 0.0000
# 2 24.7400 28.4427 34.6471 0.0000 0.0000 0.0000
# 3 56.5467 34.6471 116.7867 0.0000 0.0000 0.0000
# 4 0.0000 0.0000 0.0000 -11.4297 0.0000 0.0000
# 5 0.0000 0.0000 0.0000 0.0000 -4.2496 0.0000
# 6 0.0000 0.0000 0.0000 0.0000 0.0000 473.7437
#
#
#
# Elastic Compliance Matrix: (Units=1/GPa)
#
#
# Indices 1 2 3 4 5 6 
#
# 1 0.017994 -0.007890 -0.006372 0.000000 0.000000 0.000000
# 2 -0.007890 0.058514 -0.013539 0.000000 0.000000 0.000000
# 3 -0.006372 -0.013539 0.015664 0.000000 0.000000 0.000000
# 4 0.000000 0.000000 0.000000 -0.087492 0.000000 0.000000
# 5 0.000000 0.000000 0.000000 0.000000 -0.235317 0.000000
# 6 0.000000 0.000000 0.000000 0.000000 0.000000 0.002111
#
#
# Mechanical properties :
#
#
# Convention : Reuss Voigt Hill
#
# Bulk Modulus (GPa) = 27.34433 51.50460 39.42446
# Shear Modulus (GPa) = -31.10743 99.32887 34.11072
#
# Velocity S-wave (km/s) = -3.98843 7.12702 4.17653
# Velocity P-wave (km/s) = 2.68829 9.69867 6.58928
#
# Compressibility (1/GPa) = 0.03657065
#
# Stress axis : x y z
#
# Youngs Moduli (GPa) = 55.57300 17.09003 63.83870
#
# Poissons Ratio (x) = 0.13484 0.40678
# Poissons Ratio (y) = 0.43847 0.86432
# Poissons Ratio (z) = 0.35411 0.23138
#
# Static dielectric constant tensor:
#      x y z
#    x 1.707320 0.000000 0.000000 
#    y 0.000000 1.661290 0.000000 
#    z 0.000000 0.000000 1.708530 
# 
# From -- ./inp_files/35653.got.cif
#   From: 2010.05.17/outbox.cif.g08.bks.cpg/sg51_18_cif.got.tgz:35653.got - 2010.06.03 11:52:47.
