data_PCOD9403918
_publ_section_title
;
Structure prediction by ZEFSAII (Michael W. Deem and Ramdas Pophale) SiO2 
 PCOD9403918
Probable space group: P M M A
;
_chemical_formula_sum "Si O2"
_cell_formula_units_Z 48
_cell_length_a 9.394072
_cell_length_b 7.570062
_cell_length_c 32.441347
_cell_angle_alpha 90.000000
_cell_angle_beta 90.000000
_cell_angle_gamma 90.000000
_cell_volume 2307.024461
_symmetry_space_group_name_H-M "P M M A"
_symmetry_group_IT_number 51
_symmetry_cell_setting 'orthorhombic'
loop_
_space_group_symop_operation_xyz
x,y,z
1/2-x,-y,z
1/2+x,-y,-z
-x,y,-z
-x,-y,-z
1/2+x,y,-z
1/2-x,y,z
x,-y,z
loop_
_atom_site_type_symbol
_atom_site_label
_atom_site_fract_x
_atom_site_fract_y
_atom_site_fract_z
Si Si1 0.415119 0.716381 0.459896
Si Si2 0.923404 0.705952 0.629454
Si Si3 0.589416 0.790993 0.199545
Si Si4 0.910245 0.708633 0.880750
Si Si5 0.413137 0.286780 0.280869
Si Si6 0.913761 0.716244 0.040680
O O1 0.500000 0.775038 0.500000
O O2 0.250000 0.765830 0.463858
O O3 0.420070 0.500000 0.458908
O O4 0.469064 0.779313 0.414957
O O5 0.750000 0.709756 0.628989
O O6 0.966865 0.500000 0.629559
O O7 0.963263 0.780940 0.674145
O O8 0.750000 0.717379 0.197839
O O9 0.490929 0.725669 0.162456
O O10 0.515029 0.756904 0.243265
O O11 0.598650 0.000000 0.194277
O O12 0.750000 0.782413 0.879136
O O13 0.896964 0.500000 0.888809
O O14 0.005229 0.779043 0.918308
O O15 0.250000 0.226227 0.273301
O O16 0.407016 0.500000 0.283857
O O17 0.750000 0.774027 0.039732
O O18 0.911566 0.500000 0.041089
O O19 0.000000 0.769349 0.000000
#
# Coordination Sequence:
#
# PCOD9403918 Si02
#       6
#     8   8   8   8   8   8
#     4   8  12  18  29  47  75 111 145 175 211 259
#     4   7  11  21  37  57  82 112 145 182 225 271
#     4  11  24  38  50  68  97 130 161 196 242 294
#     4  10  20  34  54  79 103 129 165 205 242 283
#     4   9  17  31  52  74  93 118 157 201 241 284
#     4   9  16  27  46  74 107 138 166 199 238 278
#
# _framework density 20.806021000000001
#
# number of rings (size 3 to 8) (size 9 to 14) (size 15 to 20)
#    0.000    3.000    0.000    4.000    0.000    6.667 
#    0.000    0.833    0.000    3.500    0.000    0.000 
#    0.000    0.667    0.000    1.500    0.000    4.333 
#
# Total GULP energy -267671.327650 kJ/mol
# GULP energy per Si atom -5576.485993 kJ/mol
# Density = 2.075867 g / cm^3
# Si number density = 20.806021 Si / 1000 Ang^3
#
#
#
# Elastic Constant Matrix: (Units=GPa)
#
#
# Indices 1 2 3 4 5 6 
#
# 1 149.7136 4.2372 111.7086 0.0000 0.0000 0.0000
# 2 4.2372 46.5643 -4.8273 0.0000 0.0000 0.0000
# 3 111.7086 -4.8273 216.6228 0.0000 0.0000 0.0000
# 4 0.0000 0.0000 0.0000 -62.2336 0.0000 0.0000
# 5 0.0000 0.0000 0.0000 0.0000 38.4529 0.0000
# 6 0.0000 0.0000 0.0000 0.0000 0.0000 93.2882
#
#
#
# Elastic Compliance Matrix: (Units=1/GPa)
#
#
# Indices 1 2 3 4 5 6 
#
# 1 0.010973 -0.001589 -0.005694 0.000000 0.000000 0.000000
# 2 -0.001589 0.021755 0.001304 0.000000 0.000000 0.000000
# 3 -0.005694 0.001304 0.007582 0.000000 0.000000 0.000000
# 4 0.000000 0.000000 0.000000 -0.016068 0.000000 0.000000
# 5 0.000000 0.000000 0.000000 0.000000 0.026006 0.000000
# 6 0.000000 0.000000 0.000000 0.000000 0.000000 0.010719
#
#
# Mechanical properties :
#
#
# Convention : Reuss Voigt Hill
#
# Bulk Modulus (GPa) = 35.26990 70.57086 52.92038
# Shear Modulus (GPa) = 60.69801 34.02031 47.35916
#
# Velocity S-wave (km/s) = 5.40709 4.04805 4.77615
# Velocity P-wave (km/s) = 7.48136 7.47268 7.47702
#
# Compressibility (1/GPa) = 0.02835279
#
# Stress axis : x y z
#
# Youngs Moduli (GPa) = 91.13346 45.96549 131.89741
#
# Poissons Ratio (x) = 0.07303 0.75102
# Poissons Ratio (y) = 0.14479 -0.17201
# Poissons Ratio (z) = 0.51891 -0.05994
#
# Static dielectric constant tensor:
#      x y z
#    x 1.719550 0.000000 0.000000 
#    y 0.000000 1.780360 0.000000 
#    z 0.000000 0.000000 1.753910 
# 
# From -- ./inp_files/37056.got.cif
#   From: 2010.05.17/outbox.cif.g08.bks.cpg/sg51_19_cif.got.tgz:37056.got - 2010.06.03 11:52:47.
