data_PCOD9403077
_publ_section_title
;
Structure prediction by ZEFSAII (Michael W. Deem and Ramdas Pophale) SiO2 
 PCOD9403077
Probable space group: P M M A
;
_chemical_formula_sum "Si O2"
_cell_formula_units_Z 56
_cell_length_a 9.059939
_cell_length_b 15.367721
_cell_length_c 21.215640
_cell_angle_alpha 90.000000
_cell_angle_beta 90.000000
_cell_angle_gamma 90.000000
_cell_volume 2953.866601
_symmetry_space_group_name_H-M "P M M A"
_symmetry_group_IT_number 51
_symmetry_cell_setting 'orthorhombic'
loop_
_space_group_symop_operation_xyz
x,y,z
1/2-x,-y,z
1/2+x,-y,-z
-x,y,-z
-x,-y,-z
1/2+x,y,-z
1/2-x,y,z
x,-y,z
loop_
_atom_site_type_symbol
_atom_site_label
_atom_site_fract_x
_atom_site_fract_y
_atom_site_fract_z
Si Si1 0.416288 0.667604 0.439112
Si Si2 0.082591 0.874887 0.436906
Si Si3 0.074073 0.402063 0.190724
Si Si4 0.072946 0.900302 0.698369
Si Si5 0.427233 0.898892 0.935227
Si Si6 0.416067 0.599534 0.677387
Si Si7 0.071900 0.780594 0.816720
O O1 0.500000 0.631105 0.500000
O O2 0.250000 0.632353 0.432194
O O3 0.406409 0.771075 0.445543
O O4 0.516037 0.653148 0.378539
O O5 0.250000 0.907154 0.433461
O O6 0.000000 0.906491 0.500000
O O7 0.000654 0.891305 0.370497
O O8 0.250000 0.395507 0.184153
O O9 0.029593 0.500000 0.167336
O O10 0.023956 0.399597 0.263482
O O11 0.996279 0.313868 0.167573
O O12 0.250000 0.891786 0.691145
O O13 0.026367 0.827398 0.750316
O O14 0.044281 0.000000 0.721268
O O15 0.250000 0.894961 0.941343
O O16 0.469076 0.844636 0.873768
O O17 0.469448 0.000000 0.926912
O O18 0.500000 0.866948 0.000000
O O19 0.250000 0.627905 0.695369
O O20 0.407336 0.500000 0.655604
O O21 0.250000 0.773240 0.814720
#
# Coordination Sequence:
#
# PCOD9403077 Si02
#       7
#     8   8   8   8   8   8   8
#     4  10  20  33  49  68  91 121 161 211 266 325
#     4  10  21  36  53  72  95 129 174 221 269 322
#     4  10  21  36  54  78 108 141 178 223 274 325
#     4  10  21  36  54  78 108 141 177 220 272 327
#     4   9  18  34  57  87 123 160 195 229 269 322
#     4  10  20  33  49  69  94 126 165 210 264 327
#     4  10  20  35  58  85 114 149 187 228 273 324
#
# _framework density 18.958203000000001
#
# number of rings (size 3 to 8) (size 9 to 14) (size 15 to 20)
#    0.000    2.143    0.000    3.000    0.000    9.429 
#    0.000    0.000    0.000    3.000    0.000    0.000 
#    0.000    0.000    0.000    0.000    0.000    0.000 
#
# Total GULP energy -312222.219879 kJ/mol
# GULP energy per Si atom -5575.396784 kJ/mol
# Density = 1.891505 g / cm^3
# Si number density = 18.958203 Si / 1000 Ang^3
#
#
#
# Elastic Constant Matrix: (Units=GPa)
#
#
# Indices 1 2 3 4 5 6 
#
# 1 44.8751 33.4988 29.5917 0.0000 0.0000 0.0000
# 2 33.4988 85.6021 48.6693 0.0000 0.0000 0.0000
# 3 29.5917 48.6693 100.2414 0.0000 0.0000 0.0000
# 4 0.0000 0.0000 0.0000 19.8912 0.0000 0.0000
# 5 0.0000 0.0000 0.0000 0.0000 26.2486 0.0000
# 6 0.0000 0.0000 0.0000 0.0000 0.0000 17.0672
#
#
#
# Elastic Compliance Matrix: (Units=1/GPa)
#
#
# Indices 1 2 3 4 5 6 
#
# 1 0.033076 -0.010211 -0.004807 0.000000 0.000000 0.000000
# 2 -0.010211 0.019288 -0.006351 0.000000 0.000000 0.000000
# 3 -0.004807 -0.006351 0.014478 0.000000 0.000000 0.000000
# 4 0.000000 0.000000 0.000000 0.050274 0.000000 0.000000
# 5 0.000000 0.000000 0.000000 0.000000 0.038097 0.000000
# 6 0.000000 0.000000 0.000000 0.000000 0.000000 0.058592
#
#
# Mechanical properties :
#
#
# Convention : Reuss Voigt Hill
#
# Bulk Modulus (GPa) = 41.48273 50.47090 45.97681
# Shear Modulus (GPa) = 18.89809 20.57198 19.73504
#
# Velocity S-wave (km/s) = 3.16069 3.29769 3.22992
# Velocity P-wave (km/s) = 5.93705 6.41714 6.18176
#
# Compressibility (1/GPa) = 0.02410642
#
# Stress axis : x y z
#
# Youngs Moduli (GPa) = 30.23350 51.84438 69.06932
#
# Poissons Ratio (x) = 0.52938 0.33198
# Poissons Ratio (y) = 0.30871 0.43864
# Poissons Ratio (z) = 0.14532 0.32925
#
# Static dielectric constant tensor:
#      x y z
#    x 1.656270 0.000000 0.000000 
#    y 0.000000 1.717710 0.000000 
#    z 0.000000 0.000000 1.626800 
# 
# From -- ./inp_files/31999.got.cif
#   From: 2010.05.17/outbox.cif.g08.bks.cpg/sg51_16_cif.got.tgz:31999.got - 2010.06.03 11:52:47.
