data_PCOD9403692
_publ_section_title
;
Structure prediction by ZEFSAII (Michael W. Deem and Ramdas Pophale) SiO2 
 PCOD9403692
Probable space group: P M M A
;
_chemical_formula_sum "Si O2"
_cell_formula_units_Z 64
_cell_length_a 23.296539
_cell_length_b 8.902145
_cell_length_c 18.363366
_cell_angle_alpha 90.000000
_cell_angle_beta 90.000000
_cell_angle_gamma 90.000000
_cell_volume 3808.363200
_symmetry_space_group_name_H-M "P M M A"
_symmetry_group_IT_number 51
_symmetry_cell_setting 'orthorhombic'
loop_
_space_group_symop_operation_xyz
x,y,z
1/2-x,-y,z
1/2+x,-y,-z
-x,y,-z
-x,-y,-z
1/2+x,y,-z
1/2-x,y,z
x,-y,z
loop_
_atom_site_type_symbol
_atom_site_label
_atom_site_fract_x
_atom_site_fract_y
_atom_site_fract_z
Si Si1 0.680199 0.673879 0.059312
Si Si2 0.992477 0.320810 0.413356
Si Si3 0.318133 0.322037 0.238700
Si Si4 0.872632 0.179439 0.363924
Si Si5 0.681955 0.681197 0.222589
Si Si6 0.889595 0.820992 0.631778
Si Si7 0.319709 0.829192 0.088050
Si Si8 0.317419 0.676010 0.498096
O O1 0.750000 0.676573 0.059305
O O2 0.663337 0.500000 0.050015
O O3 0.663566 0.724694 0.140432
O O4 0.660118 0.768095 0.990003
O O5 0.987873 0.500000 0.402932
O O6 0.048304 0.255826 0.373552
O O7 0.000000 0.292987 0.500000
O O8 0.935461 0.240177 0.384912
O O9 0.250000 0.288933 0.248154
O O10 0.325773 0.500000 0.248996
O O11 0.355084 0.232608 0.297293
O O12 0.334728 0.273630 0.156881
O O13 0.853256 0.237013 0.285009
O O14 0.830416 0.252471 0.423749
O O15 0.870730 0.000000 0.368143
O O16 0.750000 0.714305 0.230803
O O17 0.675868 0.500000 0.228649
O O18 0.853869 0.762575 0.562186
O O19 0.894861 0.000000 0.629758
O O20 0.250000 0.828893 0.085020
O O21 0.338423 0.000000 0.100427
O O22 0.250000 0.685165 0.481204
O O23 0.334282 0.500000 0.498495
#
# Coordination Sequence:
#
# PCOD9403692 Si02
#       8
#     8   8   8   8   8   8   8   8
#     4   8  14  26  45  69  99 138 179 213 250 303
#     4  11  23  41  63  78  96 132 177 219 261 314
#     4  10  20  34  52  75 107 145 181 214 253 310
#     4  12  24  36  54  79 106 134 171 220 270 310
#     4   9  18  33  52  75 107 145 181 216 257 312
#     4  12  24  37  56  80 106 132 168 219 270 311
#     4   9  16  26  43  70 104 139 174 214 260 306
#     4  11  23  38  55  75 103 140 177 208 249 312
#
# _framework density 16.805119999999999
#
# number of rings (size 3 to 8) (size 9 to 14) (size 15 to 20)
#    0.000    1.750    1.250    5.250    0.000    7.500 
#    0.000    1.250    0.000    0.000    0.000    0.875 
#    0.000    7.000    0.000    0.000    0.000    0.000 
#
# Total GULP energy -357325.175436 kJ/mol
# GULP energy per Si atom -5583.205866 kJ/mol
# Density = 1.676687 g / cm^3
# Si number density = 16.805120 Si / 1000 Ang^3
#
#
#
# Elastic Constant Matrix: (Units=GPa)
#
#
# Indices 1 2 3 4 5 6 
#
# 1 37.8809 17.2572 7.8562 0.0000 0.0000 0.0000
# 2 17.2572 70.1961 24.1846 0.0000 0.0000 0.0000
# 3 7.8562 24.1846 77.9655 0.0000 0.0000 0.0000
# 4 0.0000 0.0000 0.0000 2.8135 0.0000 0.0000
# 5 0.0000 0.0000 0.0000 0.0000 0.4301 0.0000
# 6 0.0000 0.0000 0.0000 0.0000 0.0000 14.3493
#
#
#
# Elastic Compliance Matrix: (Units=1/GPa)
#
#
# Indices 1 2 3 4 5 6 
#
# 1 0.029774 -0.007038 -0.000817 0.000000 0.000000 0.000000
# 2 -0.007038 0.017614 -0.004755 0.000000 0.000000 0.000000
# 3 -0.000817 -0.004755 0.014383 0.000000 0.000000 0.000000
# 4 0.000000 0.000000 0.000000 0.355425 0.000000 0.000000
# 5 0.000000 0.000000 0.000000 0.000000 2.325259 0.000000
# 6 0.000000 0.000000 0.000000 0.000000 0.000000 0.069690
#
#
# Mechanical properties :
#
#
# Convention : Reuss Voigt Hill
#
# Bulk Modulus (GPa) = 27.35819 31.62649 29.49234
# Shear Modulus (GPa) = 1.75466 12.63489 7.19478
#
# Velocity S-wave (km/s) = 1.02293 2.74496 2.07137
# Velocity P-wave (km/s) = 4.20835 5.37651 4.82789
#
# Compressibility (1/GPa) = 0.03655212
#
# Stress axis : x y z
#
# Youngs Moduli (GPa) = 33.58595 56.77231 69.52474
#
# Poissons Ratio (x) = 0.39958 0.05680
# Poissons Ratio (y) = 0.23639 0.33057
# Poissons Ratio (z) = 0.02744 0.26993
#
# Static dielectric constant tensor:
#      x y z
#    x 1.573860 0.000000 0.000000 
#    y 0.000000 1.559160 0.000000 
#    z 0.000000 0.000000 1.567480 
# 
# From -- ./inp_files/30939.got.cif
#   From: 2010.05.17/outbox.cif.g08.bks.cpg/sg51_16_cif.got.tgz:30939.got - 2010.06.03 11:52:47.
