data_PCOD9403686
_publ_section_title
;
Structure prediction by ZEFSAII (Michael W. Deem and Ramdas Pophale) SiO2 
 PCOD9403686
Probable space group: P M M A
;
_chemical_formula_sum "Si O2"
_cell_formula_units_Z 64
_cell_length_a 8.677288
_cell_length_b 16.560527
_cell_length_c 22.949480
_cell_angle_alpha 90.000000
_cell_angle_beta 90.000000
_cell_angle_gamma 90.000000
_cell_volume 3297.850883
_symmetry_space_group_name_H-M "P M M A"
_symmetry_group_IT_number 51
_symmetry_cell_setting 'orthorhombic'
loop_
_space_group_symop_operation_xyz
x,y,z
1/2-x,-y,z
1/2+x,-y,-z
-x,y,-z
-x,-y,-z
1/2+x,y,-z
1/2-x,y,z
x,-y,z
loop_
_atom_site_type_symbol
_atom_site_label
_atom_site_fract_x
_atom_site_fract_y
_atom_site_fract_z
Si Si1 0.432801 0.908473 0.093734
Si Si2 0.422578 0.906740 0.232853
Si Si3 0.064400 0.585423 0.598333
Si Si4 0.434801 0.266427 0.937809
Si Si5 0.069586 0.377397 0.276973
Si Si6 0.427965 0.786156 0.688705
Si Si7 0.065894 0.759905 0.559513
Si Si8 0.935860 0.590268 0.149851
O O1 0.250000 0.905065 0.079943
O O2 0.449032 0.902937 0.163727
O O3 0.510838 0.826598 0.070950
O O4 0.487005 0.000000 0.076376
O O5 0.250000 0.873901 0.244289
O O6 0.464752 0.717347 0.284503
O O7 0.548748 0.861584 0.270137
O O8 0.250000 0.587556 0.595998
O O9 0.009667 0.500000 0.573148
O O10 0.007526 0.667416 0.568349
O O11 0.014110 0.587977 0.665849
O O12 0.250000 0.266591 0.938333
O O13 0.485964 0.332161 0.888841
O O14 0.500000 0.293520 0.000000
O O15 0.250000 0.395544 0.279541
O O16 0.001931 0.403539 0.215086
O O17 0.250000 0.757685 0.689117
O O18 0.470696 0.801412 0.621325
O O19 0.578079 0.000000 0.751012
O O20 0.250000 0.758358 0.554122
O O21 0.000000 0.794506 0.500000
O O22 0.750000 0.594032 0.153188
O O23 0.976589 0.500000 0.126607
#
# Coordination Sequence:
#
# PCOD9403686 Si02
#       8
#     8   8   8   8   8   8   8   8
#     4   9  19  37  60  86 117 148 175 211 263 321
#     4   9  18  33  55  85 116 140 165 205 259 312
#     4   9  18  33  50  69  99 135 166 204 259 318
#     4  11  24  40  59  82 108 143 186 228 269 316
#     4  11  21  32  51  80 108 134 171 218 266 315
#     4  10  20  34  52  75 105 141 177 213 259 316
#     4   9  19  33  48  68  94 129 174 218 259 304
#     4  10  22  40  59  79 107 144 183 225 276 330
#
# _framework density 19.406579000000001
#
# number of rings (size 3 to 8) (size 9 to 14) (size 15 to 20)
#    0.000    2.250    0.000    4.500    0.000    9.250 
#    0.000    1.250    0.000    0.375    0.000    0.000 
#    0.000    0.000    0.000    0.000    0.000    0.000 
#
# Total GULP energy -356815.745500 kJ/mol
# GULP energy per Si atom -5575.246023 kJ/mol
# Density = 1.936241 g / cm^3
# Si number density = 19.406579 Si / 1000 Ang^3
#
#
#
# Elastic Constant Matrix: (Units=GPa)
#
#
# Indices 1 2 3 4 5 6 
#
# 1 19.5808 13.1873 15.2242 0.0000 0.0000 0.0000
# 2 13.1873 64.3430 29.7799 0.0000 0.0000 0.0000
# 3 15.2242 29.7799 67.1371 0.0000 0.0000 0.0000
# 4 0.0000 0.0000 0.0000 -59.6325 0.0000 0.0000
# 5 0.0000 0.0000 0.0000 0.0000 24.5002 0.0000
# 6 0.0000 0.0000 0.0000 0.0000 0.0000 6.1351
#
#
#
# Elastic Compliance Matrix: (Units=1/GPa)
#
#
# Indices 1 2 3 4 5 6 
#
# 1 0.065279 -0.008214 -0.011159 0.000000 0.000000 0.000000
# 2 -0.008214 0.020590 -0.007270 0.000000 0.000000 0.000000
# 3 -0.011159 -0.007270 0.020650 0.000000 0.000000 0.000000
# 4 0.000000 0.000000 0.000000 -0.016769 0.000000 0.000000
# 5 0.000000 0.000000 0.000000 0.000000 0.040816 0.000000
# 6 0.000000 0.000000 0.000000 0.000000 0.000000 0.162997
#
#
# Mechanical properties :
#
#
# Convention : Reuss Voigt Hill
#
# Bulk Modulus (GPa) = 18.78583 29.71596 24.25089
# Shear Modulus (GPa) = 13.71384 0.39186 7.05285
#
# Velocity S-wave (km/s) = 2.66119 0.44984 1.90844
# Velocity P-wave (km/s) = 4.37536 3.95163 4.16888
#
# Compressibility (1/GPa) = 0.05323160
#
# Stress axis : x y z
#
# Youngs Moduli (GPa) = 15.31884 48.56662 48.42536
#
# Poissons Ratio (x) = 0.39894 0.54039
# Poissons Ratio (y) = 0.12583 0.35208
# Poissons Ratio (z) = 0.17095 0.35310
#
# Static dielectric constant tensor:
#      x y z
#    x 2.051620 0.000000 0.000000 
#    y 0.000000 1.746310 0.000000 
#    z 0.000000 0.000000 1.665400 
# 
# From -- ./inp_files/34892.got.cif
#   From: 2010.05.17/outbox.cif.g08.bks.cpg/sg51_18_cif.got.tgz:34892.got - 2010.06.03 11:52:47.
