data_PCOD9403496
_publ_section_title
;
Structure prediction by ZEFSAII (Michael W. Deem and Ramdas Pophale) SiO2 
 PCOD9403496
Probable space group: P M M A
;
_chemical_formula_sum "Si O2"
_cell_formula_units_Z 56
_cell_length_a 9.685809
_cell_length_b 20.849288
_cell_length_c 15.595693
_cell_angle_alpha 90.000000
_cell_angle_beta 90.000000
_cell_angle_gamma 90.000000
_cell_volume 3149.428888
_symmetry_space_group_name_H-M "P M M A"
_symmetry_group_IT_number 51
_symmetry_cell_setting 'orthorhombic'
loop_
_space_group_symop_operation_xyz
x,y,z
1/2-x,-y,z
1/2+x,-y,-z
-x,y,-z
-x,-y,-z
1/2+x,y,-z
1/2-x,y,z
x,-y,z
loop_
_atom_site_type_symbol
_atom_site_label
_atom_site_fract_x
_atom_site_fract_y
_atom_site_fract_z
Si Si1 0.585039 0.569898 0.412576
Si Si2 0.587025 0.790209 0.918132
Si Si3 0.250000 0.427487 0.156512
Si Si4 0.095311 0.699646 0.684425
Si Si5 0.750000 0.573331 0.049817
Si Si6 0.585862 0.924693 0.584443
Si Si7 0.488805 0.652988 0.862217
Si Si8 0.414821 0.181349 0.276980
O O1 0.500000 0.570472 0.500000
O O2 0.750000 0.572280 0.428575
O O3 0.558275 0.500000 0.369605
O O4 0.550015 0.634267 0.361728
O O5 0.750000 0.799752 0.932263
O O6 0.557420 0.713885 0.908744
O O7 0.548899 0.819886 0.824729
O O8 0.500000 0.813509 0.000000
O O9 0.250000 0.500000 0.189071
O O10 0.388275 0.389212 0.177807
O O11 0.250000 0.429019 0.052597
O O12 0.250000 0.716651 0.655065
O O13 0.098012 0.681949 0.784526
O O14 0.992042 0.758995 0.678897
O O15 0.750000 0.500000 0.082548
O O16 0.613577 0.610229 0.081271
O O17 0.500000 0.905383 0.500000
O O18 0.750000 0.917770 0.567511
O O19 0.553014 0.881595 0.667407
O O20 0.558049 0.000000 0.600619
O O21 0.250000 0.192204 0.279519
#
# Coordination Sequence:
#
# PCOD9403496 Si02
#       8
#     8   8   4   8   4   8   8   8
#     4   9  19  36  54  71  92 122 165 213 262 319
#     4  10  20  33  53  74  99 137 180 224 271 316
#     4  11  22  34  46  66  93 123 162 213 267 323
#     4  10  21  36  53  74 100 133 170 215 266 313
#     4  11  22  34  48  64  89 125 164 209 265 327
#     4   9  18  35  60  89 120 154 185 212 254 314
#     4  11  21  35  49  69  95 126 168 215 267 323
#     4   9  20  36  54  80 114 143 177 224 265 313
#
# _framework density 17.781002000000001
#
# number of rings (size 3 to 8) (size 9 to 14) (size 15 to 20)
#    0.000    2.143    1.429    1.714    2.000    4.571 
#    0.000    2.857    0.000    0.429    0.000    0.000 
#    0.000    0.000    0.000    0.000    0.000    0.000 
#
# Total GULP energy -312208.068379 kJ/mol
# GULP energy per Si atom -5575.144078 kJ/mol
# Density = 1.774053 g / cm^3
# Si number density = 17.781002 Si / 1000 Ang^3
#
#
#
# Elastic Constant Matrix: (Units=GPa)
#
#
# Indices 1 2 3 4 5 6 
#
# 1 65.4447 39.6267 37.7319 0.0000 0.0000 0.0000
# 2 39.6267 85.7272 57.9590 0.0000 0.0000 0.0000
# 3 37.7319 57.9590 82.0281 0.0000 0.0000 0.0000
# 4 0.0000 0.0000 0.0000 24.1011 0.0000 0.0000
# 5 0.0000 0.0000 0.0000 0.0000 25.7208 0.0000
# 6 0.0000 0.0000 0.0000 0.0000 0.0000 18.2781
#
#
#
# Elastic Compliance Matrix: (Units=1/GPa)
#
#
# Indices 1 2 3 4 5 6 
#
# 1 0.022556 -0.006532 -0.005760 0.000000 0.000000 0.000000
# 2 -0.006532 0.024226 -0.014113 0.000000 0.000000 0.000000
# 3 -0.005760 -0.014113 0.024812 0.000000 0.000000 0.000000
# 4 0.000000 0.000000 0.000000 0.041492 0.000000 0.000000
# 5 0.000000 0.000000 0.000000 0.000000 0.038879 0.000000
# 6 0.000000 0.000000 0.000000 0.000000 0.000000 0.054710
#
#
# Mechanical properties :
#
#
# Convention : Reuss Voigt Hill
#
# Bulk Modulus (GPa) = 53.23570 55.98169 54.60869
# Shear Modulus (GPa) = 18.81492 20.14547 19.48020
#
# Velocity S-wave (km/s) = 3.25645 3.36962 3.31352
# Velocity P-wave (km/s) = 6.64409 6.83312 6.73927
#
# Compressibility (1/GPa) = 0.01878439
#
# Stress axis : x y z
#
# Youngs Moduli (GPa) = 44.33360 41.27862 40.30279
#
# Poissons Ratio (x) = 0.26963 0.23215
# Poissons Ratio (y) = 0.28959 0.56878
# Poissons Ratio (z) = 0.25537 0.58255
#
# Static dielectric constant tensor:
#      x y z
#    x 1.612930 0.000000 0.000000 
#    y 0.000000 1.603210 0.000000 
#    z 0.000000 0.000000 1.617580 
# 
# From -- ./inp_files/21938.got.cif
#   From: 2010.05.17/outbox.cif.g08.bks.cpg/sg51_11_cif.got.tgz:21938.got - 2010.06.03 11:52:47.
