data_PCOD9403628
_publ_section_title
;
Structure prediction by ZEFSAII (Michael W. Deem and Ramdas Pophale) SiO2 
 PCOD9403628
Probable space group: P M M A
;
_chemical_formula_sum "Si O2"
_cell_formula_units_Z 48
_cell_length_a 14.217141
_cell_length_b 8.644087
_cell_length_c 24.433258
_cell_angle_alpha 90.000000
_cell_angle_beta 90.000000
_cell_angle_gamma 90.000000
_cell_volume 3002.705786
_symmetry_space_group_name_H-M "P M M A"
_symmetry_group_IT_number 51
_symmetry_cell_setting 'orthorhombic'
loop_
_space_group_symop_operation_xyz
x,y,z
1/2-x,-y,z
1/2+x,-y,-z
-x,y,-z
-x,-y,-z
1/2+x,y,-z
1/2-x,y,z
x,-y,z
loop_
_atom_site_type_symbol
_atom_site_label
_atom_site_fract_x
_atom_site_fract_y
_atom_site_fract_z
Si Si1 0.962275 0.813420 0.086833
Si Si2 0.644344 0.811489 0.976738
Si Si3 0.857748 0.686389 0.190114
Si Si4 0.860038 0.686381 0.315239
Si Si5 0.141448 0.685827 0.476525
Si Si6 0.035161 0.816026 0.581653
O O1 0.926359 0.749185 0.143945
O O2 0.066199 0.763274 0.067416
O O3 0.961434 0.000000 0.089147
O O4 0.893009 0.766739 0.036961
O O5 0.750000 0.756783 0.966842
O O6 0.645049 0.000000 0.976209
O O7 0.750000 0.737319 0.178821
O O8 0.858344 0.500000 0.188723
O O9 0.881289 0.731982 0.252508
O O10 0.750000 0.724098 0.325738
O O11 0.868665 0.500000 0.319391
O O12 0.925967 0.764328 0.359824
O O13 0.250000 0.731017 0.468257
O O14 0.135535 0.500000 0.476183
O O15 0.103355 0.745609 0.534943
O O16 0.068660 0.752717 0.432254
O O17 0.035320 0.000000 0.576472
#
# Coordination Sequence:
#
# PCOD9403628 Si02
#       6
#     8   8   8   8   8   8
#     4   9  16  26  44  67  87 113 150 186 220 264
#     4   8  14  25  41  63  91 119 145 177 221 271
#     4   9  18  31  46  65  90 119 148 183 229 271
#     4   9  18  33  50  66  89 123 157 186 223 278
#     4  10  20  34  52  71  94 128 163 189 220 271
#     4  11  21  31  48  74 101 124 149 191 238 272
#
# _framework density 15.985582000000001
#
# number of rings (size 3 to 8) (size 9 to 14) (size 15 to 20)
#    0.000    2.667    0.000    6.000    0.000    5.333 
#    0.000    3.333    0.000    2.500    0.000    4.667 
#    0.000    0.000    0.000    0.000    0.000    0.000 
#
# Total GULP energy -267611.923211 kJ/mol
# GULP energy per Si atom -5575.248400 kJ/mol
# Density = 1.594920 g / cm^3
# Si number density = 15.985582 Si / 1000 Ang^3
#
#
#
# Elastic Constant Matrix: (Units=GPa)
#
#
# Indices 1 2 3 4 5 6 
#
# 1 147.5692 35.2329 90.5270 0.0000 0.0000 0.0000
# 2 35.2329 33.5946 32.3821 0.0000 0.0000 0.0000
# 3 90.5270 32.3821 124.5602 0.0000 0.0000 0.0000
# 4 0.0000 0.0000 0.0000 29.0951 0.0000 0.0000
# 5 0.0000 0.0000 0.0000 0.0000 22.9129 0.0000
# 6 0.0000 0.0000 0.0000 0.0000 0.0000 6.3027
#
#
#
# Elastic Compliance Matrix: (Units=1/GPa)
#
#
# Indices 1 2 3 4 5 6 
#
# 1 0.013099 -0.006087 -0.007938 0.000000 0.000000 0.000000
# 2 -0.006087 0.042548 -0.006638 0.000000 0.000000 0.000000
# 3 -0.007938 -0.006638 0.015523 0.000000 0.000000 0.000000
# 4 0.000000 0.000000 0.000000 0.034370 0.000000 0.000000
# 5 0.000000 0.000000 0.000000 0.000000 0.043643 0.000000
# 6 0.000000 0.000000 0.000000 0.000000 0.000000 0.158663
#
#
# Mechanical properties :
#
#
# Convention : Reuss Voigt Hill
#
# Bulk Modulus (GPa) = 33.50530 69.11198 51.30864
# Shear Modulus (GPa) = 13.92295 21.50094 17.71195
#
# Velocity S-wave (km/s) = 2.95442 3.67143 3.33227
# Velocity P-wave (km/s) = 5.71343 7.82945 6.85360
#
# Compressibility (1/GPa) = 0.02984603
#
# Stress axis : x y z
#
# Youngs Moduli (GPa) = 76.34076 23.50265 64.42134
#
# Poissons Ratio (x) = 0.14305 0.51136
# Poissons Ratio (y) = 0.46466 0.42761
# Poissons Ratio (z) = 0.60597 0.15600
#
# Static dielectric constant tensor:
#      x y z
#    x 1.535260 0.000000 0.000000 
#    y 0.000000 1.541470 0.000000 
#    z 0.000000 0.000000 1.515540 
# 
# From -- ./inp_files/35487.got.cif
#   From: 2010.05.17/outbox.cif.g08.bks.cpg/sg51_18_cif.got.tgz:35487.got - 2010.06.03 11:52:47.
