data_PCOD9403993
_publ_section_title
;
Structure prediction by ZEFSAII (Michael W. Deem and Ramdas Pophale) SiO2 
 PCOD9403993
Probable space group: P M M A
;
_chemical_formula_sum "Si O2"
_cell_formula_units_Z 56
_cell_length_a 7.691154
_cell_length_b 22.576094
_cell_length_c 14.058956
_cell_angle_alpha 90.000000
_cell_angle_beta 90.000000
_cell_angle_gamma 90.000000
_cell_volume 2441.143916
_symmetry_space_group_name_H-M "P M M A"
_symmetry_group_IT_number 51
_symmetry_cell_setting 'orthorhombic'
loop_
_space_group_symop_operation_xyz
x,y,z
1/2-x,-y,z
1/2+x,-y,-z
-x,y,-z
-x,-y,-z
1/2+x,y,-z
1/2-x,y,z
x,-y,z
loop_
_atom_site_type_symbol
_atom_site_label
_atom_site_fract_x
_atom_site_fract_y
_atom_site_fract_z
Si Si1 0.457962 0.617239 0.111044
Si Si2 0.959489 0.315189 0.387771
Si Si3 0.955571 0.187239 0.388512
Si Si4 0.459163 0.875806 0.110323
Si Si5 0.546315 0.436273 0.299091
Si Si6 0.542053 0.936594 0.708393
Si Si7 0.958230 0.746872 0.887399
O O1 0.250000 0.616905 0.119228
O O2 0.531859 0.570910 0.185419
O O3 0.526039 0.682692 0.143229
O O4 0.500000 0.608140 0.000000
O O5 0.750000 0.315082 0.375515
O O6 0.026844 0.250916 0.350549
O O7 0.030400 0.375749 0.342297
O O8 0.000000 0.316933 0.500000
O O9 0.750000 0.190135 0.377424
O O10 0.000000 0.186378 0.500000
O O11 0.009998 0.124371 0.346491
O O12 0.250000 0.873501 0.116260
O O13 0.522012 0.924662 0.184076
O O14 0.525720 0.810923 0.144852
O O15 0.500000 0.885361 0.000000
O O16 0.750000 0.437064 0.325000
O O17 0.470668 0.500000 0.328271
O O18 0.750000 0.941256 0.711117
O O19 0.474385 0.000000 0.671305
O O20 0.750000 0.746256 0.874908
O O21 0.000000 0.747712 0.000000
#
# Coordination Sequence:
#
# PCOD9403993 Si02
#       7
#     8   8   8   8   8   8   8
#     4  10  20  34  54  80 111 149 193 238 283 333
#     4   9  20  39  62  89 116 144 182 228 281 338
#     4  10  21  39  63  89 114 144 183 231 283 338
#     4   9  18  33  52  76 110 149 189 231 277 327
#     4  10  22  39  57  81 116 154 188 228 280 335
#     4  10  22  38  56  82 117 155 192 232 281 335
#     4   8  15  28  46  71  99 132 175 224 274 319
#
# _framework density 22.940066000000002
#
# number of rings (size 3 to 8) (size 9 to 14) (size 15 to 20)
#    0.000    2.571    0.000    0.857    2.000    4.000 
#    0.000    0.000    0.000    0.000    0.000    0.000 
#    0.000    0.000    0.000    0.000    0.000    0.000 
#
# Total GULP energy -312367.507211 kJ/mol
# GULP energy per Si atom -5577.991200 kJ/mol
# Density = 2.288785 g / cm^3
# Si number density = 22.940066 Si / 1000 Ang^3
#
#
#
# Elastic Constant Matrix: (Units=GPa)
#
#
# Indices 1 2 3 4 5 6 
#
# 1 53.4087 18.1034 -7.0873 0.0000 0.0000 0.0000
# 2 18.1034 240.7306 70.1764 0.0000 0.0000 0.0000
# 3 -7.0873 70.1764 64.4377 0.0000 0.0000 0.0000
# 4 0.0000 0.0000 0.0000 15.5845 0.0000 0.0000
# 5 0.0000 0.0000 0.0000 0.0000 20.3503 0.0000
# 6 0.0000 0.0000 0.0000 0.0000 0.0000 4.4559
#
#
#
# Elastic Compliance Matrix: (Units=1/GPa)
#
#
# Indices 1 2 3 4 5 6 
#
# 1 0.020588 -0.003236 0.005788 0.000000 0.000000 0.000000
# 2 -0.003236 0.006595 -0.007538 0.000000 0.000000 0.000000
# 3 0.005788 -0.007538 0.024365 0.000000 0.000000 0.000000
# 4 0.000000 0.000000 0.000000 0.064166 0.000000 0.000000
# 5 0.000000 0.000000 0.000000 0.000000 0.049139 0.000000
# 6 0.000000 0.000000 0.000000 0.000000 0.000000 0.224423
#
#
# Mechanical properties :
#
#
# Convention : Reuss Voigt Hill
#
# Bulk Modulus (GPa) = 24.05160 57.88465 40.96813
# Shear Modulus (GPa) = 12.10342 26.57043 19.33692
#
# Velocity S-wave (km/s) = 2.29947 3.40701 2.90648
# Velocity P-wave (km/s) = 4.19015 6.38472 5.40010
#
# Compressibility (1/GPa) = 0.04157727
#
# Stress axis : x y z
#
# Youngs Moduli (GPa) = 48.57100 151.63514 41.04283
#
# Poissons Ratio (x) = 0.49064 -0.23757
# Poissons Ratio (y) = 0.15716 0.30938
# Poissons Ratio (z) = -0.28114 1.14302
#
# Static dielectric constant tensor:
#      x y z
#    x 1.845480 0.000000 0.000000 
#    y 0.000000 1.954800 0.000000 
#    z 0.000000 0.000000 1.834000 
# 
# From -- ./inp_files/21734.got.cif
#   From: 2010.05.17/outbox.cif.g08.bks.cpg/sg51_11_cif.got.tgz:21734.got - 2010.06.03 11:52:47.
