data_PCOD9403085
_publ_section_title
;
Structure prediction by ZEFSAII (Michael W. Deem and Ramdas Pophale) SiO2 
 PCOD9403085
Probable space group: P M M A
;
_chemical_formula_sum "Si O2"
_cell_formula_units_Z 56
_cell_length_a 8.736637
_cell_length_b 20.343462
_cell_length_c 15.977721
_cell_angle_alpha 90.000000
_cell_angle_beta 90.000000
_cell_angle_gamma 90.000000
_cell_volume 2839.775362
_symmetry_space_group_name_H-M "P M M A"
_symmetry_group_IT_number 51
_symmetry_cell_setting 'orthorhombic'
loop_
_space_group_symop_operation_xyz
x,y,z
1/2-x,-y,z
1/2+x,-y,-z
-x,y,-z
-x,-y,-z
1/2+x,y,-z
1/2-x,y,z
x,-y,z
loop_
_atom_site_type_symbol
_atom_site_label
_atom_site_fract_x
_atom_site_fract_y
_atom_site_fract_z
Si Si1 0.927651 0.073192 0.610530
Si Si2 0.065804 0.424128 0.590422
Si Si3 0.434696 0.316221 0.727022
Si Si4 0.567962 0.214480 0.413580
Si Si5 0.924221 0.687505 0.911572
Si Si6 0.922625 0.927653 0.218545
Si Si7 0.075416 0.845528 0.085268
O O1 0.750000 0.079818 0.586713
O O2 0.020094 0.138031 0.586473
O O3 0.951032 0.072705 0.709931
O O4 0.983409 0.000000 0.585295
O O5 0.250000 0.421231 0.585009
O O6 0.020533 0.500000 0.605731
O O7 0.020282 0.376548 0.666168
O O8 0.000000 0.404648 0.500000
O O9 0.250000 0.313727 0.733394
O O10 0.483419 0.251888 0.671703
O O11 0.497781 0.324761 0.821072
O O12 0.500000 0.243264 0.500000
O O13 0.750000 0.220346 0.417346
O O14 0.750000 0.663163 0.909044
O O15 0.921005 0.766876 0.916814
O O16 0.000000 0.665048 0.000000
O O17 0.750000 0.919858 0.253775
O O18 0.963673 0.870024 0.156957
O O19 0.927184 0.000000 0.177536
O O20 0.250000 0.869028 0.096294
O O21 0.000000 0.869879 0.000000
#
# Coordination Sequence:
#
# PCOD9403085 Si02
#       7
#     8   8   8   8   8   8   8
#     4  10  21  37  55  73  96 131 176 224 273 327
#     4   9  18  34  57  86 121 159 195 230 270 320
#     4  10  21  36  56  84 117 151 186 228 278 328
#     4  11  23  37  55  80 111 145 182 228 279 332
#     4  10  21  36  56  81 108 141 181 227 276 327
#     4  10  20  33  49  69  93 123 162 210 265 325
#     4  10  20  33  49  69  94 126 165 211 267 328
#
# _framework density 19.71987
#
# number of rings (size 3 to 8) (size 9 to 14) (size 15 to 20)
#    0.000    2.000    0.000    3.429    0.000    8.000 
#    0.000    0.000    0.000    0.429    0.000    0.000 
#    0.000    0.000    0.000    0.000    0.000    0.000 
#
# Total GULP energy -312194.182251 kJ/mol
# GULP energy per Si atom -5574.896112 kJ/mol
# Density = 1.967499 g / cm^3
# Si number density = 19.719870 Si / 1000 Ang^3
#
#
#
# Elastic Constant Matrix: (Units=GPa)
#
#
# Indices 1 2 3 4 5 6 
#
# 1 62.1315 27.3518 40.9632 0.0000 0.0000 0.0000
# 2 27.3518 69.1004 45.8406 0.0000 0.0000 0.0000
# 3 40.9632 45.8406 160.7118 0.0000 0.0000 0.0000
# 4 0.0000 0.0000 0.0000 4.0127 0.0000 0.0000
# 5 0.0000 0.0000 0.0000 0.0000 35.7282 0.0000
# 6 0.0000 0.0000 0.0000 0.0000 0.0000 -1.1855
#
#
#
# Elastic Compliance Matrix: (Units=1/GPa)
#
#
# Indices 1 2 3 4 5 6 
#
# 1 0.021138 -0.005911 -0.003702 0.000000 0.000000 0.000000
# 2 -0.005911 0.019502 -0.004056 0.000000 0.000000 0.000000
# 3 -0.003702 -0.004056 0.008323 0.000000 0.000000 0.000000
# 4 0.000000 0.000000 0.000000 0.249207 0.000000 0.000000
# 5 0.000000 0.000000 0.000000 0.000000 0.027989 0.000000
# 6 0.000000 0.000000 0.000000 0.000000 0.000000 -0.843526
#
#
# Mechanical properties :
#
#
# Convention : Reuss Voigt Hill
#
# Bulk Modulus (GPa) = 46.24303 57.80608 52.02455
# Shear Modulus (GPa) = -10.35581 19.56364 4.60391
#
# Velocity S-wave (km/s) = -2.29409 3.15314 1.52962
# Velocity P-wave (km/s) = 4.06002 6.52945 5.43679
#
# Compressibility (1/GPa) = 0.02162488
#
# Stress axis : x y z
#
# Youngs Moduli (GPa) = 47.30897 51.27607 120.15304
#
# Poissons Ratio (x) = 0.30311 0.44476
# Poissons Ratio (y) = 0.27966 0.48734
# Poissons Ratio (z) = 0.17512 0.20798
#
# Static dielectric constant tensor:
#      x y z
#    x 1.696090 0.000000 0.000000 
#    y 0.000000 1.710680 0.000000 
#    z 0.000000 0.000000 1.726360 
# 
# From -- ./inp_files/21757.got.cif
#   From: 2010.05.17/outbox.cif.g08.bks.cpg/sg51_11_cif.got.tgz:21757.got - 2010.06.03 11:52:47.
