data_PCOD9403277
_publ_section_title
;
Structure prediction by ZEFSAII (Michael W. Deem and Ramdas Pophale) SiO2 
 PCOD9403277
Probable space group: P M M A
;
_chemical_formula_sum "Si O2"
_cell_formula_units_Z 56
_cell_length_a 15.313097
_cell_length_b 15.539694
_cell_length_c 13.523833
_cell_angle_alpha 90.000000
_cell_angle_beta 90.000000
_cell_angle_gamma 90.000000
_cell_volume 3218.142682
_symmetry_space_group_name_H-M "P M M A"
_symmetry_group_IT_number 51
_symmetry_cell_setting 'orthorhombic'
loop_
_space_group_symop_operation_xyz
x,y,z
1/2-x,-y,z
1/2+x,-y,-z
-x,y,-z
-x,-y,-z
1/2+x,y,-z
1/2-x,y,z
x,-y,z
loop_
_atom_site_type_symbol
_atom_site_label
_atom_site_fract_x
_atom_site_fract_y
_atom_site_fract_z
Si Si1 0.152097 0.739376 0.828450
Si Si2 0.148261 0.400195 0.263959
Si Si3 0.979896 0.904383 0.685467
Si Si4 0.352073 0.760547 0.398075
Si Si5 0.941977 0.902239 0.097665
Si Si6 0.490556 0.400607 0.882569
Si Si7 0.848553 0.823700 0.385179
O O1 0.250000 0.711690 0.853512
O O2 0.126977 0.825821 0.888785
O O3 0.081779 0.666223 0.847746
O O4 0.148925 0.765823 0.713175
O O5 0.250000 0.389219 0.234339
O O6 0.137533 0.500000 0.294553
O O7 0.129585 0.332687 0.351322
O O8 0.081380 0.383591 0.174544
O O9 0.914262 0.830825 0.651590
O O10 0.999812 0.897331 0.802547
O O11 0.072669 0.890118 0.630377
O O12 0.946391 0.000000 0.664007
O O13 0.250000 0.779679 0.377658
O O14 0.363925 0.769062 0.515780
O O15 0.905272 0.000000 0.094880
O O16 0.000000 0.889875 0.000000
O O17 0.466236 0.500000 0.861540
O O18 0.500000 0.391567 0.000000
O O19 0.750000 0.861219 0.391026
#
# Coordination Sequence:
#
# PCOD9403277 Si02
#       7
#     8   8   8   8   8   8   8
#     4  10  20  34  53  76 103 135 171 208 247 298
#     4   9  18  34  56  78  98 127 169 211 253 303
#     4  10  20  33  51  74 101 135 171 206 246 296
#     4  10  20  34  52  74 103 134 164 206 255 300
#     4   9  18  34  54  74 100 134 170 211 257 299
#     4  10  21  36  53  75 105 136 166 206 252 298
#     4   9  19  34  51  73 101 133 168 207 250 293
#
# _framework density 17.401340999999999
#
# number of rings (size 3 to 8) (size 9 to 14) (size 15 to 20)
#    0.000    2.429    0.000    2.571    0.000    2.857 
#    0.000    8.571    0.000    8.571    0.000    0.000 
#    0.000    0.000    0.000    0.000    0.000    0.000 
#
# Total GULP energy -312180.582115 kJ/mol
# GULP energy per Si atom -5574.653252 kJ/mol
# Density = 1.736173 g / cm^3
# Si number density = 17.401341 Si / 1000 Ang^3
#
#
#
# Elastic Constant Matrix: (Units=GPa)
#
#
# Indices 1 2 3 4 5 6 
#
# 1 85.0396 71.3601 45.5886 0.0000 0.0000 0.0000
# 2 71.3601 100.0540 48.7179 0.0000 0.0000 0.0000
# 3 45.5886 48.7179 85.6313 0.0000 0.0000 0.0000
# 4 0.0000 0.0000 0.0000 9.7311 0.0000 0.0000
# 5 0.0000 0.0000 0.0000 0.0000 21.4327 0.0000
# 6 0.0000 0.0000 0.0000 0.0000 0.0000 3.4679
#
#
#
# Elastic Compliance Matrix: (Units=1/GPa)
#
#
# Indices 1 2 3 4 5 6 
#
# 1 0.031012 -0.019474 -0.005431 0.000000 0.000000 0.000000
# 2 -0.019474 0.026053 -0.004455 0.000000 0.000000 0.000000
# 3 -0.005431 -0.004455 0.017104 0.000000 0.000000 0.000000
# 4 0.000000 0.000000 0.000000 0.102764 0.000000 0.000000
# 5 0.000000 0.000000 0.000000 0.000000 0.046658 0.000000
# 6 0.000000 0.000000 0.000000 0.000000 0.000000 0.288362
#
#
# Mechanical properties :
#
#
# Convention : Reuss Voigt Hill
#
# Bulk Modulus (GPa) = 64.72700 66.89535 65.81117
# Shear Modulus (GPa) = 8.68327 13.93021 11.30674
#
# Velocity S-wave (km/s) = 2.23625 2.83243 2.55181
# Velocity P-wave (km/s) = 6.62911 7.01591 6.82525
#
# Compressibility (1/GPa) = 0.01544950
#
# Stress axis : x y z
#
# Youngs Moduli (GPa) = 32.24562 38.38393 58.46689
#
# Poissons Ratio (x) = 0.74748 0.31754
# Poissons Ratio (y) = 0.62794 0.26044
# Poissons Ratio (z) = 0.17513 0.17098
#
# Static dielectric constant tensor:
#      x y z
#    x 1.590890 0.000000 0.000000 
#    y 0.000000 1.582600 0.000000 
#    z 0.000000 0.000000 1.578670 
# 
# From -- ./inp_files/24285.got.cif
#   From: 2010.05.17/outbox.cif.g08.bks.cpg/sg51_13_cif.got.tgz:24285.got - 2010.06.03 11:52:47.
