data_PCOD9403650
_publ_section_title
;
Structure prediction by ZEFSAII (Michael W. Deem and Ramdas Pophale) SiO2 
 PCOD9403650
Probable space group: P M M A
;
_chemical_formula_sum "Si O2"
_cell_formula_units_Z 64
_cell_length_a 7.869302
_cell_length_b 20.473137
_cell_length_c 20.975654
_cell_angle_alpha 90.000000
_cell_angle_beta 90.000000
_cell_angle_gamma 90.000000
_cell_volume 3379.372890
_symmetry_space_group_name_H-M "P M M A"
_symmetry_group_IT_number 51
_symmetry_cell_setting 'orthorhombic'
loop_
_space_group_symop_operation_xyz
x,y,z
1/2-x,-y,z
1/2+x,-y,-z
-x,y,-z
-x,-y,-z
1/2+x,y,-z
1/2-x,y,z
x,-y,z
loop_
_atom_site_type_symbol
_atom_site_label
_atom_site_fract_x
_atom_site_fract_y
_atom_site_fract_z
Si Si1 0.457555 0.074657 0.678073
Si Si2 0.951749 0.573877 0.818429
Si Si3 0.044988 0.324665 0.571881
Si Si4 0.542435 0.925311 0.176729
Si Si5 0.547346 0.426020 0.323514
Si Si6 0.547954 0.325960 0.071665
Si Si7 0.045008 0.177715 0.927921
Si Si8 0.545180 0.175803 0.428110
O O1 0.250000 0.075369 0.677328
O O2 0.508966 0.090707 0.750658
O O3 0.517838 0.125936 0.625512
O O4 0.509476 0.000000 0.664273
O O5 0.750000 0.570088 0.812861
O O6 0.017867 0.500000 0.830822
O O7 0.019001 0.595409 0.749345
O O8 0.992089 0.623388 0.874872
O O9 0.250000 0.322641 0.576525
O O10 0.979544 0.374989 0.624793
O O11 0.982497 0.250231 0.581236
O O12 0.000000 0.344953 0.500000
O O13 0.750000 0.924798 0.175875
O O14 0.482331 0.873257 0.124806
O O15 0.490289 0.000000 0.162749
O O16 0.750000 0.429750 0.333257
O O17 0.478241 0.500000 0.330094
O O18 0.750000 0.322205 0.074576
O O19 0.480522 0.252003 0.081827
O O20 0.500000 0.346518 0.000000
O O21 0.250000 0.179305 0.923370
O O22 0.000000 0.158054 0.000000
O O23 0.500000 0.155477 0.500000
O O24 0.750000 0.177322 0.423768
#
# Coordination Sequence:
#
# PCOD9403650 Si02
#       8
#     8   8   8   8   8   8   8   8
#     4   8  14  25  42  64  88 115 150 190 227 265
#     4  10  21  36  53  74  99 126 158 197 241 289
#     4   9  18  31  47  68  94 124 157 194 235 279
#     4   8  14  26  45  69  95 122 156 197 235 273
#     4   9  18  33  51  71  96 125 157 193 234 281
#     4  10  20  34  52  73  99 130 163 200 240 284
#     4   9  18  31  48  71  97 125 157 193 233 277
#     4   9  17  29  45  65  90 118 149 187 229 273
#
# _framework density 18.938424000000001
#
# number of rings (size 3 to 8) (size 9 to 14) (size 15 to 20)
#    0.000    3.000    0.000    1.500    0.000    3.750 
#    0.000    3.750    0.000    0.750    0.000    1.750 
#    0.000    0.000    0.000    0.000    0.000    0.000 
#
# Total GULP energy -356820.661612 kJ/mol
# GULP energy per Si atom -5575.322838 kJ/mol
# Density = 1.889532 g / cm^3
# Si number density = 18.938424 Si / 1000 Ang^3
#
#
#
# Elastic Constant Matrix: (Units=GPa)
#
#
# Indices 1 2 3 4 5 6 
#
# 1 18.9583 4.9109 -0.3015 0.0000 0.0000 0.0000
# 2 4.9109 119.2113 135.0368 0.0000 0.0000 0.0000
# 3 -0.3015 135.0368 186.6697 0.0000 0.0000 0.0000
# 4 0.0000 0.0000 0.0000 43.9563 0.0000 0.0000
# 5 0.0000 0.0000 0.0000 0.0000 24.9133 0.0000
# 6 0.0000 0.0000 0.0000 0.0000 0.0000 7.3360
#
#
#
# Elastic Compliance Matrix: (Units=1/GPa)
#
#
# Indices 1 2 3 4 5 6 
#
# 1 0.056383 -0.013435 0.009810 0.000000 0.000000 0.000000
# 2 -0.013435 0.049657 -0.035944 0.000000 0.000000 0.000000
# 3 0.009810 -0.035944 0.031374 0.000000 0.000000 0.000000
# 4 0.000000 0.000000 0.000000 0.022750 0.000000 0.000000
# 5 0.000000 0.000000 0.000000 0.000000 0.040139 0.000000
# 6 0.000000 0.000000 0.000000 0.000000 0.000000 0.136314
#
#
# Mechanical properties :
#
#
# Convention : Reuss Voigt Hill
#
# Bulk Modulus (GPa) = 17.15920 67.12575 42.14248
# Shear Modulus (GPa) = 11.48946 27.58732 19.53839
#
# Velocity S-wave (km/s) = 2.46575 3.82079 3.21546
# Velocity P-wave (km/s) = 4.14569 7.41524 6.00718
#
# Compressibility (1/GPa) = 0.05827776
#
# Stress axis : x y z
#
# Youngs Moduli (GPa) = 17.73574 20.13814 31.87306
#
# Poissons Ratio (x) = 0.27055 -0.31266
# Poissons Ratio (y) = 0.23827 1.14563
# Poissons Ratio (z) = -0.17398 0.72384
#
# Static dielectric constant tensor:
#      x y z
#    x 1.688900 0.000000 0.000000 
#    y 0.000000 1.673950 0.000000 
#    z 0.000000 0.000000 1.610170 
# 
# From -- ./inp_files/28335.got.cif
#   From: 2010.05.17/outbox.cif.g08.bks.cpg/sg51_15_cif.got.tgz:28335.got - 2010.06.03 11:52:47.
