data_PCOD9403349
_publ_section_title
;
Structure prediction by ZEFSAII (Michael W. Deem and Ramdas Pophale) SiO2 
 PCOD9403349
Probable space group: P M M A
;
_chemical_formula_sum "Si O2"
_cell_formula_units_Z 64
_cell_length_a 19.425717
_cell_length_b 9.067372
_cell_length_c 20.949699
_cell_angle_alpha 90.000000
_cell_angle_beta 90.000000
_cell_angle_gamma 90.000000
_cell_volume 3690.084222
_symmetry_space_group_name_H-M "P M M A"
_symmetry_group_IT_number 51
_symmetry_cell_setting 'orthorhombic'
loop_
_space_group_symop_operation_xyz
x,y,z
1/2-x,-y,z
1/2+x,-y,-z
-x,y,-z
-x,-y,-z
1/2+x,y,-z
1/2-x,y,z
x,-y,z
loop_
_atom_site_type_symbol
_atom_site_label
_atom_site_fract_x
_atom_site_fract_y
_atom_site_fract_z
Si Si1 0.912210 0.822864 0.702045
Si Si2 0.833855 0.329620 0.077234
Si Si3 0.441057 0.321676 0.676924
Si Si4 0.832250 0.674751 0.818267
Si Si5 0.329540 0.822612 0.426511
Si Si6 0.671060 0.679674 0.218660
Si Si7 0.574383 0.322962 0.470899
Si Si8 0.333772 0.831300 0.050670
O O1 0.872756 0.758533 0.763011
O O2 0.870096 0.781542 0.637982
O O3 0.987809 0.754178 0.696255
O O4 0.915356 0.000000 0.705699
O O5 0.750000 0.329516 0.077466
O O6 0.855414 0.500000 0.069822
O O7 0.853287 0.273949 0.147807
O O8 0.857358 0.236289 0.016599
O O9 0.448977 0.500000 0.680010
O O10 0.380535 0.277369 0.725405
O O11 0.423631 0.283497 0.603687
O O12 0.750000 0.700726 0.811024
O O13 0.844226 0.500000 0.814384
O O14 0.853159 0.735237 0.887886
O O15 0.250000 0.777171 0.422286
O O16 0.367317 0.752098 0.486823
O O17 0.331999 0.000000 0.431756
O O18 0.750000 0.728487 0.229070
O O19 0.672576 0.500000 0.216754
O O20 0.500000 0.281194 0.500000
O O21 0.580795 0.500000 0.476108
O O22 0.250000 0.830132 0.048736
O O23 0.355990 0.000000 0.058282
#
# Coordination Sequence:
#
# PCOD9403349 Si02
#       8
#     8   8   8   8   8   8   8   8
#     4  11  22  36  54  75 105 143 180 217 262 315
#     4   8  13  24  44  69  97 129 168 212 256 306
#     4  10  20  35  56  79 106 139 178 218 260 317
#     4  10  20  33  51  76 105 137 175 220 265 308
#     4  10  22  38  56  79 106 139 179 220 264 317
#     4   8  15  29  51  78 104 133 172 218 265 313
#     4  10  20  35  55  80 108 137 174 220 267 314
#     4   9  16  26  43  70 103 137 171 208 256 311
#
# _framework density 17.343775999999998
#
# number of rings (size 3 to 8) (size 9 to 14) (size 15 to 20)
#    0.000    2.500    1.250    2.250    0.000    4.750 
#    0.000    1.875    0.000    1.875    0.000    5.250 
#    0.000    0.000    0.000    0.000    0.000    0.000 
#
# Total GULP energy -356919.488759 kJ/mol
# GULP energy per Si atom -5576.867012 kJ/mol
# Density = 1.730430 g / cm^3
# Si number density = 17.343776 Si / 1000 Ang^3
#
#
#
# Elastic Constant Matrix: (Units=GPa)
#
#
# Indices 1 2 3 4 5 6 
#
# 1 90.4746 36.2810 75.0825 0.0000 0.0000 0.0000
# 2 36.2810 41.5510 55.7977 0.0000 0.0000 0.0000
# 3 75.0825 55.7977 180.2109 0.0000 0.0000 0.0000
# 4 0.0000 0.0000 0.0000 17.8998 0.0000 0.0000
# 5 0.0000 0.0000 0.0000 0.0000 8.3233 0.0000
# 6 0.0000 0.0000 0.0000 0.0000 0.0000 21.7383
#
#
#
# Elastic Compliance Matrix: (Units=1/GPa)
#
#
# Indices 1 2 3 4 5 6 
#
# 1 0.019159 -0.010287 -0.004797 0.000000 0.000000 0.000000
# 2 -0.010287 0.046719 -0.010179 0.000000 0.000000 0.000000
# 3 -0.004797 -0.010179 0.010700 0.000000 0.000000 0.000000
# 4 0.000000 0.000000 0.000000 0.055867 0.000000 0.000000
# 5 0.000000 0.000000 0.000000 0.000000 0.120145 0.000000
# 6 0.000000 0.000000 0.000000 0.000000 0.000000 0.046002
#
#
# Mechanical properties :
#
#
# Convention : Reuss Voigt Hill
#
# Bulk Modulus (GPa) = 38.38755 71.83986 55.11370
# Shear Modulus (GPa) = 13.97425 19.26396 16.61911
#
# Velocity S-wave (km/s) = 2.84160 3.33635 3.09887
# Velocity P-wave (km/s) = 5.74000 7.50684 6.68208
#
# Compressibility (1/GPa) = 0.02605011
#
# Stress axis : x y z
#
# Youngs Moduli (GPa) = 52.19438 21.40479 93.46204
#
# Poissons Ratio (x) = 0.22019 0.44837
# Poissons Ratio (y) = 0.53692 0.95137
# Poissons Ratio (z) = 0.25039 0.21788
#
# Static dielectric constant tensor:
#      x y z
#    x 1.568310 0.000000 0.000000 
#    y 0.000000 1.579830 0.000000 
#    z 0.000000 0.000000 1.583800 
# 
# From -- ./inp_files/30564.got.cif
#   From: 2010.05.17/outbox.cif.g08.bks.cpg/sg51_16_cif.got.tgz:30564.got - 2010.06.03 11:52:47.
