data_PCOD9403910
_publ_section_title
;
Structure prediction by ZEFSAII (Michael W. Deem and Ramdas Pophale) SiO2 
 PCOD9403910
Probable space group: P M M A
;
_chemical_formula_sum "Si O2"
_cell_formula_units_Z 56
_cell_length_a 8.450983
_cell_length_b 20.815170
_cell_length_c 16.105733
_cell_angle_alpha 90.000000
_cell_angle_beta 90.000000
_cell_angle_gamma 90.000000
_cell_volume 2833.137714
_symmetry_space_group_name_H-M "P M M A"
_symmetry_group_IT_number 51
_symmetry_cell_setting 'orthorhombic'
loop_
_space_group_symop_operation_xyz
x,y,z
1/2-x,-y,z
1/2+x,-y,-z
-x,y,-z
-x,-y,-z
1/2+x,y,-z
1/2-x,y,z
x,-y,z
loop_
_atom_site_type_symbol
_atom_site_label
_atom_site_fract_x
_atom_site_fract_y
_atom_site_fract_z
Si Si1 0.560223 0.804782 0.406366
Si Si2 0.559216 0.660494 0.405050
Si Si3 0.934650 0.930714 0.680673
Si Si4 0.056556 0.574213 0.750276
Si Si5 0.933631 0.930166 0.140934
Si Si6 0.438280 0.339809 0.904638
Si Si7 0.435739 0.793472 0.092665
O O1 0.500000 0.804994 0.500000
O O2 0.750000 0.812032 0.401245
O O3 0.517404 0.733136 0.375802
O O4 0.478158 0.865677 0.365021
O O5 0.500000 0.649973 0.500000
O O6 0.750000 0.657764 0.409436
O O7 0.505190 0.611189 0.333742
O O8 0.750000 0.927736 0.706829
O O9 0.046536 0.933472 0.760359
O O10 0.953627 0.000000 0.635328
O O11 0.250000 0.576288 0.750313
O O12 0.008015 0.500000 0.748809
O O13 0.005073 0.609134 0.835689
O O14 0.750000 0.923395 0.116864
O O15 0.024188 0.865376 0.119655
O O16 0.992014 0.000000 0.108517
O O17 0.250000 0.343884 0.910539
O O18 0.481921 0.269057 0.868500
O O19 0.500000 0.347820 0.000000
O O20 0.250000 0.783152 0.096467
O O21 0.500000 0.790885 0.000000
#
# Coordination Sequence:
#
# PCOD9403910 Si02
#       7
#     8   8   8   8   8   8   8
#     4  10  20  34  54  78 106 142 187 235 286 340
#     4   9  19  36  57  84 115 150 190 237 286 342
#     4  10  21  36  53  77 109 144 184 232 284 337
#     4   9  19  36  59  87 117 153 193 230 283 353
#     4  10  21  37  56  79 109 146 187 231 281 337
#     4  10  20  36  59  85 117 154 194 241 289 344
#     4  11  22  37  57  82 111 146 187 234 285 337
#
# _framework density 19.766069999999999
#
# number of rings (size 3 to 8) (size 9 to 14) (size 15 to 20)
#    0.000    2.143    0.000    3.857    2.000    3.429 
#    0.000    1.429    0.000    3.000    0.000    0.000 
#    0.000    0.000    0.000    0.000    0.000    0.000 
#
# Total GULP energy -312021.085172 kJ/mol
# GULP energy per Si atom -5571.805092 kJ/mol
# Density = 1.972108 g / cm^3
# Si number density = 19.766070 Si / 1000 Ang^3
#
#
#
# Elastic Constant Matrix: (Units=GPa)
#
#
# Indices 1 2 3 4 5 6 
#
# 1 40.5933 21.8607 12.3291 0.0000 0.0000 0.0000
# 2 21.8607 180.8363 77.0162 0.0000 0.0000 0.0000
# 3 12.3291 77.0162 75.4604 0.0000 0.0000 0.0000
# 4 0.0000 0.0000 0.0000 88.7538 0.0000 0.0000
# 5 0.0000 0.0000 0.0000 0.0000 25.8701 0.0000
# 6 0.0000 0.0000 0.0000 0.0000 0.0000 11.5879
#
#
#
# Elastic Compliance Matrix: (Units=1/GPa)
#
#
# Indices 1 2 3 4 5 6 
#
# 1 0.026499 -0.002405 -0.001875 0.000000 0.000000 0.000000
# 2 -0.002405 0.010000 -0.009813 0.000000 0.000000 0.000000
# 3 -0.001875 -0.009813 0.023574 0.000000 0.000000 0.000000
# 4 0.000000 0.000000 0.000000 0.011267 0.000000 0.000000
# 5 0.000000 0.000000 0.000000 0.000000 0.038655 0.000000
# 6 0.000000 0.000000 0.000000 0.000000 0.000000 0.086297
#
#
# Mechanical properties :
#
#
# Convention : Reuss Voigt Hill
#
# Bulk Modulus (GPa) = 31.36110 57.70021 44.53065
# Shear Modulus (GPa) = 21.26695 37.62131 29.44413
#
# Velocity S-wave (km/s) = 3.28370 4.36745 3.86376
# Velocity P-wave (km/s) = 5.50250 7.39511 6.51787
#
# Compressibility (1/GPa) = 0.03188664
#
# Stress axis : x y z
#
# Youngs Moduli (GPa) = 37.73701 100.00129 42.41995
#
# Poissons Ratio (x) = 0.24048 0.07955
# Poissons Ratio (y) = 0.09075 0.41627
# Poissons Ratio (z) = 0.07077 0.98133
#
# Static dielectric constant tensor:
#      x y z
#    x 1.683520 0.000000 0.000000 
#    y 0.000000 1.787750 0.000000 
#    z 0.000000 0.000000 1.688720 
# 
# From -- ./inp_files/21862.got.cif
#   From: 2010.05.17/outbox.cif.g08.bks.cpg/sg51_11_cif.got.tgz:21862.got - 2010.06.03 11:52:47.
