data_PCOD9403851
_publ_section_title
;
Structure prediction by ZEFSAII (Michael W. Deem and Ramdas Pophale) SiO2 
 PCOD9403851
Probable space group: P M M A
;
_chemical_formula_sum "Si O2"
_cell_formula_units_Z 56
_cell_length_a 19.722589
_cell_length_b 9.016362
_cell_length_c 16.300912
_cell_angle_alpha 90.000000
_cell_angle_beta 90.000000
_cell_angle_gamma 90.000000
_cell_volume 2898.726010
_symmetry_space_group_name_H-M "P M M A"
_symmetry_group_IT_number 51
_symmetry_cell_setting 'orthorhombic'
loop_
_space_group_symop_operation_xyz
x,y,z
1/2-x,-y,z
1/2+x,-y,-z
-x,y,-z
-x,-y,-z
1/2+x,y,-z
1/2-x,y,z
x,-y,z
loop_
_atom_site_type_symbol
_atom_site_label
_atom_site_fract_x
_atom_site_fract_y
_atom_site_fract_z
Si Si1 0.168602 0.672115 0.182057
Si Si2 0.826837 0.821668 0.339380
Si Si3 0.171295 0.676761 0.482961
Si Si4 0.094443 0.176266 0.334682
Si Si5 0.951650 0.323082 0.076138
Si Si6 0.170560 0.176653 0.007443
Si Si7 0.040285 0.823530 0.755547
O O1 0.250000 0.675323 0.192980
O O2 0.146976 0.500000 0.178697
O O3 0.134499 0.755354 0.257585
O O4 0.153993 0.751636 0.095803
O O5 0.750000 0.785902 0.312263
O O6 0.838494 0.745131 0.427006
O O7 0.885570 0.778737 0.276364
O O8 0.830947 0.000000 0.350137
O O9 0.250000 0.707315 0.459036
O O10 0.162569 0.500000 0.485245
O O11 0.121780 0.748622 0.416774
O O12 0.015407 0.202691 0.314839
O O13 0.105773 0.000000 0.338609
O O14 0.945939 0.500000 0.078234
O O15 0.978753 0.262385 0.162119
O O16 0.879139 0.248875 0.058306
O O17 0.000000 0.281909 0.000000
O O18 0.250000 0.205792 0.990578
O O19 0.160778 0.000000 0.010619
O O20 0.040423 0.000000 0.773013
#
# Coordination Sequence:
#
# PCOD9403851 Si02
#       7
#     8   8   8   8   8   8   8
#     4  10  20  34  53  79 113 149 186 233 284 333
#     4   9  19  39  64  85 109 144 186 231 279 333
#     4  10  21  37  58  85 116 149 186 229 276 327
#     4  11  22  35  54  81 115 152 189 230 276 333
#     4  11  24  40  59  84 115 152 192 235 286 343
#     4  10  21  37  58  83 110 144 188 236 286 341
#     4  10  23  40  58  84 114 146 187 235 285 335
#
# _framework density 19.318832
#
# number of rings (size 3 to 8) (size 9 to 14) (size 15 to 20)
#    0.000    1.857    0.000    3.429    0.000   10.571 
#    0.000    4.286    0.000    0.000    0.000    0.000 
#    0.000    0.000    0.000    0.000    0.000    0.000 
#
# Total GULP energy -312995.973986 kJ/mol
# GULP energy per Si atom -5589.213821 kJ/mol
# Density = 1.927486 g / cm^3
# Si number density = 19.318832 Si / 1000 Ang^3
#
#
#
# Elastic Constant Matrix: (Units=GPa)
#
#
# Indices 1 2 3 4 5 6 
#
# 1 74.9061 45.7685 44.7805 0.0000 0.0000 0.0000
# 2 45.7685 56.2947 34.0101 0.0000 0.0000 0.0000
# 3 44.7805 34.0101 67.5342 0.0000 0.0000 0.0000
# 4 0.0000 0.0000 0.0000 51.1003 0.0000 0.0000
# 5 0.0000 0.0000 0.0000 0.0000 34.0429 0.0000
# 6 0.0000 0.0000 0.0000 0.0000 0.0000 19.2126
#
#
#
# Elastic Compliance Matrix: (Units=1/GPa)
#
#
# Indices 1 2 3 4 5 6 
#
# 1 0.031796 -0.018848 -0.011592 0.000000 0.000000 0.000000
# 2 -0.018848 0.036704 -0.005987 0.000000 0.000000 0.000000
# 3 -0.011592 -0.005987 0.025508 0.000000 0.000000 0.000000
# 4 0.000000 0.000000 0.000000 0.019569 0.000000 0.000000
# 5 0.000000 0.000000 0.000000 0.000000 0.029375 0.000000
# 6 0.000000 0.000000 0.000000 0.000000 0.000000 0.052049
#
#
# Mechanical properties :
#
#
# Convention : Reuss Voigt Hill
#
# Bulk Modulus (GPa) = 47.26671 49.76147 48.51409
# Shear Modulus (GPa) = 18.18815 25.81623 22.00219
#
# Velocity S-wave (km/s) = 3.07167 3.65954 3.37842
# Velocity P-wave (km/s) = 6.09098 6.60835 6.35493
#
# Compressibility (1/GPa) = 0.02115654
#
# Stress axis : x y z
#
# Youngs Moduli (GPa) = 31.45069 27.24520 39.20299
#
# Poissons Ratio (x) = 0.51350 0.45442
# Poissons Ratio (y) = 0.59277 0.23469
# Poissons Ratio (z) = 0.36456 0.16310
#
# Static dielectric constant tensor:
#      x y z
#    x 1.693350 0.000000 0.000000 
#    y 0.000000 1.640590 0.000000 
#    z 0.000000 0.000000 1.632100 
# 
# From -- ./inp_files/25635.got.cif
#   From: 2010.05.17/outbox.cif.g08.bks.cpg/sg51_13_cif.got.tgz:25635.got - 2010.06.03 11:52:47.
