data_PCOD9403788
_publ_section_title
;
Structure prediction by ZEFSAII (Michael W. Deem and Ramdas Pophale) SiO2 
 PCOD9403788
Probable space group: P M M A
;
_chemical_formula_sum "Si O2"
_cell_formula_units_Z 64
_cell_length_a 17.864914
_cell_length_b 7.430741
_cell_length_c 20.548012
_cell_angle_alpha 90.000000
_cell_angle_beta 90.000000
_cell_angle_gamma 90.000000
_cell_volume 2727.739324
_symmetry_space_group_name_H-M "P M M A"
_symmetry_group_IT_number 51
_symmetry_cell_setting 'orthorhombic'
loop_
_space_group_symop_operation_xyz
x,y,z
1/2-x,-y,z
1/2+x,-y,-z
-x,y,-z
-x,-y,-z
1/2+x,y,-z
1/2-x,y,z
x,-y,z
loop_
_atom_site_type_symbol
_atom_site_label
_atom_site_fract_x
_atom_site_fract_y
_atom_site_fract_z
Si Si1 0.332347 0.280481 0.489812
Si Si2 0.122435 0.295709 0.124098
Si Si3 0.333467 0.718108 0.773066
Si Si4 0.333500 0.280252 0.265228
Si Si5 0.667880 0.792191 0.018547
Si Si6 0.943919 0.280198 0.621621
Si Si7 0.547806 0.792259 0.116714
Si Si8 0.116005 0.719536 0.630525
O O1 0.250000 0.226235 0.466117
O O2 0.333824 0.500000 0.489294
O O3 0.399157 0.222239 0.442690
O O4 0.343913 0.223428 0.564242
O O5 0.150336 0.500000 0.120789
O O6 0.151011 0.217055 0.191994
O O7 0.032383 0.296438 0.126100
O O8 0.150527 0.208899 0.057785
O O9 0.250000 0.774649 0.794167
O O10 0.335451 0.500000 0.774650
O O11 0.399354 0.782266 0.820080
O O12 0.348081 0.775758 0.698712
O O13 0.250000 0.229903 0.286111
O O14 0.336641 0.500000 0.264122
O O15 0.396289 0.222073 0.315880
O O16 0.750000 0.712067 0.030939
O O17 0.598704 0.712914 0.058714
O O18 0.671218 0.000000 0.040223
O O19 0.944804 0.500000 0.620965
O O20 0.029573 0.223549 0.626051
O O21 0.529712 0.000000 0.101473
O O22 0.117918 0.500000 0.630957
#
# Coordination Sequence:
#
# PCOD9403788 Si02
#       8
#     8   8   8   8   8   8   8   8
#     4   9  15  22  34  55  87 130 175 212 251 306
#     4  11  22  36  56  82 110 139 174 218 267 318
#     4  10  20  34  53  77 105 137 173 216 267 319
#     4   9  17  29  45  68 100 135 169 209 259 311
#     4  10  22  40  59  79 106 140 176 215 261 313
#     4   9  15  23  37  58  89 131 174 210 249 305
#     4  11  23  39  58  79 106 141 179 218 262 313
#     4   9  16  26  40  62  95 132 168 211 264 315
#
# _framework density 23.462651999999999
#
# number of rings (size 3 to 8) (size 9 to 14) (size 15 to 20)
#    0.000    2.250    0.000    3.750    0.000   10.500 
#    0.000    0.000    0.000    0.000    0.000    0.000 
#    0.000    9.000    0.000    5.375    0.000    2.125 
#
# Total GULP energy -357924.764737 kJ/mol
# GULP energy per Si atom -5592.574449 kJ/mol
# Density = 2.340925 g / cm^3
# Si number density = 23.462652 Si / 1000 Ang^3
#
#
#
# Elastic Constant Matrix: (Units=GPa)
#
#
# Indices 1 2 3 4 5 6 
#
# 1 108.3062 -4.7852 1.0329 0.0000 0.0000 0.0000
# 2 -4.7852 75.0472 -7.5898 0.0000 0.0000 0.0000
# 3 1.0329 -7.5898 84.2860 0.0000 0.0000 0.0000
# 4 0.0000 0.0000 0.0000 14.0104 0.0000 0.0000
# 5 0.0000 0.0000 0.0000 0.0000 48.4233 0.0000
# 6 0.0000 0.0000 0.0000 0.0000 0.0000 -33.5212
#
#
#
# Elastic Compliance Matrix: (Units=1/GPa)
#
#
# Indices 1 2 3 4 5 6 
#
# 1 0.009259 0.000584 -0.000061 0.000000 0.000000 0.000000
# 2 0.000584 0.013484 0.001207 0.000000 0.000000 0.000000
# 3 -0.000061 0.001207 0.011974 0.000000 0.000000 0.000000
# 4 0.000000 0.000000 0.000000 0.071375 0.000000 0.000000
# 5 0.000000 0.000000 0.000000 0.000000 0.020651 0.000000
# 6 0.000000 0.000000 0.000000 0.000000 0.000000 -0.029832
#
#
# Mechanical properties :
#
#
# Convention : Reuss Voigt Hill
#
# Bulk Modulus (GPa) = 26.19275 27.21723 26.70499
# Shear Modulus (GPa) = 47.09097 24.38128 35.73612
#
# Velocity S-wave (km/s) = 4.48488 3.22709 3.90693
# Velocity P-wave (km/s) = 6.16496 5.05083 5.63549
#
# Compressibility (1/GPa) = 0.03817851
#
# Stress axis : x y z
#
# Youngs Moduli (GPa) = 107.99744 74.16040 83.51564
#
# Poissons Ratio (x) = -0.04333 0.00508
# Poissons Ratio (y) = -0.06310 -0.10081
# Poissons Ratio (z) = 0.00657 -0.08952
#
# Static dielectric constant tensor:
#      x y z
#    x 1.841210 0.000000 0.000000 
#    y 0.000000 1.932910 0.000000 
#    z 0.000000 0.000000 1.838100 
# 
# From -- ./inp_files/30661.got.cif
#   From: 2010.05.17/outbox.cif.g08.bks.cpg/sg51_16_cif.got.tgz:30661.got - 2010.06.03 11:52:47.
