data_PCOD9403625
_publ_section_title
;
Structure prediction by ZEFSAII (Michael W. Deem and Ramdas Pophale) SiO2 
 PCOD9403625
Probable space group: P M M A
;
_chemical_formula_sum "Si O2"
_cell_formula_units_Z 56
_cell_length_a 24.945912
_cell_length_b 7.624893
_cell_length_c 14.411156
_cell_angle_alpha 90.000000
_cell_angle_beta 90.000000
_cell_angle_gamma 90.000000
_cell_volume 2741.144683
_symmetry_space_group_name_H-M "P M M A"
_symmetry_group_IT_number 51
_symmetry_cell_setting 'orthorhombic'
loop_
_space_group_symop_operation_xyz
x,y,z
1/2-x,-y,z
1/2+x,-y,-z
-x,y,-z
-x,-y,-z
1/2+x,y,-z
1/2-x,y,z
x,-y,z
loop_
_atom_site_type_symbol
_atom_site_label
_atom_site_fract_x
_atom_site_fract_y
_atom_site_fract_z
Si Si1 0.811188 0.212725 0.156819
Si Si2 0.190023 0.789165 0.272306
Si Si3 0.026157 0.711727 0.771045
Si Si4 0.087604 0.706467 0.954120
Si Si5 0.915598 0.289949 0.838822
Si Si6 0.811582 0.213784 0.517535
Si Si7 0.126677 0.791622 0.659850
O O1 0.750000 0.270735 0.147999
O O2 0.850556 0.271958 0.075154
O O3 0.837963 0.275790 0.253316
O O4 0.811584 0.000000 0.157540
O O5 0.250000 0.726763 0.246662
O O6 0.142445 0.744896 0.203139
O O7 0.177753 0.726450 0.377305
O O8 0.192546 0.000000 0.276157
O O9 0.027338 0.500000 0.772172
O O10 0.964718 0.771874 0.774304
O O11 0.053647 0.777397 0.867120
O O12 0.064949 0.763748 0.687160
O O13 0.074579 0.500000 0.958028
O O14 0.077942 0.780166 0.056358
O O15 0.920737 0.500000 0.844912
O O16 0.750000 0.259921 0.493659
O O17 0.851870 0.277340 0.438095
O O18 0.813748 0.000000 0.519481
O O19 0.135654 0.000000 0.657836
#
# Coordination Sequence:
#
# PCOD9403625 Si02
#       7
#     8   8   8   8   8   8   8
#     4   9  17  28  43  68 100 126 149 185 235 284
#     4   9  19  35  53  73  96 122 155 195 235 274
#     4   9  18  33  50  69  95 124 155 193 235 278
#     4   9  18  32  49  67  89 122 163 199 229 271
#     4  10  20  34  52  70  90 123 162 196 233 275
#     4   8  14  28  51  74  95 123 158 192 228 274
#     4   9  16  28  49  74  96 121 155 192 229 274
#
# _framework density 20.42942
#
# number of rings (size 3 to 8) (size 9 to 14) (size 15 to 20)
#    0.000    3.000    0.000    1.714    0.000    5.714 
#    0.000    4.286    0.000   10.714    0.000    0.000 
#    0.000    0.000    0.000    0.000    0.000    0.000 
#
# Total GULP energy -312255.789414 kJ/mol
# GULP energy per Si atom -5575.996240 kJ/mol
# Density = 2.038292 g / cm^3
# Si number density = 20.429420 Si / 1000 Ang^3
#
#
#
# Elastic Constant Matrix: (Units=GPa)
#
#
# Indices 1 2 3 4 5 6 
#
# 1 86.8275 -8.5849 19.4817 0.0000 0.0000 0.0000
# 2 -8.5849 36.0757 0.4242 0.0000 0.0000 0.0000
# 3 19.4817 0.4242 49.1397 0.0000 0.0000 0.0000
# 4 0.0000 0.0000 0.0000 17.9633 0.0000 0.0000
# 5 0.0000 0.0000 0.0000 0.0000 24.7979 0.0000
# 6 0.0000 0.0000 0.0000 0.0000 0.0000 20.9594
#
#
#
# Elastic Compliance Matrix: (Units=1/GPa)
#
#
# Indices 1 2 3 4 5 6 
#
# 1 0.012990 0.003152 -0.005177 0.000000 0.000000 0.000000
# 2 0.003152 0.028487 -0.001496 0.000000 0.000000 0.000000
# 3 -0.005177 -0.001496 0.022416 0.000000 0.000000 0.000000
# 4 0.000000 0.000000 0.000000 0.055669 0.000000 0.000000
# 5 0.000000 0.000000 0.000000 0.000000 0.040326 0.000000
# 6 0.000000 0.000000 0.000000 0.000000 0.000000 0.047711
#
#
# Mechanical properties :
#
#
# Convention : Reuss Voigt Hill
#
# Bulk Modulus (GPa) = 17.58963 21.63166 19.61065
# Shear Modulus (GPa) = 21.40488 23.45892 22.43190
#
# Velocity S-wave (km/s) = 3.24041 3.39232 3.31723
# Velocity P-wave (km/s) = 4.75699 5.09463 4.92870
#
# Compressibility (1/GPa) = 0.05685167
#
# Stress axis : x y z
#
# Youngs Moduli (GPa) = 76.97996 35.10352 44.61173
#
# Poissons Ratio (x) = -0.11065 0.23097
# Poissons Ratio (y) = -0.24266 0.06672
# Poissons Ratio (z) = 0.39855 0.05250
#
# Static dielectric constant tensor:
#      x y z
#    x 1.726170 0.000000 0.000000 
#    y 0.000000 1.780470 0.000000 
#    z 0.000000 0.000000 1.722200 
# 
# From -- ./inp_files/18251.got.cif
#   From: 2010.05.17/outbox.cif.g08.bks.cpg/sg51_10_cif.got.tgz:18251.got - 2010.06.03 11:52:47.
