data_PCOD9403588
_publ_section_title
;
Structure prediction by ZEFSAII (Michael W. Deem and Ramdas Pophale) SiO2 
 PCOD9403588
Probable space group: P M M A
;
_chemical_formula_sum "Si O2"
_cell_formula_units_Z 64
_cell_length_a 9.461767
_cell_length_b 20.572441
_cell_length_c 18.617745
_cell_angle_alpha 90.000000
_cell_angle_beta 90.000000
_cell_angle_gamma 90.000000
_cell_volume 3623.974660
_symmetry_space_group_name_H-M "P M M A"
_symmetry_group_IT_number 51
_symmetry_cell_setting 'orthorhombic'
loop_
_space_group_symop_operation_xyz
x,y,z
1/2-x,-y,z
1/2+x,-y,-z
-x,y,-z
-x,-y,-z
1/2+x,y,-z
1/2-x,y,z
x,-y,z
loop_
_atom_site_type_symbol
_atom_site_label
_atom_site_fract_x
_atom_site_fract_y
_atom_site_fract_z
Si Si1 0.903835 0.574155 0.440736
Si Si2 0.416857 0.574832 0.837049
Si Si3 0.917962 0.133891 0.574199
Si Si4 0.581279 0.075720 0.288393
Si Si5 0.580525 0.293801 0.074657
Si Si6 0.592707 0.749871 0.670895
Si Si7 0.581406 0.196587 0.200223
Si Si8 0.588806 0.402157 0.692005
O O1 0.750000 0.604746 0.432023
O O2 0.882733 0.500000 0.466081
O O3 0.000000 0.608422 0.500000
O O4 0.986505 0.568951 0.367111
O O5 0.250000 0.579932 0.816516
O O6 0.438399 0.500000 0.862932
O O7 0.444659 0.634207 0.891699
O O8 0.517130 0.586921 0.768875
O O9 0.750000 0.118901 0.568086
O O10 0.931964 0.209599 0.598506
O O11 0.000000 0.121165 0.500000
O O12 0.990840 0.096647 0.641572
O O13 0.750000 0.085364 0.303414
O O14 0.544295 0.121871 0.220180
O O15 0.558672 0.000000 0.273318
O O16 0.750000 0.287840 0.064594
O O17 0.532399 0.237364 0.130756
O O18 0.500000 0.287458 0.000000
O O19 0.750000 0.771160 0.696458
O O20 0.477185 0.767552 0.729706
O O21 0.593808 0.673010 0.668390
O O22 0.750000 0.200388 0.197702
O O23 0.750000 0.426025 0.691239
#
# Coordination Sequence:
#
# PCOD9403588 Si02
#       8
#     8   8   8   8   8   8   8   8
#     4  10  21  36  51  67  91 125 166 214 266 317
#     4  10  21  37  55  77 107 142 179 220 265 316
#     4  10  20  34  50  72 106 145 184 224 266 312
#     4   9  18  33  55  82 108 138 178 222 266 311
#     4  10  21  36  56  82 109 140 177 214 260 316
#     4   9  19  33  50  73 100 132 173 220 264 307
#     4   9  17  33  56  79 104 136 175 214 256 308
#     4  11  21  33  52  77 103 132 172 219 269 322
#
# _framework density 17.660167999999999
#
# number of rings (size 3 to 8) (size 9 to 14) (size 15 to 20)
#    0.000    2.250    1.250    1.500    0.000    5.750 
#    0.000    1.250    0.000    0.375    0.000    0.000 
#    0.000    0.000    0.000    0.000    0.000    0.000 
#
# Total GULP energy -356299.807641 kJ/mol
# GULP energy per Si atom -5567.184494 kJ/mol
# Density = 1.761997 g / cm^3
# Si number density = 17.660168 Si / 1000 Ang^3
#
#
#
# Elastic Constant Matrix: (Units=GPa)
#
#
# Indices 1 2 3 4 5 6 
#
# 1 73.9682 40.9936 59.4737 0.0000 0.0000 0.0000
# 2 40.9936 113.0644 41.6568 0.0000 0.0000 0.0000
# 3 59.4737 41.6568 110.5182 0.0000 0.0000 0.0000
# 4 0.0000 0.0000 0.0000 18.6191 0.0000 0.0000
# 5 0.0000 0.0000 0.0000 0.0000 28.6420 0.0000
# 6 0.0000 0.0000 0.0000 0.0000 0.0000 9.8589
#
#
#
# Elastic Compliance Matrix: (Units=1/GPa)
#
#
# Indices 1 2 3 4 5 6 
#
# 1 0.026029 -0.004966 -0.012135 0.000000 0.000000 0.000000
# 2 -0.004966 0.011218 -0.001556 0.000000 0.000000 0.000000
# 3 -0.012135 -0.001556 0.016165 0.000000 0.000000 0.000000
# 4 0.000000 0.000000 0.000000 0.053708 0.000000 0.000000
# 5 0.000000 0.000000 0.000000 0.000000 0.034914 0.000000
# 6 0.000000 0.000000 0.000000 0.000000 0.000000 0.101432
#
#
# Mechanical properties :
#
#
# Convention : Reuss Voigt Hill
#
# Bulk Modulus (GPa) = 62.12086 64.64434 63.38260
# Shear Modulus (GPa) = 17.47358 21.78578 19.62968
#
# Velocity S-wave (km/s) = 3.14894 3.51609 3.33757
# Velocity P-wave (km/s) = 6.96227 7.29163 7.12885
#
# Compressibility (1/GPa) = 0.01609765
#
# Stress axis : x y z
#
# Youngs Moduli (GPa) = 38.41904 89.13941 61.86175
#
# Poissons Ratio (x) = 0.44269 0.75070
# Poissons Ratio (y) = 0.19080 0.09626
# Poissons Ratio (z) = 0.46622 0.13870
#
# Static dielectric constant tensor:
#      x y z
#    x 1.645100 0.000000 0.000000 
#    y 0.000000 1.663900 0.000000 
#    z 0.000000 0.000000 1.568840 
# 
# From -- ./inp_files/28495.got.cif
#   From: 2010.05.17/outbox.cif.g08.bks.cpg/sg51_15_cif.got.tgz:28495.got - 2010.06.03 11:52:47.
