data_PCOD9403035
_publ_section_title
;
Structure prediction by ZEFSAII (Michael W. Deem and Ramdas Pophale) SiO2 
 PCOD9403035
Probable space group: P M M A
;
_chemical_formula_sum "Si O2"
_cell_formula_units_Z 40
_cell_length_a 8.667645
_cell_length_b 19.499456
_cell_length_c 14.602004
_cell_angle_alpha 90.000000
_cell_angle_beta 90.000000
_cell_angle_gamma 90.000000
_cell_volume 2467.948394
_symmetry_space_group_name_H-M "P M M A"
_symmetry_group_IT_number 51
_symmetry_cell_setting 'orthorhombic'
loop_
_space_group_symop_operation_xyz
x,y,z
1/2-x,-y,z
1/2+x,-y,-z
-x,y,-z
-x,-y,-z
1/2+x,y,-z
1/2-x,y,z
x,-y,z
loop_
_atom_site_type_symbol
_atom_site_label
_atom_site_fract_x
_atom_site_fract_y
_atom_site_fract_z
Si Si1 0.564858 0.578383 0.102438
Si Si2 0.429543 0.664958 0.261674
Si Si3 0.065909 0.781097 0.604469
Si Si4 0.075180 0.581349 0.592425
Si Si5 0.564831 0.074868 0.603319
O O1 0.750000 0.581286 0.102236
O O2 0.522297 0.500000 0.133483
O O3 0.502171 0.639178 0.166653
O O4 0.500000 0.585608 0.000000
O O5 0.250000 0.679829 0.250715
O O6 0.507518 0.725125 0.322146
O O7 0.461984 0.599875 0.326452
O O8 0.250000 0.779764 0.597539
O O9 0.000000 0.771808 0.500000
O O10 0.009486 0.855628 0.640277
O O11 0.250000 0.607511 0.607267
O O12 0.086486 0.500000 0.583927
O O13 0.000000 0.609586 0.500000
O O14 0.500000 0.071937 0.500000
O O15 0.750000 0.082077 0.600880
O O16 0.528523 0.000000 0.645809
#
# Coordination Sequence:
#
# PCOD9403035 Si02
#       5
#     8   8   8   8   8
#     4  10  21  38  58  78  98 121 154 197 245 295
#     4  12  23  34  49  69  95 125 158 196 241 289
#     4  11  21  33  48  68  98 133 169 205 242 286
#     4  10  20  33  47  64  88 119 156 195 233 277
#     4   9  16  27  44  66  93 126 164 202 238 278
#
# _framework density 16.207794
#
# number of rings (size 3 to 8) (size 9 to 14) (size 15 to 20)
#    0.000    1.600    0.000    7.800    0.000    6.000 
#    0.000    0.000    0.000    0.000    0.000    0.000 
#    0.000    0.800    0.000    3.000    0.000    5.000 
#
# Total GULP energy -222950.539665 kJ/mol
# GULP energy per Si atom -5573.763492 kJ/mol
# Density = 1.617090 g / cm^3
# Si number density = 16.207794 Si / 1000 Ang^3
#
#
#
# Elastic Constant Matrix: (Units=GPa)
#
#
# Indices 1 2 3 4 5 6 
#
# 1 116.1509 57.3924 33.2913 0.0000 0.0000 0.0000
# 2 57.3924 116.5003 44.5366 0.0000 0.0000 0.0000
# 3 33.2913 44.5366 70.3608 0.0000 0.0000 0.0000
# 4 0.0000 0.0000 0.0000 0.6915 0.0000 0.0000
# 5 0.0000 0.0000 0.0000 0.0000 22.2677 0.0000
# 6 0.0000 0.0000 0.0000 0.0000 0.0000 21.9285
#
#
#
# Elastic Compliance Matrix: (Units=1/GPa)
#
#
# Indices 1 2 3 4 5 6 
#
# 1 0.011701 -0.004812 -0.002490 0.000000 0.000000 0.000000
# 2 -0.004812 0.013303 -0.006143 0.000000 0.000000 0.000000
# 3 -0.002490 -0.006143 0.019279 0.000000 0.000000 0.000000
# 4 0.000000 0.000000 0.000000 1.446066 0.000000 0.000000
# 5 0.000000 0.000000 0.000000 0.000000 0.044908 0.000000
# 6 0.000000 0.000000 0.000000 0.000000 0.000000 0.045603
#
#
# Mechanical properties :
#
#
# Convention : Reuss Voigt Hill
#
# Bulk Modulus (GPa) = 57.50020 63.71693 60.60857
# Shear Modulus (GPa) = 3.09876 20.16367 11.63122
#
# Velocity S-wave (km/s) = 1.38421 3.53097 2.68177
# Velocity P-wave (km/s) = 6.17322 7.48475 6.86040
#
# Compressibility (1/GPa) = 0.01739124
#
# Stress axis : x y z
#
# Youngs Moduli (GPa) = 85.46153 75.17090 51.86884
#
# Poissons Ratio (x) = 0.36175 0.12917
# Poissons Ratio (y) = 0.41128 0.31865
# Poissons Ratio (z) = 0.21282 0.46181
#
# Static dielectric constant tensor:
#      x y z
#    x 1.559200 0.000000 0.000000 
#    y 0.000000 1.610940 0.000000 
#    z 0.000000 0.000000 1.501760 
# 
# From -- ./inp_files/21300.got.cif
#   From: 2010.05.17/outbox.cif.g08.bks.cpg/sg51_11_cif.got.tgz:21300.got - 2010.06.03 11:52:47.
