data_PCOD9403879
_publ_section_title
;
Structure prediction by ZEFSAII (Michael W. Deem and Ramdas Pophale) SiO2 
 PCOD9403879
Probable space group: P M M A
;
_chemical_formula_sum "Si O2"
_cell_formula_units_Z 58
_cell_length_a 15.506560
_cell_length_b 7.344030
_cell_length_c 24.168578
_cell_angle_alpha 90.000000
_cell_angle_beta 90.000000
_cell_angle_gamma 90.000000
_cell_volume 2752.333175
_symmetry_space_group_name_H-M "P M M A"
_symmetry_group_IT_number 51
_symmetry_cell_setting 'orthorhombic'
loop_
_space_group_symop_operation_xyz
x,y,z
1/2-x,-y,z
1/2+x,-y,-z
-x,y,-z
-x,-y,-z
1/2+x,y,-z
1/2-x,y,z
x,-y,z
loop_
_atom_site_type_symbol
_atom_site_label
_atom_site_fract_x
_atom_site_fract_y
_atom_site_fract_z
Si Si1 0.655934 0.289956 0.140118
Si Si2 0.980566 0.278119 0.813577
Si Si3 0.409305 0.209516 0.979677
Si Si4 0.850738 0.721706 0.496316
Si Si5 0.342887 0.280607 0.097242
Si Si6 0.997645 0.280595 0.582883
Si Si7 0.091682 0.720250 0.306907
Si Si8 0.250000 0.000000 0.321578
O O1 0.750000 0.206055 0.146584
O O2 0.661838 0.500000 0.157488
O O3 0.576387 0.210756 0.173974
O O4 0.630836 0.291593 0.075183
O O5 0.981618 0.500000 0.816475
O O6 0.919003 0.215698 0.863461
O O7 0.942428 0.232864 0.754159
O O8 0.425585 0.000000 0.964865
O O9 0.500000 0.291875 0.000000
O O10 0.351541 0.218802 0.034202
O O11 0.750000 0.782727 0.497565
O O12 0.846810 0.500000 0.496655
O O13 0.912437 0.777613 0.547831
O O14 0.911817 0.778971 0.444525
O O15 0.250000 0.225940 0.120326
O O16 0.346229 0.500000 0.096088
O O17 0.998832 0.500000 0.577589
O O18 0.979934 0.237890 0.646396
O O19 0.108624 0.500000 0.308945
O O20 0.174740 0.839959 0.319841
#
# Coordination Sequence:
#
# PCOD9403879 Si02
#       8
#     8   8   8   8   8   8   8   2
#     4  10  20  36  60  83 104 138 186 234 279 339
#     4   9  19  37  58  79 109 144 182 231 283 338
#     4  11  22  35  50  76 107 140 173 220 279 340
#     4   8  13  23  45  83 121 155 204 249 290 353
#     4  10  20  34  54  76  99 135 177 216 268 334
#     4   8  15  28  49  80 119 159 198 247 299 347
#     4  10  22  41  61  85 121 159 197 244 297 349
#     4  12  26  40  60  96 114 158 206 246 290 352
#
# _framework density 21.073028000000001
#
# number of rings (size 3 to 8) (size 9 to 14) (size 15 to 20)
#    0.000    2.483    1.379    1.862    1.931    2.759 
#    2.483    0.690    0.000    5.793    0.000    0.966 
#    0.000    0.000    0.000    0.000    0.000    0.276 
#
# Total GULP energy -323098.948365 kJ/mol
# GULP energy per Si atom -5570.671524 kJ/mol
# Density = 2.102507 g / cm^3
# Si number density = 21.073028 Si / 1000 Ang^3
#
#
#
# Elastic Constant Matrix: (Units=GPa)
#
#
# Indices 1 2 3 4 5 6 
#
# 1 133.5678 7.9652 5.2636 0.0000 0.0000 0.0000
# 2 7.9652 89.0248 -1.5683 0.0000 0.0000 0.0000
# 3 5.2636 -1.5683 56.9672 0.0000 0.0000 0.0000
# 4 0.0000 0.0000 0.0000 -136.7813 0.0000 0.0000
# 5 0.0000 0.0000 0.0000 0.0000 -6.6550 0.0000
# 6 0.0000 0.0000 0.0000 0.0000 0.0000 -12.3850
#
#
#
# Elastic Compliance Matrix: (Units=1/GPa)
#
#
# Indices 1 2 3 4 5 6 
#
# 1 0.007556 -0.000689 -0.000717 0.000000 0.000000 0.000000
# 2 -0.000689 0.011301 0.000375 0.000000 0.000000 0.000000
# 3 -0.000717 0.000375 0.017631 0.000000 0.000000 0.000000
# 4 0.000000 0.000000 0.000000 -0.007311 0.000000 0.000000
# 5 0.000000 0.000000 0.000000 0.000000 -0.150262 0.000000
# 6 0.000000 0.000000 0.000000 0.000000 0.000000 -0.080743
#
#
# Mechanical properties :
#
#
# Convention : Reuss Voigt Hill
#
# Bulk Modulus (GPa) = 29.04812 33.65340 31.35076
# Shear Modulus (GPa) = -26.55469 -13.30432 -19.92950
#
# Velocity S-wave (km/s) = -3.55368 -2.51538 -3.07862
# Velocity P-wave (km/s) = 1.73889 2.75107 1.50742
#
# Compressibility (1/GPa) = 0.03442564
#
# Stress axis : x y z
#
# Youngs Moduli (GPa) = 132.34225 88.48737 56.71972
#
# Poissons Ratio (x) = 0.06094 0.04068
# Poissons Ratio (y) = 0.09114 -0.02126
# Poissons Ratio (z) = 0.09491 -0.03316
#
# Static dielectric constant tensor:
#      x y z
#    x 1.777260 0.000000 0.000000 
#    y 0.000000 1.818470 0.000000 
#    z 0.000000 0.000000 1.727100 
# 
# From -- ./inp_files/35531.got.cif
#   From: 2010.05.17/outbox.cif.g08.bks.cpg/sg51_18_cif.got.tgz:35531.got - 2010.06.03 11:52:47.
