data_PCOD9403933
_publ_section_title
;
Structure prediction by ZEFSAII (Michael W. Deem and Ramdas Pophale) SiO2 
 PCOD9403933
Probable space group: P M M A
;
_chemical_formula_sum "Si O2"
_cell_formula_units_Z 64
_cell_length_a 19.174143
_cell_length_b 7.613626
_cell_length_c 20.713288
_cell_angle_alpha 90.000000
_cell_angle_beta 90.000000
_cell_angle_gamma 90.000000
_cell_volume 3023.824246
_symmetry_space_group_name_H-M "P M M A"
_symmetry_group_IT_number 51
_symmetry_cell_setting 'orthorhombic'
loop_
_space_group_symop_operation_xyz
x,y,z
1/2-x,-y,z
1/2+x,-y,-z
-x,y,-z
-x,-y,-z
1/2+x,y,-z
1/2-x,y,z
x,-y,z
loop_
_atom_site_type_symbol
_atom_site_label
_atom_site_fract_x
_atom_site_fract_y
_atom_site_fract_z
Si Si1 0.419024 0.795305 0.674483
Si Si2 0.569808 0.796956 0.704922
Si Si3 0.084914 0.786030 0.064101
Si Si4 0.573179 0.787916 0.081806
Si Si5 0.329416 0.706799 0.797336
Si Si6 0.328527 0.784573 0.184558
Si Si7 0.829837 0.707854 0.591296
Si Si8 0.829437 0.787621 0.443784
O O1 0.493984 0.716155 0.692669
O O2 0.368350 0.788282 0.735966
O O3 0.380587 0.719914 0.611710
O O4 0.432348 0.000000 0.658667
O O5 0.617134 0.720599 0.761813
O O6 0.616015 0.791618 0.640442
O O7 0.557441 0.000000 0.724272
O O8 0.143379 0.731321 0.114495
O O9 0.007777 0.732164 0.088480
O O10 0.084325 0.000000 0.063084
O O11 0.095200 0.729332 0.990171
O O12 0.624130 0.731705 0.138705
O O13 0.573174 0.000000 0.082325
O O14 0.250000 0.772908 0.805362
O O15 0.325943 0.500000 0.784343
O O16 0.250000 0.725998 0.197464
O O17 0.327741 0.000000 0.186455
O O18 0.750000 0.773339 0.600374
O O19 0.829804 0.500000 0.603509
O O20 0.849065 0.738587 0.516675
O O21 0.750000 0.725661 0.432603
O O22 0.828063 0.000000 0.440392
#
# Coordination Sequence:
#
# PCOD9403933 Si02
#       8
#     8   8   8   8   8   8   8   8
#     4  10  21  37  58  81 103 133 177 225 269 316
#     4  10  20  34  54  79 106 136 172 218 268 313
#     4   8  15  29  50  78 107 132 167 218 267 308
#     4   9  17  32  55  78 102 135 174 218 266 315
#     4  11  24  38  52  75 109 145 179 219 267 319
#     4   9  16  26  44  72 103 132 164 206 257 309
#     4  10  21  36  54  77 107 143 178 210 250 308
#     4   9  18  34  56  79 102 130 168 216 266 314
#
# _framework density 21.165251999999999
#
# number of rings (size 3 to 8) (size 9 to 14) (size 15 to 20)
#    0.000    2.500    0.000    3.000    0.000    6.750 
#    0.000    6.250    0.000    0.750    0.000    1.750 
#    0.000    0.000    0.000    0.000    0.000    0.000 
#
# Total GULP energy -357354.971652 kJ/mol
# GULP energy per Si atom -5583.671432 kJ/mol
# Density = 2.111708 g / cm^3
# Si number density = 21.165252 Si / 1000 Ang^3
#
#
#
# Elastic Constant Matrix: (Units=GPa)
#
#
# Indices 1 2 3 4 5 6 
#
# 1 54.2560 -7.3473 20.6174 0.0000 0.0000 0.0000
# 2 -7.3473 43.3270 -16.8897 0.0000 0.0000 0.0000
# 3 20.6174 -16.8897 57.1226 0.0000 0.0000 0.0000
# 4 0.0000 0.0000 0.0000 63.5184 0.0000 0.0000
# 5 0.0000 0.0000 0.0000 0.0000 41.9181 0.0000
# 6 0.0000 0.0000 0.0000 0.0000 0.0000 1.9212
#
#
#
# Elastic Compliance Matrix: (Units=1/GPa)
#
#
# Indices 1 2 3 4 5 6 
#
# 1 0.021380 0.000698 -0.007510 0.000000 0.000000 0.000000
# 2 0.000698 0.026110 0.007468 0.000000 0.000000 0.000000
# 3 -0.007510 0.007468 0.022425 0.000000 0.000000 0.000000
# 4 0.000000 0.000000 0.000000 0.015743 0.000000 0.000000
# 5 0.000000 0.000000 0.000000 0.000000 0.023856 0.000000
# 6 0.000000 0.000000 0.000000 0.000000 0.000000 0.520496
#
#
# Mechanical properties :
#
#
# Convention : Reuss Voigt Hill
#
# Bulk Modulus (GPa) = 14.03983 16.38516 15.21249
# Shear Modulus (GPa) = 7.66354 32.02655 19.84505
#
# Velocity S-wave (km/s) = 1.90491 3.89416 3.06539
# Velocity P-wave (km/s) = 3.38911 5.28940 4.44206
#
# Compressibility (1/GPa) = 0.07122595
#
# Stress axis : x y z
#
# Youngs Moduli (GPa) = 46.77374 38.29972 44.59310
#
# Poissons Ratio (x) = -0.02673 0.33490
# Poissons Ratio (y) = -0.03264 -0.33303
# Poissons Ratio (z) = 0.35128 -0.28603
#
# Static dielectric constant tensor:
#      x y z
#    x 1.762560 0.000000 0.000000 
#    y 0.000000 1.818580 0.000000 
#    z 0.000000 0.000000 1.730180 
# 
# From -- ./inp_files/33861.got.cif
#   From: 2010.05.17/outbox.cif.g08.bks.cpg/sg51_17_cif.got.tgz:33861.got - 2010.06.03 11:52:47.
