data_PCOD9403801
_publ_section_title
;
Structure prediction by ZEFSAII (Michael W. Deem and Ramdas Pophale) SiO2 
 PCOD9403801
Probable space group: P M M A
;
_chemical_formula_sum "Si O2"
_cell_formula_units_Z 40
_cell_length_a 14.573838
_cell_length_b 14.220500
_cell_length_c 9.514715
_cell_angle_alpha 90.000000
_cell_angle_beta 90.000000
_cell_angle_gamma 90.000000
_cell_volume 1971.898645
_symmetry_space_group_name_H-M "P M M A"
_symmetry_group_IT_number 51
_symmetry_cell_setting 'orthorhombic'
loop_
_space_group_symop_operation_xyz
x,y,z
1/2-x,-y,z
1/2+x,-y,-z
-x,y,-z
-x,-y,-z
1/2+x,y,-z
1/2-x,y,z
x,-y,z
loop_
_atom_site_type_symbol
_atom_site_label
_atom_site_fract_x
_atom_site_fract_y
_atom_site_fract_z
Si Si1 0.351060 0.173369 0.272757
Si Si2 0.895971 0.713116 0.472224
Si Si3 0.946552 0.104946 0.296401
Si Si4 0.644115 0.603591 0.202237
Si Si5 0.641676 0.210017 0.056084
O O1 0.250000 0.127850 0.287259
O O2 0.352570 0.262367 0.378376
O O3 0.443331 0.115957 0.308220
O O4 0.362618 0.202581 0.110729
O O5 0.900707 0.813574 0.390435
O O6 0.855691 0.638753 0.363654
O O7 0.000000 0.683659 0.500000
O O8 0.913816 0.129988 0.138773
O O9 0.919231 0.000000 0.336022
O O10 0.750000 0.597029 0.156747
O O11 0.601994 0.500000 0.188110
O O12 0.604036 0.689944 0.112683
O O13 0.750000 0.202056 0.096082
#
# Coordination Sequence:
#
# PCOD9403801 Si02
#       5
#     8   8   8   8   8
#     4  10  20  34  53  77 107 139 171 215 265 305
#     4   9  19  34  53  74 102 135 171 214 259 309
#     4  10  21  37  55  75 103 141 180 214 254 310
#     4   9  17  32  54  76 100 134 173 210 253 309
#     4   9  19  35  54  77 106 139 175 215 259 307
#
# _framework density 20.285018999999998
#
# number of rings (size 3 to 8) (size 9 to 14) (size 15 to 20)
#    0.000    2.600    0.000    1.200    0.000    7.200 
#    0.000    3.000    0.000   19.200    0.000    0.000 
#    0.000    0.000    0.000    0.000    0.000    0.000 
#
# Total GULP energy -222926.697783 kJ/mol
# GULP energy per Si atom -5573.167445 kJ/mol
# Density = 2.023885 g / cm^3
# Si number density = 20.285019 Si / 1000 Ang^3
#
#
#
# Elastic Constant Matrix: (Units=GPa)
#
#
# Indices 1 2 3 4 5 6 
#
# 1 54.5814 3.0084 1.1487 0.0000 0.0000 0.0000
# 2 3.0084 72.5166 -18.4221 0.0000 0.0000 0.0000
# 3 1.1487 -18.4221 63.7145 0.0000 0.0000 0.0000
# 4 0.0000 0.0000 0.0000 2.5973 0.0000 0.0000
# 5 0.0000 0.0000 0.0000 0.0000 15.8441 0.0000
# 6 0.0000 0.0000 0.0000 0.0000 0.0000 8.3059
#
#
#
# Elastic Compliance Matrix: (Units=1/GPa)
#
#
# Indices 1 2 3 4 5 6 
#
# 1 0.018384 -0.000914 -0.000596 0.000000 0.000000 0.000000
# 2 -0.000914 0.014929 0.004333 0.000000 0.000000 0.000000
# 3 -0.000596 0.004333 0.016959 0.000000 0.000000 0.000000
# 4 0.000000 0.000000 0.000000 0.385010 0.000000 0.000000
# 5 0.000000 0.000000 0.000000 0.000000 0.063115 0.000000
# 6 0.000000 0.000000 0.000000 0.000000 0.000000 0.120396
#
#
# Mechanical properties :
#
#
# Convention : Reuss Voigt Hill
#
# Bulk Modulus (GPa) = 17.88350 18.03141 17.95745
# Shear Modulus (GPa) = 7.91409 19.02131 13.46770
#
# Velocity S-wave (km/s) = 1.97735 3.06551 2.57947
# Velocity P-wave (km/s) = 3.74813 4.63014 4.21228
#
# Compressibility (1/GPa) = 0.05591747
#
# Stress axis : x y z
#
# Youngs Moduli (GPa) = 54.39465 66.98562 58.96732
#
# Poissons Ratio (x) = 0.06123 0.03513
# Poissons Ratio (y) = 0.04972 -0.25550
# Poissons Ratio (z) = 0.03240 -0.29024
#
# Static dielectric constant tensor:
#      x y z
#    x 1.767040 0.000000 0.000000 
#    y 0.000000 1.729390 0.000000 
#    z 0.000000 0.000000 1.748290 
# 
# From -- ./inp_files/7956.got.cif
#   From: 2010.05.17/outbox.cif.g08.bks.cpg/sg51_4_cif.got.tgz:7956.got - 2010.06.03 11:52:47.
