data_PCOD9403022
_publ_section_title
;
Structure prediction by ZEFSAII (Michael W. Deem and Ramdas Pophale) SiO2 
 PCOD9403022
Probable space group: P M M A
;
_chemical_formula_sum "Si O2"
_cell_formula_units_Z 48
_cell_length_a 8.746068
_cell_length_b 19.353542
_cell_length_c 20.160568
_cell_angle_alpha 90.000000
_cell_angle_beta 90.000000
_cell_angle_gamma 90.000000
_cell_volume 3412.526814
_symmetry_space_group_name_H-M "P M M A"
_symmetry_group_IT_number 51
_symmetry_cell_setting 'orthorhombic'
loop_
_space_group_symop_operation_xyz
x,y,z
1/2-x,-y,z
1/2+x,-y,-z
-x,y,-z
-x,-y,-z
1/2+x,y,-z
1/2-x,y,z
x,-y,z
loop_
_atom_site_type_symbol
_atom_site_label
_atom_site_fract_x
_atom_site_fract_y
_atom_site_fract_z
Si Si1 0.922533 0.081663 0.934144
Si Si2 0.932927 0.280289 0.924529
Si Si3 0.928674 0.836946 0.171555
Si Si4 0.924471 0.916398 0.431769
Si Si5 0.432481 0.080735 0.290133
Si Si6 0.433479 0.575615 0.925529
O O1 0.750000 0.108713 0.923516
O O2 0.034574 0.097233 0.874450
O O3 0.908961 0.000000 0.942119
O O4 0.000000 0.111164 0.000000
O O5 0.750000 0.279475 0.929622
O O6 0.991129 0.223431 0.871743
O O7 0.990768 0.354981 0.898255
O O8 0.000000 0.271299 0.000000
O O9 0.750000 0.822339 0.176902
O O10 0.996472 0.862064 0.241417
O O11 0.750000 0.892038 0.425080
O O12 0.000000 0.890959 0.500000
O O13 0.019684 0.902257 0.365429
O O14 0.919510 0.000000 0.436559
O O15 0.250000 0.081582 0.282436
O O16 0.482166 0.000000 0.276835
O O17 0.250000 0.583768 0.928015
O O18 0.466831 0.500000 0.894644
O O19 0.500000 0.572419 0.000000
#
# Coordination Sequence:
#
# PCOD9403022 Si02
#       6
#     8   8   8   8   8   8
#     4  10  20  33  46  58  72  93 126 168 211 251
#     4  11  21  33  47  62  82 107 138 173 210 251
#     4  12  23  33  44  58  79 105 135 170 209 251
#     4   9  16  27  44  65  86 107 132 164 203 245
#     4  10  20  33  47  63  83 107 137 173 212 253
#     4   9  16  27  44  65  86 105 128 161 201 244
#
# _framework density 14.065823999999999
#
# number of rings (size 3 to 8) (size 9 to 14) (size 15 to 20)
#    0.000    1.833    0.000    7.000    0.000    7.000 
#    0.000    0.000    0.000    0.000    0.000    0.000 
#    0.000    0.000    0.000    0.000    0.000    0.833 
#
# Total GULP energy -267387.990122 kJ/mol
# GULP energy per Si atom -5570.583128 kJ/mol
# Density = 1.403381 g / cm^3
# Si number density = 14.065824 Si / 1000 Ang^3
#
#
#
# Elastic Constant Matrix: (Units=GPa)
#
#
# Indices 1 2 3 4 5 6 
#
# 1 101.0323 40.8244 32.9252 0.0000 0.0000 0.0000
# 2 40.8244 78.1385 30.0355 0.0000 0.0000 0.0000
# 3 32.9252 30.0355 79.3157 0.0000 0.0000 0.0000
# 4 0.0000 0.0000 0.0000 3.0642 0.0000 0.0000
# 5 0.0000 0.0000 0.0000 0.0000 21.4851 0.0000
# 6 0.0000 0.0000 0.0000 0.0000 0.0000 14.7942
#
#
#
# Elastic Compliance Matrix: (Units=1/GPa)
#
#
# Indices 1 2 3 4 5 6 
#
# 1 0.013276 -0.005639 -0.003376 0.000000 0.000000 0.000000
# 2 -0.005639 0.017373 -0.004238 0.000000 0.000000 0.000000
# 3 -0.003376 -0.004238 0.015614 0.000000 0.000000 0.000000
# 4 0.000000 0.000000 0.000000 0.326351 0.000000 0.000000
# 5 0.000000 0.000000 0.000000 0.000000 0.046544 0.000000
# 6 0.000000 0.000000 0.000000 0.000000 0.000000 0.067594
#
#
# Mechanical properties :
#
#
# Convention : Reuss Voigt Hill
#
# Bulk Modulus (GPa) = 50.61271 51.78409 51.19840
# Shear Modulus (GPa) = 9.61826 18.18213 13.90020
#
# Velocity S-wave (km/s) = 2.61780 3.59924 3.14701
# Velocity P-wave (km/s) = 6.72295 7.35990 7.04862
#
# Compressibility (1/GPa) = 0.01975788
#
# Stress axis : x y z
#
# Youngs Moduli (GPa) = 75.32106 57.56092 64.04451
#
# Poissons Ratio (x) = 0.32457 0.21621
# Poissons Ratio (y) = 0.42472 0.27142
# Poissons Ratio (z) = 0.25428 0.24395
#
# Static dielectric constant tensor:
#      x y z
#    x 1.488450 0.000000 0.000000 
#    y 0.000000 1.503840 0.000000 
#    z 0.000000 0.000000 1.437570 
# 
# From -- ./inp_files/28092.got.cif
#   From: 2010.05.17/outbox.cif.g08.bks.cpg/sg51_15_cif.got.tgz:28092.got - 2010.06.03 11:52:47.
