data_PCOD9403312
_publ_section_title
;
Structure prediction by ZEFSAII (Michael W. Deem and Ramdas Pophale) SiO2 
 PCOD9403312
Probable space group: P M M A
;
_chemical_formula_sum "Si O2"
_cell_formula_units_Z 56
_cell_length_a 14.545993
_cell_length_b 9.118411
_cell_length_c 21.534194
_cell_angle_alpha 90.000000
_cell_angle_beta 90.000000
_cell_angle_gamma 90.000000
_cell_volume 2856.216733
_symmetry_space_group_name_H-M "P M M A"
_symmetry_group_IT_number 51
_symmetry_cell_setting 'orthorhombic'
loop_
_space_group_symop_operation_xyz
x,y,z
1/2-x,-y,z
1/2+x,-y,-z
-x,y,-z
-x,-y,-z
1/2+x,y,-z
1/2-x,y,z
x,-y,z
loop_
_atom_site_type_symbol
_atom_site_label
_atom_site_fract_x
_atom_site_fract_y
_atom_site_fract_z
Si Si1 0.600892 0.165635 0.029726
Si Si2 0.855742 0.174725 0.788886
Si Si3 0.139202 0.673046 0.842197
Si Si4 0.459475 0.824247 0.725806
Si Si5 0.539842 0.677185 0.403281
Si Si6 0.644147 0.339789 0.910586
Si Si7 0.645778 0.677751 0.529051
O O1 0.604903 0.248026 0.094984
O O2 0.637109 0.000000 0.036159
O O3 0.500000 0.155218 0.000000
O O4 0.647486 0.260713 0.976319
O O5 0.750000 0.218319 0.774096
O O6 0.891872 0.244767 0.853348
O O7 0.932221 0.209565 0.737890
O O8 0.854742 0.000000 0.798111
O O9 0.250000 0.686001 0.841200
O O10 0.116131 0.500000 0.842770
O O11 0.096453 0.751173 0.782096
O O12 0.433045 0.755513 0.660061
O O13 0.447752 0.000000 0.726828
O O14 0.540932 0.500000 0.395891
O O15 0.608102 0.714069 0.460199
O O16 0.436253 0.722196 0.424328
O O17 0.750000 0.357821 0.892773
O O18 0.599618 0.500000 0.915490
O O19 0.750000 0.731109 0.540336
O O20 0.648265 0.500000 0.531891
#
# Coordination Sequence:
#
# PCOD9403312 Si02
#       7
#     8   8   8   8   8   8   8
#     4  11  23  37  55  80 108 139 177 224 283 345
#     4   9  19  36  55  76 107 148 190 231 282 345
#     4  11  25  43  61  82 110 148 196 245 288 333
#     4  11  23  38  57  82 115 153 190 231 281 337
#     4   9  18  33  55  83 112 145 187 230 272 324
#     4  10  20  33  51  76 102 129 169 222 275 326
#     4   8  15  31  56  84 113 145 183 228 275 323
#
# _framework density 19.606355000000001
#
# number of rings (size 3 to 8) (size 9 to 14) (size 15 to 20)
#    0.000    2.143    0.000    3.857    0.000   10.571 
#    0.000    2.857    0.000    0.857    0.000    0.000 
#    0.000    0.000    0.000    0.000    0.000    0.000 
#
# Total GULP energy -312312.883505 kJ/mol
# GULP energy per Si atom -5577.015777 kJ/mol
# Density = 1.956173 g / cm^3
# Si number density = 19.606355 Si / 1000 Ang^3
#
#
#
# Elastic Constant Matrix: (Units=GPa)
#
#
# Indices 1 2 3 4 5 6 
#
# 1 68.5111 15.6686 1.3701 0.0000 0.0000 0.0000
# 2 15.6686 55.1399 26.9706 0.0000 0.0000 0.0000
# 3 1.3701 26.9706 93.2920 0.0000 0.0000 0.0000
# 4 0.0000 0.0000 0.0000 35.6110 0.0000 0.0000
# 5 0.0000 0.0000 0.0000 0.0000 15.8339 0.0000
# 6 0.0000 0.0000 0.0000 0.0000 0.0000 27.0180
#
#
#
# Elastic Compliance Matrix: (Units=1/GPa)
#
#
# Indices 1 2 3 4 5 6 
#
# 1 0.015732 -0.005075 0.001236 0.000000 0.000000 0.000000
# 2 -0.005075 0.022760 -0.006505 0.000000 0.000000 0.000000
# 3 0.001236 -0.006505 0.012582 0.000000 0.000000 0.000000
# 4 0.000000 0.000000 0.000000 0.028081 0.000000 0.000000
# 5 0.000000 0.000000 0.000000 0.000000 0.063156 0.000000
# 6 0.000000 0.000000 0.000000 0.000000 0.000000 0.037012
#
#
# Mechanical properties :
#
#
# Convention : Reuss Voigt Hill
#
# Bulk Modulus (GPa) = 32.91097 33.88462 33.39780
# Shear Modulus (GPa) = 23.79375 27.22152 25.50764
#
# Velocity S-wave (km/s) = 3.48742 3.73017 3.61083
# Velocity P-wave (km/s) = 5.74791 5.98934 5.86987
#
# Compressibility (1/GPa) = 0.03038500
#
# Stress axis : x y z
#
# Youngs Moduli (GPa) = 63.56416 43.93723 79.48151
#
# Poissons Ratio (x) = 0.22299 -0.09825
# Poissons Ratio (y) = 0.32259 0.51705
# Poissons Ratio (z) = -0.07858 0.28582
#
# Static dielectric constant tensor:
#      x y z
#    x 1.704860 0.000000 0.000000 
#    y 0.000000 1.698710 0.000000 
#    z 0.000000 0.000000 1.636890 
# 
# From -- ./inp_files/33431.got.cif
#   From: 2010.05.17/outbox.cif.g08.bks.cpg/sg51_17_cif.got.tgz:33431.got - 2010.06.03 11:52:47.
