data_PCOD9403046
_publ_section_title
;
Structure prediction by ZEFSAII (Michael W. Deem and Ramdas Pophale) SiO2 
 PCOD9403046
Probable space group: P M M A
;
_chemical_formula_sum "Si O2"
_cell_formula_units_Z 64
_cell_length_a 9.414420
_cell_length_b 17.823306
_cell_length_c 21.459546
_cell_angle_alpha 90.000000
_cell_angle_beta 90.000000
_cell_angle_gamma 90.000000
_cell_volume 3600.827879
_symmetry_space_group_name_H-M "P M M A"
_symmetry_group_IT_number 51
_symmetry_cell_setting 'orthorhombic'
loop_
_space_group_symop_operation_xyz
x,y,z
1/2-x,-y,z
1/2+x,-y,-z
-x,y,-z
-x,-y,-z
1/2+x,y,-z
1/2-x,y,z
x,-y,z
loop_
_atom_site_type_symbol
_atom_site_label
_atom_site_fract_x
_atom_site_fract_y
_atom_site_fract_z
Si Si1 0.418909 0.627570 0.219957
Si Si2 0.915455 0.418224 0.335993
Si Si3 0.416485 0.751959 0.939893
Si Si4 0.578074 0.217206 0.202137
Si Si5 0.918950 0.877207 0.436692
Si Si6 0.422342 0.916708 0.703572
Si Si7 0.915424 0.417312 0.100462
Si Si8 0.583571 0.698520 0.439707
O O1 0.250000 0.633300 0.219452
O O2 0.480618 0.583399 0.278146
O O3 0.494223 0.708980 0.223134
O O4 0.478154 0.588591 0.157992
O O5 0.750000 0.407461 0.316289
O O6 0.922510 0.500000 0.367345
O O7 0.956756 0.350453 0.380659
O O8 0.250000 0.764339 0.949407
O O9 0.453465 0.787667 0.872314
O O10 0.438314 0.661274 0.935046
O O11 0.500000 0.780222 0.000000
O O12 0.750000 0.228193 0.207343
O O13 0.537078 0.148021 0.247177
O O14 0.750000 0.893076 0.443662
O O15 0.967628 0.906958 0.368928
O O16 0.938405 0.787240 0.431247
O O17 0.000000 0.901705 0.500000
O O18 0.250000 0.913673 0.701330
O O19 0.464782 0.000000 0.724750
O O20 0.750000 0.413528 0.121969
O O21 0.932057 0.500000 0.070231
O O22 0.500000 0.673358 0.500000
O O23 0.750000 0.686822 0.449797
#
# Coordination Sequence:
#
# PCOD9403046 Si02
#       8
#     8   8   8   8   8   8   8   8
#     4  11  21  31  47  72  98 125 163 208 249 292
#     4  10  20  33  48  65  89 125 165 205 255 309
#     4   9  18  31  49  73  99 131 170 210 252 298
#     4   9  18  35  56  75  99 132 168 206 249 299
#     4   9  17  30  49  73 102 133 164 199 239 287
#     4   9  17  31  55  83 104 127 166 210 243 280
#     4   9  18  33  50  68  96 134 170 204 248 300
#     4   9  18  32  48  65  87 120 161 202 244 292
#
# _framework density 17.773689999999998
#
# number of rings (size 3 to 8) (size 9 to 14) (size 15 to 20)
#    0.000    2.625    0.000    3.000    0.000    7.250 
#    0.000    3.125    0.000    1.500    0.000    0.000 
#    0.000    0.000    0.000    0.000    0.000    0.250 
#
# Total GULP energy -356467.849980 kJ/mol
# GULP energy per Si atom -5569.810156 kJ/mol
# Density = 1.773324 g / cm^3
# Si number density = 17.773690 Si / 1000 Ang^3
#
#
#
# Elastic Constant Matrix: (Units=GPa)
#
#
# Indices 1 2 3 4 5 6 
#
# 1 34.6551 27.1665 42.7785 0.0000 0.0000 0.0000
# 2 27.1665 71.4399 50.5860 0.0000 0.0000 0.0000
# 3 42.7785 50.5860 101.5033 0.0000 0.0000 0.0000
# 4 0.0000 0.0000 0.0000 -8.8034 0.0000 0.0000
# 5 0.0000 0.0000 0.0000 0.0000 29.5074 0.0000
# 6 0.0000 0.0000 0.0000 0.0000 0.0000 7.6017
#
#
#
# Elastic Compliance Matrix: (Units=1/GPa)
#
#
# Indices 1 2 3 4 5 6 
#
# 1 0.062946 -0.007961 -0.022561 0.000000 0.000000 0.000000
# 2 -0.007961 0.022638 -0.007927 0.000000 0.000000 0.000000
# 3 -0.022561 -0.007927 0.023311 0.000000 0.000000 0.000000
# 4 0.000000 0.000000 0.000000 -0.113593 0.000000 0.000000
# 5 0.000000 0.000000 0.000000 0.000000 0.033890 0.000000
# 6 0.000000 0.000000 0.000000 0.000000 0.000000 0.131549
#
#
# Mechanical properties :
#
#
# Convention : Reuss Voigt Hill
#
# Bulk Modulus (GPa) = 31.25320 49.85115 40.55218
# Shear Modulus (GPa) = 20.13651 11.46562 15.80107
#
# Velocity S-wave (km/s) = 3.36957 2.54262 2.98487
# Velocity P-wave (km/s) = 5.72370 6.06040 5.89446
#
# Compressibility (1/GPa) = 0.03199672
#
# Stress axis : x y z
#
# Youngs Moduli (GPa) = 15.88661 44.17315 42.89878
#
# Poissons Ratio (x) = 0.35168 0.96784
# Poissons Ratio (y) = 0.12648 0.34005
# Poissons Ratio (z) = 0.35842 0.35015
#
# Static dielectric constant tensor:
#      x y z
#    x 1.586790 0.000000 0.000000 
#    y 0.000000 1.633150 0.000000 
#    z 0.000000 0.000000 1.669120 
# 
# From -- ./inp_files/32328.got.cif
#   From: 2010.05.17/outbox.cif.g08.bks.cpg/sg51_17_cif.got.tgz:32328.got - 2010.06.03 11:52:47.
