data_PCOD9403197
_publ_section_title
;
Structure prediction by ZEFSAII (Michael W. Deem and Ramdas Pophale) SiO2 
 PCOD9403197
Probable space group: P M M A
;
_chemical_formula_sum "Si O2"
_cell_formula_units_Z 40
_cell_length_a 15.377652
_cell_length_b 15.360953
_cell_length_c 7.441411
_cell_angle_alpha 90.000000
_cell_angle_beta 90.000000
_cell_angle_gamma 90.000000
_cell_volume 1757.775799
_symmetry_space_group_name_H-M "P M M A"
_symmetry_group_IT_number 51
_symmetry_cell_setting 'orthorhombic'
loop_
_space_group_symop_operation_xyz
x,y,z
1/2-x,-y,z
1/2+x,-y,-z
-x,y,-z
-x,-y,-z
1/2+x,y,-z
1/2-x,y,z
x,-y,z
loop_
_atom_site_type_symbol
_atom_site_label
_atom_site_fract_x
_atom_site_fract_y
_atom_site_fract_z
Si Si1 0.403558 0.403653 0.913862
Si Si2 0.848028 0.778026 0.653129
Si Si3 0.505283 0.899303 0.721312
Si Si4 0.651424 0.592210 0.692728
Si Si5 0.652328 0.782206 0.230751
O O1 0.397828 0.500000 0.824670
O O2 0.376820 0.317714 0.805831
O O3 0.500000 0.395175 0.000000
O O4 0.344714 0.407371 0.091806
O O5 0.750000 0.771381 0.726989
O O6 0.893108 0.683075 0.651289
O O7 0.840223 0.798567 0.443963
O O8 0.906395 0.846491 0.756304
O O9 0.500000 0.896194 0.500000
O O10 0.425509 0.848497 0.814164
O O11 0.507540 0.000000 0.771848
O O12 0.750000 0.595057 0.617813
O O13 0.610796 0.500000 0.638518
O O14 0.750000 0.795551 0.155685
#
# Coordination Sequence:
#
# PCOD9403197 Si02
#       5
#     8   8   8   8   8
#     4  10  20  33  50  73 102 138 177 214 257 312
#     4   9  18  32  52  79 107 137 176 219 264 315
#     4   9  18  33  52  74 102 134 169 215 268 316
#     4   9  17  30  48  70  99 135 169 201 246 307
#     4  10  20  33  52  79 107 136 175 222 266 310
#
# _framework density 22.756032000000001
#
# number of rings (size 3 to 8) (size 9 to 14) (size 15 to 20)
#    0.000    2.600    0.000    1.800    0.000    2.800 
#    0.000    6.000    0.000   12.600    0.000    5.600 
#    0.000    0.000    0.000    0.000    0.000    0.000 
#
# Total GULP energy -222929.926496 kJ/mol
# GULP energy per Si atom -5573.248162 kJ/mol
# Density = 2.270424 g / cm^3
# Si number density = 22.756032 Si / 1000 Ang^3
#
#
#
# Elastic Constant Matrix: (Units=GPa)
#
#
# Indices 1 2 3 4 5 6 
#
# 1 124.2501 76.0492 -3.3179 0.0000 0.0000 0.0000
# 2 76.0492 179.6269 -11.7196 0.0000 0.0000 0.0000
# 3 -3.3179 -11.7196 45.6705 0.0000 0.0000 0.0000
# 4 0.0000 0.0000 0.0000 39.1780 0.0000 0.0000
# 5 0.0000 0.0000 0.0000 0.0000 9.6713 0.0000
# 6 0.0000 0.0000 0.0000 0.0000 0.0000 4.5856
#
#
#
# Elastic Compliance Matrix: (Units=1/GPa)
#
#
# Indices 1 2 3 4 5 6 
#
# 1 0.010870 -0.004628 -0.000398 0.000000 0.000000 0.000000
# 2 -0.004628 0.007632 0.001622 0.000000 0.000000 0.000000
# 3 -0.000398 0.001622 0.022283 0.000000 0.000000 0.000000
# 4 0.000000 0.000000 0.000000 0.025525 0.000000 0.000000
# 5 0.000000 0.000000 0.000000 0.000000 0.103398 0.000000
# 6 0.000000 0.000000 0.000000 0.000000 0.000000 0.218075
#
#
# Mechanical properties :
#
#
# Convention : Reuss Voigt Hill
#
# Bulk Modulus (GPa) = 29.43032 52.39679 40.91356
# Shear Modulus (GPa) = 12.31777 29.92270 21.12023
#
# Velocity S-wave (km/s) = 2.32910 3.63014 3.04980
# Velocity P-wave (km/s) = 4.49377 6.37542 5.51543
#
# Compressibility (1/GPa) = 0.03397856
#
# Stress axis : x y z
#
# Youngs Moduli (GPa) = 91.99274 131.02040 44.87651
#
# Poissons Ratio (x) = 0.60639 0.01786
# Poissons Ratio (y) = 0.42576 -0.07280
# Poissons Ratio (z) = 0.03661 -0.21256
#
# Static dielectric constant tensor:
#      x y z
#    x 1.908380 0.000000 0.000000 
#    y 0.000000 1.855470 0.000000 
#    z 0.000000 0.000000 1.878670 
# 
# From -- ./inp_files/7954.got.cif
#   From: 2010.05.17/outbox.cif.g08.bks.cpg/sg51_4_cif.got.tgz:7954.got - 2010.06.03 11:52:47.
