data_PCOD9403911
_publ_section_title
;
Structure prediction by ZEFSAII (Michael W. Deem and Ramdas Pophale) SiO2 
 PCOD9403911
Probable space group: P M M A
;
_chemical_formula_sum "Si O2"
_cell_formula_units_Z 36
_cell_length_a 8.974447
_cell_length_b 16.078809
_cell_length_c 13.681254
_cell_angle_alpha 90.000000
_cell_angle_beta 90.000000
_cell_angle_gamma 90.000000
_cell_volume 1974.183325
_symmetry_space_group_name_H-M "P M M A"
_symmetry_group_IT_number 51
_symmetry_cell_setting 'orthorhombic'
loop_
_space_group_symop_operation_xyz
x,y,z
1/2-x,-y,z
1/2+x,-y,-z
-x,y,-z
-x,-y,-z
1/2+x,y,-z
1/2-x,y,z
x,-y,z
loop_
_atom_site_type_symbol
_atom_site_label
_atom_site_fract_x
_atom_site_fract_y
_atom_site_fract_z
Si Si1 0.573713 0.500000 0.893550
Si Si2 0.427860 0.159980 0.895953
Si Si3 0.925978 0.660569 0.196306
Si Si4 0.427753 0.094832 0.300099
Si Si5 0.572232 0.748555 0.399413
O O1 0.750000 0.500000 0.903570
O O2 0.519576 0.417586 0.837970
O O3 0.500000 0.500000 0.000000
O O4 0.250000 0.145942 0.896458
O O5 0.453210 0.257499 0.869765
O O6 0.503296 0.110016 0.807408
O O7 0.500000 0.140106 0.000000
O O8 0.750000 0.640924 0.189188
O O9 0.958671 0.688754 0.307227
O O10 0.250000 0.108540 0.296720
O O11 0.503132 0.162369 0.370242
O O12 0.455890 0.000000 0.330615
O O13 0.500000 0.719297 0.500000
O O14 0.750000 0.756210 0.408637
#
# Coordination Sequence:
#
# PCOD9403911 Si02
#       5
#     4   8   8   8   8
#     4  12  24  36  57  86 115 148 181 218 264 314
#     4  10  20  34  54  78 106 144 184 224 273 326
#     4   9  20  38  57  80 110 142 179 223 268 316
#     4  10  21  36  54  78 108 142 182 228 274 322
#     4  10  21  38  61  84 108 142 180 223 274 324
#
# _framework density 18.235389000000001
#
# number of rings (size 3 to 8) (size 9 to 14) (size 15 to 20)
#    0.000    2.000    0.000    5.000    0.000    9.778 
#    0.000    0.556    0.000    0.000    0.000    0.000 
#    0.000    0.000    0.000    0.000    0.000    0.000 
#
# Total GULP energy -201128.368565 kJ/mol
# GULP energy per Si atom -5586.899127 kJ/mol
# Density = 1.819388 g / cm^3
# Si number density = 18.235389 Si / 1000 Ang^3
#
#
#
# Elastic Constant Matrix: (Units=GPa)
#
#
# Indices 1 2 3 4 5 6 
#
# 1 92.5216 63.4304 41.8474 0.0000 0.0000 0.0000
# 2 63.4304 81.5594 18.2568 0.0000 0.0000 0.0000
# 3 41.8474 18.2568 85.0805 0.0000 0.0000 0.0000
# 4 0.0000 0.0000 0.0000 2.3224 0.0000 0.0000
# 5 0.0000 0.0000 0.0000 0.0000 36.8104 0.0000
# 6 0.0000 0.0000 0.0000 0.0000 0.0000 31.0701
#
#
#
# Elastic Compliance Matrix: (Units=1/GPa)
#
#
# Indices 1 2 3 4 5 6 
#
# 1 0.029628 -0.020778 -0.010114 0.000000 0.000000 0.000000
# 2 -0.020778 0.027451 0.004329 0.000000 0.000000 0.000000
# 3 -0.010114 0.004329 0.015799 0.000000 0.000000 0.000000
# 4 0.000000 0.000000 0.000000 0.430589 0.000000 0.000000
# 5 0.000000 0.000000 0.000000 0.000000 0.027166 0.000000
# 6 0.000000 0.000000 0.000000 0.000000 0.000000 0.032185
#
#
# Mechanical properties :
#
#
# Convention : Reuss Voigt Hill
#
# Bulk Modulus (GPa) = 50.62587 56.24786 53.43686
# Shear Modulus (GPa) = 8.03176 23.08239 15.55707
#
# Velocity S-wave (km/s) = 2.10096 3.56167 2.92400
# Velocity P-wave (km/s) = 5.80587 6.91566 6.38492
#
# Compressibility (1/GPa) = 0.01975275
#
# Stress axis : x y z
#
# Youngs Moduli (GPa) = 33.75212 36.42793 63.29416
#
# Poissons Ratio (x) = 0.75690 0.64016
# Poissons Ratio (y) = 0.70131 -0.27402
# Poissons Ratio (z) = 0.34137 -0.15771
#
# Static dielectric constant tensor:
#      x y z
#    x 1.602550 0.000000 0.000000 
#    y 0.000000 1.610390 0.000000 
#    z 0.000000 0.000000 1.611730 
# 
# From -- ./inp_files/20316.got.cif
#   From: 2010.05.17/outbox.cif.g08.bks.cpg/sg51_11_cif.got.tgz:20316.got - 2010.06.03 11:52:47.
