data_PCOD9403611
_publ_section_title
;
Structure prediction by ZEFSAII (Michael W. Deem and Ramdas Pophale) SiO2 
 PCOD9403611
Probable space group: P M M A
;
_chemical_formula_sum "Si O2"
_cell_formula_units_Z 48
_cell_length_a 8.807356
_cell_length_b 14.696725
_cell_length_c 21.052431
_cell_angle_alpha 90.000000
_cell_angle_beta 90.000000
_cell_angle_gamma 90.000000
_cell_volume 2725.011703
_symmetry_space_group_name_H-M "P M M A"
_symmetry_group_IT_number 51
_symmetry_cell_setting 'orthorhombic'
loop_
_space_group_symop_operation_xyz
x,y,z
1/2-x,-y,z
1/2+x,-y,-z
-x,y,-z
-x,-y,-z
1/2+x,y,-z
1/2-x,y,z
x,-y,z
loop_
_atom_site_type_symbol
_atom_site_label
_atom_site_fract_x
_atom_site_fract_y
_atom_site_fract_z
Si Si1 0.433025 0.207077 0.065848
Si Si2 0.068374 0.893985 0.430980
Si Si3 0.932211 0.396335 0.734765
Si Si4 0.432319 0.107160 0.196076
Si Si5 0.565702 0.399544 0.884338
Si Si6 0.069796 0.215585 0.685508
O O1 0.250000 0.207019 0.062124
O O2 0.475366 0.148905 0.127827
O O3 0.486853 0.311159 0.077804
O O4 0.500000 0.172340 0.000000
O O5 0.250000 0.886231 0.432985
O O6 0.000000 0.872546 0.500000
O O7 0.002388 0.830515 0.376360
O O8 0.030413 0.000000 0.416800
O O9 0.750000 0.384357 0.730204
O O10 0.968422 0.500000 0.715935
O O11 0.971491 0.387155 0.809721
O O12 0.014145 0.318734 0.695370
O O13 0.250000 0.119716 0.203241
O O14 0.512392 0.160228 0.252868
O O15 0.464718 0.000000 0.198720
O O16 0.750000 0.400549 0.887630
O O17 0.511635 0.500000 0.904885
O O18 0.250000 0.211571 0.681552
#
# Coordination Sequence:
#
# PCOD9403611 Si02
#       6
#     8   8   8   8   8   8
#     4  10  20  34  51  72 101 135 176 223 278 338
#     4  10  21  38  60  86 118 154 191 229 270 321
#     4   9  17  33  58  82 106 142 186 227 270 324
#     4  10  21  38  57  75  99 138 188 235 277 327
#     4   8  14  28  51  74  97 129 170 217 269 327
#     4  12  23  34  55  86 119 148 179 225 277 326
#
# _framework density 17.614604
#
# number of rings (size 3 to 8) (size 9 to 14) (size 15 to 20)
#    0.000    2.167    1.667    3.500    0.000    5.000 
#    0.000    0.000    0.000    0.500    0.000    0.000 
#    0.000    0.000    0.000    0.000    0.000    0.000 
#
# Total GULP energy -267945.356488 kJ/mol
# GULP energy per Si atom -5582.194927 kJ/mol
# Density = 1.757451 g / cm^3
# Si number density = 17.614604 Si / 1000 Ang^3
#
#
#
# Elastic Constant Matrix: (Units=GPa)
#
#
# Indices 1 2 3 4 5 6 
#
# 1 41.4037 47.8149 46.2842 0.0000 0.0000 0.0000
# 2 47.8149 100.7366 68.6000 0.0000 0.0000 0.0000
# 3 46.2842 68.6000 118.1256 0.0000 0.0000 0.0000
# 4 0.0000 0.0000 0.0000 16.5495 0.0000 0.0000
# 5 0.0000 0.0000 0.0000 0.0000 27.5094 0.0000
# 6 0.0000 0.0000 0.0000 0.0000 0.0000 -48.9101
#
#
#
# Elastic Compliance Matrix: (Units=1/GPa)
#
#
# Indices 1 2 3 4 5 6 
#
# 1 0.062224 -0.021392 -0.011958 0.000000 0.000000 0.000000
# 2 -0.021392 0.023775 -0.005425 0.000000 0.000000 0.000000
# 3 -0.011958 -0.005425 0.016302 0.000000 0.000000 0.000000
# 4 0.000000 0.000000 0.000000 0.060425 0.000000 0.000000
# 5 0.000000 0.000000 0.000000 0.000000 0.036351 0.000000
# 6 0.000000 0.000000 0.000000 0.000000 0.000000 -0.020446
#
#
# Mechanical properties :
#
#
# Convention : Reuss Voigt Hill
#
# Bulk Modulus (GPa) = 40.40251 65.07378 52.73814
# Shear Modulus (GPa) = 18.90857 5.53421 12.22139
#
# Velocity S-wave (km/s) = 3.27992 1.77444 2.63691
# Velocity P-wave (km/s) = 6.10988 6.42040 6.26706
#
# Compressibility (1/GPa) = 0.02475094
#
# Stress axis : x y z
#
# Youngs Moduli (GPa) = 16.07105 42.06081 61.34398
#
# Poissons Ratio (x) = 0.89975 0.73353
# Poissons Ratio (y) = 0.34379 0.33281
# Poissons Ratio (z) = 0.19217 0.22819
#
# Static dielectric constant tensor:
#      x y z
#    x 1.586600 0.000000 0.000000 
#    y 0.000000 1.611190 0.000000 
#    z 0.000000 0.000000 1.570800 
# 
# From -- ./inp_files/27537.got.cif
#   From: 2010.05.17/outbox.cif.g08.bks.cpg/sg51_14_cif.got.tgz:27537.got - 2010.06.03 11:52:47.
