data_PCOD9403643
_publ_section_title
;
Structure prediction by ZEFSAII (Michael W. Deem and Ramdas Pophale) SiO2 
 PCOD9403643
Probable space group: P M M A
;
_chemical_formula_sum "Si O2"
_cell_formula_units_Z 64
_cell_length_a 18.322631
_cell_length_b 9.288980
_cell_length_c 22.169351
_cell_angle_alpha 90.000000
_cell_angle_beta 90.000000
_cell_angle_gamma 90.000000
_cell_volume 3773.191459
_symmetry_space_group_name_H-M "P M M A"
_symmetry_group_IT_number 51
_symmetry_cell_setting 'orthorhombic'
loop_
_space_group_symop_operation_xyz
x,y,z
1/2-x,-y,z
1/2+x,-y,-z
-x,y,-z
-x,-y,-z
1/2+x,y,-z
1/2-x,y,z
x,-y,z
loop_
_atom_site_type_symbol
_atom_site_label
_atom_site_fract_x
_atom_site_fract_y
_atom_site_fract_z
Si Si1 0.661029 0.834981 0.379744
Si Si2 0.337539 0.667329 0.741275
Si Si3 0.333483 0.328391 0.124414
Si Si4 0.334104 0.324717 0.368277
Si Si5 0.450181 0.828842 0.813592
Si Si6 0.660960 0.666461 0.498272
Si Si7 0.033513 0.172198 0.063778
Si Si8 0.082995 0.327928 0.248010
O O1 0.750000 0.834852 0.380897
O O2 0.639674 0.741828 0.321657
O O3 0.636644 0.762314 0.442179
O O4 0.637111 0.000000 0.374175
O O5 0.250000 0.675904 0.745193
O O6 0.358641 0.500000 0.741510
O O7 0.375606 0.752362 0.795218
O O8 0.250000 0.281486 0.116130
O O9 0.337448 0.500000 0.113965
O O10 0.391353 0.249085 0.081899
O O11 0.359279 0.304787 0.193604
O O12 0.250000 0.277466 0.359963
O O13 0.332636 0.500000 0.369215
O O14 0.360752 0.281269 0.434955
O O15 0.383148 0.282345 0.311776
O O16 0.477223 0.799022 0.881539
O O17 0.511688 0.759937 0.770436
O O18 0.445599 0.000000 0.805439
O O19 0.750000 0.666394 0.498901
O O20 0.638456 0.500000 0.489812
O O21 0.045499 0.000000 0.061733
O O22 0.000000 0.218317 0.000000
O O23 0.067584 0.500000 0.249855
#
# Coordination Sequence:
#
# PCOD9403643 Si02
#       8
#     8   8   8   8   8   8   8   8
#     4   9  16  26  42  65  92 121 153 191 238 287
#     4  10  20  34  53  75  96 119 152 195 241 289
#     4   9  17  29  48  76 105 131 164 206 246 282
#     4   8  13  22  40  66  93 124 163 202 236 274
#     4  10  20  34  52  73  97 124 155 192 235 283
#     4   8  13  22  37  59  88 121 158 197 234 275
#     4   9  19  36  55  74  99 134 171 200 231 280
#     4   9  16  28  47  69  96 130 164 197 235 281
#
# _framework density 16.961769
#
# number of rings (size 3 to 8) (size 9 to 14) (size 15 to 20)
#    0.000    3.000    0.000    2.250    0.000    4.750 
#    0.000    1.250    0.000    6.375    0.000    5.250 
#    0.000    0.000    0.000    0.000    0.000    0.000 
#
# Total GULP energy -356612.047211 kJ/mol
# GULP energy per Si atom -5572.063238 kJ/mol
# Density = 1.692316 g / cm^3
# Si number density = 16.961769 Si / 1000 Ang^3
#
#
#
# Elastic Constant Matrix: (Units=GPa)
#
#
# Indices 1 2 3 4 5 6 
#
# 1 42.9193 35.4374 49.4076 0.0000 0.0000 0.0000
# 2 35.4374 68.1863 56.3818 0.0000 0.0000 0.0000
# 3 49.4076 56.3818 106.4730 0.0000 0.0000 0.0000
# 4 0.0000 0.0000 0.0000 22.7088 0.0000 0.0000
# 5 0.0000 0.0000 0.0000 0.0000 19.1464 0.0000
# 6 0.0000 0.0000 0.0000 0.0000 0.0000 19.1982
#
#
#
# Elastic Compliance Matrix: (Units=1/GPa)
#
#
# Indices 1 2 3 4 5 6 
#
# 1 0.056343 -0.013632 -0.018926 0.000000 0.000000 0.000000
# 2 -0.013632 0.029388 -0.009236 0.000000 0.000000 0.000000
# 3 -0.018926 -0.009236 0.023066 0.000000 0.000000 0.000000
# 4 0.000000 0.000000 0.000000 0.044036 0.000000 0.000000
# 5 0.000000 0.000000 0.000000 0.000000 0.052229 0.000000
# 6 0.000000 0.000000 0.000000 0.000000 0.000000 0.052088
#
#
# Mechanical properties :
#
#
# Convention : Reuss Voigt Hill
#
# Bulk Modulus (GPa) = 39.67223 55.55912 47.61568
# Shear Modulus (GPa) = 14.32084 17.30080 15.81082
#
# Velocity S-wave (km/s) = 2.90884 3.19719 3.05642
# Velocity P-wave (km/s) = 5.89252 6.81586 6.37094
#
# Compressibility (1/GPa) = 0.02520655
#
# Stress axis : x y z
#
# Youngs Moduli (GPa) = 17.74840 34.02781 43.35475
#
# Poissons Ratio (x) = 0.46388 0.82055
# Poissons Ratio (y) = 0.24195 0.40043
# Poissons Ratio (z) = 0.33591 0.31428
#
# Static dielectric constant tensor:
#      x y z
#    x 1.570050 0.000000 0.000000 
#    y 0.000000 1.565890 0.000000 
#    z 0.000000 0.000000 1.572540 
# 
# From -- ./inp_files/34117.got.cif
#   From: 2010.05.17/outbox.cif.g08.bks.cpg/sg51_18_cif.got.tgz:34117.got - 2010.06.03 11:52:47.
