data_PCOD9403502
_publ_section_title
;
Structure prediction by ZEFSAII (Michael W. Deem and Ramdas Pophale) SiO2 
 PCOD9403502
Probable space group: P M M A
;
_chemical_formula_sum "Si O2"
_cell_formula_units_Z 48
_cell_length_a 25.820447
_cell_length_b 9.140574
_cell_length_c 12.166360
_cell_angle_alpha 90.000000
_cell_angle_beta 90.000000
_cell_angle_gamma 90.000000
_cell_volume 2871.427718
_symmetry_space_group_name_H-M "P M M A"
_symmetry_group_IT_number 51
_symmetry_cell_setting 'orthorhombic'
loop_
_space_group_symop_operation_xyz
x,y,z
1/2-x,-y,z
1/2+x,-y,-z
-x,y,-z
-x,-y,-z
1/2+x,y,-z
1/2-x,y,z
x,-y,z
loop_
_atom_site_type_symbol
_atom_site_label
_atom_site_fract_x
_atom_site_fract_y
_atom_site_fract_z
Si Si1 0.618083 0.669318 0.164539
Si Si2 0.970904 0.334129 0.349239
Si Si3 0.380420 0.672860 0.480382
Si Si4 0.188487 0.173314 0.662527
Si Si5 0.927701 0.826862 0.715955
Si Si6 0.940475 0.824092 0.971256
O O1 0.632141 0.500000 0.146602
O O2 0.569186 0.671473 0.248015
O O3 0.662981 0.753807 0.229788
O O4 0.598642 0.746382 0.054336
O O5 0.992614 0.500000 0.355050
O O6 0.935368 0.308095 0.455611
O O7 0.015711 0.219421 0.327785
O O8 0.369997 0.500000 0.476736
O O9 0.338490 0.752500 0.556914
O O10 0.387179 0.741883 0.360599
O O11 0.250000 0.194898 0.660617
O O12 0.177360 0.000000 0.662152
O O13 0.927594 0.788238 0.844914
O O14 0.920219 0.000000 0.704959
O O15 0.937274 0.000000 0.984741
O O16 0.000000 0.781782 0.000000
#
# Coordination Sequence:
#
# PCOD9403502 Si02
#       6
#     8   8   8   8   8   8
#     4  10  20  33  53  80 108 141 179 221 266 312
#     4   9  18  31  46  69 103 140 175 214 258 307
#     4  10  21  35  51  75 106 138 173 217 266 316
#     4  10  21  38  61  84 105 132 169 218 273 324
#     4  11  21  31  48  73 104 145 184 217 257 307
#     4  10  20  34  50  73 108 149 188 222 259 308
#
# _framework density 16.716422000000001
#
# number of rings (size 3 to 8) (size 9 to 14) (size 15 to 20)
#    0.000    2.000    1.667    3.500    0.000    8.333 
#    0.000    0.000    0.000    1.000    0.000    7.000 
#    0.000    0.000    0.000    0.000    0.000    0.000 
#
# Total GULP energy -267928.123788 kJ/mol
# GULP energy per Si atom -5581.835912 kJ/mol
# Density = 1.667837 g / cm^3
# Si number density = 16.716422 Si / 1000 Ang^3
#
#
#
# Elastic Constant Matrix: (Units=GPa)
#
#
# Indices 1 2 3 4 5 6 
#
# 1 72.8529 61.9958 54.5836 0.0000 0.0000 0.0000
# 2 61.9958 100.6337 85.6076 0.0000 0.0000 0.0000
# 3 54.5836 85.6076 146.7389 0.0000 0.0000 0.0000
# 4 0.0000 0.0000 0.0000 26.0068 0.0000 0.0000
# 5 0.0000 0.0000 0.0000 0.0000 8.2098 0.0000
# 6 0.0000 0.0000 0.0000 0.0000 0.0000 6.0220
#
#
#
# Elastic Compliance Matrix: (Units=1/GPa)
#
#
# Indices 1 2 3 4 5 6 
#
# 1 0.028890 -0.017184 -0.000721 0.000000 0.000000 0.000000
# 2 -0.017184 0.029949 -0.011080 0.000000 0.000000 0.000000
# 3 -0.000721 -0.011080 0.013547 0.000000 0.000000 0.000000
# 4 0.000000 0.000000 0.000000 0.038451 0.000000 0.000000
# 5 0.000000 0.000000 0.000000 0.000000 0.121806 0.000000
# 6 0.000000 0.000000 0.000000 0.000000 0.000000 0.166057
#
#
# Mechanical properties :
#
#
# Convention : Reuss Voigt Hill
#
# Bulk Modulus (GPa) = 69.37129 80.51106 74.94117
# Shear Modulus (GPa) = 10.83477 15.91696 13.37587
#
# Velocity S-wave (km/s) = 2.54864 3.08908 2.83178
# Velocity P-wave (km/s) = 7.08871 7.80965 7.45790
#
# Compressibility (1/GPa) = 0.01441519
#
# Stress axis : x y z
#
# Youngs Moduli (GPa) = 34.61406 33.38961 73.81560
#
# Poissons Ratio (x) = 0.57378 0.05322
# Poissons Ratio (y) = 0.59482 0.81790
# Poissons Ratio (z) = 0.02496 0.36997
#
# Static dielectric constant tensor:
#      x y z
#    x 1.540060 0.000000 0.000000 
#    y 0.000000 1.561180 0.000000 
#    z 0.000000 0.000000 1.573140 
# 
# From -- ./inp_files/18546.got.cif
#   From: 2010.05.17/outbox.cif.g08.bks.cpg/sg51_10_cif.got.tgz:18546.got - 2010.06.03 11:52:47.
