data_PCOD9403820
_publ_section_title
;
Structure prediction by ZEFSAII (Michael W. Deem and Ramdas Pophale) SiO2 
 PCOD9403820
Probable space group: P M M A
;
_chemical_formula_sum "Si O2"
_cell_formula_units_Z 56
_cell_length_a 8.771178
_cell_length_b 14.773973
_cell_length_c 23.898826
_cell_angle_alpha 90.000000
_cell_angle_beta 90.000000
_cell_angle_gamma 90.000000
_cell_volume 3096.932879
_symmetry_space_group_name_H-M "P M M A"
_symmetry_group_IT_number 51
_symmetry_cell_setting 'orthorhombic'
loop_
_space_group_symop_operation_xyz
x,y,z
1/2-x,-y,z
1/2+x,-y,-z
-x,y,-z
-x,-y,-z
1/2+x,y,-z
1/2-x,y,z
x,-y,z
loop_
_atom_site_type_symbol
_atom_site_label
_atom_site_fract_x
_atom_site_fract_y
_atom_site_fract_z
Si Si1 0.435269 0.896139 0.161870
Si Si2 0.567513 0.226320 0.941530
Si Si3 0.432632 0.604789 0.438377
Si Si4 0.929496 0.607842 0.764314
Si Si5 0.431481 0.720133 0.661821
Si Si6 0.066238 0.894000 0.289057
Si Si7 0.568122 0.394868 0.113531
O O1 0.250000 0.894072 0.162090
O O2 0.486761 0.832436 0.111723
O O3 0.481523 0.870784 0.224975
O O4 0.481395 0.000000 0.152089
O O5 0.750000 0.223437 0.943695
O O6 0.510887 0.327549 0.929434
O O7 0.500000 0.193070 0.000000
O O8 0.500000 0.620952 0.500000
O O9 0.250000 0.613228 0.439574
O O10 0.469264 0.500000 0.423088
O O11 0.501647 0.672366 0.393107
O O12 0.750000 0.630297 0.767366
O O13 0.943797 0.500000 0.753392
O O14 0.005894 0.663882 0.714953
O O15 0.005568 0.626064 0.824280
O O16 0.250000 0.717041 0.660779
O O17 0.489326 0.822633 0.670007
O O18 0.250000 0.885105 0.292242
O O19 0.029957 0.000000 0.298625
O O20 0.750000 0.383300 0.112289
O O21 0.532534 0.500000 0.102188
#
# Coordination Sequence:
#
# PCOD9403820 Si02
#       7
#     8   8   8   8   8   8   8
#     4   8  16  33  56  79 102 131 168 211 263 320
#     4  11  22  35  53  75 101 134 172 215 260 313
#     4  10  21  38  59  83 114 152 193 234 274 320
#     4  10  20  34  53  78 108 141 177 218 267 324
#     4  12  23  33  52  82 116 151 186 227 271 318
#     4   9  18  35  59  83 107 139 181 228 277 329
#     4  10  21  37  55  75 101 132 168 215 270 325
#
# _framework density 18.082407
#
# number of rings (size 3 to 8) (size 9 to 14) (size 15 to 20)
#    0.000    2.000    0.000    5.143    0.000    6.286 
#    0.000    0.714    0.000    3.429    0.000    0.000 
#    0.000    0.000    0.000    0.000    0.000    0.000 
#
# Total GULP energy -312832.727647 kJ/mol
# GULP energy per Si atom -5586.298708 kJ/mol
# Density = 1.804125 g / cm^3
# Si number density = 18.082407 Si / 1000 Ang^3
#
#
#
# Elastic Constant Matrix: (Units=GPa)
#
#
# Indices 1 2 3 4 5 6 
#
# 1 62.7869 44.1692 34.9083 0.0000 0.0000 0.0000
# 2 44.1692 90.4570 71.4396 0.0000 0.0000 0.0000
# 3 34.9083 71.4396 88.9954 0.0000 0.0000 0.0000
# 4 0.0000 0.0000 0.0000 21.0265 0.0000 0.0000
# 5 0.0000 0.0000 0.0000 0.0000 32.1393 0.0000
# 6 0.0000 0.0000 0.0000 0.0000 0.0000 17.9429
#
#
#
# Elastic Compliance Matrix: (Units=1/GPa)
#
#
# Indices 1 2 3 4 5 6 
#
# 1 0.024260 -0.011831 -0.000019 0.000000 0.000000 0.000000
# 2 -0.011831 0.035972 -0.024235 0.000000 0.000000 0.000000
# 3 -0.000019 -0.024235 0.030698 0.000000 0.000000 0.000000
# 4 0.000000 0.000000 0.000000 0.047559 0.000000 0.000000
# 5 0.000000 0.000000 0.000000 0.000000 0.031115 0.000000
# 6 0.000000 0.000000 0.000000 0.000000 0.000000 0.055732
#
#
# Mechanical properties :
#
#
# Convention : Reuss Voigt Hill
#
# Bulk Modulus (GPa) = 53.30397 60.36371 56.83384
# Shear Modulus (GPa) = 16.46032 20.33655 18.39844
#
# Velocity S-wave (km/s) = 3.02038 3.35723 3.19325
# Velocity P-wave (km/s) = 6.45802 6.96298 6.71524
#
# Compressibility (1/GPa) = 0.01876033
#
# Stress axis : x y z
#
# Youngs Moduli (GPa) = 41.21955 27.79927 32.57503
#
# Poissons Ratio (x) = 0.32890 0.00061
# Poissons Ratio (y) = 0.48768 0.78946
# Poissons Ratio (z) = 0.00077 0.67372
#
# Static dielectric constant tensor:
#      x y z
#    x 1.601870 0.000000 0.000000 
#    y 0.000000 1.629890 0.000000 
#    z 0.000000 0.000000 1.599910 
# 
# From -- ./inp_files/31871.got.cif
#   From: 2010.05.17/outbox.cif.g08.bks.cpg/sg51_16_cif.got.tgz:31871.got - 2010.06.03 11:52:47.
