data_PCOD9403701
_publ_section_title
;
Structure prediction by ZEFSAII (Michael W. Deem and Ramdas Pophale) SiO2 
 PCOD9403701
Probable space group: P M M A
;
_chemical_formula_sum "Si O2"
_cell_formula_units_Z 56
_cell_length_a 14.634906
_cell_length_b 23.972971
_cell_length_c 8.326223
_cell_angle_alpha 90.000000
_cell_angle_beta 90.000000
_cell_angle_gamma 90.000000
_cell_volume 2921.190205
_symmetry_space_group_name_H-M "P M M A"
_symmetry_group_IT_number 51
_symmetry_cell_setting 'orthorhombic'
loop_
_space_group_symop_operation_xyz
x,y,z
1/2-x,-y,z
1/2+x,-y,-z
-x,y,-z
-x,-y,-z
1/2+x,y,-z
1/2-x,y,z
x,-y,z
loop_
_atom_site_type_symbol
_atom_site_label
_atom_site_fract_x
_atom_site_fract_y
_atom_site_fract_z
Si Si1 0.847345 0.338194 0.621669
Si Si2 0.138356 0.934837 0.296050
Si Si3 0.901092 0.437359 0.415114
Si Si4 0.362076 0.869719 0.616305
Si Si5 0.138724 0.064781 0.936043
Si Si6 0.855628 0.744258 0.318685
Si Si7 0.969879 0.651848 0.176207
O O1 0.750000 0.328351 0.705112
O O2 0.845697 0.398535 0.536453
O O3 0.857788 0.293087 0.479927
O O4 0.937456 0.336844 0.726140
O O5 0.250000 0.933805 0.296158
O O6 0.108262 0.898063 0.448452
O O7 0.112192 0.000000 0.317238
O O8 0.109680 0.916275 0.115616
O O9 0.867353 0.500000 0.386485
O O10 0.915730 0.399290 0.258194
O O11 0.000000 0.441580 0.500000
O O12 0.250000 0.870499 0.612333
O O13 0.391243 0.902851 0.776622
O O14 0.390748 0.805662 0.639352
O O15 0.250000 0.067110 0.935920
O O16 0.112678 0.000000 0.921144
O O17 0.750000 0.749319 0.267777
O O18 0.911014 0.708197 0.190060
O O19 0.000000 0.636927 0.000000
#
# Coordination Sequence:
#
# PCOD9403701 Si02
#       7
#     8   8   8   8   8   8   8
#     4   9  18  34  55  75 100 138 180 218 261 309
#     4   8  13  21  34  55  86 124 164 206 258 320
#     4   8  15  30  53  78 104 136 172 207 246 298
#     4   9  15  24  39  60  90 128 171 215 262 313
#     4   8  13  21  34  55  88 127 163 205 259 319
#     4   9  18  33  50  71 100 138 182 226 265 312
#     4  10  20  34  52  76 109 143 174 219 270 318
#
# _framework density 19.170268
#
# number of rings (size 3 to 8) (size 9 to 14) (size 15 to 20)
#    0.000    3.286    0.000    2.571    0.000    2.857 
#    2.571    0.000    0.000    0.000    0.000    4.000 
#    0.000   11.429    0.000    2.286    0.000    1.714 
#
# Total GULP energy -312039.499912 kJ/mol
# GULP energy per Si atom -5572.133927 kJ/mol
# Density = 1.912664 g / cm^3
# Si number density = 19.170268 Si / 1000 Ang^3
#
#
#
# Elastic Constant Matrix: (Units=GPa)
#
#
# Indices 1 2 3 4 5 6 
#
# 1 40.2436 2.9370 3.4634 0.0000 0.0000 0.0000
# 2 2.9370 120.4282 53.6399 0.0000 0.0000 0.0000
# 3 3.4634 53.6399 92.6635 0.0000 0.0000 0.0000
# 4 0.0000 0.0000 0.0000 7.4816 0.0000 0.0000
# 5 0.0000 0.0000 0.0000 0.0000 8.1143 0.0000
# 6 0.0000 0.0000 0.0000 0.0000 0.0000 4.4716
#
#
#
# Elastic Compliance Matrix: (Units=1/GPa)
#
#
# Indices 1 2 3 4 5 6 
#
# 1 0.024935 -0.000260 -0.000781 0.000000 0.000000 0.000000
# 2 -0.000260 0.011191 -0.006468 0.000000 0.000000 0.000000
# 3 -0.000781 -0.006468 0.014565 0.000000 0.000000 0.000000
# 4 0.000000 0.000000 0.000000 0.133660 0.000000 0.000000
# 5 0.000000 0.000000 0.000000 0.000000 0.123239 0.000000
# 6 0.000000 0.000000 0.000000 0.000000 0.000000 0.223634
#
#
# Mechanical properties :
#
#
# Convention : Reuss Voigt Hill
#
# Bulk Modulus (GPa) = 28.03359 41.49064 34.76212
# Shear Modulus (GPa) = 8.95839 16.89984 12.92912
#
# Velocity S-wave (km/s) = 2.16407 2.97234 2.59981
# Velocity P-wave (km/s) = 4.57160 5.78532 5.21390
#
# Compressibility (1/GPa) = 0.03567149
#
# Stress axis : x y z
#
# Youngs Moduli (GPa) = 40.10440 89.35616 68.65621
#
# Poissons Ratio (x) = 0.02324 0.05365
# Poissons Ratio (y) = 0.01043 0.44410
# Poissons Ratio (z) = 0.03134 0.57800
#
# Static dielectric constant tensor:
#      x y z
#    x 2.975960 0.000000 0.000000 
#    y 0.000000 1.651770 0.000000 
#    z 0.000000 0.000000 1.657800 
# 
# From -- ./inp_files/8483.got.cif
#   From: 2010.05.17/outbox.cif.g08.bks.cpg/sg51_5_cif.got.tgz:8483.got - 2010.06.03 11:52:47.
