data_PCOD9403677
_publ_section_title
;
Structure prediction by ZEFSAII (Michael W. Deem and Ramdas Pophale) SiO2 
 PCOD9403677
Probable space group: P M M A
;
_chemical_formula_sum "Si O2"
_cell_formula_units_Z 28
_cell_length_a 9.374209
_cell_length_b 7.423715
_cell_length_c 20.868085
_cell_angle_alpha 90.000000
_cell_angle_beta 90.000000
_cell_angle_gamma 90.000000
_cell_volume 1452.240418
_symmetry_space_group_name_H-M "P M M A"
_symmetry_group_IT_number 51
_symmetry_cell_setting 'orthorhombic'
loop_
_space_group_symop_operation_xyz
x,y,z
1/2-x,-y,z
1/2+x,-y,-z
-x,y,-z
-x,-y,-z
1/2+x,y,-z
1/2-x,y,z
x,-y,z
loop_
_atom_site_type_symbol
_atom_site_label
_atom_site_fract_x
_atom_site_fract_y
_atom_site_fract_z
Si Si1 0.576495 0.294525 0.329128
Si Si2 0.585412 0.719868 0.187799
Si Si3 0.586258 0.720089 0.937132
Si Si4 0.922508 0.000000 0.432319
O O1 0.750000 0.295590 0.326442
O O2 0.528263 0.500000 0.337406
O O3 0.532935 0.225917 0.258556
O O4 0.536514 0.170586 0.388370
O O5 0.750000 0.776154 0.179035
O O6 0.586059 0.500000 0.188902
O O7 0.490470 0.778012 0.128223
O O8 0.750000 0.777057 0.939944
O O9 0.584831 0.500000 0.936971
O O10 0.500000 0.777352 0.000000
O O11 0.000000 0.000000 0.500000
O O12 0.750000 0.000000 0.440382
#
# Coordination Sequence:
#
# PCOD9403677 Si02
#       4
#     8   8   8   4
#     4   8  15  29  49  71  95 125 160 196 235 282
#     4   8  13  23  39  57  79 111 151 191 229 271
#     4   9  15  21  31  52  84 119 153 190 231 273
#     4  10  20  34  52  74  99 126 157 192 233 284
#
# _framework density 19.280553999999999
#
# number of rings (size 3 to 8) (size 9 to 14) (size 15 to 20)
#    0.000    3.429    0.000    2.571    0.000    4.000 
#    0.000    1.429    0.000    1.714    0.000    1.000 
#    0.000    0.000    0.000    0.000    0.000    0.000 
#
# Total GULP energy -156156.316485 kJ/mol
# GULP energy per Si atom -5577.011303 kJ/mol
# Density = 1.923667 g / cm^3
# Si number density = 19.280554 Si / 1000 Ang^3
#
#
#
# Elastic Constant Matrix: (Units=GPa)
#
#
# Indices 1 2 3 4 5 6 
#
# 1 85.7750 23.3089 93.5873 0.0000 0.0000 0.0000
# 2 23.3089 78.3826 59.9202 0.0000 0.0000 0.0000
# 3 93.5873 59.9202 245.9628 0.0000 0.0000 0.0000
# 4 0.0000 0.0000 0.0000 72.9200 0.0000 0.0000
# 5 0.0000 0.0000 0.0000 0.0000 39.4423 0.0000
# 6 0.0000 0.0000 0.0000 0.0000 0.0000 0.1641
#
#
#
# Elastic Compliance Matrix: (Units=1/GPa)
#
#
# Indices 1 2 3 4 5 6 
#
# 1 0.019936 -0.000159 -0.007547 0.000000 0.000000 0.000000
# 2 -0.000159 0.015679 -0.003759 0.000000 0.000000 0.000000
# 3 -0.007547 -0.003759 0.007853 0.000000 0.000000 0.000000
# 4 0.000000 0.000000 0.000000 0.013714 0.000000 0.000000
# 5 0.000000 0.000000 0.000000 0.000000 0.025353 0.000000
# 6 0.000000 0.000000 0.000000 0.000000 0.000000 6.094224
#
#
# Mechanical properties :
#
#
# Convention : Reuss Voigt Hill
#
# Bulk Modulus (GPa) = 48.69115 84.86146 66.77630
# Shear Modulus (GPa) = 0.80560 38.05887 19.43224
#
# Velocity S-wave (km/s) = 0.64710 4.44774 3.17814
# Velocity P-wave (km/s) = 5.08598 8.39560 6.94094
#
# Compressibility (1/GPa) = 0.02053761
#
# Stress axis : x y z
#
# Youngs Moduli (GPa) = 50.16150 63.77993 127.34262
#
# Poissons Ratio (x) = 0.01016 0.96100
# Poissons Ratio (y) = 0.00799 0.47868
# Poissons Ratio (z) = 0.37855 0.23975
#
# Static dielectric constant tensor:
#      x y z
#    x 1.637550 0.000000 0.000000 
#    y 0.000000 1.754850 0.000000 
#    z 0.000000 0.000000 1.648910 
# 
# From -- ./inp_files/28726.got.cif
#   From: 2010.05.17/outbox.cif.g08.bks.cpg/sg51_15_cif.got.tgz:28726.got - 2010.06.03 11:52:47.
