data_PCOD9403922
_publ_section_title
;
Structure prediction by ZEFSAII (Michael W. Deem and Ramdas Pophale) SiO2 
 PCOD9403922
Probable space group: P M M A
;
_chemical_formula_sum "Si O2"
_cell_formula_units_Z 48
_cell_length_a 9.397240
_cell_length_b 8.224268
_cell_length_c 32.110390
_cell_angle_alpha 90.000000
_cell_angle_beta 90.000000
_cell_angle_gamma 90.000000
_cell_volume 2481.664985
_symmetry_space_group_name_H-M "P M M A"
_symmetry_group_IT_number 51
_symmetry_cell_setting 'orthorhombic'
loop_
_space_group_symop_operation_xyz
x,y,z
1/2-x,-y,z
1/2+x,-y,-z
-x,y,-z
-x,-y,-z
1/2+x,y,-z
1/2-x,y,z
x,-y,z
loop_
_atom_site_type_symbol
_atom_site_label
_atom_site_fract_x
_atom_site_fract_y
_atom_site_fract_z
Si Si1 0.914234 0.308331 0.197000
Si Si2 0.086416 0.801100 0.459151
Si Si3 0.577222 0.188130 0.286782
Si Si4 0.411761 0.695387 0.960218
Si Si5 0.085035 0.198984 0.622190
Si Si6 0.588141 0.807405 0.881021
O O1 0.750000 0.248244 0.193322
O O2 0.912961 0.500000 0.188853
O O3 0.962649 0.278026 0.244477
O O4 0.014342 0.227045 0.163097
O O5 0.250000 0.749217 0.460881
O O6 0.000000 0.749038 0.500000
O O7 0.009170 0.748674 0.416726
O O8 0.085203 0.000000 0.459072
O O9 0.750000 0.190857 0.288843
O O10 0.531648 0.252479 0.332096
O O11 0.533052 0.000000 0.282779
O O12 0.250000 0.758346 0.959633
O O13 0.404205 0.500000 0.963949
O O14 0.493781 0.733941 0.917847
O O15 0.500000 0.757664 0.000000
O O16 0.250000 0.247664 0.616422
O O17 0.084367 0.000000 0.623387
O O18 0.750000 0.743535 0.882043
O O19 0.592741 0.000000 0.887439
#
# Coordination Sequence:
#
# PCOD9403922 Si02
#       6
#     8   8   8   8   8   8
#     4  10  20  34  54  79 104 132 169 211 255 305
#     4   9  15  21  30  47  74 108 144 182 225 275
#     4   8  14  26  45  67  92 124 160 198 242 292
#     4  10  21  38  61  87 113 143 178 214 255 303
#     4   8  13  22  36  53  75 108 149 188 228 277
#     4  11  24  39  55  78 108 142 179 217 258 303
#
# _framework density 19.341853
#
# number of rings (size 3 to 8) (size 9 to 14) (size 15 to 20)
#    0.000    2.667    0.000    3.500    0.000    7.667 
#    0.000    0.833    0.000    3.000    0.000    0.000 
#    0.000    0.667    0.000    1.167    0.000    1.667 
#
# Total GULP energy -267738.402087 kJ/mol
# GULP energy per Si atom -5577.883377 kJ/mol
# Density = 1.929783 g / cm^3
# Si number density = 19.341853 Si / 1000 Ang^3
#
#
#
# Elastic Constant Matrix: (Units=GPa)
#
#
# Indices 1 2 3 4 5 6 
#
# 1 133.3500 8.5920 88.0321 0.0000 0.0000 0.0000
# 2 8.5920 7.0425 0.0080 0.0000 0.0000 0.0000
# 3 88.0321 0.0080 160.2479 0.0000 0.0000 0.0000
# 4 0.0000 0.0000 0.0000 25.8963 0.0000 0.0000
# 5 0.0000 0.0000 0.0000 0.0000 31.9299 0.0000
# 6 0.0000 0.0000 0.0000 0.0000 0.0000 -10.9185
#
#
#
# Elastic Compliance Matrix: (Units=1/GPa)
#
#
# Indices 1 2 3 4 5 6 
#
# 1 0.013420 -0.016364 -0.007371 0.000000 0.000000 0.000000
# 2 -0.016364 0.161950 0.008981 0.000000 0.000000 0.000000
# 3 -0.007371 0.008981 0.010289 0.000000 0.000000 0.000000
# 4 0.000000 0.000000 0.000000 0.038616 0.000000 0.000000
# 5 0.000000 0.000000 0.000000 0.000000 0.031319 0.000000
# 6 0.000000 0.000000 0.000000 0.000000 0.000000 -0.091588
#
#
# Mechanical properties :
#
#
# Convention : Reuss Voigt Hill
#
# Bulk Modulus (GPa) = 6.40405 54.87831 30.64118
# Shear Modulus (GPa) = 20.36135 22.98206 21.67171
#
# Velocity S-wave (km/s) = 3.24807 3.45077 3.35095
# Velocity P-wave (km/s) = 4.16950 6.65669 5.55411
#
# Compressibility (1/GPa) = 0.15615122
#
# Stress axis : x y z
#
# Youngs Moduli (GPa) = 74.51779 6.17475 97.18859
#
# Poissons Ratio (x) = 0.10104 0.71640
# Poissons Ratio (y) = 1.21940 -0.87289
# Poissons Ratio (z) = 0.54929 -0.05546
#
# Static dielectric constant tensor:
#      x y z
#    x 1.665450 0.000000 0.000000 
#    y 0.000000 1.680040 0.000000 
#    z 0.000000 0.000000 1.667010 
# 
# From -- ./inp_files/36943.got.cif
#   From: 2010.05.17/outbox.cif.g08.bks.cpg/sg51_19_cif.got.tgz:36943.got - 2010.06.03 11:52:47.
