data_PCOD9403309
_publ_section_title
;
Structure prediction by ZEFSAII (Michael W. Deem and Ramdas Pophale) SiO2 
 PCOD9403309
Probable space group: P M M A
;
_chemical_formula_sum "Si O2"
_cell_formula_units_Z 56
_cell_length_a 14.839852
_cell_length_b 9.107255
_cell_length_c 21.144957
_cell_angle_alpha 90.000000
_cell_angle_beta 90.000000
_cell_angle_gamma 90.000000
_cell_volume 2857.747627
_symmetry_space_group_name_H-M "P M M A"
_symmetry_group_IT_number 51
_symmetry_cell_setting 'orthorhombic'
loop_
_space_group_symop_operation_xyz
x,y,z
1/2-x,-y,z
1/2+x,-y,-z
-x,y,-z
-x,-y,-z
1/2+x,y,-z
1/2-x,y,z
x,-y,z
loop_
_atom_site_type_symbol
_atom_site_label
_atom_site_fract_x
_atom_site_fract_y
_atom_site_fract_z
Si Si1 0.146556 0.177761 0.471177
Si Si2 0.597825 0.835096 0.903351
Si Si3 0.647214 0.334772 0.024281
Si Si4 0.042548 0.323554 0.729306
Si Si5 0.964371 0.177418 0.402570
Si Si6 0.653543 0.324143 0.780128
Si Si7 0.894609 0.833590 0.148585
O O1 0.250000 0.230874 0.462434
O O2 0.103860 0.212934 0.539936
O O3 0.066773 0.222587 0.422672
O O4 0.149842 0.000000 0.467765
O O5 0.649120 0.743153 0.850131
O O6 0.497397 0.843131 0.875956
O O7 0.633972 0.000000 0.909711
O O8 0.597194 0.757510 0.970880
O O9 0.750000 0.342210 0.001156
O O10 0.610994 0.500000 0.030365
O O11 0.649213 0.257872 0.092221
O O12 0.050171 0.500000 0.730858
O O13 0.937632 0.281491 0.743907
O O14 0.064109 0.257202 0.661269
O O15 0.101560 0.251304 0.785066
O O16 0.964011 0.000000 0.394812
O O17 0.750000 0.280884 0.750563
O O18 0.651152 0.500000 0.785253
O O19 0.860216 0.000000 0.154819
#
# Coordination Sequence:
#
# PCOD9403309 Si02
#       7
#     8   8   8   8   8   8   8
#     4   8  15  30  53  80 108 137 170 209 251 294
#     4  10  20  33  51  75  99 125 163 211 259 307
#     4  11  23  36  51  73 100 129 163 206 258 313
#     4  10  20  34  52  73 102 139 171 205 254 305
#     4   9  17  31  53  79 105 135 173 212 248 296
#     4   9  18  32  48  68  97 133 171 208 252 311
#     4  10  21  37  55  74  97 128 170 214 252 297
#
# _framework density 19.595852000000001
#
# number of rings (size 3 to 8) (size 9 to 14) (size 15 to 20)
#    0.000    2.429    0.000    3.429    0.000    7.714 
#    0.000    2.143    0.000    3.857    0.000    0.000 
#    0.000    0.000    0.000    0.000    0.000    0.000 
#
# Total GULP energy -312255.297483 kJ/mol
# GULP energy per Si atom -5575.987455 kJ/mol
# Density = 1.955125 g / cm^3
# Si number density = 19.595852 Si / 1000 Ang^3
#
#
#
# Elastic Constant Matrix: (Units=GPa)
#
#
# Indices 1 2 3 4 5 6 
#
# 1 41.6062 -6.6810 -14.8730 0.0000 0.0000 0.0000
# 2 -6.6810 42.3103 29.1676 0.0000 0.0000 0.0000
# 3 -14.8730 29.1676 105.3341 0.0000 0.0000 0.0000
# 4 0.0000 0.0000 0.0000 295.0336 0.0000 0.0000
# 5 0.0000 0.0000 0.0000 0.0000 11.7960 0.0000
# 6 0.0000 0.0000 0.0000 0.0000 0.0000 -11.9938
#
#
#
# Elastic Compliance Matrix: (Units=1/GPa)
#
#
# Indices 1 2 3 4 5 6 
#
# 1 0.025436 0.001904 0.003064 0.000000 0.000000 0.000000
# 2 0.001904 0.029354 -0.007859 0.000000 0.000000 0.000000
# 3 0.003064 -0.007859 0.012103 0.000000 0.000000 0.000000
# 4 0.000000 0.000000 0.000000 0.003389 0.000000 0.000000
# 5 0.000000 0.000000 0.000000 0.000000 0.084774 0.000000
# 6 0.000000 0.000000 0.000000 0.000000 0.000000 -0.083377
#
#
# Mechanical properties :
#
#
# Convention : Reuss Voigt Hill
#
# Bulk Modulus (GPa) = 16.36389 22.71974 19.54181
# Shear Modulus (GPa) = 51.10837 71.07629 61.09233
#
# Velocity S-wave (km/s) = 5.11252 6.02908 5.58962
# Velocity P-wave (km/s) = 6.57414 7.75150 7.18697
#
# Compressibility (1/GPa) = 0.06111017
#
# Stress axis : x y z
#
# Youngs Moduli (GPa) = 39.31428 34.06739 82.62709
#
# Poissons Ratio (x) = -0.06486 -0.25320
# Poissons Ratio (y) = -0.07485 0.64939
# Poissons Ratio (z) = -0.12047 0.26775
#
# Static dielectric constant tensor:
#      x y z
#    x 1.750570 0.000000 0.000000 
#    y 0.000000 1.677530 0.000000 
#    z 0.000000 0.000000 1.648980 
# 
# From -- ./inp_files/33735.got.cif
#   From: 2010.05.17/outbox.cif.g08.bks.cpg/sg51_17_cif.got.tgz:33735.got - 2010.06.03 11:52:47.
