data_PCOD9403974
_publ_section_title
;
Structure prediction by ZEFSAII (Michael W. Deem and Ramdas Pophale) SiO2 
 PCOD9403974
Probable space group: P M M A
;
_chemical_formula_sum "Si O2"
_cell_formula_units_Z 64
_cell_length_a 18.158402
_cell_length_b 8.912043
_cell_length_c 22.137521
_cell_angle_alpha 90.000000
_cell_angle_beta 90.000000
_cell_angle_gamma 90.000000
_cell_volume 3582.480919
_symmetry_space_group_name_H-M "P M M A"
_symmetry_group_IT_number 51
_symmetry_cell_setting 'orthorhombic'
loop_
_space_group_symop_operation_xyz
x,y,z
1/2-x,-y,z
1/2+x,-y,-z
-x,y,-z
-x,-y,-z
1/2+x,y,-z
1/2-x,y,z
x,-y,z
loop_
_atom_site_type_symbol
_atom_site_label
_atom_site_fract_x
_atom_site_fract_y
_atom_site_fract_z
Si Si1 0.664313 0.180822 0.226055
Si Si2 0.668611 0.179962 0.630734
Si Si3 0.665013 0.679330 0.994677
Si Si4 0.982404 0.819008 0.568137
Si Si5 0.448251 0.678854 0.684313
Si Si6 0.396368 0.321169 0.252024
Si Si7 0.595593 0.179612 0.876819
Si Si8 0.423400 0.180427 0.895348
O O1 0.750000 0.223388 0.223188
O O2 0.621906 0.252643 0.282271
O O3 0.621841 0.224619 0.164604
O O4 0.659852 0.000000 0.230711
O O5 0.750000 0.217062 0.607427
O O6 0.601032 0.222231 0.587299
O O7 0.654821 0.258266 0.694869
O O8 0.664631 0.000000 0.639332
O O9 0.750000 0.717154 0.008895
O O10 0.658190 0.500000 0.991558
O O11 0.642165 0.750137 0.930912
O O12 0.612219 0.743277 0.046513
O O13 0.000000 0.771911 0.500000
O O14 0.034953 0.747979 0.618807
O O15 0.988981 0.000000 0.571369
O O16 0.442449 0.500000 0.680001
O O17 0.520264 0.714430 0.725511
O O18 0.389269 0.500000 0.247081
O O19 0.382291 0.244402 0.188097
O O20 0.509333 0.217837 0.887594
O O21 0.602455 0.000000 0.876994
O O22 0.417810 0.000000 0.901999
#
# Coordination Sequence:
#
# PCOD9403974 Si02
#       8
#     8   8   8   8   8   8   8   8
#     4  10  20  35  57  83 111 144 181 226 277 326
#     4   9  18  33  54  80 110 144 184 229 274 321
#     4  11  25  41  55  76 109 146 182 225 277 331
#     4   9  18  34  57  82 110 148 191 231 271 321
#     4  10  20  34  54  80 112 145 179 222 270 325
#     4  10  20  34  54  80 109 142 177 218 272 327
#     4  11  22  37  60  84 106 139 182 228 275 328
#     4  10  21  38  60  83 107 138 182 230 276 328
#
# _framework density 17.864715
#
# number of rings (size 3 to 8) (size 9 to 14) (size 15 to 20)
#    0.000    2.000    1.250    2.250    0.000    6.750 
#    0.000    0.625    0.000    2.250    0.000    0.000 
#    0.000    0.000    0.000    0.000    0.000    0.000 
#
# Total GULP energy -357419.201648 kJ/mol
# GULP energy per Si atom -5584.675026 kJ/mol
# Density = 1.782405 g / cm^3
# Si number density = 17.864715 Si / 1000 Ang^3
#
#
#
# Elastic Constant Matrix: (Units=GPa)
#
#
# Indices 1 2 3 4 5 6 
#
# 1 46.1706 13.1585 12.9411 0.0000 0.0000 0.0000
# 2 13.1585 13.8301 21.8851 0.0000 0.0000 0.0000
# 3 12.9411 21.8851 116.4238 0.0000 0.0000 0.0000
# 4 0.0000 0.0000 0.0000 -0.4101 0.0000 0.0000
# 5 0.0000 0.0000 0.0000 0.0000 16.3371 0.0000
# 6 0.0000 0.0000 0.0000 0.0000 0.0000 2.7587
#
#
#
# Elastic Compliance Matrix: (Units=1/GPa)
#
#
# Indices 1 2 3 4 5 6 
#
# 1 0.030403 -0.033562 0.002930 0.000000 0.000000 0.000000
# 2 -0.033562 0.139972 -0.022581 0.000000 0.000000 0.000000
# 3 0.002930 -0.022581 0.012508 0.000000 0.000000 0.000000
# 4 0.000000 0.000000 0.000000 -2.438687 0.000000 0.000000
# 5 0.000000 0.000000 0.000000 0.000000 0.061210 0.000000
# 6 0.000000 0.000000 0.000000 0.000000 0.000000 0.362487
#
#
# Mechanical properties :
#
#
# Convention : Reuss Voigt Hill
#
# Bulk Modulus (GPa) = 13.07952 30.26597 21.67275
# Shear Modulus (GPa) = -2.94084 12.29981 4.67948
#
# Velocity S-wave (km/s) = -1.28442 2.62677 1.62021
# Velocity P-wave (km/s) = 2.26664 5.11649 3.95702
#
# Compressibility (1/GPa) = 0.07645541
#
# Stress axis : x y z
#
# Youngs Moduli (GPa) = 32.89167 7.14431 79.94635
#
# Poissons Ratio (x) = 0.23978 -0.23421
# Poissons Ratio (y) = 1.10392 1.80526
# Poissons Ratio (z) = -0.09636 0.16133
#
# Static dielectric constant tensor:
#      x y z
#    x 1.609780 0.000000 0.000000 
#    y 0.000000 1.591750 0.000000 
#    z 0.000000 0.000000 1.574320 
# 
# From -- ./inp_files/33761.got.cif
#   From: 2010.05.17/outbox.cif.g08.bks.cpg/sg51_17_cif.got.tgz:33761.got - 2010.06.03 11:52:47.
