data_PCOD9403840
_publ_section_title
;
Structure prediction by ZEFSAII (Michael W. Deem and Ramdas Pophale) SiO2 
 PCOD9403840
Probable space group: P M M A
;
_chemical_formula_sum "Si O2"
_cell_formula_units_Z 48
_cell_length_a 9.608002
_cell_length_b 9.401205
_cell_length_c 29.786198
_cell_angle_alpha 90.000000
_cell_angle_beta 90.000000
_cell_angle_gamma 90.000000
_cell_volume 2690.491844
_symmetry_space_group_name_H-M "P M M A"
_symmetry_group_IT_number 51
_symmetry_cell_setting 'orthorhombic'
loop_
_space_group_symop_operation_xyz
x,y,z
1/2-x,-y,z
1/2+x,-y,-z
-x,y,-z
-x,-y,-z
1/2+x,y,-z
1/2-x,y,z
x,-y,z
loop_
_atom_site_type_symbol
_atom_site_label
_atom_site_fract_x
_atom_site_fract_y
_atom_site_fract_z
Si Si1 0.750000 0.832529 0.951592
Si Si2 0.411698 0.672885 0.543339
Si Si3 0.584526 0.665886 0.199245
Si Si4 0.750000 0.343056 0.041190
Si Si5 0.976547 0.663420 0.898499
Si Si6 0.915121 0.328852 0.632808
Si Si7 0.914772 0.830074 0.290248
O O1 0.621170 0.771230 0.923974
O O2 0.750000 0.000000 0.953336
O O3 0.750000 0.769635 0.001644
O O4 0.500000 0.720839 0.500000
O O5 0.250000 0.721280 0.543837
O O6 0.407024 0.500000 0.541525
O O7 0.498435 0.709539 0.587940
O O8 0.750000 0.677387 0.189887
O O9 0.557482 0.500000 0.210895
O O10 0.504332 0.699399 0.153402
O O11 0.552609 0.766058 0.241185
O O12 0.750000 0.500000 0.019192
O O13 0.618878 0.334080 0.073680
O O14 0.924031 0.500000 0.900204
O O15 0.750000 0.297425 0.628584
O O16 0.927906 0.500000 0.639175
O O17 0.987788 0.246712 0.673608
O O18 0.750000 0.799229 0.299175
O O19 0.932619 0.000000 0.291106
#
# Coordination Sequence:
#
# PCOD9403840 Si02
#       7
#     4   8   8   4   8   8   8
#     4  12  26  38  50  80 120 154 184 218 267 326
#     4   9  16  27  47  77 112 147 184 232 286 332
#     4   9  17  34  61  88 108 132 177 231 278 328
#     4  10  20  38  64  86 106 138 186 232 275 326
#     4  10  20  38  62  85 108 140 182 229 277 326
#     4  10  20  34  53  79 110 146 190 233 275 325
#     4  10  21  36  55  80 109 142 179 221 275 335
#
# _framework density 17.840603999999999
#
# number of rings (size 3 to 8) (size 9 to 14) (size 15 to 20)
#    0.000    2.167    0.833    2.750    0.000    7.333 
#    1.500    0.000    0.000    0.500    0.000    0.000 
#    0.000    0.000    0.000    0.000    0.000    0.000 
#
# Total GULP energy -267815.072644 kJ/mol
# GULP energy per Si atom -5579.480680 kJ/mol
# Density = 1.780000 g / cm^3
# Si number density = 17.840604 Si / 1000 Ang^3
#
#
#
# Elastic Constant Matrix: (Units=GPa)
#
#
# Indices 1 2 3 4 5 6 
#
# 1 121.7836 56.6358 75.4395 0.0000 0.0000 0.0000
# 2 56.6358 70.1149 65.9986 0.0000 0.0000 0.0000
# 3 75.4395 65.9986 151.0640 0.0000 0.0000 0.0000
# 4 0.0000 0.0000 0.0000 -9.1435 0.0000 0.0000
# 5 0.0000 0.0000 0.0000 0.0000 -17.1379 0.0000
# 6 0.0000 0.0000 0.0000 0.0000 0.0000 7.6789
#
#
#
# Elastic Compliance Matrix: (Units=1/GPa)
#
#
# Indices 1 2 3 4 5 6 
#
# 1 0.014178 -0.008132 -0.003528 0.000000 0.000000 0.000000
# 2 -0.008132 0.028889 -0.008560 0.000000 0.000000 0.000000
# 3 -0.003528 -0.008560 0.012121 0.000000 0.000000 0.000000
# 4 0.000000 0.000000 0.000000 -0.109368 0.000000 0.000000
# 5 0.000000 0.000000 0.000000 0.000000 -0.058350 0.000000
# 6 0.000000 0.000000 0.000000 0.000000 0.000000 0.130226
#
#
# Mechanical properties :
#
#
# Convention : Reuss Voigt Hill
#
# Bulk Modulus (GPa) = 67.80371 82.12335 74.96353
# Shear Modulus (GPa) = 79.29830 5.93874 42.61852
#
# Velocity S-wave (km/s) = 6.67418 1.82647 4.89289
# Velocity P-wave (km/s) = 9.87323 7.11194 8.60408
#
# Compressibility (1/GPa) = 0.01474845
#
# Stress axis : x y z
#
# Youngs Moduli (GPa) = 70.52997 34.61560 82.49985
#
# Poissons Ratio (x) = 0.28150 0.29103
# Poissons Ratio (y) = 0.57356 0.70621
# Poissons Ratio (z) = 0.24880 0.29632
#
# Static dielectric constant tensor:
#      x y z
#    x 1.611730 0.000000 0.000000 
#    y 0.000000 1.590350 0.000000 
#    z 0.000000 0.000000 1.584280 
# 
# From -- ./inp_files/37163.got.cif
#   From: 2010.05.17/outbox.cif.g08.bks.cpg/sg51_19_cif.got.tgz:37163.got - 2010.06.03 11:52:47.
