data_PCOD9403323
_publ_section_title
;
Structure prediction by ZEFSAII (Michael W. Deem and Ramdas Pophale) SiO2 
 PCOD9403323
Probable space group: P M M A
;
_chemical_formula_sum "Si O2"
_cell_formula_units_Z 40
_cell_length_a 9.395127
_cell_length_b 7.561764
_cell_length_c 26.694849
_cell_angle_alpha 90.000000
_cell_angle_beta 90.000000
_cell_angle_gamma 90.000000
_cell_volume 1896.501728
_symmetry_space_group_name_H-M "P M M A"
_symmetry_group_IT_number 51
_symmetry_cell_setting 'orthorhombic'
loop_
_space_group_symop_operation_xyz
x,y,z
1/2-x,-y,z
1/2+x,-y,-z
-x,y,-z
-x,-y,-z
1/2+x,y,-z
1/2-x,y,z
x,-y,z
loop_
_atom_site_type_symbol
_atom_site_label
_atom_site_fract_x
_atom_site_fract_y
_atom_site_fract_z
Si Si1 0.411357 0.287446 0.746614
Si Si2 0.587089 0.711733 0.841627
Si Si3 0.585630 0.783700 0.450459
Si Si4 0.588193 0.787553 0.952686
Si Si5 0.087902 0.787903 0.353289
O O1 0.250000 0.220157 0.741422
O O2 0.403111 0.500000 0.750911
O O3 0.489847 0.220200 0.796605
O O4 0.505579 0.249140 0.697995
O O5 0.750000 0.780463 0.838563
O O6 0.594999 0.500000 0.836318
O O7 0.529911 0.747974 0.897362
O O8 0.500000 0.729488 0.500000
O O9 0.750000 0.726734 0.451093
O O10 0.502799 0.723423 0.400801
O O11 0.586883 0.000000 0.450108
O O12 0.750000 0.719343 0.954133
O O13 0.593878 0.000000 0.956840
O O14 0.500000 0.720237 0.000000
O O15 0.250000 0.719936 0.352529
O O16 0.096174 0.000000 0.358421
#
# Coordination Sequence:
#
# PCOD9403323 Si02
#       5
#     8   8   8   8   8
#     4  10  21  36  53  74 101 133 168 207 253 303
#     4   9  18  33  51  70  94 126 163 201 242 290
#     4   9  16  27  45  70 101 134 167 206 251 297
#     4   9  18  32  49  70  97 127 158 194 239 290
#     4  10  20  33  51  76 103 132 169 210 251 298
#
# _framework density 21.091466
#
# number of rings (size 3 to 8) (size 9 to 14) (size 15 to 20)
#    0.000    2.600    0.000    1.800    0.000    6.800 
#    0.000    2.000    0.000    0.600    0.000    0.000 
#    0.000    0.000    0.000    0.000    0.000    0.000 
#
# Total GULP energy -223370.394115 kJ/mol
# GULP energy per Si atom -5584.259853 kJ/mol
# Density = 2.104346 g / cm^3
# Si number density = 21.091466 Si / 1000 Ang^3
#
#
#
# Elastic Constant Matrix: (Units=GPa)
#
#
# Indices 1 2 3 4 5 6 
#
# 1 187.8610 6.0785 140.9570 0.0000 0.0000 0.0000
# 2 6.0785 49.3505 -2.2542 0.0000 0.0000 0.0000
# 3 140.9570 -2.2542 245.5083 0.0000 0.0000 0.0000
# 4 0.0000 0.0000 0.0000 27.2381 0.0000 0.0000
# 5 0.0000 0.0000 0.0000 0.0000 41.9914 0.0000
# 6 0.0000 0.0000 0.0000 0.0000 0.0000 12.9636
#
#
#
# Elastic Compliance Matrix: (Units=1/GPa)
#
#
# Indices 1 2 3 4 5 6 
#
# 1 0.009449 -0.001412 -0.005438 0.000000 0.000000 0.000000
# 2 -0.001412 0.020483 0.000999 0.000000 0.000000 0.000000
# 3 -0.005438 0.000999 0.007205 0.000000 0.000000 0.000000
# 4 0.000000 0.000000 0.000000 0.036713 0.000000 0.000000
# 5 0.000000 0.000000 0.000000 0.000000 0.023814 0.000000
# 6 0.000000 0.000000 0.000000 0.000000 0.000000 0.077139
#
#
# Mechanical properties :
#
#
# Convention : Reuss Voigt Hill
#
# Bulk Modulus (GPa) = 39.31808 85.80917 62.56362
# Shear Modulus (GPa) = 25.64311 38.96785 32.30548
#
# Velocity S-wave (km/s) = 3.49062 4.30299 3.91792
# Velocity P-wave (km/s) = 5.91000 8.09075 7.08479
#
# Compressibility (1/GPa) = 0.02543359
#
# Stress axis : x y z
#
# Youngs Moduli (GPa) = 105.82952 48.82148 138.79970
#
# Poissons Ratio (x) = 0.06895 0.75481
# Poissons Ratio (y) = 0.14946 -0.13865
# Poissons Ratio (z) = 0.57552 -0.04877
#
# Static dielectric constant tensor:
#      x y z
#    x 1.745090 0.000000 0.000000 
#    y 0.000000 1.803240 0.000000 
#    z 0.000000 0.000000 1.720930 
# 
# From -- ./inp_files/27048.got.cif
#   From: 2010.05.17/outbox.cif.g08.bks.cpg/sg51_14_cif.got.tgz:27048.got - 2010.06.03 11:52:47.
