data_PCOD9403387
_publ_section_title
;
Structure prediction by ZEFSAII (Michael W. Deem and Ramdas Pophale) SiO2 
 PCOD9403387
Probable space group: P M M A
;
_chemical_formula_sum "Si O2"
_cell_formula_units_Z 56
_cell_length_a 20.679618
_cell_length_b 9.300644
_cell_length_c 15.566254
_cell_angle_alpha 90.000000
_cell_angle_beta 90.000000
_cell_angle_gamma 90.000000
_cell_volume 2993.916240
_symmetry_space_group_name_H-M "P M M A"
_symmetry_group_IT_number 51
_symmetry_cell_setting 'orthorhombic'
loop_
_space_group_symop_operation_xyz
x,y,z
1/2-x,-y,z
1/2+x,-y,-z
-x,y,-z
-x,-y,-z
1/2+x,y,-z
1/2-x,y,z
x,-y,z
loop_
_atom_site_type_symbol
_atom_site_label
_atom_site_fract_x
_atom_site_fract_y
_atom_site_fract_z
Si Si1 0.555162 0.327640 0.571878
Si Si2 0.675523 0.675139 0.948918
Si Si3 0.968122 0.673024 0.905866
Si Si4 0.646159 0.838514 0.302907
Si Si5 0.173370 0.657687 0.863645
Si Si6 0.322740 0.827899 0.506166
Si Si7 0.002523 0.834935 0.266006
O O1 0.500000 0.290988 0.500000
O O2 0.557034 0.500000 0.578189
O O3 0.622637 0.262182 0.540445
O O4 0.541149 0.258146 0.664518
O O5 0.750000 0.720226 0.925530
O O6 0.678236 0.500000 0.953305
O O7 0.609245 0.708875 0.898986
O O8 0.657923 0.728082 0.045173
O O9 0.974533 0.500000 0.895256
O O10 0.000287 0.758419 0.826978
O O11 0.000000 0.706099 0.000000
O O12 0.661336 0.743025 0.221729
O O13 0.673821 0.787519 0.393149
O O14 0.568923 0.841962 0.306511
O O15 0.670363 0.000000 0.288094
O O16 0.250000 0.640004 0.869668
O O17 0.141686 0.500000 0.859311
O O18 0.250000 0.803650 0.474000
O O19 0.336386 0.000000 0.501365
O O20 0.026074 0.000000 0.257668
#
# Coordination Sequence:
#
# PCOD9403387 Si02
#       7
#     8   8   8   8   8   8   8
#     4  11  23  40  63  89 116 150 195 246 293 345
#     4   8  15  30  51  74 103 143 187 231 285 342
#     4  10  20  35  57  85 116 150 192 246 298 346
#     4  10  20  33  51  77 111 149 186 227 282 349
#     4   9  17  29  48  75 106 142 185 231 281 341
#     4  10  21  38  60  85 117 156 194 236 290 353
#     4  11  23  38  59  84 113 153 197 241 292 355
#
# _framework density 18.704598000000001
#
# number of rings (size 3 to 8) (size 9 to 14) (size 15 to 20)
#    0.000    2.143    1.429    3.000    0.000    4.857 
#    0.000    1.429    0.000    3.857    0.000    0.000 
#    0.000    0.000    0.000    0.000    0.000    0.000 
#
# Total GULP energy -311983.444607 kJ/mol
# GULP energy per Si atom -5571.132939 kJ/mol
# Density = 1.866203 g / cm^3
# Si number density = 18.704598 Si / 1000 Ang^3
#
#
#
# Elastic Constant Matrix: (Units=GPa)
#
#
# Indices 1 2 3 4 5 6 
#
# 1 93.3644 29.4117 28.8131 0.0000 0.0000 0.0000
# 2 29.4117 49.8887 38.5502 0.0000 0.0000 0.0000
# 3 28.8131 38.5502 73.9908 0.0000 0.0000 0.0000
# 4 0.0000 0.0000 0.0000 26.5761 0.0000 0.0000
# 5 0.0000 0.0000 0.0000 0.0000 32.5168 0.0000
# 6 0.0000 0.0000 0.0000 0.0000 0.0000 36.3535
#
#
#
# Elastic Compliance Matrix: (Units=1/GPa)
#
#
# Indices 1 2 3 4 5 6 
#
# 1 0.013300 -0.006426 -0.001831 0.000000 0.000000 0.000000
# 2 -0.006426 0.036658 -0.016597 0.000000 0.000000 0.000000
# 3 -0.001831 -0.016597 0.022876 0.000000 0.000000 0.000000
# 4 0.000000 0.000000 0.000000 0.037628 0.000000 0.000000
# 5 0.000000 0.000000 0.000000 0.000000 0.030753 0.000000
# 6 0.000000 0.000000 0.000000 0.000000 0.000000 0.027508
#
#
# Mechanical properties :
#
#
# Convention : Reuss Voigt Hill
#
# Bulk Modulus (GPa) = 43.24271 45.64378 44.44324
# Shear Modulus (GPa) = 22.11028 27.12054 24.61541
#
# Velocity S-wave (km/s) = 3.44187 3.81194 3.63162
# Velocity P-wave (km/s) = 6.24213 6.62042 6.43405
#
# Compressibility (1/GPa) = 0.02312529
#
# Stress axis : x y z
#
# Youngs Moduli (GPa) = 75.18694 27.27925 43.71487
#
# Poissons Ratio (x) = 0.17530 0.08005
# Poissons Ratio (y) = 0.48315 0.72553
# Poissons Ratio (z) = 0.13768 0.45275
#
# Static dielectric constant tensor:
#      x y z
#    x 1.687810 0.000000 0.000000 
#    y 0.000000 1.584390 0.000000 
#    z 0.000000 0.000000 1.653040 
# 
# From -- ./inp_files/25726.got.cif
#   From: 2010.05.17/outbox.cif.g08.bks.cpg/sg51_13_cif.got.tgz:25726.got - 2010.06.03 11:52:47.
