data_PCOD9403805
_publ_section_title
;
Structure prediction by ZEFSAII (Michael W. Deem and Ramdas Pophale) SiO2 
 PCOD9403805
Probable space group: P M M A
;
_chemical_formula_sum "Si O2"
_cell_formula_units_Z 56
_cell_length_a 22.107468
_cell_length_b 8.060591
_cell_length_c 14.642237
_cell_angle_alpha 90.000000
_cell_angle_beta 90.000000
_cell_angle_gamma 90.000000
_cell_volume 2609.235763
_symmetry_space_group_name_H-M "P M M A"
_symmetry_group_IT_number 51
_symmetry_cell_setting 'orthorhombic'
loop_
_space_group_symop_operation_xyz
x,y,z
1/2-x,-y,z
1/2+x,-y,-z
-x,y,-z
-x,-y,-z
1/2+x,y,-z
1/2-x,y,z
x,-y,z
loop_
_atom_site_type_symbol
_atom_site_label
_atom_site_fract_x
_atom_site_fract_y
_atom_site_fract_z
Si Si1 0.566555 0.300760 0.104254
Si Si2 0.003625 0.687107 0.389469
Si Si3 0.364921 0.193544 0.396682
Si Si4 0.129254 0.800925 0.603346
Si Si5 0.565772 0.297475 0.890534
Si Si6 0.315750 0.695851 0.212230
Si Si7 0.684704 0.199754 0.214002
O O1 0.564994 0.500000 0.107400
O O2 0.501090 0.241851 0.141809
O O3 0.626283 0.246153 0.156078
O O4 0.570276 0.253602 0.997493
O O5 0.010835 0.500000 0.353805
O O6 0.938561 0.757537 0.363615
O O7 0.000000 0.681533 0.500000
O O8 0.064372 0.786561 0.369293
O O9 0.359628 0.261514 0.500277
O O10 0.326066 0.282854 0.320170
O O11 0.348821 0.000000 0.396717
O O12 0.173987 0.741705 0.681906
O O13 0.132708 0.000000 0.596945
O O14 0.565984 0.500000 0.884552
O O15 0.624613 0.234279 0.837357
O O16 0.250000 0.766558 0.186221
O O17 0.314369 0.500000 0.191354
O O18 0.750000 0.259648 0.179332
O O19 0.686335 0.000000 0.216495
#
# Coordination Sequence:
#
# PCOD9403805 Si02
#       7
#     8   8   8   8   8   8   8
#     4   9  18  36  62  87 109 138 181 228 273 330
#     4   9  17  30  50  76 104 135 176 227 279 323
#     4  10  20  34  53  77 108 146 189 232 271 322
#     4   9  19  35  53  74 106 149 191 227 270 324
#     4   8  17  36  60  85 112 141 176 224 279 332
#     4  10  21  36  54  79 112 149 186 226 278 333
#     4  10  22  38  54  78 114 151 185 225 276 327
#
# _framework density 21.462223999999999
#
# number of rings (size 3 to 8) (size 9 to 14) (size 15 to 20)
#    0.000    2.714    0.000    1.714    2.000    4.571 
#    0.000    5.000    0.000    0.000    0.000    0.000 
#    0.000    0.000    0.000    0.000    0.000    0.000 
#
# Total GULP energy -312423.563298 kJ/mol
# GULP energy per Si atom -5578.992202 kJ/mol
# Density = 2.141338 g / cm^3
# Si number density = 21.462224 Si / 1000 Ang^3
#
#
#
# Elastic Constant Matrix: (Units=GPa)
#
#
# Indices 1 2 3 4 5 6 
#
# 1 198.0267 8.2905 80.6062 0.0000 0.0000 0.0000
# 2 8.2905 9.0468 4.2896 0.0000 0.0000 0.0000
# 3 80.6062 4.2896 76.0362 0.0000 0.0000 0.0000
# 4 0.0000 0.0000 0.0000 8.8186 0.0000 0.0000
# 5 0.0000 0.0000 0.0000 0.0000 15.6844 0.0000
# 6 0.0000 0.0000 0.0000 0.0000 0.0000 4.9574
#
#
#
# Elastic Compliance Matrix: (Units=1/GPa)
#
#
# Indices 1 2 3 4 5 6 
#
# 1 0.009010 -0.003830 -0.009336 0.000000 0.000000 0.000000
# 2 -0.003830 0.115203 -0.002439 0.000000 0.000000 0.000000
# 3 -0.009336 -0.002439 0.023186 0.000000 0.000000 0.000000
# 4 0.000000 0.000000 0.000000 0.113397 0.000000 0.000000
# 5 0.000000 0.000000 0.000000 0.000000 0.063758 0.000000
# 6 0.000000 0.000000 0.000000 0.000000 0.000000 0.201719
#
#
# Mechanical properties :
#
#
# Convention : Reuss Voigt Hill
#
# Bulk Modulus (GPa) = 8.60661 52.16472 30.38567
# Shear Modulus (GPa) = 8.38628 18.55363 13.46995
#
# Velocity S-wave (km/s) = 1.97887 2.94339 2.50794
# Velocity P-wave (km/s) = 3.03975 5.99246 4.75130
#
# Compressibility (1/GPa) = 0.11618977
#
# Stress axis : x y z
#
# Youngs Moduli (GPa) = 110.98468 8.68033 43.12948
#
# Poissons Ratio (x) = 0.03325 0.40264
# Poissons Ratio (y) = 0.42511 0.10518
# Poissons Ratio (z) = 1.03612 0.02117
#
# Static dielectric constant tensor:
#      x y z
#    x 1.801520 0.000000 0.000000 
#    y 0.000000 1.766870 0.000000 
#    z 0.000000 0.000000 1.797420 
# 
# From -- ./inp_files/25728.got.cif
#   From: 2010.05.17/outbox.cif.g08.bks.cpg/sg51_13_cif.got.tgz:25728.got - 2010.06.03 11:52:47.
