data_PCOD9403654
_publ_section_title
;
Structure prediction by ZEFSAII (Michael W. Deem and Ramdas Pophale) SiO2 
 PCOD9403654
Probable space group: P M M A
;
_chemical_formula_sum "Si O2"
_cell_formula_units_Z 44
_cell_length_a 9.631836
_cell_length_b 7.338848
_cell_length_c 31.639917
_cell_angle_alpha 90.000000
_cell_angle_beta 90.000000
_cell_angle_gamma 90.000000
_cell_volume 2236.517536
_symmetry_space_group_name_H-M "P M M A"
_symmetry_group_IT_number 51
_symmetry_cell_setting 'orthorhombic'
loop_
_space_group_symop_operation_xyz
x,y,z
1/2-x,-y,z
1/2+x,-y,-z
-x,y,-z
-x,-y,-z
1/2+x,y,-z
1/2-x,y,z
x,-y,z
loop_
_atom_site_type_symbol
_atom_site_label
_atom_site_fract_x
_atom_site_fract_y
_atom_site_fract_z
Si Si1 0.581381 0.207012 0.612948
Si Si2 0.089821 0.222285 0.293776
Si Si3 0.082174 0.500000 0.456447
Si Si4 0.089496 0.221826 0.039544
Si Si5 0.090359 0.222578 0.786334
Si Si6 0.410742 0.221883 0.133778
O O1 0.750000 0.205019 0.614767
O O2 0.540184 0.277835 0.659426
O O3 0.544027 0.328789 0.573168
O O4 0.532718 0.000000 0.607945
O O5 0.250000 0.278999 0.287246
O O6 0.992726 0.280063 0.255461
O O7 0.091080 0.000000 0.294579
O O8 0.250000 0.500000 0.462987
O O9 0.000000 0.500000 0.500000
O O10 0.250000 0.274069 0.034594
O O11 0.044042 0.278415 0.086632
O O12 0.085005 0.000000 0.039308
O O13 0.000000 0.285522 0.000000
O O14 0.250000 0.280079 0.786122
O O15 0.008772 0.281846 0.828297
O O16 0.089247 0.000000 0.786384
O O17 0.250000 0.276415 0.140168
O O18 0.411170 0.000000 0.134122
#
# Coordination Sequence:
#
# PCOD9403654 Si02
#       6
#     8   8   4   8   8   8
#     4   8  15  29  49  71  94 123 159 195 231 274
#     4   8  13  23  39  55  72  99 133 165 201 250
#     4  10  20  34  52  74 100 128 160 198 235 274
#     4   8  13  19  25  32  43  64  99 144 193 244
#     4   9  15  20  28  46  69  89 113 152 202 251
#     4   8  13  20  27  35  51  78 111 147 192 249
#
# _framework density 19.673441
#
# number of rings (size 3 to 8) (size 9 to 14) (size 15 to 20)
#    0.000    3.636    0.000    2.727    0.000    3.273 
#    0.000    4.545    0.000    1.091    0.000    0.000 
#    0.000    0.000    0.000    0.000    0.000    0.000 
#
# Total GULP energy -245362.838250 kJ/mol
# GULP energy per Si atom -5576.428142 kJ/mol
# Density = 1.962866 g / cm^3
# Si number density = 19.673441 Si / 1000 Ang^3
#
#
#
# Elastic Constant Matrix: (Units=GPa)
#
#
# Indices 1 2 3 4 5 6 
#
# 1 91.1169 19.0190 115.3791 0.0000 0.0000 0.0000
# 2 19.0190 79.6774 41.3559 0.0000 0.0000 0.0000
# 3 115.3791 41.3559 254.8157 0.0000 0.0000 0.0000
# 4 0.0000 0.0000 0.0000 3697.9529 0.0000 0.0000
# 5 0.0000 0.0000 0.0000 0.0000 37.9570 0.0000
# 6 0.0000 0.0000 0.0000 0.0000 0.0000 -6.8786
#
#
#
# Elastic Compliance Matrix: (Units=1/GPa)
#
#
# Indices 1 2 3 4 5 6 
#
# 1 0.025725 -0.000103 -0.011631 0.000000 0.000000 0.000000
# 2 -0.000103 0.013706 -0.002178 0.000000 0.000000 0.000000
# 3 -0.011631 -0.002178 0.009544 0.000000 0.000000 0.000000
# 4 0.000000 0.000000 0.000000 0.000270 0.000000 0.000000
# 5 0.000000 0.000000 0.000000 0.000000 0.026346 0.000000
# 6 0.000000 0.000000 0.000000 0.000000 0.000000 -0.145377
#
#
# Mechanical properties :
#
#
# Convention : Reuss Voigt Hill
#
# Bulk Modulus (GPa) = 47.28055 86.34644 66.81350
# Shear Modulus (GPa) = -143.21815 762.46332 309.62259
#
# Velocity S-wave (km/s) = -8.54141 19.70789 12.55877
# Velocity P-wave (km/s) = 8.55508 23.70344 15.63112
#
# Compressibility (1/GPa) = 0.02115035
#
# Stress axis : x y z
#
# Youngs Moduli (GPa) = 38.87270 72.96326 104.77318
#
# Poissons Ratio (x) = 0.00754 1.21865
# Poissons Ratio (y) = 0.00402 0.22815
# Poissons Ratio (z) = 0.45214 0.15888
#
# Static dielectric constant tensor:
#      x y z
#    x 1.644930 0.000000 0.000000 
#    y 0.000000 1.342960 0.000000 
#    z 0.000000 0.000000 1.671690 
# 
# From -- ./inp_files/36813.got.cif
#   From: 2010.05.17/outbox.cif.g08.bks.cpg/sg51_19_cif.got.tgz:36813.got - 2010.06.03 11:52:47.
