data_PCOD9403735
_publ_section_title
;
Structure prediction by ZEFSAII (Michael W. Deem and Ramdas Pophale) SiO2 
 PCOD9403735
Probable space group: P M M A
;
_chemical_formula_sum "Si O2"
_cell_formula_units_Z 64
_cell_length_a 19.238525
_cell_length_b 9.377881
_cell_length_c 20.835293
_cell_angle_alpha 90.000000
_cell_angle_beta 90.000000
_cell_angle_gamma 90.000000
_cell_volume 3759.032683
_symmetry_space_group_name_H-M "P M M A"
_symmetry_group_IT_number 51
_symmetry_cell_setting 'orthorhombic'
loop_
_space_group_symop_operation_xyz
x,y,z
1/2-x,-y,z
1/2+x,-y,-z
-x,y,-z
-x,-y,-z
1/2+x,y,-z
1/2-x,y,z
x,-y,z
loop_
_atom_site_type_symbol
_atom_site_label
_atom_site_fract_x
_atom_site_fract_y
_atom_site_fract_z
Si Si1 0.334689 0.335853 0.041415
Si Si2 0.923161 0.670322 0.472203
Si Si3 0.417385 0.828786 0.297763
Si Si4 0.667770 0.169731 0.830159
Si Si5 0.331606 0.669553 0.787331
Si Si6 0.060381 0.329028 0.675848
Si Si7 0.330973 0.171072 0.425438
Si Si8 0.834694 0.164133 0.084463
O O1 0.250000 0.335401 0.040137
O O2 0.357354 0.500000 0.040008
O O3 0.354516 0.256824 0.107057
O O4 0.358055 0.249962 0.978471
O O5 0.912109 0.500000 0.477281
O O6 0.921200 0.710597 0.397326
O O7 0.867796 0.751968 0.515383
O O8 0.000000 0.701281 0.500000
O O9 0.376226 0.792913 0.232693
O O10 0.490441 0.749859 0.303257
O O11 0.371049 0.791066 0.359845
O O12 0.427492 0.000000 0.298478
O O13 0.750000 0.196394 0.818518
O O14 0.660615 0.000000 0.842263
O O15 0.250000 0.699521 0.775444
O O16 0.337538 0.500000 0.800588
O O17 0.378152 0.703324 0.725696
O O18 0.354721 0.757017 0.849903
O O19 0.048886 0.500000 0.676451
O O20 0.250000 0.208770 0.420676
O O21 0.336020 0.000000 0.433092
O O22 0.750000 0.164618 0.083286
O O23 0.857418 0.000000 0.083110
#
# Coordination Sequence:
#
# PCOD9403735 Si02
#       8
#     8   8   8   8   8   8   8   8
#     4   9  16  26  43  70 102 135 171 210 254 304
#     4  10  20  36  56  78 105 138 177 218 261 313
#     4  10  20  34  53  75 103 140 176 212 257 310
#     4   9  17  30  48  71 101 136 174 215 256 300
#     4   9  18  33  52  74 100 131 168 211 259 309
#     4  10  21  36  55  77 103 136 173 213 257 312
#     4  10  21  36  55  81 109 138 176 220 265 313
#     4   9  16  27  46  72 101 132 166 208 257 307
#
# _framework density 17.025656000000001
#
# number of rings (size 3 to 8) (size 9 to 14) (size 15 to 20)
#    0.000    2.500    1.250    1.125    0.000    7.000 
#    0.000    1.250    0.000    4.500    0.000    5.250 
#    0.000    0.000    0.000    0.000    0.000    0.000 
#
# Total GULP energy -356962.531242 kJ/mol
# GULP energy per Si atom -5577.539551 kJ/mol
# Density = 1.698690 g / cm^3
# Si number density = 17.025656 Si / 1000 Ang^3
#
#
#
# Elastic Constant Matrix: (Units=GPa)
#
#
# Indices 1 2 3 4 5 6 
#
# 1 79.8627 49.5398 75.6738 0.0000 0.0000 0.0000
# 2 49.5398 62.2334 85.9979 0.0000 0.0000 0.0000
# 3 75.6738 85.9979 199.9021 0.0000 0.0000 0.0000
# 4 0.0000 0.0000 0.0000 31.3736 0.0000 0.0000
# 5 0.0000 0.0000 0.0000 0.0000 11.6589 0.0000
# 6 0.0000 0.0000 0.0000 0.0000 0.0000 21.2869
#
#
#
# Elastic Compliance Matrix: (Units=1/GPa)
#
#
# Indices 1 2 3 4 5 6 
#
# 1 0.025135 -0.016916 -0.002238 0.000000 0.000000 0.000000
# 2 -0.016916 0.051009 -0.015540 0.000000 0.000000 0.000000
# 3 -0.002238 -0.015540 0.012535 0.000000 0.000000 0.000000
# 4 0.000000 0.000000 0.000000 0.031874 0.000000 0.000000
# 5 0.000000 0.000000 0.000000 0.000000 0.085772 0.000000
# 6 0.000000 0.000000 0.000000 0.000000 0.000000 0.046977
#
#
# Mechanical properties :
#
#
# Convention : Reuss Voigt Hill
#
# Bulk Modulus (GPa) = 51.83866 84.93569 68.38717
# Shear Modulus (GPa) = 15.19198 21.58297 18.38748
#
# Velocity S-wave (km/s) = 2.99038 3.56430 3.28988
# Velocity P-wave (km/s) = 6.51434 8.18133 7.39496
#
# Compressibility (1/GPa) = 0.01929062
#
# Stress axis : x y z
#
# Youngs Moduli (GPa) = 39.78494 19.60435 79.77668
#
# Poissons Ratio (x) = 0.33163 0.17851
# Poissons Ratio (y) = 0.67301 1.23976
# Poissons Ratio (z) = 0.08902 0.30466
#
# Static dielectric constant tensor:
#      x y z
#    x 1.551260 0.000000 0.000000 
#    y 0.000000 1.569650 0.000000 
#    z 0.000000 0.000000 1.558580 
# 
# From -- ./inp_files/30562.got.cif
#   From: 2010.05.17/outbox.cif.g08.bks.cpg/sg51_16_cif.got.tgz:30562.got - 2010.06.03 11:52:47.
