data_PCOD9403722
_publ_section_title
;
Structure prediction by ZEFSAII (Michael W. Deem and Ramdas Pophale) SiO2 
 PCOD9403722
Probable space group: P M M A
;
_chemical_formula_sum "Si O2"
_cell_formula_units_Z 40
_cell_length_a 8.633776
_cell_length_b 21.703177
_cell_length_c 14.546471
_cell_angle_alpha 90.000000
_cell_angle_beta 90.000000
_cell_angle_gamma 90.000000
_cell_volume 2725.723099
_symmetry_space_group_name_H-M "P M M A"
_symmetry_group_IT_number 51
_symmetry_cell_setting 'orthorhombic'
loop_
_space_group_symop_operation_xyz
x,y,z
1/2-x,-y,z
1/2+x,-y,-z
-x,y,-z
-x,-y,-z
1/2+x,y,-z
1/2-x,y,z
x,-y,z
loop_
_atom_site_type_symbol
_atom_site_label
_atom_site_fract_x
_atom_site_fract_y
_atom_site_fract_z
Si Si1 0.563387 0.500000 0.602734
Si Si2 0.434653 0.737915 0.604072
Si Si3 0.936359 0.133433 0.604479
Si Si4 0.936065 0.377898 0.714261
Si Si5 0.936495 0.000000 0.604126
Si Si6 0.935574 0.427830 0.100052
O O1 0.750000 0.500000 0.599604
O O2 0.500000 0.500000 0.500000
O O3 0.514310 0.561378 0.656861
O O4 0.500000 0.731147 0.500000
O O5 0.250000 0.737975 0.599012
O O6 0.493258 0.803679 0.643133
O O7 0.494691 0.681971 0.665631
O O8 0.750000 0.138434 0.603090
O O9 0.000000 0.131761 0.500000
O O10 0.980971 0.066488 0.645995
O O11 0.750000 0.374583 0.712656
O O12 0.994178 0.388148 0.817699
O O13 0.000000 0.000000 0.500000
O O14 0.750000 0.000000 0.598934
O O15 0.750000 0.423720 0.100470
O O16 0.978986 0.500000 0.115353
O O17 0.000000 0.410446 0.000000
#
# Coordination Sequence:
#
# PCOD9403722 Si02
#       6
#     4   8   8   8   4   8
#     4  10  22  34  47  64  85 112 147 186 224 262
#     4  11  21  32  44  62  87 120 156 189 225 269
#     4   9  15  25  39  57  80 110 145 184 222 260
#     4  11  21  35  50  67  88 116 149 187 228 271
#     4   8  14  22  36  56  78 104 141 182 221 258
#     4  10  20  34  53  74  93 114 140 178 224 273
#
# _framework density 14.675003999999999
#
# number of rings (size 3 to 8) (size 9 to 14) (size 15 to 20)
#    0.000    2.000    1.000    5.400    0.000    4.800 
#    0.000    0.000    0.000    0.000    0.000    0.000 
#    0.000    0.000    0.000    0.900    0.000   11.500 
#
# Total GULP energy -222989.559190 kJ/mol
# GULP energy per Si atom -5574.738980 kJ/mol
# Density = 1.464160 g / cm^3
# Si number density = 14.675004 Si / 1000 Ang^3
#
#
#
# Elastic Constant Matrix: (Units=GPa)
#
#
# Indices 1 2 3 4 5 6 
#
# 1 69.9319 49.3214 29.4745 0.0000 0.0000 0.0000
# 2 49.3214 159.6514 57.2661 0.0000 0.0000 0.0000
# 3 29.4745 57.2661 77.3168 0.0000 0.0000 0.0000
# 4 0.0000 0.0000 0.0000 1.5362 0.0000 0.0000
# 5 0.0000 0.0000 0.0000 0.0000 21.6220 0.0000
# 6 0.0000 0.0000 0.0000 0.0000 0.0000 17.7947
#
#
#
# Elastic Compliance Matrix: (Units=1/GPa)
#
#
# Indices 1 2 3 4 5 6 
#
# 1 0.019139 -0.004488 -0.003972 0.000000 0.000000 0.000000
# 2 -0.004488 0.009582 -0.005386 0.000000 0.000000 0.000000
# 3 -0.003972 -0.005386 0.018438 0.000000 0.000000 0.000000
# 4 0.000000 0.000000 0.000000 0.650962 0.000000 0.000000
# 5 0.000000 0.000000 0.000000 0.000000 0.046249 0.000000
# 6 0.000000 0.000000 0.000000 0.000000 0.000000 0.056196
#
#
# Mechanical properties :
#
#
# Convention : Reuss Voigt Hill
#
# Bulk Modulus (GPa) = 51.37154 64.33601 57.85377
# Shear Modulus (GPa) = 5.98983 19.57980 12.78482
#
# Velocity S-wave (km/s) = 2.02250 3.65667 2.95481
# Velocity P-wave (km/s) = 6.36680 7.85901 7.15193
#
# Compressibility (1/GPa) = 0.01946603
#
# Stress axis : x y z
#
# Youngs Moduli (GPa) = 52.24947 104.36093 54.23724
#
# Poissons Ratio (x) = 0.46836 0.21544
# Poissons Ratio (y) = 0.23449 0.29214
# Poissons Ratio (z) = 0.20754 0.56212
#
# Static dielectric constant tensor:
#      x y z
#    x 1.488500 0.000000 0.000000 
#    y 0.000000 1.531150 0.000000 
#    z 0.000000 0.000000 1.446840 
# 
# From -- ./inp_files/14277.got.cif
#   From: 2010.05.17/outbox.cif.g08.bks.cpg/sg51_8_cif.got.tgz:14277.got - 2010.06.03 11:52:47.
