data_PCOD9403114
_publ_section_title
;
Structure prediction by ZEFSAII (Michael W. Deem and Ramdas Pophale) SiO2 
 PCOD9403114
Probable space group: P M M A
;
_chemical_formula_sum "Si O2"
_cell_formula_units_Z 64
_cell_length_a 23.620868
_cell_length_b 8.998139
_cell_length_c 18.695858
_cell_angle_alpha 90.000000
_cell_angle_beta 90.000000
_cell_angle_gamma 90.000000
_cell_volume 3973.689705
_symmetry_space_group_name_H-M "P M M A"
_symmetry_group_IT_number 51
_symmetry_cell_setting 'orthorhombic'
loop_
_space_group_symop_operation_xyz
x,y,z
1/2-x,-y,z
1/2+x,-y,-z
-x,y,-z
-x,-y,-z
1/2+x,y,-z
1/2-x,y,z
x,-y,z
loop_
_atom_site_type_symbol
_atom_site_label
_atom_site_fract_x
_atom_site_fract_y
_atom_site_fract_z
Si Si1 0.683667 0.680432 0.067029
Si Si2 0.000468 0.178756 0.415479
Si Si3 0.183100 0.177133 0.236147
Si Si4 0.876107 0.178070 0.359101
Si Si5 0.683239 0.679264 0.224056
Si Si6 0.885115 0.676722 0.634816
Si Si7 0.318854 0.672613 0.088018
Si Si8 0.317192 0.824939 0.492812
O O1 0.750000 0.721569 0.068460
O O2 0.681552 0.500000 0.064939
O O3 0.661551 0.726935 0.144881
O O4 0.660196 0.728692 0.989804
O O5 0.052349 0.257772 0.376650
O O6 0.000000 0.217613 0.500000
O O7 0.940324 0.217514 0.380238
O O8 0.007737 0.000000 0.411437
O O9 0.250000 0.214455 0.246242
O O10 0.145749 0.255805 0.296033
O O11 0.165933 0.232035 0.157074
O O12 0.177713 0.000000 0.242026
O O13 0.852557 0.253977 0.288299
O O14 0.837515 0.216019 0.427783
O O15 0.873462 0.000000 0.350099
O O16 0.750000 0.720390 0.231041
O O17 0.680964 0.500000 0.226520
O O18 0.886572 0.500000 0.639297
O O19 0.849286 0.729824 0.566083
O O20 0.250000 0.673610 0.083971
O O21 0.335642 0.500000 0.098066
O O22 0.250000 0.809446 0.485961
O O23 0.331868 0.000000 0.481899
#
# Coordination Sequence:
#
# PCOD9403114 Si02
#       8
#     8   8   8   8   8   8   8   8
#     4   7  11  22  41  65  95 133 168 193 228 282
#     4  10  20  39  60  71  88 123 166 208 251 298
#     4  10  20  33  49  71 102 136 166 197 240 295
#     4  10  20  34  53  73  93 124 165 206 245 287
#     4   9  17  29  46  71 105 139 166 196 238 289
#     4  12  24  35  51  74  99 124 160 207 250 291
#     4   8  13  24  44  68  95 128 166 203 235 274
#     4  10  20  35  53  71  96 131 166 196 236 294
#
# _framework density 16.105938999999999
#
# number of rings (size 3 to 8) (size 9 to 14) (size 15 to 20)
#    0.000    2.500    1.250    3.750    0.000    4.500 
#    0.000    0.625    0.000    2.250    0.000    0.875 
#    0.000    7.000    0.000    0.000    0.000    0.000 
#
# Total GULP energy -356680.404309 kJ/mol
# GULP energy per Si atom -5573.131317 kJ/mol
# Density = 1.606928 g / cm^3
# Si number density = 16.105939 Si / 1000 Ang^3
#
#
#
# Elastic Constant Matrix: (Units=GPa)
#
#
# Indices 1 2 3 4 5 6 
#
# 1 53.0274 29.4512 37.2745 0.0000 0.0000 0.0000
# 2 29.4512 36.3932 39.0700 0.0000 0.0000 0.0000
# 3 37.2745 39.0700 128.0773 0.0000 0.0000 0.0000
# 4 0.0000 0.0000 0.0000 45.4822 0.0000 0.0000
# 5 0.0000 0.0000 0.0000 0.0000 -0.7704 0.0000
# 6 0.0000 0.0000 0.0000 0.0000 0.0000 16.0983
#
#
#
# Elastic Compliance Matrix: (Units=1/GPa)
#
#
# Indices 1 2 3 4 5 6 
#
# 1 0.034695 -0.025631 -0.002279 0.000000 0.000000 0.000000
# 2 -0.025631 0.059793 -0.010780 0.000000 0.000000 0.000000
# 3 -0.002279 -0.010780 0.011760 0.000000 0.000000 0.000000
# 4 0.000000 0.000000 0.000000 0.021987 0.000000 0.000000
# 5 0.000000 0.000000 0.000000 0.000000 -1.298026 0.000000
# 6 0.000000 0.000000 0.000000 0.000000 0.000000 0.062118
#
#
# Mechanical properties :
#
#
# Convention : Reuss Voigt Hill
#
# Bulk Modulus (GPa) = 34.64086 47.67660 41.15873
# Shear Modulus (GPa) = -4.89874 19.60884 7.35505
#
# Velocity S-wave (km/s) = -1.74590 3.49304 2.13930
# Velocity P-wave (km/s) = 4.18217 6.77751 5.63139
#
# Compressibility (1/GPa) = 0.02886764
#
# Stress axis : x y z
#
# Youngs Moduli (GPa) = 28.82240 16.72439 85.03731
#
# Poissons Ratio (x) = 0.42866 0.19377
# Poissons Ratio (y) = 0.73874 0.91674
# Poissons Ratio (z) = 0.06568 0.18030
#
# Static dielectric constant tensor:
#      x y z
#    x 1.516850 0.000000 0.000000 
#    y 0.000000 1.538830 0.000000 
#    z 0.000000 0.000000 1.558810 
# 
# From -- ./inp_files/30940.got.cif
#   From: 2010.05.17/outbox.cif.g08.bks.cpg/sg51_16_cif.got.tgz:30940.got - 2010.06.03 11:52:47.
