data_PCOD9403004
_publ_section_title
;
Structure prediction by ZEFSAII (Michael W. Deem and Ramdas Pophale) SiO2 
 PCOD9403004
Probable space group: P M M A
;
_chemical_formula_sum "Si O2"
_cell_formula_units_Z 64
_cell_length_a 8.805611
_cell_length_b 14.446347
_cell_length_c 26.964218
_cell_angle_alpha 90.000000
_cell_angle_beta 90.000000
_cell_angle_gamma 90.000000
_cell_volume 3430.088836
_symmetry_space_group_name_H-M "P M M A"
_symmetry_group_IT_number 51
_symmetry_cell_setting 'orthorhombic'
loop_
_space_group_symop_operation_xyz
x,y,z
1/2-x,-y,z
1/2+x,-y,-z
-x,y,-z
-x,-y,-z
1/2+x,y,-z
1/2-x,y,z
x,-y,z
loop_
_atom_site_type_symbol
_atom_site_label
_atom_site_fract_x
_atom_site_fract_y
_atom_site_fract_z
Si Si1 0.568395 0.206395 0.949119
Si Si2 0.067948 0.395561 0.093185
Si Si3 0.568106 0.109880 0.749061
Si Si4 0.922853 0.612248 0.197028
Si Si5 0.933391 0.781353 0.649852
Si Si6 0.433641 0.393213 0.693454
Si Si7 0.433068 0.892322 0.447460
Si Si8 0.572143 0.888733 0.146716
O O1 0.750000 0.204196 0.951691
O O2 0.515358 0.313259 0.942182
O O3 0.514135 0.153608 0.900072
O O4 0.500000 0.168133 0.000000
O O5 0.250000 0.399231 0.090903
O O6 0.009288 0.500000 0.083246
O O7 0.020166 0.366696 0.148812
O O8 0.750000 0.120419 0.754392
O O9 0.519126 0.161692 0.699037
O O10 0.490150 0.143446 0.799800
O O11 0.536625 0.000000 0.743577
O O12 0.750000 0.646310 0.190783
O O13 0.915094 0.500000 0.199182
O O14 0.984266 0.638031 0.251113
O O15 0.750000 0.778478 0.649987
O O16 0.982569 0.832799 0.599800
O O17 0.999301 0.678868 0.655013
O O18 0.250000 0.390288 0.693862
O O19 0.478739 0.500000 0.685352
O O20 0.500000 0.860926 0.500000
O O21 0.250000 0.888953 0.449928
O O22 0.477037 0.000000 0.440255
O O23 0.750000 0.867236 0.142700
O O24 0.553356 0.000000 0.145680
#
# Coordination Sequence:
#
# PCOD9403004 Si02
#       8
#     8   8   8   8   8   8   8   8
#     4  11  24  40  58  80 105 135 174 218 265 318
#     4   9  19  35  54  77 105 135 169 211 257 309
#     4   9  18  34  55  80 112 145 173 207 259 322
#     4   8  15  29  48  70  97 132 172 210 254 308
#     4  10  20  32  52  82 112 145 185 225 268 317
#     4   9  19  34  49  71 107 147 185 225 270 317
#     4   9  18  34  55  80 112 148 185 227 273 323
#     4  10  22  40  60  81 106 137 173 216 266 318
#
# _framework density 18.65841
#
# number of rings (size 3 to 8) (size 9 to 14) (size 15 to 20)
#    0.000    2.625    0.000    1.875    1.750    5.500 
#    0.000    1.250    0.000    4.125    0.000    0.000 
#    0.000    0.000    0.000    0.000    0.000    0.000 
#
# Total GULP energy -357114.945382 kJ/mol
# GULP energy per Si atom -5579.921022 kJ/mol
# Density = 1.861594 g / cm^3
# Si number density = 18.658410 Si / 1000 Ang^3
#
#
#
# Elastic Constant Matrix: (Units=GPa)
#
#
# Indices 1 2 3 4 5 6 
#
# 1 16.1312 24.7494 32.4744 0.0000 0.0000 0.0000
# 2 24.7494 64.4304 60.5482 0.0000 0.0000 0.0000
# 3 32.4744 60.5482 150.4251 0.0000 0.0000 0.0000
# 4 0.0000 0.0000 0.0000 29.4979 0.0000 0.0000
# 5 0.0000 0.0000 0.0000 0.0000 28.3537 0.0000
# 6 0.0000 0.0000 0.0000 0.0000 0.0000 19.1811
#
#
#
# Elastic Compliance Matrix: (Units=1/GPa)
#
#
# Indices 1 2 3 4 5 6 
#
# 1 0.174944 -0.051000 -0.017240 0.000000 0.000000 0.000000
# 2 -0.051000 0.039831 -0.005022 0.000000 0.000000 0.000000
# 3 -0.017240 -0.005022 0.012391 0.000000 0.000000 0.000000
# 4 0.000000 0.000000 0.000000 0.033901 0.000000 0.000000
# 5 0.000000 0.000000 0.000000 0.000000 0.035269 0.000000
# 6 0.000000 0.000000 0.000000 0.000000 0.000000 0.052135
#
#
# Mechanical properties :
#
#
# Convention : Reuss Voigt Hill
#
# Bulk Modulus (GPa) = 12.40041 51.83674 32.11858
# Shear Modulus (GPa) = 9.58087 22.95418 16.26752
#
# Velocity S-wave (km/s) = 2.26849 3.51127 2.95593
# Velocity P-wave (km/s) = 3.67720 6.65440 5.37600
#
# Compressibility (1/GPa) = 0.08064248
#
# Stress axis : x y z
#
# Youngs Moduli (GPa) = 5.71613 25.10630 80.70270
#
# Poissons Ratio (x) = 1.28041 1.39128
# Poissons Ratio (y) = 0.29152 0.40532
# Poissons Ratio (z) = 0.09854 0.12609
#
# Static dielectric constant tensor:
#      x y z
#    x 1.630200 0.000000 0.000000 
#    y 0.000000 1.679040 0.000000 
#    z 0.000000 0.000000 1.628810 
# 
# From -- ./inp_files/34874.got.cif
#   From: 2010.05.17/outbox.cif.g08.bks.cpg/sg51_18_cif.got.tgz:34874.got - 2010.06.03 11:52:47.
