data_PCOD9403660
_publ_section_title
;
Structure prediction by ZEFSAII (Michael W. Deem and Ramdas Pophale) SiO2 
 PCOD9403660
Probable space group: P M M A
;
_chemical_formula_sum "Si O2"
_cell_formula_units_Z 44
_cell_length_a 7.618908
_cell_length_b 14.080274
_cell_length_c 19.057375
_cell_angle_alpha 90.000000
_cell_angle_beta 90.000000
_cell_angle_gamma 90.000000
_cell_volume 2044.404911
_symmetry_space_group_name_H-M "P M M A"
_symmetry_group_IT_number 51
_symmetry_cell_setting 'orthorhombic'
loop_
_space_group_symop_operation_xyz
x,y,z
1/2-x,-y,z
1/2+x,-y,-z
-x,y,-z
-x,-y,-z
1/2+x,y,-z
1/2-x,y,z
x,-y,z
loop_
_atom_site_type_symbol
_atom_site_label
_atom_site_fract_x
_atom_site_fract_y
_atom_site_fract_z
Si Si1 0.954369 0.897504 0.216879
Si Si2 0.959337 0.800487 0.919223
Si Si3 0.962850 0.700454 0.282432
Si Si4 0.460030 0.000000 0.583007
Si Si5 0.460626 0.790211 0.581809
Si Si6 0.543896 0.603118 0.855591
O O1 0.750000 0.900261 0.237918
O O2 0.025989 0.801362 0.250367
O O3 0.965144 0.878336 0.133805
O O4 0.031806 0.000000 0.235190
O O5 0.750000 0.801410 0.909247
O O6 0.028912 0.696389 0.894655
O O7 0.000000 0.816843 0.000000
O O8 0.750000 0.695801 0.279311
O O9 0.018151 0.709195 0.363553
O O10 0.027522 0.622299 0.227870
O O11 0.500000 0.000000 0.500000
O O12 0.526144 0.104269 0.605329
O O13 0.250000 0.000000 0.594583
O O14 0.500000 0.774779 0.500000
O O15 0.250000 0.794819 0.587076
O O16 0.750000 0.600390 0.872890
O O17 0.467410 0.500000 0.873524
#
# Coordination Sequence:
#
# PCOD9403660 Si02
#       6
#     8   8   8   4   8   8
#     4   9  18  32  50  71  97 132 170 202 236 280
#     4  10  20  34  52  74 101 128 158 197 238 285
#     4   9  18  31  49  74  99 126 163 205 244 285
#     4   8  14  24  38  58  88 124 157 188 225 270
#     4   9  17  28  44  67  97 130 164 200 240 283
#     4   9  19  36  55  74  97 125 156 194 245 298
#
# _framework density 21.522155999999999
#
# number of rings (size 3 to 8) (size 9 to 14) (size 15 to 20)
#    0.000    2.909    0.000    0.545    1.273    2.909 
#    0.000    0.000    0.000    0.545    0.000    0.000 
#    0.000    0.000    0.000    0.000    0.000    0.000 
#
# Total GULP energy -245245.300364 kJ/mol
# GULP energy per Si atom -5573.756826 kJ/mol
# Density = 2.147317 g / cm^3
# Si number density = 21.522156 Si / 1000 Ang^3
#
#
#
# Elastic Constant Matrix: (Units=GPa)
#
#
# Indices 1 2 3 4 5 6 
#
# 1 49.3687 0.5035 -12.5641 0.0000 0.0000 0.0000
# 2 0.5035 45.4875 -18.5862 0.0000 0.0000 0.0000
# 3 -12.5641 -18.5862 71.6756 0.0000 0.0000 0.0000
# 4 0.0000 0.0000 0.0000 15.4502 0.0000 0.0000
# 5 0.0000 0.0000 0.0000 0.0000 15.0117 0.0000
# 6 0.0000 0.0000 0.0000 0.0000 0.0000 10.4409
#
#
#
# Elastic Compliance Matrix: (Units=1/GPa)
#
#
# Indices 1 2 3 4 5 6 
#
# 1 0.021286 0.001442 0.004105 0.000000 0.000000 0.000000
# 2 0.001442 0.024687 0.006654 0.000000 0.000000 0.000000
# 3 0.004105 0.006654 0.016397 0.000000 0.000000 0.000000
# 4 0.000000 0.000000 0.000000 0.064724 0.000000 0.000000
# 5 0.000000 0.000000 0.000000 0.000000 0.066615 0.000000
# 6 0.000000 0.000000 0.000000 0.000000 0.000000 0.095777
#
#
# Mechanical properties :
#
#
# Convention : Reuss Voigt Hill
#
# Bulk Modulus (GPa) = 11.52448 11.69314 11.60881
# Shear Modulus (GPa) = 17.00638 21.32580 19.16609
#
# Velocity S-wave (km/s) = 2.81406 3.15123 2.98741
# Velocity P-wave (km/s) = 3.99061 4.32264 4.15994
#
# Compressibility (1/GPa) = 0.08677184
#
# Stress axis : x y z
#
# Youngs Moduli (GPa) = 46.97971 40.50707 60.98731
#
# Poissons Ratio (x) = -0.05840 -0.25036
# Poissons Ratio (y) = -0.06773 -0.40583
# Poissons Ratio (z) = -0.19285 -0.26955
#
# Static dielectric constant tensor:
#      x y z
#    x 1.821060 0.000000 0.000000 
#    y 0.000000 1.799130 0.000000 
#    z 0.000000 0.000000 1.808550 
# 
# From -- ./inp_files/27322.got.cif
#   From: 2010.05.17/outbox.cif.g08.bks.cpg/sg51_14_cif.got.tgz:27322.got - 2010.06.03 11:52:47.
