data_PCOD9403727
_publ_section_title
;
Structure prediction by ZEFSAII (Michael W. Deem and Ramdas Pophale) SiO2 
 PCOD9403727
Probable space group: P M M A
;
_chemical_formula_sum "Si O2"
_cell_formula_units_Z 40
_cell_length_a 14.030535
_cell_length_b 8.230668
_cell_length_c 19.119787
_cell_angle_alpha 90.000000
_cell_angle_beta 90.000000
_cell_angle_gamma 90.000000
_cell_volume 2207.965917
_symmetry_space_group_name_H-M "P M M A"
_symmetry_group_IT_number 51
_symmetry_cell_setting 'orthorhombic'
loop_
_space_group_symop_operation_xyz
x,y,z
1/2-x,-y,z
1/2+x,-y,-z
-x,y,-z
-x,-y,-z
1/2+x,y,-z
1/2-x,y,z
x,-y,z
loop_
_atom_site_type_symbol
_atom_site_label
_atom_site_fract_x
_atom_site_fract_y
_atom_site_fract_z
Si Si1 0.142141 0.806814 0.040582
Si Si2 0.356245 0.198274 0.463643
Si Si3 0.359161 0.304263 0.751824
Si Si4 0.547400 0.196060 0.391747
Si Si5 0.050767 0.693404 0.897269
O O1 0.250000 0.747331 0.052198
O O2 0.060215 0.730244 0.088779
O O3 0.140408 0.000000 0.051250
O O4 0.109712 0.771260 0.961016
O O5 0.250000 0.254676 0.446915
O O6 0.440262 0.250181 0.411451
O O7 0.387044 0.246225 0.542268
O O8 0.355914 0.000000 0.462843
O O9 0.250000 0.244654 0.750197
O O10 0.356574 0.500000 0.754724
O O11 0.413310 0.256007 0.681498
O O12 0.411994 0.247902 0.822295
O O13 0.547756 0.000000 0.390674
O O14 0.065044 0.500000 0.901940
#
# Coordination Sequence:
#
# PCOD9403727 Si02
#       5
#     8   8   8   8   8
#     4  10  20  34  53  77 103 128 158 202 249 288
#     4   8  14  27  47  71  98 125 156 197 241 283
#     4  10  21  35  49  69  99 129 156 194 244 289
#     4   9  17  29  49  74  95 122 162 200 235 283
#     4  10  20  34  53  74  98 131 168 201 236 289
#
# _framework density 18.116222
#
# number of rings (size 3 to 8) (size 9 to 14) (size 15 to 20)
#    0.000    2.600    0.000    4.800    0.000    5.200 
#    0.000    3.000    0.000    5.400    0.000    0.000 
#    0.000    0.000    0.000    0.000    0.000    0.000 
#
# Total GULP energy -223108.774879 kJ/mol
# GULP energy per Si atom -5577.719372 kJ/mol
# Density = 1.807499 g / cm^3
# Si number density = 18.116222 Si / 1000 Ang^3
#
#
#
# Elastic Constant Matrix: (Units=GPa)
#
#
# Indices 1 2 3 4 5 6 
#
# 1 159.5623 -0.2313 82.8594 0.0000 0.0000 0.0000
# 2 -0.2313 9.2082 2.4477 0.0000 0.0000 0.0000
# 3 82.8594 2.4477 142.2137 0.0000 0.0000 0.0000
# 4 0.0000 0.0000 0.0000 28.7407 0.0000 0.0000
# 5 0.0000 0.0000 0.0000 0.0000 15.9334 0.0000
# 6 0.0000 0.0000 0.0000 0.0000 0.0000 18.4976
#
#
#
# Elastic Compliance Matrix: (Units=1/GPa)
#
#
# Indices 1 2 3 4 5 6 
#
# 1 0.009010 0.001629 -0.005278 0.000000 0.000000 0.000000
# 2 0.001629 0.109392 -0.002832 0.000000 0.000000 0.000000
# 3 -0.005278 -0.002832 0.010155 0.000000 0.000000 0.000000
# 4 0.000000 0.000000 0.000000 0.034794 0.000000 0.000000
# 5 0.000000 0.000000 0.000000 0.000000 0.062761 0.000000
# 6 0.000000 0.000000 0.000000 0.000000 0.000000 0.054061
#
#
# Mechanical properties :
#
#
# Convention : Reuss Voigt Hill
#
# Bulk Modulus (GPa) = 8.65075 53.45954 31.05514
# Shear Modulus (GPa) = 15.07533 27.69490 21.38511
#
# Velocity S-wave (km/s) = 2.88782 3.91415 3.43948
# Velocity P-wave (km/s) = 3.98809 7.07111 5.74045
#
# Compressibility (1/GPa) = 0.11559698
#
# Stress axis : x y z
#
# Youngs Moduli (GPa) = 110.98542 9.14140 98.46943
#
# Poissons Ratio (x) = -0.01489 0.51970
# Poissons Ratio (y) = -0.18083 0.27888
# Poissons Ratio (z) = 0.58575 0.02589
#
# Static dielectric constant tensor:
#      x y z
#    x 1.636640 0.000000 0.000000 
#    y 0.000000 1.635490 0.000000 
#    z 0.000000 0.000000 1.588560 
# 
# From -- ./inp_files/29252.got.cif
#   From: 2010.05.17/outbox.cif.g08.bks.cpg/sg51_15_cif.got.tgz:29252.got - 2010.06.03 11:52:47.
