data_PCOD9403428
_publ_section_title
;
Structure prediction by ZEFSAII (Michael W. Deem and Ramdas Pophale) SiO2 
 PCOD9403428
Probable space group: P M M A
;
_chemical_formula_sum "Si O2"
_cell_formula_units_Z 48
_cell_length_a 9.767387
_cell_length_b 7.799286
_cell_length_c 31.497487
_cell_angle_alpha 90.000000
_cell_angle_beta 90.000000
_cell_angle_gamma 90.000000
_cell_volume 2399.435871
_symmetry_space_group_name_H-M "P M M A"
_symmetry_group_IT_number 51
_symmetry_cell_setting 'orthorhombic'
loop_
_space_group_symop_operation_xyz
x,y,z
1/2-x,-y,z
1/2+x,-y,-z
-x,y,-z
-x,-y,-z
1/2+x,y,-z
1/2-x,y,z
x,-y,z
loop_
_atom_site_type_symbol
_atom_site_label
_atom_site_fract_x
_atom_site_fract_y
_atom_site_fract_z
Si Si1 0.406110 0.795919 0.866971
Si Si2 0.904334 0.704796 0.788463
Si Si3 0.594067 0.290529 0.287279
Si Si4 0.594214 0.706550 0.038168
Si Si5 0.405437 0.707021 0.615899
Si Si6 0.405179 0.795173 0.461993
O O1 0.250000 0.727302 0.861726
O O2 0.507108 0.733789 0.830581
O O3 0.454109 0.749948 0.914426
O O4 0.399401 0.000000 0.863985
O O5 0.750000 0.773450 0.791740
O O6 0.894617 0.500000 0.782803
O O7 0.987808 0.772261 0.747763
O O8 0.750000 0.239217 0.276649
O O9 0.592281 0.500000 0.287007
O O10 0.564862 0.237350 0.335723
O O11 0.750000 0.771181 0.034213
O O12 0.598110 0.500000 0.035191
O O13 0.500000 0.771140 0.000000
O O14 0.250000 0.764164 0.604873
O O15 0.404221 0.500000 0.615851
O O16 0.516197 0.765006 0.581985
O O17 0.500000 0.725189 0.500000
O O18 0.250000 0.726491 0.462302
O O19 0.395552 0.000000 0.468042
#
# Coordination Sequence:
#
# PCOD9403428 Si02
#       6
#     8   8   8   8   8   8
#     4  10  21  36  53  74 102 137 175 211 250 299
#     4  10  20  33  52  78 104 132 169 211 254 300
#     4   8  15  30  52  76 102 133 168 206 249 299
#     4   9  18  33  53  76 101 130 166 208 251 297
#     4   9  18  33  54  80 106 131 164 207 254 304
#     4  10  21  36  53  73  99 134 174 212 252 300
#
# _framework density 20.004702999999999
#
# number of rings (size 3 to 8) (size 9 to 14) (size 15 to 20)
#    0.000    2.667    0.000    2.500    0.000    5.333 
#    0.000    4.167    0.000    1.000    0.000    0.000 
#    0.000    0.000    0.000    0.000    0.000    0.000 
#
# Total GULP energy -267872.281072 kJ/mol
# GULP energy per Si atom -5580.672522 kJ/mol
# Density = 1.995917 g / cm^3
# Si number density = 20.004703 Si / 1000 Ang^3
#
#
#
# Elastic Constant Matrix: (Units=GPa)
#
#
# Indices 1 2 3 4 5 6 
#
# 1 169.0432 8.3205 135.9933 0.0000 0.0000 0.0000
# 2 8.3205 24.6932 -0.2987 0.0000 0.0000 0.0000
# 3 135.9933 -0.2987 166.1183 0.0000 0.0000 0.0000
# 4 0.0000 0.0000 0.0000 43.3693 0.0000 0.0000
# 5 0.0000 0.0000 0.0000 0.0000 38.0934 0.0000
# 6 0.0000 0.0000 0.0000 0.0000 0.0000 14.1027
#
#
#
# Elastic Compliance Matrix: (Units=1/GPa)
#
#
# Indices 1 2 3 4 5 6 
#
# 1 0.018268 -0.006337 -0.014966 0.000000 0.000000 0.000000
# 2 -0.006337 0.042696 0.005264 0.000000 0.000000 0.000000
# 3 -0.014966 0.005264 0.018282 0.000000 0.000000 0.000000
# 4 0.000000 0.000000 0.000000 0.023058 0.000000 0.000000
# 5 0.000000 0.000000 0.000000 0.000000 0.026251 0.000000
# 6 0.000000 0.000000 0.000000 0.000000 0.000000 0.070908
#
#
# Mechanical properties :
#
#
# Convention : Reuss Voigt Hill
#
# Bulk Modulus (GPa) = 21.20092 71.98720 46.59406
# Shear Modulus (GPa) = 20.22140 33.50239 26.86189
#
# Velocity S-wave (km/s) = 3.18281 4.09678 3.66837
# Velocity P-wave (km/s) = 4.91203 7.64470 6.42532
#
# Compressibility (1/GPa) = 0.04716777
#
# Stress axis : x y z
#
# Youngs Moduli (GPa) = 54.74092 23.42148 54.69980
#
# Poissons Ratio (x) = 0.14841 0.81866
# Poissons Ratio (y) = 0.34687 -0.28795
# Poissons Ratio (z) = 0.81928 -0.12330
#
# Static dielectric constant tensor:
#      x y z
#    x 1.707840 0.000000 0.000000 
#    y 0.000000 1.733970 0.000000 
#    z 0.000000 0.000000 1.679050 
# 
# From -- ./inp_files/36881.got.cif
#   From: 2010.05.17/outbox.cif.g08.bks.cpg/sg51_19_cif.got.tgz:36881.got - 2010.06.03 11:52:47.
