data_PCOD9403383
_publ_section_title
;
Structure prediction by ZEFSAII (Michael W. Deem and Ramdas Pophale) SiO2 
 PCOD9403383
Probable space group: P M M A
;
_chemical_formula_sum "Si O2"
_cell_formula_units_Z 64
_cell_length_a 19.123434
_cell_length_b 9.299991
_cell_length_c 19.273074
_cell_angle_alpha 90.000000
_cell_angle_beta 90.000000
_cell_angle_gamma 90.000000
_cell_volume 3427.673118
_symmetry_space_group_name_H-M "P M M A"
_symmetry_group_IT_number 51
_symmetry_cell_setting 'orthorhombic'
loop_
_space_group_symop_operation_xyz
x,y,z
1/2-x,-y,z
1/2+x,-y,-z
-x,y,-z
-x,-y,-z
1/2+x,y,-z
1/2-x,y,z
x,-y,z
loop_
_atom_site_type_symbol
_atom_site_label
_atom_site_fract_x
_atom_site_fract_y
_atom_site_fract_z
Si Si1 0.668737 0.327571 0.297053
Si Si2 0.900143 0.669204 0.722166
Si Si3 0.333043 0.671150 0.423704
Si Si4 0.335000 0.835268 0.562434
Si Si5 0.041305 0.331457 0.796572
Si Si6 0.665860 0.164186 0.849935
Si Si7 0.333335 0.668866 0.008871
Si Si8 0.450320 0.170785 0.934211
O O1 0.750000 0.291546 0.282652
O O2 0.664588 0.500000 0.306995
O O3 0.646115 0.249837 0.367896
O O4 0.616032 0.289696 0.235346
O O5 0.881501 0.500000 0.731643
O O6 0.875279 0.710477 0.645481
O O7 0.862561 0.762923 0.780693
O O8 0.982415 0.683017 0.737386
O O9 0.250000 0.698834 0.412195
O O10 0.340531 0.500000 0.435534
O O11 0.356807 0.755828 0.491973
O O12 0.250000 0.835030 0.561058
O O13 0.358721 0.000000 0.564525
O O14 0.043368 0.500000 0.816833
O O15 0.021808 0.237093 0.862872
O O16 0.750000 0.160587 0.845829
O O17 0.648413 0.258576 0.917390
O O18 0.640431 0.000000 0.858547
O O19 0.250000 0.683559 0.998664
O O20 0.350550 0.500000 0.009488
O O21 0.377243 0.751529 0.951087
O O22 0.442314 0.000000 0.928710
O O23 0.500000 0.201623 0.000000
#
# Coordination Sequence:
#
# PCOD9403383 Si02
#       8
#     8   8   8   8   8   8   8   8
#     4   9  18  35  58  80 104 136 174 218 268 321
#     4  10  20  34  52  75 106 143 182 224 266 311
#     4   9  17  30  50  76 105 139 178 216 257 309
#     4   9  17  30  51  79 107 135 172 217 262 311
#     4  10  22  38  56  80 107 137 178 225 271 320
#     4  10  20  33  51  77 109 143 177 215 262 316
#     4  10  21  37  58  82 106 135 175 223 272 322
#     4  11  24  40  58  81 110 145 182 220 268 326
#
# _framework density 18.671559999999999
#
# number of rings (size 3 to 8) (size 9 to 14) (size 15 to 20)
#    0.000    2.250    0.000    2.625    0.000    8.500 
#    0.000    3.125    0.000    3.750    0.000    0.000 
#    0.000    0.000    0.000    0.000    0.000    0.000 
#
# Total GULP energy -357296.179467 kJ/mol
# GULP energy per Si atom -5582.752804 kJ/mol
# Density = 1.862906 g / cm^3
# Si number density = 18.671560 Si / 1000 Ang^3
#
#
#
# Elastic Constant Matrix: (Units=GPa)
#
#
# Indices 1 2 3 4 5 6 
#
# 1 48.4554 37.9663 36.9172 0.0000 0.0000 0.0000
# 2 37.9663 63.3938 46.1316 0.0000 0.0000 0.0000
# 3 36.9172 46.1316 91.3909 0.0000 0.0000 0.0000
# 4 0.0000 0.0000 0.0000 -54.7201 0.0000 0.0000
# 5 0.0000 0.0000 0.0000 0.0000 25.6698 0.0000
# 6 0.0000 0.0000 0.0000 0.0000 0.0000 15.5583
#
#
#
# Elastic Compliance Matrix: (Units=1/GPa)
#
#
# Indices 1 2 3 4 5 6 
#
# 1 0.041279 -0.019896 -0.006632 0.000000 0.000000 0.000000
# 2 -0.019896 0.034522 -0.009389 0.000000 0.000000 0.000000
# 3 -0.006632 -0.009389 0.018360 0.000000 0.000000 0.000000
# 4 0.000000 0.000000 0.000000 -0.018275 0.000000 0.000000
# 5 0.000000 0.000000 0.000000 0.000000 0.038956 0.000000
# 6 0.000000 0.000000 0.000000 0.000000 0.000000 0.064275
#
#
# Mechanical properties :
#
#
# Convention : Reuss Voigt Hill
#
# Bulk Modulus (GPa) = 44.78611 49.47448 47.13030
# Shear Modulus (GPa) = 19.35026 2.78325 11.06676
#
# Velocity S-wave (km/s) = 3.22273 1.22224 2.43720
# Velocity P-wave (km/s) = 6.15519 5.34290 5.76337
#
# Compressibility (1/GPa) = 0.02232835
#
# Stress axis : x y z
#
# Youngs Moduli (GPa) = 24.22520 28.96663 54.46562
#
# Poissons Ratio (x) = 0.57632 0.36120
# Poissons Ratio (y) = 0.48199 0.51138
# Poissons Ratio (z) = 0.16066 0.27197
#
# Static dielectric constant tensor:
#      x y z
#    x 1.656630 0.000000 0.000000 
#    y 0.000000 1.626940 0.000000 
#    z 0.000000 0.000000 1.615720 
# 
# From -- ./inp_files/30636.got.cif
#   From: 2010.05.17/outbox.cif.g08.bks.cpg/sg51_16_cif.got.tgz:30636.got - 2010.06.03 11:52:47.
