data_PCOD9403558
_publ_section_title
;
Structure prediction by ZEFSAII (Michael W. Deem and Ramdas Pophale) SiO2 
 PCOD9403558
Probable space group: P M M A
;
_chemical_formula_sum "Si O2"
_cell_formula_units_Z 64
_cell_length_a 19.265319
_cell_length_b 7.934741
_cell_length_c 21.730387
_cell_angle_alpha 90.000000
_cell_angle_beta 90.000000
_cell_angle_gamma 90.000000
_cell_volume 3321.822487
_symmetry_space_group_name_H-M "P M M A"
_symmetry_group_IT_number 51
_symmetry_cell_setting 'orthorhombic'
loop_
_space_group_symop_operation_xyz
x,y,z
1/2-x,-y,z
1/2+x,-y,-z
-x,y,-z
-x,-y,-z
1/2+x,y,-z
1/2-x,y,z
x,-y,z
loop_
_atom_site_type_symbol
_atom_site_label
_atom_site_fract_x
_atom_site_fract_y
_atom_site_fract_z
Si Si1 0.826670 0.201391 0.127042
Si Si2 0.077900 0.200530 0.503982
Si Si3 0.171088 0.296395 0.390921
Si Si4 0.828313 0.703573 0.749937
Si Si5 0.397734 0.205546 0.747113
Si Si6 0.330423 0.206680 0.618745
Si Si7 0.966883 0.800414 0.815158
Si Si8 0.463129 0.697009 0.939768
O O1 0.750000 0.267199 0.111766
O O2 0.852300 0.262652 0.194197
O O3 0.887591 0.235120 0.078682
O O4 0.822143 0.000000 0.132420
O O5 0.117578 0.228886 0.440274
O O6 0.124760 0.265885 0.560332
O O7 0.000000 0.270931 0.500000
O O8 0.071850 0.000000 0.514468
O O9 0.250000 0.244746 0.406872
O O10 0.168899 0.500000 0.392046
O O11 0.157546 0.242350 0.320625
O O12 0.750000 0.759059 0.766271
O O13 0.828269 0.500000 0.750358
O O14 0.889489 0.763785 0.793555
O O15 0.366625 0.261946 0.682350
O O16 0.476644 0.255894 0.763718
O O17 0.395923 0.000000 0.745699
O O18 0.250000 0.259642 0.615494
O O19 0.330034 0.000000 0.618519
O O20 0.988634 0.720656 0.879878
O O21 0.976387 0.000000 0.822703
O O22 0.453092 0.500000 0.950954
O O23 0.500000 0.772451 0.000000
#
# Coordination Sequence:
#
# PCOD9403558 Si02
#       8
#     8   8   8   8   8   8   8   8
#     4   9  17  31  53  81 109 136 172 222 273 314
#     4  10  21  32  46  71 102 134 172 221 264 306
#     4   9  19  36  55  72  95 133 177 219 266 320
#     4   9  19  36  56  77 103 137 176 218 267 323
#     4   8  15  27  46  73 102 131 163 203 255 315
#     4   9  16  27  44  66  95 131 166 202 252 310
#     4  10  20  33  55  83 108 134 168 216 267 311
#     4  10  21  37  56  78 108 148 186 216 253 306
#
# _framework density 19.266532999999999
#
# number of rings (size 3 to 8) (size 9 to 14) (size 15 to 20)
#    0.000    2.750    0.000    3.000    1.750    4.500 
#    0.000    1.875    0.000    1.500    0.000    0.000 
#    0.000    0.000    0.000    0.000    0.000    0.000 
#
# Total GULP energy -356965.190051 kJ/mol
# GULP energy per Si atom -5577.581095 kJ/mol
# Density = 1.922268 g / cm^3
# Si number density = 19.266533 Si / 1000 Ang^3
#
#
#
# Elastic Constant Matrix: (Units=GPa)
#
#
# Indices 1 2 3 4 5 6 
#
# 1 150.3063 -4.6894 74.0673 0.0000 0.0000 0.0000
# 2 -4.6894 9.9596 -6.7204 0.0000 0.0000 0.0000
# 3 74.0673 -6.7204 77.7814 0.0000 0.0000 0.0000
# 4 0.0000 0.0000 0.0000 17.6755 0.0000 0.0000
# 5 0.0000 0.0000 0.0000 0.0000 23.6696 0.0000
# 6 0.0000 0.0000 0.0000 0.0000 0.0000 13.6621
#
#
#
# Elastic Compliance Matrix: (Units=1/GPa)
#
#
# Indices 1 2 3 4 5 6 
#
# 1 0.012584 -0.002295 -0.012182 0.000000 0.000000 0.000000
# 2 -0.002295 0.107041 0.011433 0.000000 0.000000 0.000000
# 3 -0.012182 0.011433 0.025444 0.000000 0.000000 0.000000
# 4 0.000000 0.000000 0.000000 0.056576 0.000000 0.000000
# 5 0.000000 0.000000 0.000000 0.000000 0.042248 0.000000
# 6 0.000000 0.000000 0.000000 0.000000 0.000000 0.073195
#
#
# Mechanical properties :
#
#
# Convention : Reuss Voigt Hill
#
# Bulk Modulus (GPa) = 7.19507 40.37356 23.78432
# Shear Modulus (GPa) = 13.53172 22.69408 18.11290
#
# Velocity S-wave (km/s) = 2.65305 3.43578 3.06947
# Velocity P-wave (km/s) = 3.62319 6.06137 4.99338
#
# Compressibility (1/GPa) = 0.13898401
#
# Stress axis : x y z
#
# Youngs Moduli (GPa) = 79.46393 9.34224 39.30137
#
# Poissons Ratio (x) = 0.02144 0.47876
# Poissons Ratio (y) = 0.18233 -0.44935
# Poissons Ratio (z) = 0.96800 -0.10681
#
# Static dielectric constant tensor:
#      x y z
#    x 1.675760 0.000000 0.000000 
#    y 0.000000 1.699910 0.000000 
#    z 0.000000 0.000000 1.650740 
# 
# From -- ./inp_files/33881.got.cif
#   From: 2010.05.17/outbox.cif.g08.bks.cpg/sg51_17_cif.got.tgz:33881.got - 2010.06.03 11:52:47.
