data_PCOD9403451
_publ_section_title
;
Structure prediction by ZEFSAII (Michael W. Deem and Ramdas Pophale) SiO2 
 PCOD9403451
Probable space group: P M M A
;
_chemical_formula_sum "Si O2"
_cell_formula_units_Z 48
_cell_length_a 8.816000
_cell_length_b 31.704786
_cell_length_c 9.263825
_cell_angle_alpha 90.000000
_cell_angle_beta 90.000000
_cell_angle_gamma 90.000000
_cell_volume 2589.326106
_symmetry_space_group_name_H-M "P M M A"
_symmetry_group_IT_number 51
_symmetry_cell_setting 'orthorhombic'
loop_
_space_group_symop_operation_xyz
x,y,z
1/2-x,-y,z
1/2+x,-y,-z
-x,y,-z
-x,-y,-z
1/2+x,y,-z
1/2-x,y,z
x,-y,z
loop_
_atom_site_type_symbol
_atom_site_label
_atom_site_fract_x
_atom_site_fract_y
_atom_site_fract_z
Si Si1 0.068184 0.783990 0.659745
Si Si2 0.568252 0.293249 0.840322
Si Si3 0.431311 0.868027 0.839238
Si Si4 0.931340 0.451048 0.158085
Si Si5 0.068167 0.046082 0.162144
Si Si6 0.931340 0.376749 0.657666
O O1 0.250000 0.779783 0.652807
O O2 0.032241 0.827550 0.742585
O O3 0.000000 0.784249 0.500000
O O4 0.999708 0.745322 0.749666
O O5 0.750000 0.289173 0.847621
O O6 0.531416 0.336965 0.759420
O O7 0.500000 0.293271 0.000000
O O8 0.250000 0.871903 0.852090
O O9 0.498090 0.911398 0.773629
O O10 0.500000 0.862477 0.000000
O O11 0.750000 0.446226 0.152650
O O12 0.965962 0.500000 0.192843
O O13 0.001308 0.418836 0.271524
O O14 0.000000 0.442164 0.000000
O O15 0.250000 0.049877 0.154388
O O16 0.031857 0.000000 0.227952
O O17 0.000000 0.045144 0.000000
O O18 0.750000 0.380108 0.648034
O O19 0.000000 0.369892 0.500000
#
# Coordination Sequence:
#
# PCOD9403451 Si02
#       6
#     8   8   8   8   8   8
#     4  11  24  40  59  83 112 147 186 229 280 335
#     4  11  24  41  63  89 116 148 187 231 279 333
#     4  10  20  33  52  79 108 141 181 224 272 326
#     4  10  21  38  61  88 118 154 196 241 288 338
#     4   9  16  26  44  72 104 138 176 220 270 321
#     4  11  24  40  60  87 119 155 193 235 284 338
#
# _framework density 18.537644
#
# number of rings (size 3 to 8) (size 9 to 14) (size 15 to 20)
#    0.000    1.667    0.000    5.500    0.000   11.667 
#    0.000    0.000    0.000    0.500    0.000    0.000 
#    0.000    0.000    0.000    0.000    0.000    0.000 
#
# Total GULP energy -268174.839080 kJ/mol
# GULP energy per Si atom -5586.975814 kJ/mol
# Density = 1.849545 g / cm^3
# Si number density = 18.537644 Si / 1000 Ang^3
#
#
#
# Elastic Constant Matrix: (Units=GPa)
#
#
# Indices 1 2 3 4 5 6 
#
# 1 73.0960 73.9260 58.1214 0.0000 0.0000 0.0000
# 2 73.9260 149.6456 91.8496 0.0000 0.0000 0.0000
# 3 58.1214 91.8496 133.4419 0.0000 0.0000 0.0000
# 4 0.0000 0.0000 0.0000 -27.9528 0.0000 0.0000
# 5 0.0000 0.0000 0.0000 0.0000 32.9921 0.0000
# 6 0.0000 0.0000 0.0000 0.0000 0.0000 28.8073
#
#
#
# Elastic Compliance Matrix: (Units=1/GPa)
#
#
# Indices 1 2 3 4 5 6 
#
# 1 0.029013 -0.011387 -0.004799 0.000000 0.000000 0.000000
# 2 -0.011387 0.016040 -0.006081 0.000000 0.000000 0.000000
# 3 -0.004799 -0.006081 0.013770 0.000000 0.000000 0.000000
# 4 0.000000 0.000000 0.000000 -0.035775 0.000000 0.000000
# 5 0.000000 0.000000 0.000000 0.000000 0.030310 0.000000
# 6 0.000000 0.000000 0.000000 0.000000 0.000000 0.034713
#
#
# Mechanical properties :
#
#
# Convention : Reuss Voigt Hill
#
# Bulk Modulus (GPa) = 69.98445 89.33084 79.65764
# Shear Modulus (GPa) = 36.39856 15.58841 25.99348
#
# Velocity S-wave (km/s) = 4.43594 2.90298 3.74866
# Velocity P-wave (km/s) = 8.00446 7.71556 7.86134
#
# Compressibility (1/GPa) = 0.01428889
#
# Stress axis : x y z
#
# Youngs Moduli (GPa) = 34.46758 62.34387 72.62394
#
# Poissons Ratio (x) = 0.70992 0.34851
# Poissons Ratio (y) = 0.39249 0.44161
# Poissons Ratio (z) = 0.16540 0.37910
#
# Static dielectric constant tensor:
#      x y z
#    x 1.618260 0.000000 0.000000 
#    y 0.000000 1.655880 0.000000 
#    z 0.000000 0.000000 1.596680 
# 
# From -- ./inp_files/6017.got.cif
#   From: 2010.05.17/outbox.cif.g08.bks.cpg/sg51_4_cif.got.tgz:6017.got - 2010.06.03 11:52:47.
