data_PCOD9403227
_publ_section_title
;
Structure prediction by ZEFSAII (Michael W. Deem and Ramdas Pophale) SiO2 
 PCOD9403227
Probable space group: P M M A
;
_chemical_formula_sum "Si O2"
_cell_formula_units_Z 44
_cell_length_a 9.383150
_cell_length_b 7.979763
_cell_length_c 30.658886
_cell_angle_alpha 90.000000
_cell_angle_beta 90.000000
_cell_angle_gamma 90.000000
_cell_volume 2295.593691
_symmetry_space_group_name_H-M "P M M A"
_symmetry_group_IT_number 51
_symmetry_cell_setting 'orthorhombic'
loop_
_space_group_symop_operation_xyz
x,y,z
1/2-x,-y,z
1/2+x,-y,-z
-x,y,-z
-x,-y,-z
1/2+x,y,-z
1/2-x,y,z
x,-y,z
loop_
_atom_site_type_symbol
_atom_site_label
_atom_site_fract_x
_atom_site_fract_y
_atom_site_fract_z
Si Si1 0.086489 0.299625 0.713006
Si Si2 0.087595 0.201879 0.372085
Si Si3 0.085735 0.205069 0.543087
Si Si4 0.077849 0.000000 0.046109
Si Si5 0.579614 0.686518 0.893327
Si Si6 0.084168 0.198742 0.809378
O O1 0.250000 0.238540 0.706466
O O2 0.089598 0.500000 0.714853
O O3 0.035570 0.235106 0.760066
O O4 0.988962 0.246022 0.672986
O O5 0.250000 0.264459 0.373687
O O6 0.995098 0.261792 0.413287
O O7 0.092666 0.000000 0.375148
O O8 0.250000 0.259434 0.542239
O O9 0.000000 0.257151 0.500000
O O10 0.086406 0.000000 0.543300
O O11 0.037659 0.164775 0.073990
O O12 0.250000 0.000000 0.040542
O O13 0.000000 0.000000 0.000000
O O14 0.750000 0.698480 0.887490
O O15 0.545975 0.500000 0.910102
O O16 0.505329 0.712842 0.846817
O O17 0.250000 0.252067 0.811779
O O18 0.077016 0.000000 0.816972
#
# Coordination Sequence:
#
# PCOD9403227 Si02
#       6
#     8   8   8   4   8   8
#     4  10  21  36  53  75 105 141 180 223 272 326
#     4  10  20  33  50  74 103 136 176 220 267 323
#     4   9  16  27  46  72 101 132 168 215 269 324
#     4  10  22  40  60  86 120 156 198 246 291 344
#     4  10  21  38  60  86 118 156 195 238 291 346
#     4  10  20  35  58  86 114 146 187 233 282 337
#
# _framework density 19.167155000000001
#
# number of rings (size 3 to 8) (size 9 to 14) (size 15 to 20)
#    0.000    2.182    0.909    2.182    0.000    7.273 
#    0.000    0.000    0.000    0.545    0.000    0.000 
#    0.000    0.000    0.000    0.000    0.000    0.000 
#
# Total GULP energy -245716.103581 kJ/mol
# GULP energy per Si atom -5584.456900 kJ/mol
# Density = 1.912353 g / cm^3
# Si number density = 19.167155 Si / 1000 Ang^3
#
#
#
# Elastic Constant Matrix: (Units=GPa)
#
#
# Indices 1 2 3 4 5 6 
#
# 1 93.9769 34.7698 80.4806 0.0000 0.0000 0.0000
# 2 34.7698 70.7880 51.3347 0.0000 0.0000 0.0000
# 3 80.4806 51.3347 169.6890 0.0000 0.0000 0.0000
# 4 0.0000 0.0000 0.0000 -9.8815 0.0000 0.0000
# 5 0.0000 0.0000 0.0000 0.0000 40.1330 0.0000
# 6 0.0000 0.0000 0.0000 0.0000 0.0000 11.8506
#
#
#
# Elastic Compliance Matrix: (Units=1/GPa)
#
#
# Indices 1 2 3 4 5 6 
#
# 1 0.018573 -0.003503 -0.007749 0.000000 0.000000 0.000000
# 2 -0.003503 0.018758 -0.004013 0.000000 0.000000 0.000000
# 3 -0.007749 -0.004013 0.010782 0.000000 0.000000 0.000000
# 4 0.000000 0.000000 0.000000 -0.101199 0.000000 0.000000
# 5 0.000000 0.000000 0.000000 0.000000 0.024917 0.000000
# 6 0.000000 0.000000 0.000000 0.000000 0.000000 0.084384
#
#
# Mechanical properties :
#
#
# Convention : Reuss Voigt Hill
#
# Bulk Modulus (GPa) = 56.87493 74.18043 65.52768
# Shear Modulus (GPa) = 53.99141 19.61168 36.80154
#
# Velocity S-wave (km/s) = 5.31318 3.20221 4.38657
# Velocity P-wave (km/s) = 8.20837 7.24279 7.74065
#
# Compressibility (1/GPa) = 0.01758244
#
# Stress axis : x y z
#
# Youngs Moduli (GPa) = 53.84045 53.31158 92.74287
#
# Poissons Ratio (x) = 0.18676 0.71869
# Poissons Ratio (y) = 0.18862 0.37218
# Poissons Ratio (z) = 0.41722 0.21394
#
# Static dielectric constant tensor:
#      x y z
#    x 1.653130 0.000000 0.000000 
#    y 0.000000 1.695820 0.000000 
#    z 0.000000 0.000000 1.622680 
# 
# From -- ./inp_files/36732.got.cif
#   From: 2010.05.17/outbox.cif.g08.bks.cpg/sg51_19_cif.got.tgz:36732.got - 2010.06.03 11:52:47.
