data_PCOD9403350
_publ_section_title
;
Structure prediction by ZEFSAII (Michael W. Deem and Ramdas Pophale) SiO2 
 PCOD9403350
Probable space group: P M M A
;
_chemical_formula_sum "Si O2"
_cell_formula_units_Z 48
_cell_length_a 9.428080
_cell_length_b 7.761104
_cell_length_c 31.774237
_cell_angle_alpha 90.000000
_cell_angle_beta 90.000000
_cell_angle_gamma 90.000000
_cell_volume 2324.994301
_symmetry_space_group_name_H-M "P M M A"
_symmetry_group_IT_number 51
_symmetry_cell_setting 'orthorhombic'
loop_
_space_group_symop_operation_xyz
x,y,z
1/2-x,-y,z
1/2+x,-y,-z
-x,y,-z
-x,-y,-z
1/2+x,y,-z
1/2-x,y,z
x,-y,z
loop_
_atom_site_type_symbol
_atom_site_label
_atom_site_fract_x
_atom_site_fract_y
_atom_site_fract_z
Si Si1 0.086795 0.289027 0.041376
Si Si2 0.588300 0.792616 0.540219
Si Si3 0.911523 0.794897 0.797235
Si Si4 0.910021 0.705213 0.121648
Si Si5 0.588004 0.292838 0.702856
Si Si6 0.588921 0.707807 0.376789
O O1 0.250000 0.232525 0.040214
O O2 0.088609 0.500000 0.041749
O O3 0.006634 0.228481 0.083389
O O4 0.000000 0.236837 0.000000
O O5 0.500000 0.727610 0.500000
O O6 0.750000 0.727199 0.540831
O O7 0.505509 0.751514 0.582891
O O8 0.595197 0.000000 0.536727
O O9 0.750000 0.726038 0.802385
O O10 0.959916 0.749348 0.750100
O O11 0.013320 0.732270 0.833967
O O12 0.905053 0.000000 0.800219
O O13 0.750000 0.775642 0.121168
O O14 0.899793 0.500000 0.115162
O O15 0.750000 0.227814 0.697945
O O16 0.593142 0.500000 0.699516
O O17 0.487156 0.228356 0.665738
O O18 0.750000 0.772230 0.381106
O O19 0.595259 0.500000 0.374180
#
# Coordination Sequence:
#
# PCOD9403350 Si02
#       6
#     8   8   8   8   8   8
#     4   9  16  27  46  73 104 135 169 212 259 306
#     4  10  21  37  57  80 107 141 180 220 262 309
#     4  10  21  36  54  77 105 137 174 216 262 313
#     4  10  20  33  51  76 105 138 176 216 259 308
#     4   9  18  34  55  77 104 139 177 217 261 310
#     4  10  21  36  55  81 111 141 174 214 261 312
#
# _framework density 20.645212000000001
#
# number of rings (size 3 to 8) (size 9 to 14) (size 15 to 20)
#    0.000    2.333    0.000    2.500    0.000    7.667 
#    0.000    3.333    0.000    0.500    0.000    0.000 
#    0.000    0.000    0.000    0.000    0.000    0.000 
#
# Total GULP energy -268110.954195 kJ/mol
# GULP energy per Si atom -5585.644879 kJ/mol
# Density = 2.059822 g / cm^3
# Si number density = 20.645212 Si / 1000 Ang^3
#
#
#
# Elastic Constant Matrix: (Units=GPa)
#
#
# Indices 1 2 3 4 5 6 
#
# 1 207.3565 7.9141 148.5985 0.0000 0.0000 0.0000
# 2 7.9141 27.8917 -2.8065 0.0000 0.0000 0.0000
# 3 148.5985 -2.8065 206.0373 0.0000 0.0000 0.0000
# 4 0.0000 0.0000 0.0000 53.9044 0.0000 0.0000
# 5 0.0000 0.0000 0.0000 0.0000 42.9373 0.0000
# 6 0.0000 0.0000 0.0000 0.0000 0.0000 9.0916
#
#
#
# Elastic Compliance Matrix: (Units=1/GPa)
#
#
# Indices 1 2 3 4 5 6 
#
# 1 0.010348 -0.003692 -0.007513 0.000000 0.000000 0.000000
# 2 -0.003692 0.037220 0.003170 0.000000 0.000000 0.000000
# 3 -0.007513 0.003170 0.010315 0.000000 0.000000 0.000000
# 4 0.000000 0.000000 0.000000 0.018551 0.000000 0.000000
# 5 0.000000 0.000000 0.000000 0.000000 0.023290 0.000000
# 6 0.000000 0.000000 0.000000 0.000000 0.000000 0.109992
#
#
# Mechanical properties :
#
#
# Convention : Reuss Voigt Hill
#
# Bulk Modulus (GPa) = 23.91686 83.18864 53.55275
# Shear Modulus (GPa) = 20.85725 40.35862 30.60794
#
# Velocity S-wave (km/s) = 3.18192 4.42618 3.85459
# Velocity P-wave (km/s) = 5.01092 8.15496 6.76804
#
# Compressibility (1/GPa) = 0.04181151
#
# Stress axis : x y z
#
# Youngs Moduli (GPa) = 96.63807 26.86757 96.94153
#
# Poissons Ratio (x) = 0.09920 0.72836
# Poissons Ratio (y) = 0.35680 -0.30729
# Poissons Ratio (z) = 0.72608 -0.08517
#
# Static dielectric constant tensor:
#      x y z
#    x 1.731890 0.000000 0.000000 
#    y 0.000000 1.767050 0.000000 
#    z 0.000000 0.000000 1.691950 
# 
# From -- ./inp_files/36890.got.cif
#   From: 2010.05.17/outbox.cif.g08.bks.cpg/sg51_19_cif.got.tgz:36890.got - 2010.06.03 11:52:47.
