data_PCOD9403876
_publ_section_title
;
Structure prediction by ZEFSAII (Michael W. Deem and Ramdas Pophale) SiO2 
 PCOD9403876
Probable space group: P M M A
;
_chemical_formula_sum "Si O2"
_cell_formula_units_Z 48
_cell_length_a 15.848077
_cell_length_b 9.704909
_cell_length_c 17.328969
_cell_angle_alpha 90.000000
_cell_angle_beta 90.000000
_cell_angle_gamma 90.000000
_cell_volume 2665.267263
_symmetry_space_group_name_H-M "P M M A"
_symmetry_group_IT_number 51
_symmetry_cell_setting 'orthorhombic'
loop_
_space_group_symop_operation_xyz
x,y,z
1/2-x,-y,z
1/2+x,-y,-z
-x,y,-z
-x,-y,-z
1/2+x,y,-z
1/2-x,y,z
x,-y,z
loop_
_atom_site_type_symbol
_atom_site_label
_atom_site_fract_x
_atom_site_fract_y
_atom_site_fract_z
Si Si1 0.936052 0.662054 0.365825
Si Si2 0.250000 0.334666 0.907063
Si Si3 0.845612 0.848819 0.485745
Si Si4 0.081311 0.335484 0.808990
Si Si5 0.750000 0.166423 0.934946
Si Si6 0.091336 0.837240 0.172717
Si Si7 0.597927 0.842680 0.653827
O O1 0.939040 0.500000 0.377006
O O2 0.893016 0.733994 0.438161
O O3 0.896395 0.690497 0.281269
O O4 0.027219 0.729429 0.358632
O O5 0.250000 0.500000 0.921517
O O6 0.163856 0.303515 0.859775
O O7 0.250000 0.247805 0.985215
O O8 0.750000 0.849631 0.458380
O O9 0.845374 0.831608 0.578070
O O10 0.884308 0.000000 0.470289
O O11 0.063300 0.500000 0.816080
O O12 0.996067 0.249937 0.829669
O O13 0.664645 0.201422 0.887309
O O14 0.750000 0.000000 0.945584
O O15 0.130293 0.823145 0.259279
O O16 0.071491 0.000000 0.161669
O O17 0.563242 0.000000 0.653024
#
# Coordination Sequence:
#
# PCOD9403876 Si02
#       7
#     8   4   8   8   4   8   8
#     4  10  20  34  54  76 103 139 179 223 270 314
#     4  10  22  40  60  81 108 146 184 221 270 332
#     4  10  21  33  48  75 107 140 180 221 260 310
#     4   9  20  38  59  81 108 145 188 226 268 324
#     4  10  22  38  58  87 116 142 174 221 278 332
#     4   9  19  36  59  84 112 145 181 222 273 325
#     4   9  18  34  55  75 102 141 181 218 260 314
#
# _framework density 18.009450000000001
#
# number of rings (size 3 to 8) (size 9 to 14) (size 15 to 20)
#    0.000    2.500    0.000    1.000    2.333    5.667 
#    0.000    3.333    0.000    0.000    0.000    0.000 
#    0.000    0.000    0.000    0.000    0.000    0.000 
#
# Total GULP energy -267336.743719 kJ/mol
# GULP energy per Si atom -5569.515494 kJ/mol
# Density = 1.796846 g / cm^3
# Si number density = 18.009450 Si / 1000 Ang^3
#
#
#
# Elastic Constant Matrix: (Units=GPa)
#
#
# Indices 1 2 3 4 5 6 
#
# 1 76.0594 47.3023 58.2585 0.0000 0.0000 0.0000
# 2 47.3023 74.7446 66.9416 0.0000 0.0000 0.0000
# 3 58.2585 66.9416 108.0210 0.0000 0.0000 0.0000
# 4 0.0000 0.0000 0.0000 30.1186 0.0000 0.0000
# 5 0.0000 0.0000 0.0000 0.0000 35.7251 0.0000
# 6 0.0000 0.0000 0.0000 0.0000 0.0000 34.9609
#
#
#
# Elastic Compliance Matrix: (Units=1/GPa)
#
#
# Indices 1 2 3 4 5 6 
#
# 1 0.024469 -0.008239 -0.008091 0.000000 0.000000 0.000000
# 2 -0.008239 0.032840 -0.015908 0.000000 0.000000 0.000000
# 3 -0.008091 -0.015908 0.023479 0.000000 0.000000 0.000000
# 4 0.000000 0.000000 0.000000 0.033202 0.000000 0.000000
# 5 0.000000 0.000000 0.000000 0.000000 0.027992 0.000000
# 6 0.000000 0.000000 0.000000 0.000000 0.000000 0.028603
#
#
# Mechanical properties :
#
#
# Convention : Reuss Voigt Hill
#
# Bulk Modulus (GPa) = 61.30126 67.09219 64.19673
# Shear Modulus (GPa) = 20.79017 25.91575 23.35296
#
# Velocity S-wave (km/s) = 3.40134 3.79754 3.60489
# Velocity P-wave (km/s) = 7.03831 7.52085 7.28358
#
# Compressibility (1/GPa) = 0.01631288
#
# Stress axis : x y z
#
# Youngs Moduli (GPa) = 40.86829 30.45063 42.59062
#
# Poissons Ratio (x) = 0.25088 0.34460
# Poissons Ratio (y) = 0.33671 0.67752
# Poissons Ratio (z) = 0.33066 0.48440
#
# Static dielectric constant tensor:
#      x y z
#    x 1.601440 0.000000 0.000000 
#    y 0.000000 1.608030 0.000000 
#    z 0.000000 0.000000 1.636710 
# 
# From -- ./inp_files/29574.got.cif
#   From: 2010.05.17/outbox.cif.g08.bks.cpg/sg51_15_cif.got.tgz:29574.got - 2010.06.03 11:52:47.
