data_PCOD9403975
_publ_section_title
;
Structure prediction by ZEFSAII (Michael W. Deem and Ramdas Pophale) SiO2 
 PCOD9403975
Probable space group: P M M A
;
_chemical_formula_sum "Si O2"
_cell_formula_units_Z 48
_cell_length_a 8.918118
_cell_length_b 9.423049
_cell_length_c 31.766918
_cell_angle_alpha 90.000000
_cell_angle_beta 90.000000
_cell_angle_gamma 90.000000
_cell_volume 2669.560366
_symmetry_space_group_name_H-M "P M M A"
_symmetry_group_IT_number 51
_symmetry_cell_setting 'orthorhombic'
loop_
_space_group_symop_operation_xyz
x,y,z
1/2-x,-y,z
1/2+x,-y,-z
-x,y,-z
-x,-y,-z
1/2+x,y,-z
1/2-x,y,z
x,-y,z
loop_
_atom_site_type_symbol
_atom_site_label
_atom_site_fract_x
_atom_site_fract_y
_atom_site_fract_z
Si Si1 0.927936 0.331423 0.377821
Si Si2 0.931075 0.333914 0.877317
Si Si3 0.069592 0.666635 0.288868
Si Si4 0.070921 0.166702 0.954890
Si Si5 0.428080 0.168550 0.455734
Si Si6 0.432763 0.163261 0.206060
O O1 0.750000 0.308754 0.378008
O O2 0.956933 0.500000 0.382343
O O3 0.995712 0.288076 0.332726
O O4 0.002534 0.249506 0.416304
O O5 0.750000 0.323013 0.880445
O O6 0.969315 0.500000 0.874511
O O7 0.978910 0.250990 0.835126
O O8 0.003480 0.260968 0.917827
O O9 0.250000 0.678162 0.292772
O O10 0.034632 0.500000 0.281629
O O11 0.020191 0.759051 0.248971
O O12 0.250000 0.181921 0.956822
O O13 0.035943 0.000000 0.946943
O O14 0.000000 0.204330 0.000000
O O15 0.500000 0.215211 0.500000
O O16 0.250000 0.190102 0.457185
O O17 0.457408 0.000000 0.451286
O O18 0.250000 0.163584 0.206262
O O19 0.482199 0.000000 0.204190
#
# Coordination Sequence:
#
# PCOD9403975 Si02
#       6
#     8   8   8   8   8   8
#     4  10  21  36  54  78 108 142 179 218 262 313
#     4  10  20  34  54  80 109 142 179 218 262 313
#     4   9  17  31  51  74 102 136 174 217 264 313
#     4  10  21  37  57  80 106 138 176 218 265 316
#     4  10  21  37  57  80 106 138 176 218 265 316
#     4   9  17  30  51  78 105 135 175 221 265 311
#
# _framework density 17.980488000000001
#
# number of rings (size 3 to 8) (size 9 to 14) (size 15 to 20)
#    0.000    2.333    0.000    2.500    0.000    7.333 
#    0.000    2.500    0.000    3.000    0.000    0.000 
#    0.000    0.000    0.000    0.000    0.000    0.000 
#
# Total GULP energy -267977.868368 kJ/mol
# GULP energy per Si atom -5582.872258 kJ/mol
# Density = 1.793956 g / cm^3
# Si number density = 17.980488 Si / 1000 Ang^3
#
#
#
# Elastic Constant Matrix: (Units=GPa)
#
#
# Indices 1 2 3 4 5 6 
#
# 1 30.4872 51.4703 63.8665 0.0000 0.0000 0.0000
# 2 51.4703 110.1266 122.3841 0.0000 0.0000 0.0000
# 3 63.8665 122.3841 223.5704 0.0000 0.0000 0.0000
# 4 0.0000 0.0000 0.0000 42.6172 0.0000 0.0000
# 5 0.0000 0.0000 0.0000 0.0000 31.5586 0.0000
# 6 0.0000 0.0000 0.0000 0.0000 0.0000 22.5205
#
#
#
# Elastic Compliance Matrix: (Units=1/GPa)
#
#
# Indices 1 2 3 4 5 6 
#
# 1 0.168816 -0.064615 -0.012854 0.000000 0.000000 0.000000
# 2 -0.064615 0.047916 -0.007771 0.000000 0.000000 0.000000
# 3 -0.012854 -0.007771 0.012399 0.000000 0.000000 0.000000
# 4 0.000000 0.000000 0.000000 0.023465 0.000000 0.000000
# 5 0.000000 0.000000 0.000000 0.000000 0.031687 0.000000
# 6 0.000000 0.000000 0.000000 0.000000 0.000000 0.044404
#
#
# Mechanical properties :
#
#
# Convention : Reuss Voigt Hill
#
# Bulk Modulus (GPa) = 17.05045 93.29177 55.17111
# Shear Modulus (GPa) = 9.63915 27.77014 18.70465
#
# Velocity S-wave (km/s) = 2.31787 3.93423 3.22883
# Velocity P-wave (km/s) = 4.08249 8.52263 6.68214
#
# Compressibility (1/GPa) = 0.05864947
#
# Stress axis : x y z
#
# Youngs Moduli (GPa) = 5.92362 20.86971 80.65253
#
# Poissons Ratio (x) = 1.34851 1.03670
# Poissons Ratio (y) = 0.38276 0.62678
# Poissons Ratio (z) = 0.07614 0.16219
#
# Static dielectric constant tensor:
#      x y z
#    x 1.602290 0.000000 0.000000 
#    y 0.000000 1.604930 0.000000 
#    z 0.000000 0.000000 1.580160 
# 
# From -- ./inp_files/36874.got.cif
#   From: 2010.05.17/outbox.cif.g08.bks.cpg/sg51_19_cif.got.tgz:36874.got - 2010.06.03 11:52:47.
