data_PCOD9403535
_publ_section_title
;
Structure prediction by ZEFSAII (Michael W. Deem and Ramdas Pophale) SiO2 
 PCOD9403535
Probable space group: P M M A
;
_chemical_formula_sum "Si O2"
_cell_formula_units_Z 64
_cell_length_a 8.872886
_cell_length_b 15.497698
_cell_length_c 25.538837
_cell_angle_alpha 90.000000
_cell_angle_beta 90.000000
_cell_angle_gamma 90.000000
_cell_volume 3511.827793
_symmetry_space_group_name_H-M "P M M A"
_symmetry_group_IT_number 51
_symmetry_cell_setting 'orthorhombic'
loop_
_space_group_symop_operation_xyz
x,y,z
1/2-x,-y,z
1/2+x,-y,-z
-x,y,-z
-x,-y,-z
1/2+x,y,-z
1/2-x,y,z
x,-y,z
loop_
_atom_site_type_symbol
_atom_site_label
_atom_site_fract_x
_atom_site_fract_y
_atom_site_fract_z
Si Si1 0.431081 0.402572 0.636600
Si Si2 0.570809 0.729251 0.554807
Si Si3 0.575972 0.868160 0.284977
Si Si4 0.569263 0.093193 0.823811
Si Si5 0.069524 0.283703 0.147484
Si Si6 0.569729 0.399791 0.057012
Si Si7 0.931466 0.096581 0.404691
Si Si8 0.075604 0.331192 0.744886
O O1 0.250000 0.387605 0.634344
O O2 0.461965 0.500000 0.618876
O O3 0.512107 0.332513 0.600915
O O4 0.474349 0.392259 0.697653
O O5 0.500000 0.699779 0.500000
O O6 0.750000 0.727748 0.552155
O O7 0.513164 0.826112 0.566049
O O8 0.750000 0.894933 0.277186
O O9 0.478153 0.901997 0.236989
O O10 0.529775 0.896203 0.342862
O O11 0.571483 0.764582 0.280334
O O12 0.750000 0.094273 0.827199
O O13 0.516154 0.183173 0.849514
O O14 0.515608 0.000000 0.844940
O O15 0.250000 0.284671 0.142954
O O16 0.996592 0.335916 0.100186
O O17 0.020517 0.326871 0.202480
O O18 0.750000 0.391782 0.054706
O O19 0.533320 0.500000 0.070108
O O20 0.500000 0.381948 0.000000
O O21 0.750000 0.108427 0.408536
O O22 0.968672 0.000000 0.423128
O O23 0.250000 0.350529 0.758672
#
# Coordination Sequence:
#
# PCOD9403535 Si02
#       8
#     8   8   8   8   8   8   8   8
#     4  10  21  40  65  88 112 144 183 228 281 340
#     4  12  26  43  63  82 109 143 182 231 281 338
#     4   9  16  29  51  77 108 144 182 222 265 319
#     4   9  18  31  47  73 113 155 191 228 270 317
#     4  10  20  33  53  83 118 154 192 232 276 325
#     4  10  21  38  60  84 111 145 187 235 287 339
#     4  10  20  36  59  85 113 144 181 226 277 334
#     4   9  17  32  54  81 116 151 184 222 269 327
#
# _framework density 18.224129000000001
#
# number of rings (size 3 to 8) (size 9 to 14) (size 15 to 20)
#    0.000    2.125    1.250    2.250    0.000    4.500 
#    0.000    1.250    0.000    0.375    0.000    0.000 
#    0.000    0.000    0.000    0.000    0.000    0.000 
#
# Total GULP energy -357178.418207 kJ/mol
# GULP energy per Si atom -5580.912784 kJ/mol
# Density = 1.818265 g / cm^3
# Si number density = 18.224129 Si / 1000 Ang^3
#
#
#
# Elastic Constant Matrix: (Units=GPa)
#
#
# Indices 1 2 3 4 5 6 
#
# 1 51.7889 45.7752 40.7440 0.0000 0.0000 0.0000
# 2 45.7752 100.9304 58.7958 0.0000 0.0000 0.0000
# 3 40.7440 58.7958 91.8658 0.0000 0.0000 0.0000
# 4 0.0000 0.0000 0.0000 -5.7686 0.0000 0.0000
# 5 0.0000 0.0000 0.0000 0.0000 30.5264 0.0000
# 6 0.0000 0.0000 0.0000 0.0000 0.0000 15.6623
#
#
#
# Elastic Compliance Matrix: (Units=1/GPa)
#
#
# Indices 1 2 3 4 5 6 
#
# 1 0.036247 -0.011280 -0.008857 0.000000 0.000000 0.000000
# 2 -0.011280 0.019308 -0.007355 0.000000 0.000000 0.000000
# 3 -0.008857 -0.007355 0.019521 0.000000 0.000000 0.000000
# 4 0.000000 0.000000 0.000000 -0.173352 0.000000 0.000000
# 5 0.000000 0.000000 0.000000 0.000000 0.032759 0.000000
# 6 0.000000 0.000000 0.000000 0.000000 0.000000 0.063847
#
#
# Mechanical properties :
#
#
# Convention : Reuss Voigt Hill
#
# Bulk Modulus (GPa) = 49.76835 59.46835 54.61835
# Shear Modulus (GPa) = 83.31906 14.70204 49.01055
#
# Velocity S-wave (km/s) = 6.76892 2.84339 5.19149
# Velocity P-wave (km/s) = 9.40529 6.59411 8.12225
#
# Compressibility (1/GPa) = 0.02009309
#
# Stress axis : x y z
#
# Youngs Moduli (GPa) = 27.58843 51.79224 51.22743
#
# Poissons Ratio (x) = 0.58420 0.45372
# Poissons Ratio (y) = 0.31119 0.37676
# Poissons Ratio (z) = 0.24435 0.38092
#
# Static dielectric constant tensor:
#      x y z
#    x 1.612190 0.000000 0.000000 
#    y 0.000000 1.663950 0.000000 
#    z 0.000000 0.000000 1.594130 
# 
# From -- ./inp_files/34967.got.cif
#   From: 2010.05.17/outbox.cif.g08.bks.cpg/sg51_18_cif.got.tgz:34967.got - 2010.06.03 11:52:47.
