data_PCOD9403129
_publ_section_title
;
Structure prediction by ZEFSAII (Michael W. Deem and Ramdas Pophale) SiO2 
 PCOD9403129
Probable space group: P M M A
;
_chemical_formula_sum "Si O2"
_cell_formula_units_Z 56
_cell_length_a 9.156593
_cell_length_b 14.962335
_cell_length_c 20.524245
_cell_angle_alpha 90.000000
_cell_angle_beta 90.000000
_cell_angle_gamma 90.000000
_cell_volume 2811.903907
_symmetry_space_group_name_H-M "P M M A"
_symmetry_group_IT_number 51
_symmetry_cell_setting 'orthorhombic'
loop_
_space_group_symop_operation_xyz
x,y,z
1/2-x,-y,z
1/2+x,-y,-z
-x,y,-z
-x,-y,-z
1/2+x,y,-z
1/2-x,y,z
x,-y,z
loop_
_atom_site_type_symbol
_atom_site_label
_atom_site_fract_x
_atom_site_fract_y
_atom_site_fract_z
Si Si1 0.585790 0.107330 0.693551
Si Si2 0.413146 0.855164 0.562672
Si Si3 0.416887 0.393211 0.706178
Si Si4 0.426115 0.106279 0.160169
Si Si5 0.925689 0.252812 0.070666
Si Si6 0.921713 0.392265 0.837097
Si Si7 0.914734 0.358500 0.437477
O O1 0.750000 0.142803 0.683270
O O2 0.488790 0.129418 0.631740
O O3 0.534079 0.134226 0.765600
O O4 0.595009 0.000000 0.696860
O O5 0.500000 0.890427 0.500000
O O6 0.250000 0.891382 0.563146
O O7 0.405471 0.748169 0.554889
O O8 0.250000 0.356359 0.710392
O O9 0.406035 0.500000 0.711485
O O10 0.516912 0.364376 0.766125
O O11 0.478880 0.374260 0.634326
O O12 0.250000 0.118770 0.153485
O O13 0.514192 0.166957 0.110181
O O14 0.454259 0.000000 0.152048
O O15 0.750000 0.252555 0.066698
O O16 0.984537 0.339132 0.109944
O O17 0.000000 0.252605 0.000000
O O18 0.750000 0.370386 0.842930
O O19 0.936857 0.500000 0.843680
O O20 0.750000 0.394739 0.436143
O O21 0.000000 0.393718 0.500000
#
# Coordination Sequence:
#
# PCOD9403129 Si02
#       7
#     8   8   8   8   8   8   8
#     4   9  19  36  57  81 109 143 184 232 289 347
#     4  10  20  33  49  72 105 144 190 239 289 344
#     4   9  18  34  55  80 112 149 189 237 294 351
#     4   9  20  41  66  93 127 163 201 248 300 355
#     4  12  26  43  66  95 127 162 203 244 293 357
#     4  10  22  41  64  92 125 160 202 250 300 358
#     4   9  19  33  48  72 106 144 189 237 288 342
#
# _framework density 19.915331999999999
#
# number of rings (size 3 to 8) (size 9 to 14) (size 15 to 20)
#    0.000    2.286    0.000    3.000    2.000    4.286 
#    0.000    1.429    0.000    0.000    0.000    0.000 
#    0.000    0.000    0.000    0.000    0.000    0.000 
#
# Total GULP energy -312577.881701 kJ/mol
# GULP energy per Si atom -5581.747888 kJ/mol
# Density = 1.987000 g / cm^3
# Si number density = 19.915332 Si / 1000 Ang^3
#
#
#
# Elastic Constant Matrix: (Units=GPa)
#
#
# Indices 1 2 3 4 5 6 
#
# 1 128.4974 36.8652 111.9971 0.0000 0.0000 0.0000
# 2 36.8652 62.8902 40.5236 0.0000 0.0000 0.0000
# 3 111.9971 40.5236 207.0164 0.0000 0.0000 0.0000
# 4 0.0000 0.0000 0.0000 37.4793 0.0000 0.0000
# 5 0.0000 0.0000 0.0000 0.0000 32.0988 0.0000
# 6 0.0000 0.0000 0.0000 0.0000 0.0000 22.0799
#
#
#
# Elastic Compliance Matrix: (Units=1/GPa)
#
#
# Indices 1 2 3 4 5 6 
#
# 1 0.015663 -0.004258 -0.007640 0.000000 0.000000 0.000000
# 2 -0.004258 0.019354 -0.001485 0.000000 0.000000 0.000000
# 3 -0.007640 -0.001485 0.009255 0.000000 0.000000 0.000000
# 4 0.000000 0.000000 0.000000 0.026681 0.000000 0.000000
# 5 0.000000 0.000000 0.000000 0.000000 0.031154 0.000000
# 6 0.000000 0.000000 0.000000 0.000000 0.000000 0.045290
#
#
# Mechanical properties :
#
#
# Convention : Reuss Voigt Hill
#
# Bulk Modulus (GPa) = 57.12774 86.35287 71.74030
# Shear Modulus (GPa) = 27.77807 32.26615 30.02211
#
# Velocity S-wave (km/s) = 3.73876 4.02950 3.88685
# Velocity P-wave (km/s) = 6.88370 8.06866 7.49962
#
# Compressibility (1/GPa) = 0.01750463
#
# Stress axis : x y z
#
# Youngs Moduli (GPa) = 63.84402 51.67002 108.05459
#
# Poissons Ratio (x) = 0.22003 0.82557
# Poissons Ratio (y) = 0.27188 0.16042
# Poissons Ratio (z) = 0.48779 0.07671
#
# Static dielectric constant tensor:
#      x y z
#    x 1.709630 0.000000 0.000000 
#    y 0.000000 1.723750 0.000000 
#    z 0.000000 0.000000 1.694730 
# 
# From -- ./inp_files/31996.got.cif
#   From: 2010.05.17/outbox.cif.g08.bks.cpg/sg51_16_cif.got.tgz:31996.got - 2010.06.03 11:52:47.
