data_PCOD9403774
_publ_section_title
;
Structure prediction by ZEFSAII (Michael W. Deem and Ramdas Pophale) SiO2 
 PCOD9403774
Probable space group: P M M A
;
_chemical_formula_sum "Si O2"
_cell_formula_units_Z 64
_cell_length_a 18.553871
_cell_length_b 7.429896
_cell_length_c 21.271267
_cell_angle_alpha 90.000000
_cell_angle_beta 90.000000
_cell_angle_gamma 90.000000
_cell_volume 2932.315030
_symmetry_space_group_name_H-M "P M M A"
_symmetry_group_IT_number 51
_symmetry_cell_setting 'orthorhombic'
loop_
_space_group_symop_operation_xyz
x,y,z
1/2-x,-y,z
1/2+x,-y,-z
-x,y,-z
-x,-y,-z
1/2+x,y,-z
1/2-x,y,z
x,-y,z
loop_
_atom_site_type_symbol
_atom_site_label
_atom_site_fract_x
_atom_site_fract_y
_atom_site_fract_z
Si Si1 0.666847 0.280170 0.500000
Si Si2 0.081438 0.286392 0.126838
Si Si3 0.333085 0.720193 0.750786
Si Si4 0.333085 0.279807 0.249214
Si Si5 0.668451 0.786190 1.000000
Si Si6 0.916897 0.280293 0.625300
Si Si7 0.581438 0.713608 0.126838
Si Si8 0.083103 0.719707 0.625300
O O1 0.750000 0.223021 0.500000
O O2 0.666917 0.500000 0.500000
O O3 0.625112 0.223079 0.562728
O O4 0.625112 0.223079 0.437272
O O5 0.075288 0.500000 0.136895
O O6 0.125948 0.216997 0.186588
O O7 0.124800 0.263402 0.062414
O O8 1.000000 0.213950 0.122669
O O9 0.250000 0.777373 0.750074
O O10 0.332703 0.500000 0.751165
O O11 0.374052 0.783003 0.813412
O O12 0.375415 0.775922 0.688225
O O13 0.250000 0.222627 0.249926
O O14 0.332703 0.500000 0.248835
O O15 0.375415 0.224078 0.311775
O O16 0.750000 0.711957 1.000000
O O17 0.673804 0.000000 1.000000
O O18 0.624800 0.736598 0.062414
O O19 0.917089 0.500000 0.625151
O O20 1.000000 0.222709 0.625144
O O21 0.575288 0.500000 0.136895
O O22 0.082911 0.500000 0.625151
#
# Coordination Sequence:
#
# PCOD9403774 Si02
#       8
#     8   8   8   8   8   8   8   8
#     4   9  15  21  29  43  67 103 146 187 228 277
#     4  10  20  34  53  76  99 125 160 200 241 287
#     4   9  16  26  41  61  85 114 149 190 234 278
#     4   9  16  26  41  61  85 114 149 190 234 278
#     4  11  24  39  54  74 100 129 160 195 238 288
#     4   9  15  22  32  48  73 106 145 188 231 275
#     4  10  20  34  53  76  99 125 160 200 241 287
#     4   9  15  22  32  48  73 106 145 188 231 275
#
# _framework density 21.825761
#
# number of rings (size 3 to 8) (size 9 to 14) (size 15 to 20)
#    0.000    2.500    0.000    3.375    0.000   11.500 
#    0.000    0.000    0.000    0.000    0.000    0.000 
#    0.000    0.000    0.000    1.125    0.000   22.000 
#
# Total GULP energy -357765.943174 kJ/mol
# GULP energy per Si atom -5590.092862 kJ/mol
# Density = 2.177608 g / cm^3
# Si number density = 21.825761 Si / 1000 Ang^3
#
#
#
# Elastic Constant Matrix: (Units=GPa)
#
#
# Indices 1 2 3 4 5 6 
#
# 1 286.9718 6.9660 175.8240 0.0000 0.0000 0.0000
# 2 6.9660 68.5868 -1.2320 0.0000 0.0000 0.0000
# 3 175.8240 -1.2320 267.8030 0.0000 0.0000 0.0000
# 4 0.0000 0.0000 0.0000 -43.3759 0.0000 0.0000
# 5 0.0000 0.0000 0.0000 0.0000 47.6353 0.0000
# 6 0.0000 0.0000 0.0000 0.0000 0.0000 -13.4493
#
#
#
# Elastic Compliance Matrix: (Units=1/GPa)
#
#
# Indices 1 2 3 4 5 6 
#
# 1 0.005860 -0.000664 -0.003850 0.000000 0.000000 0.000000
# 2 -0.000664 0.014657 0.000504 0.000000 0.000000 0.000000
# 3 -0.003850 0.000504 0.006264 0.000000 0.000000 0.000000
# 4 0.000000 0.000000 0.000000 -0.023054 0.000000 0.000000
# 5 0.000000 0.000000 0.000000 0.000000 0.020993 0.000000
# 6 0.000000 0.000000 0.000000 0.000000 0.000000 -0.074353
#
#
# Mechanical properties :
#
#
# Convention : Reuss Voigt Hill
#
# Bulk Modulus (GPa) = 53.30873 109.60860 81.45866
# Shear Modulus (GPa) = -141.40575 27.61560 -56.89507
#
# Velocity S-wave (km/s) = -8.05786 3.56093 -5.11121
# Velocity P-wave (km/s) = 7.88000 8.19974 1.60334
#
# Compressibility (1/GPa) = 0.01875865
#
# Stress axis : x y z
#
# Youngs Moduli (GPa) = 170.65452 68.22872 159.63574
#
# Poissons Ratio (x) = 0.04532 0.61464
# Poissons Ratio (y) = 0.11337 -0.08039
# Poissons Ratio (z) = 0.65706 -0.03436
#
# Static dielectric constant tensor:
#      x y z
#    x 1.756930 0.000000 0.000000 
#    y 0.000000 1.826800 0.000000 
#    z 0.000000 0.000000 1.746020 
# 
# From -- ./inp_files/30660.got.cif
#   From: 2010.05.17/outbox.cif.g08.bks.cpg/sg51_16_cif.got.tgz:30660.got - 2010.06.03 11:52:47.
