data_PCOD9403971
_publ_section_title
;
Structure prediction by ZEFSAII (Michael W. Deem and Ramdas Pophale) SiO2 
 PCOD9403971
Probable space group: P M M A
;
_chemical_formula_sum "Si O2"
_cell_formula_units_Z 40
_cell_length_a 14.728369
_cell_length_b 8.424843
_cell_length_c 17.750689
_cell_angle_alpha 90.000000
_cell_angle_beta 90.000000
_cell_angle_gamma 90.000000
_cell_volume 2202.579981
_symmetry_space_group_name_H-M "P M M A"
_symmetry_group_IT_number 51
_symmetry_cell_setting 'orthorhombic'
loop_
_space_group_symop_operation_xyz
x,y,z
1/2-x,-y,z
1/2+x,-y,-z
-x,y,-z
-x,-y,-z
1/2+x,y,-z
1/2-x,y,z
x,-y,z
loop_
_atom_site_type_symbol
_atom_site_label
_atom_site_fract_x
_atom_site_fract_y
_atom_site_fract_z
Si Si1 0.144979 0.690354 0.008146
Si Si2 0.750000 0.191927 0.346841
Si Si3 0.507055 0.190538 0.116945
Si Si4 0.750000 0.691956 0.518808
Si Si5 0.056966 0.808651 0.715929
Si Si6 0.555540 0.308331 0.574559
O O1 0.250000 0.742646 0.011487
O O2 0.143289 0.500000 0.003282
O O3 0.090764 0.758922 0.936457
O O4 0.084596 0.742054 0.079697
O O5 0.750000 0.247006 0.433298
O O6 0.658258 0.247409 0.305834
O O7 0.750000 0.000000 0.346251
O O8 0.524854 0.246537 0.201976
O O9 0.501207 0.000000 0.115920
O O10 0.750000 0.500000 0.515065
O O11 0.841008 0.742570 0.561398
O O12 0.990293 0.757429 0.649291
O O13 0.059598 0.000000 0.718291
O O14 0.500000 0.258930 0.500000
O O15 0.552453 0.500000 0.577986
#
# Coordination Sequence:
#
# PCOD9403971 Si02
#       6
#     8   4   8   4   8   8
#     4  10  21  38  60  85 113 146 182 223 272 328
#     4  10  20  34  54  80 109 140 175 224 277 322
#     4  10  21  37  59  85 113 146 182 226 274 327
#     4  10  20  36  54  78 105 140 187 226 271 324
#     4  10  22  37  55  82 112 142 179 224 273 323
#     4  10  20  35  56  78 107 144 182 226 271 320
#
# _framework density 18.160520999999999
#
# number of rings (size 3 to 8) (size 9 to 14) (size 15 to 20)
#    0.000    2.000    2.000    2.400    1.400    4.400 
#    1.800    0.000    0.000    0.000    0.000    0.000 
#    0.000    0.000    0.000    0.000    0.000    0.000 
#
# Total GULP energy -223310.658569 kJ/mol
# GULP energy per Si atom -5582.766464 kJ/mol
# Density = 1.811919 g / cm^3
# Si number density = 18.160521 Si / 1000 Ang^3
#
#
#
# Elastic Constant Matrix: (Units=GPa)
#
#
# Indices 1 2 3 4 5 6 
#
# 1 166.8339 10.0593 80.8843 0.0000 0.0000 0.0000
# 2 10.0593 11.7718 5.8190 0.0000 0.0000 0.0000
# 3 80.8843 5.8190 162.5889 0.0000 0.0000 0.0000
# 4 0.0000 0.0000 0.0000 74.0662 0.0000 0.0000
# 5 0.0000 0.0000 0.0000 0.0000 10.9836 0.0000
# 6 0.0000 0.0000 0.0000 0.0000 0.0000 268.4157
#
#
#
# Elastic Compliance Matrix: (Units=1/GPa)
#
#
# Indices 1 2 3 4 5 6 
#
# 1 0.008186 -0.005072 -0.003891 0.000000 0.000000 0.000000
# 2 -0.005072 0.089621 -0.000684 0.000000 0.000000 0.000000
# 3 -0.003891 -0.000684 0.008111 0.000000 0.000000 0.000000
# 4 0.000000 0.000000 0.000000 0.013501 0.000000 0.000000
# 5 0.000000 0.000000 0.000000 0.000000 0.091045 0.000000
# 6 0.000000 0.000000 0.000000 0.000000 0.000000 0.003726
#
#
# Mechanical properties :
#
#
# Convention : Reuss Voigt Hill
#
# Bulk Modulus (GPa) = 11.54418 59.41332 35.47875
# Shear Modulus (GPa) = 19.05786 86.98856 53.02321
#
# Velocity S-wave (km/s) = 3.24298 6.92848 5.40928
# Velocity P-wave (km/s) = 4.51587 9.83828 7.65457
#
# Compressibility (1/GPa) = 0.08662372
#
# Stress axis : x y z
#
# Youngs Moduli (GPa) = 122.15682 11.15805 123.29516
#
# Poissons Ratio (x) = 0.05659 0.47973
# Poissons Ratio (y) = 0.61958 0.08437
# Poissons Ratio (z) = 0.47530 0.00764
#
# Static dielectric constant tensor:
#      x y z
#    x 1.621150 0.000000 0.000000 
#    y 0.000000 1.628410 0.000000 
#    z 0.000000 0.000000 1.591010 
# 
# From -- ./inp_files/23780.got.cif
#   From: 2010.05.17/outbox.cif.g08.bks.cpg/sg51_12_cif.got.tgz:23780.got - 2010.06.03 11:52:47.
