data_PCOD9403867
_publ_section_title
;
Structure prediction by ZEFSAII (Michael W. Deem and Ramdas Pophale) SiO2 
 PCOD9403867
Probable space group: P M M A
;
_chemical_formula_sum "Si O2"
_cell_formula_units_Z 64
_cell_length_a 22.041678
_cell_length_b 14.437487
_cell_length_c 11.298818
_cell_angle_alpha 90.000000
_cell_angle_beta 90.000000
_cell_angle_gamma 90.000000
_cell_volume 3595.582624
_symmetry_space_group_name_H-M "P M M A"
_symmetry_group_IT_number 51
_symmetry_cell_setting 'orthorhombic'
loop_
_space_group_symop_operation_xyz
x,y,z
1/2-x,-y,z
1/2+x,-y,-z
-x,y,-z
-x,-y,-z
1/2+x,y,-z
1/2-x,y,z
x,-y,z
loop_
_atom_site_type_symbol
_atom_site_label
_atom_site_fract_x
_atom_site_fract_y
_atom_site_fract_z
Si Si1 0.971347 0.766854 0.722251
Si Si2 0.820242 0.892540 0.360954
Si Si3 0.924899 0.891460 0.173987
Si Si4 0.040376 0.395296 0.619367
Si Si5 0.320717 0.600162 0.310497
Si Si6 0.319877 0.607642 0.025518
Si Si7 0.069655 0.740632 0.023443
Si Si8 0.116541 0.255764 0.479573
O O1 0.928290 0.763639 0.836924
O O2 0.939361 0.784531 0.596770
O O3 0.022765 0.842297 0.748599
O O4 0.001382 0.664537 0.711629
O O5 0.750000 0.874203 0.334639
O O6 0.862561 0.880896 0.246255
O O7 0.844228 0.823764 0.461383
O O8 0.826143 0.000000 0.398405
O O9 0.936939 0.000000 0.155958
O O10 0.923656 0.833705 0.053124
O O11 0.055936 0.500000 0.655802
O O12 0.094739 0.327651 0.580508
O O13 0.000000 0.401917 0.500000
O O14 0.250000 0.597661 0.341667
O O15 0.349114 0.500000 0.342613
O O16 0.323528 0.609152 0.169053
O O17 0.350146 0.682269 0.381995
O O18 0.250000 0.635914 0.994118
O O19 0.327220 0.500000 0.989055
O O20 0.376297 0.671180 0.986384
O O21 0.000000 0.706614 0.000000
#
# Coordination Sequence:
#
# PCOD9403867 Si02
#       8
#     8   8   8   8   8   8   8   8
#     4  10  20  34  53  86 113 143 180 225 286 333
#     4  10  22  39  59  82 108 144 187 231 282 336
#     4  10  22  41  60  78 104 142 191 239 283 338
#     4   9  18  30  48  79 117 152 179 211 260 325
#     4   9  17  29  50  81 113 149 187 220 265 326
#     4   9  18  34  55  81 115 151 184 224 278 339
#     4  10  21  36  58  84 111 143 192 240 284 331
#     4  11  18  32  57  82 116 148 182 227 273 329
#
# _framework density 17.799617999999999
#
# number of rings (size 3 to 8) (size 9 to 14) (size 15 to 20)
#    0.000    2.250    2.500    1.500    0.000    4.500 
#    0.000    3.125    0.000    0.000    0.000    0.000 
#    0.000    0.000    0.000    0.000    0.000    0.000 
#
# Total GULP energy -356647.279675 kJ/mol
# GULP energy per Si atom -5572.613745 kJ/mol
# Density = 1.775911 g / cm^3
# Si number density = 17.799618 Si / 1000 Ang^3
#
#
#
# Elastic Constant Matrix: (Units=GPa)
#
#
# Indices 1 2 3 4 5 6 
#
# 1 98.6161 70.5578 20.7588 0.0000 0.0000 0.0000
# 2 70.5578 121.7041 43.1051 0.0000 0.0000 0.0000
# 3 20.7588 43.1051 48.9848 0.0000 0.0000 0.0000
# 4 0.0000 0.0000 0.0000 25.9643 0.0000 0.0000
# 5 0.0000 0.0000 0.0000 0.0000 20.6220 0.0000
# 6 0.0000 0.0000 0.0000 0.0000 0.0000 29.9891
#
#
#
# Elastic Compliance Matrix: (Units=1/GPa)
#
#
# Indices 1 2 3 4 5 6 
#
# 1 0.017489 -0.010916 0.002195 0.000000 0.000000 0.000000
# 2 -0.010916 0.018751 -0.011874 0.000000 0.000000 0.000000
# 3 0.002195 -0.011874 0.029933 0.000000 0.000000 0.000000
# 4 0.000000 0.000000 0.000000 0.038514 0.000000 0.000000
# 5 0.000000 0.000000 0.000000 0.000000 0.048492 0.000000
# 6 0.000000 0.000000 0.000000 0.000000 0.000000 0.033345
#
#
# Mechanical properties :
#
#
# Convention : Reuss Voigt Hill
#
# Bulk Modulus (GPa) = 40.02980 59.79427 49.91203
# Shear Modulus (GPa) = 21.18251 24.30731 22.74491
#
# Velocity S-wave (km/s) = 3.45346 3.69942 3.57855
# Velocity P-wave (km/s) = 6.19998 7.20511 6.72136
#
# Compressibility (1/GPa) = 0.02498139
#
# Stress axis : x y z
#
# Youngs Moduli (GPa) = 57.17938 53.33040 33.40763
#
# Poissons Ratio (x) = 0.58218 -0.07332
# Poissons Ratio (y) = 0.62420 0.39669
# Poissons Ratio (z) = -0.12549 0.63325
#
# Static dielectric constant tensor:
#      x y z
#    x 1.663600 0.000000 0.000000 
#    y 0.000000 1.609170 0.000000 
#    z 0.000000 0.000000 1.604080 
# 
# From -- ./inp_files/18886.got.cif
#   From: 2010.05.17/outbox.cif.g08.bks.cpg/sg51_10_cif.got.tgz:18886.got - 2010.06.03 11:52:47.
