data_PCOD9403328
_publ_section_title
;
Structure prediction by ZEFSAII (Michael W. Deem and Ramdas Pophale) SiO2 
 PCOD9403328
Probable space group: P M M A
;
_chemical_formula_sum "Si O2"
_cell_formula_units_Z 40
_cell_length_a 9.505487
_cell_length_b 7.842363
_cell_length_c 26.867357
_cell_angle_alpha 90.000000
_cell_angle_beta 90.000000
_cell_angle_gamma 90.000000
_cell_volume 2002.840012
_symmetry_space_group_name_H-M "P M M A"
_symmetry_group_IT_number 51
_symmetry_cell_setting 'orthorhombic'
loop_
_space_group_symop_operation_xyz
x,y,z
1/2-x,-y,z
1/2+x,-y,-z
-x,y,-z
-x,-y,-z
1/2+x,y,-z
1/2-x,y,z
x,-y,z
loop_
_atom_site_type_symbol
_atom_site_label
_atom_site_fract_x
_atom_site_fract_y
_atom_site_fract_z
Si Si1 0.913306 0.708924 0.644478
Si Si2 0.911975 0.291367 0.451680
Si Si3 0.420571 0.697871 0.246903
Si Si4 0.089846 0.199279 0.137872
Si Si5 0.407513 0.702096 0.954716
O O1 0.750000 0.759482 0.637038
O O2 0.913515 0.500000 0.645940
O O3 0.965047 0.766991 0.699117
O O4 0.009715 0.763049 0.598736
O O5 0.750000 0.236447 0.453829
O O6 0.912049 0.500000 0.451676
O O7 0.000000 0.237191 0.500000
O O8 0.250000 0.705619 0.248950
O O9 0.461951 0.500000 0.243894
O O10 0.461307 0.780534 0.194760
O O11 0.250000 0.270621 0.134754
O O12 0.988264 0.277904 0.097171
O O13 0.097585 0.000000 0.126849
O O14 0.250000 0.774526 0.953117
O O15 0.394650 0.500000 0.963848
O O16 0.500000 0.774868 0.000000
#
# Coordination Sequence:
#
# PCOD9403328 Si02
#       5
#     8   8   8   8   8
#     4   8  13  22  36  53  74 105 146 186 223 266
#     4   9  15  21  30  47  74 107 140 176 221 273
#     4   8  14  26  45  66  89 121 159 196 233 275
#     4  10  20  33  51  76 104 133 164 198 238 285
#     4  10  21  37  57  79 101 128 163 201 241 285
#
# _framework density 19.971640000000001
#
# number of rings (size 3 to 8) (size 9 to 14) (size 15 to 20)
#    0.000    3.000    0.000    3.000    0.000    5.200 
#    0.000    1.000    0.000    3.600    0.000    0.000 
#    0.000    0.800    0.000    1.400    0.000    2.000 
#
# Total GULP energy -222981.723406 kJ/mol
# GULP energy per Si atom -5574.543085 kJ/mol
# Density = 1.992618 g / cm^3
# Si number density = 19.971640 Si / 1000 Ang^3
#
#
#
# Elastic Constant Matrix: (Units=GPa)
#
#
# Indices 1 2 3 4 5 6 
#
# 1 128.3683 5.9925 103.3540 0.0000 0.0000 0.0000
# 2 5.9925 18.4955 1.9977 0.0000 0.0000 0.0000
# 3 103.3540 1.9977 181.7003 0.0000 0.0000 0.0000
# 4 0.0000 0.0000 0.0000 -62.5960 0.0000 0.0000
# 5 0.0000 0.0000 0.0000 0.0000 27.9446 0.0000
# 6 0.0000 0.0000 0.0000 0.0000 0.0000 1.3153
#
#
#
# Elastic Compliance Matrix: (Units=1/GPa)
#
#
# Indices 1 2 3 4 5 6 
#
# 1 0.014641 -0.003849 -0.008286 0.000000 0.000000 0.000000
# 2 -0.003849 0.055143 0.001583 0.000000 0.000000 0.000000
# 3 -0.008286 0.001583 0.010199 0.000000 0.000000 0.000000
# 4 0.000000 0.000000 0.000000 -0.015975 0.000000 0.000000
# 5 0.000000 0.000000 0.000000 0.000000 0.035785 0.000000
# 6 0.000000 0.000000 0.000000 0.000000 0.000000 0.760259
#
#
# Mechanical properties :
#
#
# Convention : Reuss Voigt Hill
#
# Bulk Modulus (GPa) = 16.98356 61.25028 39.11692
# Shear Modulus (GPa) = 5.55073 7.81412 6.68243
#
# Velocity S-wave (km/s) = 1.66893 1.98018 1.83118
# Velocity P-wave (km/s) = 3.49801 5.99694 4.90915
#
# Compressibility (1/GPa) = 0.05888048
#
# Stress axis : x y z
#
# Youngs Moduli (GPa) = 68.30231 18.13458 98.04741
#
# Poissons Ratio (x) = 0.06979 0.81238
# Poissons Ratio (y) = 0.26287 -0.15520
# Poissons Ratio (z) = 0.56593 -0.02871
#
# Static dielectric constant tensor:
#      x y z
#    x 1.692660 0.000000 0.000000 
#    y 0.000000 1.716740 0.000000 
#    z 0.000000 0.000000 1.703250 
# 
# From -- ./inp_files/35978.got.cif
#   From: 2010.05.17/outbox.cif.g08.bks.cpg/sg51_18_cif.got.tgz:35978.got - 2010.06.03 11:52:47.
