data_PCOD9403874
_publ_section_title
;
Structure prediction by ZEFSAII (Michael W. Deem and Ramdas Pophale) SiO2 
 PCOD9403874
Probable space group: P M M A
;
_chemical_formula_sum "Si O2"
_cell_formula_units_Z 48
_cell_length_a 7.744680
_cell_length_b 9.967301
_cell_length_c 29.848071
_cell_angle_alpha 90.000000
_cell_angle_beta 90.000000
_cell_angle_gamma 90.000000
_cell_volume 2304.078761
_symmetry_space_group_name_H-M "P M M A"
_symmetry_group_IT_number 51
_symmetry_cell_setting 'orthorhombic'
loop_
_space_group_symop_operation_xyz
x,y,z
1/2-x,-y,z
1/2+x,-y,-z
-x,y,-z
-x,-y,-z
1/2+x,y,-z
1/2-x,y,z
x,-y,z
loop_
_atom_site_type_symbol
_atom_site_label
_atom_site_fract_x
_atom_site_fract_y
_atom_site_fract_z
Si Si1 0.545570 0.653229 0.870233
Si Si2 0.040667 0.253254 0.609191
Si Si3 0.038191 0.156291 0.210355
Si Si4 0.044388 0.345528 0.291612
Si Si5 0.957043 0.500000 0.448392
Si Si6 0.044177 0.149912 0.947828
Si Si7 0.042040 0.000000 0.552815
O O1 0.750000 0.641595 0.861796
O O2 0.475872 0.500000 0.869242
O O3 0.478860 0.756187 0.832390
O O4 0.522569 0.730009 0.917132
O O5 0.250000 0.250733 0.609708
O O6 0.977276 0.373589 0.578402
O O7 0.979508 0.124714 0.582039
O O8 0.986360 0.280653 0.659863
O O9 0.250000 0.152614 0.210153
O O10 0.981079 0.242759 0.253563
O O11 0.982239 0.000000 0.210060
O O12 0.250000 0.356007 0.284911
O O13 0.976136 0.500000 0.289654
O O14 0.750000 0.500000 0.444945
O O15 0.000000 0.500000 0.500000
O O16 0.250000 0.148106 0.943340
O O17 0.978431 0.000000 0.934478
O O18 0.000000 0.168464 0.000000
O O19 0.000000 0.000000 0.500000
O O20 0.250000 0.000000 0.554175
#
# Coordination Sequence:
#
# PCOD9403874 Si02
#       7
#     8   8   8   8   4   8   4
#     4  10  20  35  57  84 115 152 191 233 284 338
#     4  10  21  37  54  76 107 141 172 212 267 321
#     4   9  18  33  55  82 111 144 183 228 276 325
#     4  10  20  34  54  81 109 139 179 224 267 318
#     4  10  20  34  54  76 102 134 172 212 257 314
#     4  10  21  37  58  84 115 152 195 241 287 337
#     4  10  22  38  56  78 106 138 174 216 263 316
#
# _framework density 20.832619000000001
#
# number of rings (size 3 to 8) (size 9 to 14) (size 15 to 20)
#    0.000    2.167    0.833    2.000    1.167    5.667 
#    0.000    0.833    0.000    3.000    0.000    0.000 
#    0.000    0.000    0.000    0.000    0.000    0.000 
#
# Total GULP energy -267837.364815 kJ/mol
# GULP energy per Si atom -5579.945100 kJ/mol
# Density = 2.078520 g / cm^3
# Si number density = 20.832619 Si / 1000 Ang^3
#
#
#
# Elastic Constant Matrix: (Units=GPa)
#
#
# Indices 1 2 3 4 5 6 
#
# 1 29.4988 10.6863 -7.3398 0.0000 0.0000 0.0000
# 2 10.6863 245.9951 118.0411 0.0000 0.0000 0.0000
# 3 -7.3398 118.0411 150.5341 0.0000 0.0000 0.0000
# 4 0.0000 0.0000 0.0000 39.4421 0.0000 0.0000
# 5 0.0000 0.0000 0.0000 0.0000 18.6195 0.0000
# 6 0.0000 0.0000 0.0000 0.0000 0.0000 29.7552
#
#
#
# Elastic Compliance Matrix: (Units=1/GPa)
#
#
# Indices 1 2 3 4 5 6 
#
# 1 0.036524 -0.003914 0.004850 0.000000 0.000000 0.000000
# 2 -0.003914 0.006937 -0.005630 0.000000 0.000000 0.000000
# 3 0.004850 -0.005630 0.011295 0.000000 0.000000 0.000000
# 4 0.000000 0.000000 0.000000 0.025354 0.000000 0.000000
# 5 0.000000 0.000000 0.000000 0.000000 0.053707 0.000000
# 6 0.000000 0.000000 0.000000 0.000000 0.000000 0.033608
#
#
# Mechanical properties :
#
#
# Convention : Reuss Voigt Hill
#
# Bulk Modulus (GPa) = 22.04241 74.31147 48.17694
# Shear Modulus (GPa) = 26.05046 37.87272 31.96159
#
# Velocity S-wave (km/s) = 3.54003 4.26837 3.92115
# Velocity P-wave (km/s) = 5.22616 7.74856 6.60882
#
# Compressibility (1/GPa) = 0.04536710
#
# Stress axis : x y z
#
# Youngs Moduli (GPa) = 27.37900 144.15654 88.53815
#
# Poissons Ratio (x) = 0.56422 -0.42941
# Poissons Ratio (y) = 0.10716 0.49851
# Poissons Ratio (z) = -0.13279 0.81166
#
# Static dielectric constant tensor:
#      x y z
#    x 1.766000 0.000000 0.000000 
#    y 0.000000 1.711380 0.000000 
#    z 0.000000 0.000000 1.725960 
# 
# From -- ./inp_files/37184.got.cif
#   From: 2010.05.17/outbox.cif.g08.bks.cpg/sg51_19_cif.got.tgz:37184.got - 2010.06.03 11:52:47.
