data_PCOD9403123
_publ_section_title
;
Structure prediction by ZEFSAII (Michael W. Deem and Ramdas Pophale) SiO2 
 PCOD9403123
Probable space group: P M M A
;
_chemical_formula_sum "Si O2"
_cell_formula_units_Z 52
_cell_length_a 8.719002
_cell_length_b 16.080958
_cell_length_c 21.899607
_cell_angle_alpha 90.000000
_cell_angle_beta 90.000000
_cell_angle_gamma 90.000000
_cell_volume 3070.541816
_symmetry_space_group_name_H-M "P M M A"
_symmetry_group_IT_number 51
_symmetry_cell_setting 'orthorhombic'
loop_
_space_group_symop_operation_xyz
x,y,z
1/2-x,-y,z
1/2+x,-y,-z
-x,y,-z
-x,-y,-z
1/2+x,y,-z
1/2-x,y,z
x,-y,z
loop_
_atom_site_type_symbol
_atom_site_label
_atom_site_fract_x
_atom_site_fract_y
_atom_site_fract_z
Si Si1 0.067177 0.500000 0.716430
Si Si2 0.575608 0.903805 0.211669
Si Si3 0.069675 0.352672 0.932746
Si Si4 0.072446 0.249827 0.164791
Si Si5 0.066402 0.677869 0.298282
Si Si6 0.936702 0.000000 0.431834
Si Si7 0.068223 0.500000 0.147307
Si Si8 0.929448 0.155723 0.350051
O O1 0.250000 0.500000 0.713342
O O2 0.003654 0.586896 0.688963
O O3 0.012825 0.500000 0.787147
O O4 0.750000 0.877359 0.195398
O O5 0.452102 0.846179 0.179891
O O6 0.561450 0.888794 0.284115
O O7 0.558220 0.000000 0.197828
O O8 0.250000 0.370056 0.935986
O O9 0.032625 0.272367 0.892290
O O10 0.984127 0.422390 0.892995
O O11 0.000000 0.348468 0.000000
O O12 0.250000 0.269892 0.152420
O O13 0.025410 0.297223 0.227746
O O14 0.250000 0.672887 0.300928
O O15 0.010663 0.754792 0.340552
O O16 0.986205 0.085554 0.397553
O O17 0.000000 0.000000 0.500000
O O18 0.750000 0.000000 0.430518
O O19 0.250000 0.500000 0.157318
O O20 0.750000 0.172148 0.363120
#
# Coordination Sequence:
#
# PCOD9403123 Si02
#       8
#     4   8   8   8   8   4   4   8
#     4  12  22  33  53  78 105 143 179 215 268 325
#     4   9  16  29  51  75 100 132 170 211 256 311
#     4  12  24  38  54  71  94 129 169 210 259 317
#     4  10  20  33  49  72 101 130 164 211 263 314
#     4  10  20  33  51  75 107 140 174 223 271 313
#     4  10  20  34  54  82 118 158 191 228 265 308
#     4  12  23  37  52  72 101 129 167 213 256 311
#     4   9  17  32  51  75 108 145 185 221 260 311
#
# _framework density 16.935123000000001
#
# number of rings (size 3 to 8) (size 9 to 14) (size 15 to 20)
#    0.000    1.692    2.308    3.923    0.000    2.154 
#    0.000    0.000    0.000    0.462    0.000    0.538 
#    0.000    0.000    0.000    0.000    0.000    0.000 
#
# Total GULP energy -290019.652462 kJ/mol
# GULP energy per Si atom -5577.301009 kJ/mol
# Density = 1.689658 g / cm^3
# Si number density = 16.935123 Si / 1000 Ang^3
#
#
#
# Elastic Constant Matrix: (Units=GPa)
#
#
# Indices 1 2 3 4 5 6 
#
# 1 67.7651 41.5546 20.6790 0.0000 0.0000 0.0000
# 2 41.5546 116.9007 42.7352 0.0000 0.0000 0.0000
# 3 20.6790 42.7352 59.8773 0.0000 0.0000 0.0000
# 4 0.0000 0.0000 0.0000 12.0043 0.0000 0.0000
# 5 0.0000 0.0000 0.0000 0.0000 22.1170 0.0000
# 6 0.0000 0.0000 0.0000 0.0000 0.0000 25.1978
#
#
#
# Elastic Compliance Matrix: (Units=1/GPa)
#
#
# Indices 1 2 3 4 5 6 
#
# 1 0.019116 -0.005928 -0.002370 0.000000 0.000000 0.000000
# 2 -0.005928 0.013413 -0.007525 0.000000 0.000000 0.000000
# 3 -0.002370 -0.007525 0.022890 0.000000 0.000000 0.000000
# 4 0.000000 0.000000 0.000000 0.083304 0.000000 0.000000
# 5 0.000000 0.000000 0.000000 0.000000 0.045214 0.000000
# 6 0.000000 0.000000 0.000000 0.000000 0.000000 0.039686
#
#
# Mechanical properties :
#
#
# Convention : Reuss Voigt Hill
#
# Bulk Modulus (GPa) = 42.06960 50.49784 46.28372
# Shear Modulus (GPa) = 18.99735 21.16877 20.08306
#
# Velocity S-wave (km/s) = 3.35292 3.53936 3.44740
# Velocity P-wave (km/s) = 6.31546 6.82539 6.57537
#
# Compressibility (1/GPa) = 0.02377013
#
# Stress axis : x y z
#
# Youngs Moduli (GPa) = 52.31316 74.55627 43.68636
#
# Poissons Ratio (x) = 0.44200 0.10356
# Poissons Ratio (y) = 0.31014 0.32876
# Poissons Ratio (z) = 0.12401 0.56106
#
# Static dielectric constant tensor:
#      x y z
#    x 1.582060 0.000000 0.000000 
#    y 0.000000 1.650400 0.000000 
#    z 0.000000 0.000000 1.542600 
# 
# From -- ./inp_files/31813.got.cif
#   From: 2010.05.17/outbox.cif.g08.bks.cpg/sg51_16_cif.got.tgz:31813.got - 2010.06.03 11:52:47.
