data_PCOD9403534
_publ_section_title
;
Structure prediction by ZEFSAII (Michael W. Deem and Ramdas Pophale) SiO2 
 PCOD9403534
Probable space group: P M M A
;
_chemical_formula_sum "Si O2"
_cell_formula_units_Z 56
_cell_length_a 18.930136
_cell_length_b 9.127420
_cell_length_c 18.077421
_cell_angle_alpha 90.000000
_cell_angle_beta 90.000000
_cell_angle_gamma 90.000000
_cell_volume 3123.476491
_symmetry_space_group_name_H-M "P M M A"
_symmetry_group_IT_number 51
_symmetry_cell_setting 'orthorhombic'
loop_
_space_group_symop_operation_xyz
x,y,z
1/2-x,-y,z
1/2+x,-y,-z
-x,y,-z
-x,-y,-z
1/2+x,y,-z
1/2-x,y,z
x,-y,z
loop_
_atom_site_type_symbol
_atom_site_label
_atom_site_fract_x
_atom_site_fract_y
_atom_site_fract_z
Si Si1 0.164124 0.668538 0.473187
Si Si2 0.833752 0.326714 0.084315
Si Si3 0.334835 0.172832 0.321808
Si Si4 0.575728 0.826119 0.961208
Si Si5 0.665960 0.825665 0.374861
Si Si6 0.572300 0.325545 0.802061
Si Si7 0.590433 0.674365 0.237939
O O1 0.250000 0.668437 0.472934
O O2 0.140369 0.500000 0.471725
O O3 0.142306 0.754056 0.399351
O O4 0.143069 0.748935 0.548683
O O5 0.750000 0.307369 0.090299
O O6 0.848447 0.500000 0.072232
O O7 0.865966 0.235631 0.017199
O O8 0.870794 0.284537 0.161392
O O9 0.250000 0.190135 0.315378
O O10 0.373439 0.252047 0.254480
O O11 0.350420 0.000000 0.322190
O O12 0.583526 0.000000 0.950400
O O13 0.500000 0.798652 0.000000
O O14 0.578829 0.744451 0.883072
O O15 0.750000 0.796076 0.364386
O O16 0.623325 0.761072 0.306134
O O17 0.657104 0.000000 0.380598
O O18 0.583542 0.500000 0.806071
O O19 0.492695 0.299669 0.772831
O O20 0.601703 0.500000 0.249351
#
# Coordination Sequence:
#
# PCOD9403534 Si02
#       7
#     8   8   8   8   8   8   8
#     4   9  17  32  56  83 112 149 192 236 283 336
#     4  10  21  38  61  87 115 149 190 237 286 336
#     4  10  21  38  60  86 117 149 185 235 290 342
#     4  11  23  39  60  84 113 150 189 232 285 342
#     4  10  20  33  53  83 117 153 192 234 282 336
#     4  11  23  39  62  86 112 149 192 235 282 339
#     4  10  21  37  57  82 114 151 190 234 282 334
#
# _framework density 17.928740999999999
#
# number of rings (size 3 to 8) (size 9 to 14) (size 15 to 20)
#    0.000    1.857    1.429    2.571    0.000    7.143 
#    0.000    0.714    0.000    4.286    0.000    0.000 
#    0.000    0.000    0.000    0.000    0.000    0.000 
#
# Total GULP energy -312821.720337 kJ/mol
# GULP energy per Si atom -5586.102149 kJ/mol
# Density = 1.788793 g / cm^3
# Si number density = 17.928741 Si / 1000 Ang^3
#
#
#
# Elastic Constant Matrix: (Units=GPa)
#
#
# Indices 1 2 3 4 5 6 
#
# 1 48.0709 59.3972 58.0745 0.0000 0.0000 0.0000
# 2 59.3972 114.9845 107.0301 0.0000 0.0000 0.0000
# 3 58.0745 107.0301 189.4307 0.0000 0.0000 0.0000
# 4 0.0000 0.0000 0.0000 -60.2868 0.0000 0.0000
# 5 0.0000 0.0000 0.0000 0.0000 17.1251 0.0000
# 6 0.0000 0.0000 0.0000 0.0000 0.0000 23.3341
#
#
#
# Elastic Compliance Matrix: (Units=1/GPa)
#
#
# Indices 1 2 3 4 5 6 
#
# 1 0.057797 -0.028187 -0.001793 0.000000 0.000000 0.000000
# 2 -0.028187 0.032091 -0.009490 0.000000 0.000000 0.000000
# 3 -0.001793 -0.009490 0.011191 0.000000 0.000000 0.000000
# 4 0.000000 0.000000 0.000000 -0.016587 0.000000 0.000000
# 5 0.000000 0.000000 0.000000 0.000000 0.058394 0.000000
# 6 0.000000 0.000000 0.000000 0.000000 0.000000 0.042856
#
#
# Mechanical properties :
#
#
# Convention : Reuss Voigt Hill
#
# Bulk Modulus (GPa) = 45.17089 89.05442 67.11266
# Shear Modulus (GPa) = 18.37812 4.56676 11.47244
#
# Velocity S-wave (km/s) = 3.20514 1.59772 2.53235
# Velocity P-wave (km/s) = 6.24072 7.29265 6.78710
#
# Compressibility (1/GPa) = 0.02213815
#
# Stress axis : x y z
#
# Youngs Moduli (GPa) = 17.30179 31.16115 89.35818
#
# Poissons Ratio (x) = 0.87834 0.16024
# Poissons Ratio (y) = 0.48769 0.84805
# Poissons Ratio (z) = 0.03103 0.29573
#
# Static dielectric constant tensor:
#      x y z
#    x 1.598700 0.000000 0.000000 
#    y 0.000000 1.599820 0.000000 
#    z 0.000000 0.000000 1.575100 
# 
# From -- ./inp_files/25674.got.cif
#   From: 2010.05.17/outbox.cif.g08.bks.cpg/sg51_13_cif.got.tgz:25674.got - 2010.06.03 11:52:47.
