data_PCOD9403042
_publ_section_title
;
Structure prediction by ZEFSAII (Michael W. Deem and Ramdas Pophale) SiO2 
 PCOD9403042
Probable space group: P M M A
;
_chemical_formula_sum "Si O2"
_cell_formula_units_Z 60
_cell_length_a 9.080790
_cell_length_b 21.408350
_cell_length_c 18.344732
_cell_angle_alpha 90.000000
_cell_angle_beta 90.000000
_cell_angle_gamma 90.000000
_cell_volume 3566.302682
_symmetry_space_group_name_H-M "P M M A"
_symmetry_group_IT_number 51
_symmetry_cell_setting 'orthorhombic'
loop_
_space_group_symop_operation_xyz
x,y,z
1/2-x,-y,z
1/2+x,-y,-z
-x,y,-z
-x,-y,-z
1/2+x,y,-z
1/2-x,y,z
x,-y,z
loop_
_atom_site_type_symbol
_atom_site_label
_atom_site_fract_x
_atom_site_fract_y
_atom_site_fract_z
Si Si1 0.923581 0.000000 0.077512
Si Si2 0.073351 0.071080 0.578527
Si Si3 0.570429 0.568826 0.232430
Si Si4 0.426854 0.295675 0.770891
Si Si5 0.927083 0.836478 0.291605
Si Si6 0.076692 0.747727 0.078101
Si Si7 0.421312 0.883342 0.146606
Si Si8 0.088007 0.574121 0.932332
O O1 0.979083 0.061274 0.118028
O O2 0.750000 0.000000 0.070049
O O3 0.000000 0.000000 0.000000
O O4 0.250000 0.072620 0.570318
O O5 0.033664 0.125602 0.635454
O O6 0.000000 0.080316 0.500000
O O7 0.034728 0.000000 0.604021
O O8 0.250000 0.565823 0.767930
O O9 0.520755 0.500000 0.259489
O O10 0.530091 0.636839 0.262993
O O11 0.521421 0.575515 0.147971
O O12 0.250000 0.296292 0.782903
O O13 0.457951 0.237661 0.716988
O O14 0.501677 0.283986 0.850251
O O15 0.750000 0.844440 0.280422
O O16 0.018898 0.865668 0.225833
O O17 0.250000 0.730904 0.075255
O O18 0.065661 0.821688 0.096519
O O19 0.000000 0.736870 0.000000
O O20 0.250000 0.901563 0.148350
O O21 0.250000 0.602810 0.929420
O O22 0.104480 0.500000 0.946403
O O23 0.000000 0.600490 0.000000
#
# Coordination Sequence:
#
# PCOD9403042 Si02
#       8
#     4   8   8   8   8   8   8   8
#     4  12  24  36  50  68  93 122 157 206 256 296
#     4   9  18  32  50  74 103 131 159 187 222 268
#     4   8  14  25  41  60  82 109 142 183 230 279
#     4   9  17  30  47  66  89 118 153 191 236 287
#     4   9  18  32  50  72  98 128 158 191 232 279
#     4  10  20  33  48  63  84 114 153 200 245 289
#     4  10  21  35  50  70  92 120 159 199 241 290
#     4   8  13  21  32  46  66  93 126 165 211 262
#
# _framework density 16.824148000000001
#
# number of rings (size 3 to 8) (size 9 to 14) (size 15 to 20)
#    0.000    2.800    0.000    2.600    0.933    3.733 
#    0.000    2.000    0.000    1.200    0.000    0.000 
#    0.000    0.533    0.000    0.400    0.000    0.800 
#
# Total GULP energy -334033.261639 kJ/mol
# GULP energy per Si atom -5567.221027 kJ/mol
# Density = 1.678586 g / cm^3
# Si number density = 16.824148 Si / 1000 Ang^3
#
#
#
# Elastic Constant Matrix: (Units=GPa)
#
#
# Indices 1 2 3 4 5 6 
#
# 1 46.8501 46.3190 21.1511 0.0000 0.0000 0.0000
# 2 46.3190 146.1737 55.5124 0.0000 0.0000 0.0000
# 3 21.1511 55.5124 63.8458 0.0000 0.0000 0.0000
# 4 0.0000 0.0000 0.0000 6.6054 0.0000 0.0000
# 5 0.0000 0.0000 0.0000 0.0000 20.5419 0.0000
# 6 0.0000 0.0000 0.0000 0.0000 0.0000 11.3782
#
#
#
# Elastic Compliance Matrix: (Units=1/GPa)
#
#
# Indices 1 2 3 4 5 6 
#
# 1 0.031371 -0.008949 -0.002612 0.000000 0.000000 0.000000
# 2 -0.008949 0.012767 -0.008136 0.000000 0.000000 0.000000
# 3 -0.002612 -0.008136 0.023602 0.000000 0.000000 0.000000
# 4 0.000000 0.000000 0.000000 0.151391 0.000000 0.000000
# 5 0.000000 0.000000 0.000000 0.000000 0.048681 0.000000
# 6 0.000000 0.000000 0.000000 0.000000 0.000000 0.087887
#
#
# Mechanical properties :
#
#
# Convention : Reuss Voigt Hill
#
# Bulk Modulus (GPa) = 35.27749 55.87053 45.57401
# Shear Modulus (GPa) = 12.35972 16.63092 14.49532
#
# Velocity S-wave (km/s) = 2.71337 3.14748 2.93845
# Velocity P-wave (km/s) = 5.55251 6.81832 6.21771
#
# Compressibility (1/GPa) = 0.02834669
#
# Stress axis : x y z
#
# Youngs Moduli (GPa) = 31.87625 78.32995 42.36979
#
# Poissons Ratio (x) = 0.70097 0.11067
# Poissons Ratio (y) = 0.28526 0.34470
# Poissons Ratio (z) = 0.08326 0.63726
#
# Static dielectric constant tensor:
#      x y z
#    x 1.577300 0.000000 0.000000 
#    y 0.000000 1.639020 0.000000 
#    z 0.000000 0.000000 1.507370 
# 
# From -- ./inp_files/28367.got.cif
#   From: 2010.05.17/outbox.cif.g08.bks.cpg/sg51_15_cif.got.tgz:28367.got - 2010.06.03 11:52:47.
