data_PCOD9403084
_publ_section_title
;
Structure prediction by ZEFSAII (Michael W. Deem and Ramdas Pophale) SiO2 
 PCOD9403084
Probable space group: P M M A
;
_chemical_formula_sum "Si O2"
_cell_formula_units_Z 40
_cell_length_a 14.676357
_cell_length_b 14.644504
_cell_length_c 8.100425
_cell_angle_alpha 90.000000
_cell_angle_beta 90.000000
_cell_angle_gamma 90.000000
_cell_volume 1741.007892
_symmetry_space_group_name_H-M "P M M A"
_symmetry_group_IT_number 51
_symmetry_cell_setting 'orthorhombic'
loop_
_space_group_symop_operation_xyz
x,y,z
1/2-x,-y,z
1/2+x,-y,-z
-x,y,-z
-x,-y,-z
1/2+x,y,-z
1/2-x,y,z
x,-y,z
loop_
_atom_site_type_symbol
_atom_site_label
_atom_site_fract_x
_atom_site_fract_y
_atom_site_fract_z
Si Si1 0.896700 0.200915 0.023273
Si Si2 0.102929 0.108173 0.663007
Si Si3 0.902606 0.200874 0.652786
Si Si4 0.642926 0.402314 0.044689
Si Si5 0.142619 0.598985 0.354202
O O1 0.852844 0.141187 0.166232
O O2 0.900362 0.305702 0.089244
O O3 0.858811 0.198598 0.836529
O O4 0.000000 0.168301 0.000000
O O5 0.145187 0.145930 0.494021
O O6 0.002541 0.155504 0.666517
O O7 0.094860 0.000000 0.657608
O O8 0.905616 0.307086 0.600165
O O9 0.750000 0.397965 0.088787
O O10 0.605494 0.500000 0.107363
O O11 0.637571 0.405362 0.845605
O O12 0.250000 0.607474 0.397004
O O13 0.110546 0.500000 0.418091
#
# Coordination Sequence:
#
# PCOD9403084 Si02
#       5
#     8   8   8   8   8
#     4   9  18  30  48  74  96 122 160 198 236 281
#     4  10  20  33  49  69  93 123 161 203 245 282
#     4   9  17  31  50  71  95 124 156 193 236 282
#     4   8  14  27  48  72  99 130 158 187 232 288
#     4   8  14  27  49  74  99 128 157 186 228 283
#
# _framework density 22.975197999999999
#
# number of rings (size 3 to 8) (size 9 to 14) (size 15 to 20)
#    0.000    3.200    0.000    2.400    0.000    4.800 
#    0.000    7.000    0.000    6.600    0.000   14.000 
#    0.000    0.000    0.000    0.000    0.000    0.000 
#
# Total GULP energy -222833.744161 kJ/mol
# GULP energy per Si atom -5570.843604 kJ/mol
# Density = 2.292291 g / cm^3
# Si number density = 22.975198 Si / 1000 Ang^3
#
#
#
# Elastic Constant Matrix: (Units=GPa)
#
#
# Indices 1 2 3 4 5 6 
#
# 1 66.2151 23.4454 13.0381 0.0000 0.0000 0.0000
# 2 23.4454 222.7224 72.7620 0.0000 0.0000 0.0000
# 3 13.0381 72.7620 128.4212 0.0000 0.0000 0.0000
# 4 0.0000 0.0000 0.0000 50.6503 0.0000 0.0000
# 5 0.0000 0.0000 0.0000 0.0000 -10.9007 0.0000
# 6 0.0000 0.0000 0.0000 0.0000 0.0000 64.6339
#
#
#
# Elastic Compliance Matrix: (Units=1/GPa)
#
#
# Indices 1 2 3 4 5 6 
#
# 1 0.015755 -0.001394 -0.000810 0.000000 0.000000 0.000000
# 2 -0.001394 0.005633 -0.003050 0.000000 0.000000 0.000000
# 3 -0.000810 -0.003050 0.009597 0.000000 0.000000 0.000000
# 4 0.000000 0.000000 0.000000 0.019743 0.000000 0.000000
# 5 0.000000 0.000000 0.000000 0.000000 -0.091737 0.000000
# 6 0.000000 0.000000 0.000000 0.000000 0.000000 0.015472
#
#
# Mechanical properties :
#
#
# Convention : Reuss Voigt Hill
#
# Bulk Modulus (GPa) = 48.83304 70.64996 59.74150
# Shear Modulus (GPa) = -609.53841 41.41760 -284.06041
#
# Velocity S-wave (km/s) = -16.30579 4.25044 -11.13132
# Velocity P-wave (km/s) = 18.25388 7.40983 11.79616
#
# Compressibility (1/GPa) = 0.02047794
#
# Stress axis : x y z
#
# Youngs Moduli (GPa) = 63.47062 177.52254 104.19654
#
# Poissons Ratio (x) = 0.24746 0.08438
# Poissons Ratio (y) = 0.08848 0.31781
# Poissons Ratio (z) = 0.05140 0.54146
#
# Static dielectric constant tensor:
#      x y z
#    x 1.888200 0.000000 0.000000 
#    y 0.000000 1.852680 0.000000 
#    z 0.000000 0.000000 1.981670 
# 
# From -- ./inp_files/10628.got.cif
#   From: 2010.05.17/outbox.cif.g08.bks.cpg/sg51_6_cif.got.tgz:10628.got - 2010.06.03 11:52:47.
