data_PCOD9403499
_publ_section_title
;
Structure prediction by ZEFSAII (Michael W. Deem and Ramdas Pophale) SiO2 
 PCOD9403499
Probable space group: P M M A
;
_chemical_formula_sum "Si O2"
_cell_formula_units_Z 56
_cell_length_a 8.693565
_cell_length_b 23.154050
_cell_length_c 15.297372
_cell_angle_alpha 90.000000
_cell_angle_beta 90.000000
_cell_angle_gamma 90.000000
_cell_volume 3079.226959
_symmetry_space_group_name_H-M "P M M A"
_symmetry_group_IT_number 51
_symmetry_cell_setting 'orthorhombic'
loop_
_space_group_symop_operation_xyz
x,y,z
1/2-x,-y,z
1/2+x,-y,-z
-x,y,-z
-x,-y,-z
1/2+x,y,-z
1/2-x,y,z
x,-y,z
loop_
_atom_site_type_symbol
_atom_site_label
_atom_site_fract_x
_atom_site_fract_y
_atom_site_fract_z
Si Si1 0.434910 0.210172 0.094929
Si Si2 0.933526 0.662439 0.095107
Si Si3 0.564353 0.160379 0.723924
Si Si4 0.064845 0.739369 0.406845
Si Si5 0.064265 0.435516 0.219266
Si Si6 0.566194 0.932712 0.405974
Si Si7 0.934693 0.394240 0.592319
O O1 0.250000 0.212693 0.090492
O O2 0.496512 0.274528 0.115442
O O3 0.480305 0.168796 0.175101
O O4 0.500000 0.193671 0.000000
O O5 0.750000 0.666691 0.091080
O O6 0.986414 0.614688 0.163930
O O7 0.000000 0.646284 0.000000
O O8 0.750000 0.156876 0.720478
O O9 0.516981 0.217858 0.670170
O O10 0.496043 0.106507 0.672088
O O11 0.250000 0.739808 0.410487
O O12 0.015765 0.672804 0.394651
O O13 0.000000 0.759392 0.500000
O O14 0.250000 0.428809 0.213625
O O15 0.024498 0.500000 0.188561
O O16 0.020995 0.428605 0.321121
O O17 0.500000 0.913463 0.500000
O O18 0.750000 0.929039 0.409428
O O19 0.521828 0.000000 0.394301
O O20 0.750000 0.395110 0.586366
O O21 0.000000 0.414972 0.500000
#
# Coordination Sequence:
#
# PCOD9403499 Si02
#       7
#     8   8   8   8   8   8   8
#     4  10  20  36  57  82 111 140 173 214 262 316
#     4  11  22  37  58  81 106 136 169 210 263 320
#     4  10  20  33  53  79 107 141 178 220 266 311
#     4   9  17  29  45  69 100 130 162 202 251 305
#     4  10  21  37  55  74  99 134 175 218 264 314
#     4  10  21  36  54  78 111 150 189 227 264 307
#     4   9  18  33  51  71  99 134 169 208 255 308
#
# _framework density 18.186382999999999
#
# number of rings (size 3 to 8) (size 9 to 14) (size 15 to 20)
#    0.000    2.143    0.000    4.286    0.000    7.429 
#    0.000    2.857    0.000    0.429    0.000    0.000 
#    0.000    0.000    0.000    0.000    0.000    0.000 
#
# Total GULP energy -312661.656084 kJ/mol
# GULP energy per Si atom -5583.243859 kJ/mol
# Density = 1.814499 g / cm^3
# Si number density = 18.186383 Si / 1000 Ang^3
#
#
#
# Elastic Constant Matrix: (Units=GPa)
#
#
# Indices 1 2 3 4 5 6 
#
# 1 42.6885 29.0846 42.5628 0.0000 0.0000 0.0000
# 2 29.0846 66.0229 70.4221 0.0000 0.0000 0.0000
# 3 42.5628 70.4221 142.8197 0.0000 0.0000 0.0000
# 4 0.0000 0.0000 0.0000 3.6617 0.0000 0.0000
# 5 0.0000 0.0000 0.0000 0.0000 32.1882 0.0000
# 6 0.0000 0.0000 0.0000 0.0000 0.0000 160.9821
#
#
#
# Elastic Compliance Matrix: (Units=1/GPa)
#
#
# Indices 1 2 3 4 5 6 
#
# 1 0.035831 -0.009270 -0.006107 0.000000 0.000000 0.000000
# 2 -0.009270 0.034348 -0.014174 0.000000 0.000000 0.000000
# 3 -0.006107 -0.014174 0.015811 0.000000 0.000000 0.000000
# 4 0.000000 0.000000 0.000000 0.273099 0.000000 0.000000
# 5 0.000000 0.000000 0.000000 0.000000 0.031067 0.000000
# 6 0.000000 0.000000 0.000000 0.000000 0.000000 0.006212
#
#
# Mechanical properties :
#
#
# Convention : Reuss Voigt Hill
#
# Bulk Modulus (GPa) = 37.19220 59.51891 48.35556
# Shear Modulus (GPa) = 10.76581 46.66384 28.71482
#
# Velocity S-wave (km/s) = 2.43568 5.07093 3.97787
# Velocity P-wave (km/s) = 5.32964 8.19049 6.90974
#
# Compressibility (1/GPa) = 0.02688735
#
# Stress axis : x y z
#
# Youngs Moduli (GPa) = 27.90901 29.11348 63.24753
#
# Poissons Ratio (x) = 0.26988 0.38627
# Poissons Ratio (y) = 0.25872 0.89647
# Poissons Ratio (z) = 0.17045 0.41265
#
# Static dielectric constant tensor:
#      x y z
#    x 1.614840 0.000000 0.000000 
#    y 0.000000 1.620280 0.000000 
#    z 0.000000 0.000000 1.621580 
# 
# From -- ./inp_files/21825.got.cif
#   From: 2010.05.17/outbox.cif.g08.bks.cpg/sg51_11_cif.got.tgz:21825.got - 2010.06.03 11:52:47.
