data_PCOD9403410
_publ_section_title
;
Structure prediction by ZEFSAII (Michael W. Deem and Ramdas Pophale) SiO2 
 PCOD9403410
Probable space group: P M M A
;
_chemical_formula_sum "Si O2"
_cell_formula_units_Z 52
_cell_length_a 7.642859
_cell_length_b 16.526119
_cell_length_c 19.780610
_cell_angle_alpha 90.000000
_cell_angle_beta 90.000000
_cell_angle_gamma 90.000000
_cell_volume 2498.425498
_symmetry_space_group_name_H-M "P M M A"
_symmetry_group_IT_number 51
_symmetry_cell_setting 'orthorhombic'
loop_
_space_group_symop_operation_xyz
x,y,z
1/2-x,-y,z
1/2+x,-y,-z
-x,y,-z
-x,-y,-z
1/2+x,y,-z
1/2-x,y,z
x,-y,z
loop_
_atom_site_type_symbol
_atom_site_label
_atom_site_fract_x
_atom_site_fract_y
_atom_site_fract_z
Si Si1 0.041365 0.352377 0.424119
Si Si2 0.040271 0.323438 0.921383
Si Si3 0.541974 0.165651 0.575493
Si Si4 0.540549 0.500000 0.080051
Si Si5 0.544909 0.911206 0.286259
Si Si6 0.545946 0.412224 0.281146
Si Si7 0.464749 0.247519 0.788385
O O1 0.250000 0.352602 0.416291
O O2 0.976949 0.258869 0.418715
O O3 0.000000 0.380922 0.500000
O O4 0.964909 0.402212 0.362074
O O5 0.250000 0.327480 0.917517
O O6 0.973350 0.412335 0.897737
O O7 0.983441 0.258080 0.866530
O O8 0.000000 0.309486 0.000000
O O9 0.500000 0.137244 0.500000
O O10 0.750000 0.167520 0.583617
O O11 0.467344 0.111257 0.634828
O O12 0.750000 0.500000 0.090818
O O13 0.500000 0.500000 0.000000
O O14 0.750000 0.915182 0.268531
O O15 0.470092 0.834341 0.246118
O O16 0.467901 0.000000 0.273567
O O17 0.750000 0.414324 0.260899
O O18 0.469975 0.500000 0.261616
O O19 0.474247 0.328895 0.250135
O O20 0.250000 0.246645 0.783859
#
# Coordination Sequence:
#
# PCOD9403410 Si02
#       7
#     8   8   8   4   8   8   8
#     4  10  20  34  53  74 100 136 175 216 259 302
#     4   9  17  30  49  73 101 133 167 204 245 292
#     4  10  20  34  54  78 104 135 170 210 259 309
#     4   8  14  24  42  68  98 128 161 196 235 284
#     4  10  20  35  56  79 102 132 169 210 258 307
#     4  10  20  33  52  76 101 134 175 215 257 303
#     4   9  18  33  53  76 104 133 167 210 252 301
#
# _framework density 20.813106999999999
#
# number of rings (size 3 to 8) (size 9 to 14) (size 15 to 20)
#    0.000    2.462    1.538    0.923    1.077    2.462 
#    0.000    1.538    0.000    0.462    0.000    0.000 
#    0.000    0.000    0.000    0.000    0.000    0.000 
#
# Total GULP energy -290192.927214 kJ/mol
# GULP energy per Si atom -5580.633216 kJ/mol
# Density = 2.076574 g / cm^3
# Si number density = 20.813107 Si / 1000 Ang^3
#
#
#
# Elastic Constant Matrix: (Units=GPa)
#
#
# Indices 1 2 3 4 5 6 
#
# 1 44.9612 8.3779 -6.4010 0.0000 0.0000 0.0000
# 2 8.3779 167.1922 84.8984 0.0000 0.0000 0.0000
# 3 -6.4010 84.8984 119.1530 0.0000 0.0000 0.0000
# 4 0.0000 0.0000 0.0000 44.7453 0.0000 0.0000
# 5 0.0000 0.0000 0.0000 0.0000 13.4963 0.0000
# 6 0.0000 0.0000 0.0000 0.0000 0.0000 3.1629
#
#
#
# Elastic Compliance Matrix: (Units=1/GPa)
#
#
# Indices 1 2 3 4 5 6 
#
# 1 0.023230 -0.002817 0.003255 0.000000 0.000000 0.000000
# 2 -0.002817 0.009714 -0.007072 0.000000 0.000000 0.000000
# 3 0.003255 -0.007072 0.013607 0.000000 0.000000 0.000000
# 4 0.000000 0.000000 0.000000 0.022349 0.000000 0.000000
# 5 0.000000 0.000000 0.000000 0.000000 0.074094 0.000000
# 6 0.000000 0.000000 0.000000 0.000000 0.000000 0.316164
#
#
# Mechanical properties :
#
#
# Convention : Reuss Voigt Hill
#
# Bulk Modulus (GPa) = 30.04688 56.11744 43.08216
# Shear Modulus (GPa) = 10.34084 28.57631 19.45857
#
# Velocity S-wave (km/s) = 2.23142 3.70942 3.06096
# Velocity P-wave (km/s) = 4.59421 6.73553 5.76516
#
# Compressibility (1/GPa) = 0.03328132
#
# Stress axis : x y z
#
# Youngs Moduli (GPa) = 43.04833 102.94860 73.49355
#
# Poissons Ratio (x) = 0.28999 -0.23922
# Poissons Ratio (y) = 0.12126 0.51978
# Poissons Ratio (z) = -0.14012 0.72809
#
# Static dielectric constant tensor:
#      x y z
#    x 1.768990 0.000000 0.000000 
#    y 0.000000 1.774960 0.000000 
#    z 0.000000 0.000000 1.740350 
# 
# From -- ./inp_files/31802.got.cif
#   From: 2010.05.17/outbox.cif.g08.bks.cpg/sg51_16_cif.got.tgz:31802.got - 2010.06.03 11:52:47.
