data_PCOD9403238
_publ_section_title
;
Structure prediction by ZEFSAII (Michael W. Deem and Ramdas Pophale) SiO2 
 PCOD9403238
Probable space group: P M M A
;
_chemical_formula_sum "Si O2"
_cell_formula_units_Z 56
_cell_length_a 7.450990
_cell_length_b 16.360846
_cell_length_c 20.426246
_cell_angle_alpha 90.000000
_cell_angle_beta 90.000000
_cell_angle_gamma 90.000000
_cell_volume 2490.051304
_symmetry_space_group_name_H-M "P M M A"
_symmetry_group_IT_number 51
_symmetry_cell_setting 'orthorhombic'
loop_
_space_group_symop_operation_xyz
x,y,z
1/2-x,-y,z
1/2+x,-y,-z
-x,y,-z
-x,-y,-z
1/2+x,y,-z
1/2-x,y,z
x,-y,z
loop_
_atom_site_type_symbol
_atom_site_label
_atom_site_fract_x
_atom_site_fract_y
_atom_site_fract_z
Si Si1 0.966451 0.684023 0.711698
Si Si2 0.039873 0.589701 0.835352
Si Si3 0.043158 0.088012 0.895401
Si Si4 0.464246 0.266267 0.428786
Si Si5 0.533609 0.865676 0.751011
Si Si6 0.968283 0.912545 0.604787
Si Si7 0.964589 0.733675 0.073624
O O1 0.750000 0.682587 0.711569
O O2 0.028752 0.687253 0.636279
O O3 0.021348 0.770799 0.743907
O O4 0.027747 0.612421 0.758924
O O5 0.250000 0.586083 0.852752
O O6 0.962322 0.500000 0.848337
O O7 0.962997 0.666063 0.876099
O O8 0.250000 0.086790 0.917683
O O9 0.961410 0.174092 0.918389
O O10 0.040796 0.095096 0.816449
O O11 0.962376 0.000000 0.914081
O O12 0.500000 0.302293 0.500000
O O13 0.250000 0.260990 0.421632
O O14 0.533591 0.172336 0.426175
O O15 0.750000 0.868907 0.755947
O O16 0.486178 0.906354 0.681919
O O17 0.750000 0.912243 0.600541
O O18 0.032321 0.000000 0.578657
O O19 0.750000 0.740273 0.084823
O O20 0.000000 0.705964 0.000000
#
# Coordination Sequence:
#
# PCOD9403238 Si02
#       7
#     8   8   8   8   8   8   8
#     4   9  18  33  54  80 109 139 176 221 267 317
#     4  10  21  38  61  87 111 137 172 214 267 327
#     4  10  20  33  50  74 106 143 180 220 267 311
#     4   9  18  31  47  71 102 139 180 219 262 315
#     4   9  16  28  49  74  99 133 179 223 265 314
#     4   8  14  25  41  63  95 133 173 220 267 308
#     4  10  22  39  56  78 111 146 178 218 263 312
#
# _framework density 22.489495999999999
#
# number of rings (size 3 to 8) (size 9 to 14) (size 15 to 20)
#    0.000    2.714    1.429    2.143    0.000    3.714 
#    0.000    2.143    0.000    1.286    0.000    0.000 
#    0.000    0.000    0.000    0.000    0.000    0.000 
#
# Total GULP energy -312568.455877 kJ/mol
# GULP energy per Si atom -5581.579569 kJ/mol
# Density = 2.243831 g / cm^3
# Si number density = 22.489496 Si / 1000 Ang^3
#
#
#
# Elastic Constant Matrix: (Units=GPa)
#
#
# Indices 1 2 3 4 5 6 
#
# 1 69.5905 11.0152 -10.1476 0.0000 0.0000 0.0000
# 2 11.0152 137.9201 49.5239 0.0000 0.0000 0.0000
# 3 -10.1476 49.5239 115.6105 0.0000 0.0000 0.0000
# 4 0.0000 0.0000 0.0000 -9.7054 0.0000 0.0000
# 5 0.0000 0.0000 0.0000 0.0000 19.7195 0.0000
# 6 0.0000 0.0000 0.0000 0.0000 0.0000 2.6738
#
#
#
# Elastic Compliance Matrix: (Units=1/GPa)
#
#
# Indices 1 2 3 4 5 6 
#
# 1 0.014998 -0.001974 0.002162 0.000000 0.000000 0.000000
# 2 -0.001974 0.008828 -0.003955 0.000000 0.000000 0.000000
# 3 0.002162 -0.003955 0.010534 0.000000 0.000000 0.000000
# 4 0.000000 0.000000 0.000000 -0.103035 0.000000 0.000000
# 5 0.000000 0.000000 0.000000 0.000000 0.050711 0.000000
# 6 0.000000 0.000000 0.000000 0.000000 0.000000 0.374005
#
#
# Mechanical properties :
#
#
# Convention : Reuss Voigt Hill
#
# Bulk Modulus (GPa) = 37.27821 47.10045 42.18933
# Shear Modulus (GPa) = 13.42221 20.71953 17.07087
#
# Velocity S-wave (km/s) = 2.44564 3.03858 2.75809
# Velocity P-wave (km/s) = 4.95850 5.77056 5.37988
#
# Compressibility (1/GPa) = 0.02682532
#
# Stress axis : x y z
#
# Youngs Moduli (GPa) = 66.67765 113.27050 94.93302
#
# Poissons Ratio (x) = 0.22361 -0.20525
# Poissons Ratio (y) = 0.13163 0.37547
# Poissons Ratio (z) = -0.14416 0.44800
#
# Static dielectric constant tensor:
#      x y z
#    x 1.864040 0.000000 0.000000 
#    y 0.000000 1.848650 0.000000 
#    z 0.000000 0.000000 1.822130 
# 
# From -- ./inp_files/32024.got.cif
#   From: 2010.05.17/outbox.cif.g08.bks.cpg/sg51_17_cif.got.tgz:32024.got - 2010.06.03 11:52:47.
