data_PCOD9403232
_publ_section_title
;
Structure prediction by ZEFSAII (Michael W. Deem and Ramdas Pophale) SiO2 
 PCOD9403232
Probable space group: P M M A
;
_chemical_formula_sum "Si O2"
_cell_formula_units_Z 48
_cell_length_a 8.048811
_cell_length_b 23.991269
_cell_length_c 13.717156
_cell_angle_alpha 90.000000
_cell_angle_beta 90.000000
_cell_angle_gamma 90.000000
_cell_volume 2648.799145
_symmetry_space_group_name_H-M "P M M A"
_symmetry_group_IT_number 51
_symmetry_cell_setting 'orthorhombic'
loop_
_space_group_symop_operation_xyz
x,y,z
1/2-x,-y,z
1/2+x,-y,-z
-x,y,-z
-x,-y,-z
1/2+x,y,-z
1/2-x,y,z
x,-y,z
loop_
_atom_site_type_symbol
_atom_site_label
_atom_site_fract_x
_atom_site_fract_y
_atom_site_fract_z
Si Si1 0.551386 0.563742 0.390203
Si Si2 0.447639 0.330776 0.283894
Si Si3 0.438391 0.151324 0.236477
Si Si4 0.940078 0.230891 0.392848
Si Si5 0.549900 0.750758 0.889404
Si Si6 0.549196 0.064504 0.608787
O O1 0.500000 0.581463 0.500000
O O2 0.750000 0.563746 0.386464
O O3 0.491091 0.500000 0.377366
O O4 0.487067 0.605393 0.306992
O O5 0.250000 0.323299 0.292879
O O6 0.540093 0.295464 0.367160
O O7 0.501026 0.299715 0.183379
O O8 0.250000 0.135454 0.208570
O O9 0.440012 0.198398 0.320086
O O10 0.514992 0.188523 0.149173
O O11 0.513791 0.099781 0.297870
O O12 0.750000 0.213279 0.377493
O O13 0.000000 0.219725 0.500000
O O14 0.750000 0.754046 0.883788
O O15 0.500000 0.740728 0.000000
O O16 0.500000 0.084930 0.500000
O O17 0.750000 0.066784 0.612270
O O18 0.495790 0.000000 0.615401
#
# Coordination Sequence:
#
# PCOD9403232 Si02
#       6
#     8   8   8   8   8   8
#     4  10  20  33  50  74 104 137 169 198 230 273
#     4  10  20  34  50  70  96 125 159 198 240 285
#     4   9  18  32  47  67  94 122 157 197 238 286
#     4  11  20  29  43  65  94 126 157 191 235 284
#     4   9  19  34  52  72  93 119 153 199 250 297
#     4   9  17  29  46  68  96 130 163 194 230 276
#
# _framework density 18.121418999999999
#
# number of rings (size 3 to 8) (size 9 to 14) (size 15 to 20)
#    0.000    2.333    0.000    4.500    0.000    6.333 
#    0.000    0.000    0.000    1.000    0.000    0.000 
#    0.000    0.000    0.000    0.000    0.000    0.333 
#
# Total GULP energy -267267.480812 kJ/mol
# GULP energy per Si atom -5568.072517 kJ/mol
# Density = 1.808017 g / cm^3
# Si number density = 18.121419 Si / 1000 Ang^3
#
#
#
# Elastic Constant Matrix: (Units=GPa)
#
#
# Indices 1 2 3 4 5 6 
#
# 1 44.6189 6.5369 8.7279 0.0000 0.0000 0.0000
# 2 6.5369 102.9096 50.5346 0.0000 0.0000 0.0000
# 3 8.7279 50.5346 90.6869 0.0000 0.0000 0.0000
# 4 0.0000 0.0000 0.0000 24.7290 0.0000 0.0000
# 5 0.0000 0.0000 0.0000 0.0000 22.7517 0.0000
# 6 0.0000 0.0000 0.0000 0.0000 0.0000 17.5896
#
#
#
# Elastic Compliance Matrix: (Units=1/GPa)
#
#
# Indices 1 2 3 4 5 6 
#
# 1 0.022862 -0.000512 -0.001915 0.000000 0.000000 0.000000
# 2 -0.000512 0.013389 -0.007412 0.000000 0.000000 0.000000
# 3 -0.001915 -0.007412 0.015342 0.000000 0.000000 0.000000
# 4 0.000000 0.000000 0.000000 0.040438 0.000000 0.000000
# 5 0.000000 0.000000 0.000000 0.000000 0.043953 0.000000
# 6 0.000000 0.000000 0.000000 0.000000 0.000000 0.056852
#
#
# Mechanical properties :
#
#
# Convention : Reuss Voigt Hill
#
# Bulk Modulus (GPa) = 31.33317 41.09046 36.21181
# Shear Modulus (GPa) = 22.40630 24.50845 23.45737
#
# Velocity S-wave (km/s) = 3.52014 3.68157 3.60176
# Velocity P-wave (km/s) = 5.81808 6.38719 6.10927
#
# Compressibility (1/GPa) = 0.03191506
#
# Stress axis : x y z
#
# Youngs Moduli (GPa) = 43.74145 74.68558 65.18267
#
# Poissons Ratio (x) = 0.03822 0.12483
# Poissons Ratio (y) = 0.02239 0.48313
# Poissons Ratio (z) = 0.08377 0.55356
#
# Static dielectric constant tensor:
#      x y z
#    x 1.662380 0.000000 0.000000 
#    y 0.000000 1.686660 0.000000 
#    z 0.000000 0.000000 1.625280 
# 
# From -- ./inp_files/14408.got.cif
#   From: 2010.05.17/outbox.cif.g08.bks.cpg/sg51_8_cif.got.tgz:14408.got - 2010.06.03 11:52:47.
