data_PCOD9403745
_publ_section_title
;
Structure prediction by ZEFSAII (Michael W. Deem and Ramdas Pophale) SiO2 
 PCOD9403745
Probable space group: P M M A
;
_chemical_formula_sum "Si O2"
_cell_formula_units_Z 64
_cell_length_a 7.602981
_cell_length_b 9.347792
_cell_length_c 43.527707
_cell_angle_alpha 90.000000
_cell_angle_beta 90.000000
_cell_angle_gamma 90.000000
_cell_volume 3093.561363
_symmetry_space_group_name_H-M "P M M A"
_symmetry_group_IT_number 51
_symmetry_cell_setting 'orthorhombic'
loop_
_space_group_symop_operation_xyz
x,y,z
1/2-x,-y,z
1/2+x,-y,-z
-x,y,-z
-x,-y,-z
1/2+x,y,-z
1/2-x,y,z
x,-y,z
loop_
_atom_site_type_symbol
_atom_site_label
_atom_site_fract_x
_atom_site_fract_y
_atom_site_fract_z
Si Si1 0.538824 0.662370 0.153449
Si Si2 0.041332 0.163032 0.333869
Si Si3 0.039300 0.834752 0.533062
Si Si4 0.460857 0.336608 0.965710
Si Si5 0.038869 0.837587 0.214916
Si Si6 0.961285 0.167687 0.400942
Si Si7 0.034272 0.664431 0.274758
Si Si8 0.465582 0.835660 0.906322
O O1 0.750000 0.654414 0.150729
O O2 0.471136 0.500000 0.155237
O O3 0.499980 0.750492 0.184115
O O4 0.475330 0.745440 0.123212
O O5 0.250000 0.151146 0.329217
O O6 0.973864 0.258943 0.306035
O O7 0.016952 0.226805 0.368001
O O8 0.968815 0.000000 0.333210
O O9 0.250000 0.841655 0.534812
O O10 0.978058 0.772488 0.565914
O O11 0.000000 0.766488 0.500000
O O12 0.972941 0.000000 0.531861
O O13 0.250000 0.343543 0.962889
O O14 0.528639 0.500000 0.963340
O O15 0.524536 0.238964 0.937863
O O16 0.500000 0.282838 0.000000
O O17 0.250000 0.845559 0.217651
O O18 0.975599 0.753406 0.245022
O O19 0.971063 0.000000 0.213379
O O20 0.750000 0.171226 0.400848
O O21 0.016160 0.000000 0.400783
O O22 0.250000 0.664188 0.274764
O O23 0.978257 0.500000 0.273101
O O24 0.250000 0.835294 0.906272
O O25 0.521455 0.000000 0.904308
#
# Coordination Sequence:
#
# PCOD9403745 Si02
#       8
#     8   8   8   8   8   8   8   8
#     4  10  20  34  53  76 101 130 165 203 241 284
#     4   9  16  26  42  63  83 106 143 186 219 254
#     4   8  13  20  30  46  71 104 139 172 208 254
#     4   9  17  30  48  69  93 122 157 196 239 288
#     4  10  20  34  53  76 101 129 161 197 239 287
#     4   8  14  24  36  52  78 111 142 173 216 267
#     4   9  17  30  48  68  91 120 152 186 227 274
#     4   9  17  30  49  71  95 126 163 200 239 285
#
# _framework density 20.688127999999999
#
# number of rings (size 3 to 8) (size 9 to 14) (size 15 to 20)
#    0.000    3.000    0.000    2.250    0.000    5.250 
#    0.000    3.750    0.000    4.875    0.000    0.000 
#    0.000    0.500    0.000    1.125    0.000    2.250 
#
# Total GULP energy -356825.949334 kJ/mol
# GULP energy per Si atom -5575.405458 kJ/mol
# Density = 2.064104 g / cm^3
# Si number density = 20.688128 Si / 1000 Ang^3
#
#
#
# Elastic Constant Matrix: (Units=GPa)
#
#
# Indices 1 2 3 4 5 6 
#
# 1 40.5646 6.3512 2.9129 0.0000 0.0000 0.0000
# 2 6.3512 132.2742 117.8893 0.0000 0.0000 0.0000
# 3 2.9129 117.8893 255.3326 0.0000 0.0000 0.0000
# 4 0.0000 0.0000 0.0000 2485.0820 0.0000 0.0000
# 5 0.0000 0.0000 0.0000 0.0000 23.4260 0.0000
# 6 0.0000 0.0000 0.0000 0.0000 0.0000 5.6921
#
#
#
# Elastic Compliance Matrix: (Units=1/GPa)
#
#
# Indices 1 2 3 4 5 6 
#
# 1 0.024870 -0.001599 0.000455 0.000000 0.000000 0.000000
# 2 -0.001599 0.012949 -0.005960 0.000000 0.000000 0.000000
# 3 0.000455 -0.005960 0.006663 0.000000 0.000000 0.000000
# 4 0.000000 0.000000 0.000000 0.000402 0.000000 0.000000
# 5 0.000000 0.000000 0.000000 0.000000 0.042688 0.000000
# 6 0.000000 0.000000 0.000000 0.000000 0.000000 0.175682
#
#
# Mechanical properties :
#
#
# Convention : Reuss Voigt Hill
#
# Bulk Modulus (GPa) = 33.03396 75.83091 54.43244
# Shear Modulus (GPa) = 17.38801 522.90791 270.14796
#
# Velocity S-wave (km/s) = 2.90225 15.91560 11.43961
# Velocity P-wave (km/s) = 5.21853 19.35137 14.17231
#
# Compressibility (1/GPa) = 0.03027188
#
# Stress axis : x y z
#
# Youngs Moduli (GPa) = 40.20943 77.22539 150.07641
#
# Poissons Ratio (x) = 0.12352 -0.06825
# Poissons Ratio (y) = 0.06431 0.89453
# Poissons Ratio (z) = -0.01829 0.46030
#
# Static dielectric constant tensor:
#      x y z
#    x 1.788190 0.000000 0.000000 
#    y 0.000000 1.710260 0.000000 
#    z 0.000000 0.000000 1.752220 
# 
# From -- ./inp_files/37766.got.cif
#   From: 2010.05.17/outbox.cif.g08.bks.cpg/sg51_19_cif.got.tgz:37766.got - 2010.06.03 11:52:47.
