data_PCOD9403889
_publ_section_title
;
Structure prediction by ZEFSAII (Michael W. Deem and Ramdas Pophale) SiO2 
 PCOD9403889
Probable space group: P M M A
;
_chemical_formula_sum "Si O2"
_cell_formula_units_Z 48
_cell_length_a 9.166557
_cell_length_b 9.253945
_cell_length_c 32.017502
_cell_angle_alpha 90.000000
_cell_angle_beta 90.000000
_cell_angle_gamma 90.000000
_cell_volume 2715.942697
_symmetry_space_group_name_H-M "P M M A"
_symmetry_group_IT_number 51
_symmetry_cell_setting 'orthorhombic'
loop_
_space_group_symop_operation_xyz
x,y,z
1/2-x,-y,z
1/2+x,-y,-z
-x,y,-z
-x,-y,-z
1/2+x,y,-z
1/2-x,y,z
x,-y,z
loop_
_atom_site_type_symbol
_atom_site_label
_atom_site_fract_x
_atom_site_fract_y
_atom_site_fract_z
Si Si1 0.082051 0.176214 0.958166
Si Si2 0.572281 0.666146 0.373286
Si Si3 0.574545 0.330412 0.787911
Si Si4 0.575120 0.170514 0.456911
Si Si5 0.075607 0.170634 0.126883
Si Si6 0.074009 0.830709 0.710874
O O1 0.250000 0.221168 0.958688
O O2 0.003421 0.219821 0.915355
O O3 0.078524 0.000000 0.958607
O O4 0.000000 0.225123 0.000000
O O5 0.750000 0.667657 0.373651
O O6 0.524968 0.500000 0.370702
O O7 0.525592 0.740819 0.416415
O O8 0.527489 0.755294 0.332417
O O9 0.750000 0.315358 0.784048
O O10 0.538797 0.500000 0.787170
O O11 0.532252 0.259234 0.832129
O O12 0.498103 0.248588 0.749952
O O13 0.500000 0.216493 0.500000
O O14 0.750000 0.186015 0.460894
O O15 0.544272 0.000000 0.450505
O O16 0.250000 0.184407 0.121202
O O17 0.044101 0.000000 0.133472
O O18 0.250000 0.818667 0.713813
O O19 0.036732 0.000000 0.710518
#
# Coordination Sequence:
#
# PCOD9403889 Si02
#       6
#     8   8   8   8   8   8
#     4   9  16  26  43  69  99 128 160 201 247 292
#     4   9  17  30  49  72  98 129 164 202 246 296
#     4  10  21  36  53  74 102 135 168 204 251 304
#     4   9  17  30  48  69  94 125 162 203 246 293
#     4   9  17  30  48  69  95 128 164 201 243 292
#     4  10  20  34  54  78 101 128 166 209 250 296
#
# _framework density 17.673421999999999
#
# number of rings (size 3 to 8) (size 9 to 14) (size 15 to 20)
#    0.000    2.667    0.000    2.000    0.000    7.000 
#    0.000    2.500    0.000    3.500    0.000    0.000 
#    0.000    0.000    0.000    0.000    0.000    0.000 
#
# Total GULP energy -267733.573778 kJ/mol
# GULP energy per Si atom -5577.782787 kJ/mol
# Density = 1.763320 g / cm^3
# Si number density = 17.673422 Si / 1000 Ang^3
#
#
#
# Elastic Constant Matrix: (Units=GPa)
#
#
# Indices 1 2 3 4 5 6 
#
# 1 28.7391 43.3544 62.9423 0.0000 0.0000 0.0000
# 2 43.3544 108.0489 109.6464 0.0000 0.0000 0.0000
# 3 62.9423 109.6464 227.5032 0.0000 0.0000 0.0000
# 4 0.0000 0.0000 0.0000 -7.0738 0.0000 0.0000
# 5 0.0000 0.0000 0.0000 0.0000 36.7873 0.0000
# 6 0.0000 0.0000 0.0000 0.0000 0.0000 16.2361
#
#
#
# Elastic Compliance Matrix: (Units=1/GPa)
#
#
# Indices 1 2 3 4 5 6 
#
# 1 0.121141 -0.028569 -0.019747 0.000000 0.000000 0.000000
# 2 -0.028569 0.024852 -0.004074 0.000000 0.000000 0.000000
# 3 -0.019747 -0.004074 0.011822 0.000000 0.000000 0.000000
# 4 0.000000 0.000000 0.000000 -0.141367 0.000000 0.000000
# 5 0.000000 0.000000 0.000000 0.000000 0.027183 0.000000
# 6 0.000000 0.000000 0.000000 0.000000 0.000000 0.061591
#
#
# Mechanical properties :
#
#
# Convention : Reuss Voigt Hill
#
# Bulk Modulus (GPa) = 18.85481 88.46415 53.65948
# Shear Modulus (GPa) = 21.96064 19.07980 20.52022
#
# Velocity S-wave (km/s) = 3.52885 3.28925 3.41116
# Velocity P-wave (km/s) = 5.22449 8.03674 6.77807
#
# Compressibility (1/GPa) = 0.05303687
#
# Stress axis : x y z
#
# Youngs Moduli (GPa) = 8.25484 40.23811 84.58814
#
# Poissons Ratio (x) = 1.14956 1.67032
# Poissons Ratio (y) = 0.23583 0.34457
# Poissons Ratio (z) = 0.16300 0.16391
#
# Static dielectric constant tensor:
#      x y z
#    x 1.594430 0.000000 0.000000 
#    y 0.000000 1.589400 0.000000 
#    z 0.000000 0.000000 1.576700 
# 
# From -- ./inp_files/36933.got.cif
#   From: 2010.05.17/outbox.cif.g08.bks.cpg/sg51_19_cif.got.tgz:36933.got - 2010.06.03 11:52:47.
