data_PCOD9403431
_publ_section_title
;
Structure prediction by ZEFSAII (Michael W. Deem and Ramdas Pophale) SiO2 
 PCOD9403431
Probable space group: P M M A
;
_chemical_formula_sum "Si O2"
_cell_formula_units_Z 64
_cell_length_a 24.074630
_cell_length_b 7.515998
_cell_length_c 15.864156
_cell_angle_alpha 90.000000
_cell_angle_beta 90.000000
_cell_angle_gamma 90.000000
_cell_volume 2870.537660
_symmetry_space_group_name_H-M "P M M A"
_symmetry_group_IT_number 51
_symmetry_cell_setting 'orthorhombic'
loop_
_space_group_symop_operation_xyz
x,y,z
1/2-x,-y,z
1/2+x,-y,-z
-x,y,-z
-x,-y,-z
1/2+x,y,-z
1/2-x,y,z
x,-y,z
loop_
_atom_site_type_symbol
_atom_site_label
_atom_site_fract_x
_atom_site_fract_y
_atom_site_fract_z
Si Si1 0.372229 0.783406 0.882562
Si Si2 0.624503 0.216397 0.300764
Si Si3 0.686024 0.218294 0.469713
Si Si4 0.186931 0.214616 0.051742
Si Si5 0.501701 0.300942 0.093426
Si Si6 0.314261 0.291734 0.235525
Si Si7 0.503229 0.211706 0.717546
Si Si8 0.893392 0.797830 0.617041
O O1 0.349711 0.736315 0.790282
O O2 0.433071 0.703593 0.888281
O O3 0.376985 0.000000 0.885113
O O4 0.340574 0.724785 0.965709
O O5 0.660885 0.273862 0.379774
O O6 0.559733 0.276910 0.300071
O O7 0.622799 0.000000 0.304033
O O8 0.750000 0.274861 0.482562
O O9 0.642934 0.281078 0.541312
O O10 0.686870 0.000000 0.472544
O O11 0.250000 0.278982 0.052560
O O12 0.162232 0.270206 0.141084
O O13 0.186755 0.000000 0.050602
O O14 0.479028 0.500000 0.082487
O O15 0.479279 0.234593 0.183859
O O16 0.500000 0.211970 0.000000
O O17 0.250000 0.227038 0.236306
O O18 0.313710 0.500000 0.256166
O O19 0.351858 0.197556 0.303681
O O20 0.549854 0.284502 0.653778
O O21 0.501193 0.000000 0.705298
O O22 0.907110 0.000000 0.590347
#
# Coordination Sequence:
#
# PCOD9403431 Si02
#       8
#     8   8   8   8   8   8   8   8
#     4   9  18  32  51  75 103 136 171 212 258 306
#     4   8  15  30  49  72 104 136 170 210 255 308
#     4   9  17  29  50  81 110 135 167 213 267 315
#     4   9  18  32  50  74 103 136 174 213 256 308
#     4  10  21  34  49  72 101 135 175 219 260 305
#     4  10  21  35  50  70 100 138 175 215 263 313
#     4   9  19  34  51  74 103 138 177 215 262 315
#     4  10  20  33  52  78 105 135 173 216 262 313
#
# _framework density 22.295473999999999
#
# number of rings (size 3 to 8) (size 9 to 14) (size 15 to 20)
#    0.000    2.750    0.000    1.875    1.750    4.250 
#    0.000    5.000    0.000    3.000    0.000    4.375 
#    0.000    0.000    0.000    0.000    0.000    0.000 
#
# Total GULP energy -356815.606471 kJ/mol
# GULP energy per Si atom -5575.243851 kJ/mol
# Density = 2.224473 g / cm^3
# Si number density = 22.295474 Si / 1000 Ang^3
#
#
#
# Elastic Constant Matrix: (Units=GPa)
#
#
# Indices 1 2 3 4 5 6 
#
# 1 26.7938 -6.0474 3.8784 0.0000 0.0000 0.0000
# 2 -6.0474 56.7763 -6.2729 0.0000 0.0000 0.0000
# 3 3.8784 -6.2729 105.8357 0.0000 0.0000 0.0000
# 4 0.0000 0.0000 0.0000-1368.8957 0.0000 0.0000
# 5 0.0000 0.0000 0.0000 0.0000 41.1734 0.0000
# 6 0.0000 0.0000 0.0000 0.0000 0.0000 3.6928
#
#
#
# Elastic Compliance Matrix: (Units=1/GPa)
#
#
# Indices 1 2 3 4 5 6 
#
# 1 0.038385 0.003959 -0.001172 0.000000 0.000000 0.000000
# 2 0.003959 0.018137 0.000930 0.000000 0.000000 0.000000
# 3 -0.001172 0.000930 0.009547 0.000000 0.000000 0.000000
# 4 0.000000 0.000000 0.000000 -0.000731 0.000000 0.000000
# 5 0.000000 0.000000 0.000000 0.000000 0.024288 0.000000
# 6 0.000000 0.000000 0.000000 0.000000 0.000000 0.270796
#
#
# Mechanical properties :
#
#
# Convention : Reuss Voigt Hill
#
# Bulk Modulus (GPa) = 13.60483 19.16911 16.38697
# Shear Modulus (GPa) = 13.24541 -251.61605 -119.18532
#
# Velocity S-wave (km/s) = 2.44003 -10.63486 -7.31937
# Velocity P-wave (km/s) = 3.74882 11.92409 8.00407
#
# Compressibility (1/GPa) = 0.07350333
#
# Stress axis : x y z
#
# Youngs Moduli (GPa) = 26.05168 55.13468 104.74859
#
# Poissons Ratio (x) = -0.21828 0.12276
# Poissons Ratio (y) = -0.10314 -0.09741
# Poissons Ratio (z) = 0.03053 -0.05127
#
# Static dielectric constant tensor:
#      x y z
#    x 1.806840 0.000000 0.000000 
#    y 0.000000 1.885690 0.000000 
#    z 0.000000 0.000000 1.845890 
# 
# From -- ./inp_files/26311.got.cif
#   From: 2010.05.17/outbox.cif.g08.bks.cpg/sg51_14_cif.got.tgz:26311.got - 2010.06.03 11:52:47.
