data_PCOD9403362
_publ_section_title
;
Structure prediction by ZEFSAII (Michael W. Deem and Ramdas Pophale) SiO2 
 PCOD9403362
Probable space group: P M M A
;
_chemical_formula_sum "Si O2"
_cell_formula_units_Z 40
_cell_length_a 9.283510
_cell_length_b 7.552904
_cell_length_c 26.503982
_cell_angle_alpha 90.000000
_cell_angle_beta 90.000000
_cell_angle_gamma 90.000000
_cell_volume 1858.391893
_symmetry_space_group_name_H-M "P M M A"
_symmetry_group_IT_number 51
_symmetry_cell_setting 'orthorhombic'
loop_
_space_group_symop_operation_xyz
x,y,z
1/2-x,-y,z
1/2+x,-y,-z
-x,y,-z
-x,-y,-z
1/2+x,y,-z
1/2-x,y,z
x,-y,z
loop_
_atom_site_type_symbol
_atom_site_label
_atom_site_fract_x
_atom_site_fract_y
_atom_site_fract_z
Si Si1 0.086074 0.212560 0.149504
Si Si2 0.413717 0.712445 0.748446
Si Si3 0.586209 0.712583 0.650869
Si Si4 0.413801 0.212594 0.548823
Si Si5 0.916186 0.216565 0.050389
O O1 0.250000 0.280121 0.151465
O O2 0.000221 0.251079 0.200529
O O3 0.999452 0.276770 0.100484
O O4 0.093911 0.000000 0.144852
O O5 0.250000 0.780590 0.750751
O O6 0.405195 0.500000 0.743363
O O7 0.499959 0.780371 0.699667
O O8 0.750000 0.780415 0.648699
O O9 0.594446 0.500000 0.655764
O O10 0.500012 0.749922 0.599840
O O11 0.500000 0.280213 0.500000
O O12 0.250000 0.280381 0.550989
O O13 0.405633 0.000000 0.543964
O O14 0.750000 0.273125 0.050194
O O15 0.915769 0.000000 0.050699
O O16 0.000000 0.271480 0.000000
#
# Coordination Sequence:
#
# PCOD9403362 Si02
#       5
#     8   8   8   8   8
#     4  10  20  33  51  77 106 136 173 215 258 307
#     4  10  21  37  56  77 103 137 175 215 261 311
#     4  10  21  37  57  80 105 136 175 216 258 306
#     4  10  21  37  57  81 109 141 175 212 257 307
#     4   9  16  27  45  70 101 135 170 211 258 306
#
# _framework density 21.523986000000001
#
# number of rings (size 3 to 8) (size 9 to 14) (size 15 to 20)
#    0.000    2.200    0.000    3.000    0.000    8.400 
#    0.000    0.000    0.000    0.600    0.000    0.000 
#    0.000    0.000    0.000    0.000    0.000    0.000 
#
# Total GULP energy -223615.190528 kJ/mol
# GULP energy per Si atom -5590.379763 kJ/mol
# Density = 2.147500 g / cm^3
# Si number density = 21.523986 Si / 1000 Ang^3
#
#
#
# Elastic Constant Matrix: (Units=GPa)
#
#
# Indices 1 2 3 4 5 6 
#
# 1 284.0735 9.2173 168.9299 0.0000 0.0000 0.0000
# 2 9.2173 52.1320 -2.6112 0.0000 0.0000 0.0000
# 3 168.9299 -2.6112 258.5876 0.0000 0.0000 0.0000
# 4 0.0000 0.0000 0.0000 30.4626 0.0000 0.0000
# 5 0.0000 0.0000 0.0000 0.0000 47.9402 0.0000
# 6 0.0000 0.0000 0.0000 0.0000 0.0000 15.4733
#
#
#
# Elastic Compliance Matrix: (Units=1/GPa)
#
#
# Indices 1 2 3 4 5 6 
#
# 1 0.005833 -0.001223 -0.003823 0.000000 0.000000 0.000000
# 2 -0.001223 0.019448 0.000995 0.000000 0.000000 0.000000
# 3 -0.003823 0.000995 0.006375 0.000000 0.000000 0.000000
# 4 0.000000 0.000000 0.000000 0.032827 0.000000 0.000000
# 5 0.000000 0.000000 0.000000 0.000000 0.020859 0.000000
# 6 0.000000 0.000000 0.000000 0.000000 0.000000 0.064628
#
#
# Mechanical properties :
#
#
# Convention : Reuss Voigt Hill
#
# Bulk Modulus (GPa) = 42.45427 105.09612 73.77520
# Shear Modulus (GPa) = 30.13434 46.72569 38.43002
#
# Velocity S-wave (km/s) = 3.74576 4.66431 4.23004
# Velocity P-wave (km/s) = 6.20279 8.82843 7.62941
#
# Compressibility (1/GPa) = 0.02355475
#
# Stress axis : x y z
#
# Youngs Moduli (GPa) = 171.42523 51.41882 156.86667
#
# Poissons Ratio (x) = 0.06288 0.59974
# Poissons Ratio (y) = 0.20963 -0.15613
# Poissons Ratio (z) = 0.65540 -0.05118
#
# Static dielectric constant tensor:
#      x y z
#    x 1.755140 0.000000 0.000000 
#    y 0.000000 1.832170 0.000000 
#    z 0.000000 0.000000 1.713220 
# 
# From -- ./inp_files/27026.got.cif
#   From: 2010.05.17/outbox.cif.g08.bks.cpg/sg51_14_cif.got.tgz:27026.got - 2010.06.03 11:52:47.
