data_PCOD9403744
_publ_section_title
;
Structure prediction by ZEFSAII (Michael W. Deem and Ramdas Pophale) SiO2 
 PCOD9403744
Probable space group: P M M A
;
_chemical_formula_sum "Si O2"
_cell_formula_units_Z 64
_cell_length_a 9.087256
_cell_length_b 14.442904
_cell_length_c 31.932947
_cell_angle_alpha 90.000000
_cell_angle_beta 90.000000
_cell_angle_gamma 90.000000
_cell_volume 4191.083250
_symmetry_space_group_name_H-M "P M M A"
_symmetry_group_IT_number 51
_symmetry_cell_setting 'orthorhombic'
loop_
_space_group_symop_operation_xyz
x,y,z
1/2-x,-y,z
1/2+x,-y,-z
-x,y,-z
-x,-y,-z
1/2+x,y,-z
1/2-x,y,z
x,-y,z
loop_
_atom_site_type_symbol
_atom_site_label
_atom_site_fract_x
_atom_site_fract_y
_atom_site_fract_z
Si Si1 0.076317 0.893397 0.168220
Si Si2 0.919508 0.387323 0.627287
Si Si3 0.574467 0.715347 0.958325
Si Si4 0.426399 0.392009 0.713227
Si Si5 0.574996 0.609323 0.871871
Si Si6 0.573627 0.279611 0.203342
Si Si7 0.080331 0.612860 0.542523
Si Si8 0.574198 0.893835 0.077120
O O1 0.250000 0.874226 0.162083
O O2 0.004215 0.819463 0.198975
O O3 0.993279 0.884532 0.123737
O O4 0.060749 0.000000 0.181983
O O5 0.750000 0.358760 0.626871
O O6 0.923587 0.500000 0.626793
O O7 0.998137 0.359716 0.670345
O O8 0.000852 0.356334 0.585059
O O9 0.750000 0.721901 0.963379
O O10 0.543315 0.654944 0.916917
O O11 0.504899 0.816405 0.950294
O O12 0.500000 0.675685 0.000000
O O13 0.250000 0.388849 0.707864
O O14 0.466800 0.500000 0.720577
O O15 0.465309 0.331656 0.753625
O O16 0.750000 0.622394 0.863875
O O17 0.544573 0.500000 0.872375
O O18 0.484150 0.659986 0.835726
O O19 0.750000 0.270357 0.201086
O O20 0.250000 0.640963 0.542315
O O21 0.076824 0.500000 0.542608
O O22 0.000000 0.642825 0.500000
O O23 0.750000 0.878877 0.078127
O O24 0.547027 0.000000 0.063372
#
# Coordination Sequence:
#
# PCOD9403744 Si02
#       8
#     8   8   8   8   8   8   8   8
#     4  10  20  34  53  76 101 127 152 181 222 271
#     4   9  16  25  37  54  77 108 148 192 236 279
#     4  11  23  38  56  76 100 128 156 188 225 268
#     4   9  18  31  44  62  90 122 155 191 232 275
#     4  10  22  39  56  74  97 125 157 192 229 269
#     4  11  21  33  53  77  99 123 155 192 230 273
#     4   9  15  22  33  49  71 102 142 190 239 283
#     4  10  20  35  56  80 103 125 150 182 221 267
#
# _framework density 15.270515
#
# number of rings (size 3 to 8) (size 9 to 14) (size 15 to 20)
#    0.000    2.125    1.250    2.625    0.000    7.250 
#    0.000    1.250    0.000    0.000    0.000    0.000 
#    0.000    0.000    0.000    0.000    0.000    0.625 
#
# Total GULP energy -357081.300388 kJ/mol
# GULP energy per Si atom -5579.395319 kJ/mol
# Density = 1.523576 g / cm^3
# Si number density = 15.270515 Si / 1000 Ang^3
#
#
#
# Elastic Constant Matrix: (Units=GPa)
#
#
# Indices 1 2 3 4 5 6 
#
# 1 79.0678 35.0345 67.2978 0.0000 0.0000 0.0000
# 2 35.0345 58.0561 40.3565 0.0000 0.0000 0.0000
# 3 67.2978 40.3565 130.3185 0.0000 0.0000 0.0000
# 4 0.0000 0.0000 0.0000 4.7010 0.0000 0.0000
# 5 0.0000 0.0000 0.0000 0.0000 29.5401 0.0000
# 6 0.0000 0.0000 0.0000 0.0000 0.0000 18.3257
#
#
#
# Elastic Compliance Matrix: (Units=1/GPa)
#
#
# Indices 1 2 3 4 5 6 
#
# 1 0.025067 -0.007810 -0.010527 0.000000 0.000000 0.000000
# 2 -0.007810 0.024383 -0.003518 0.000000 0.000000 0.000000
# 3 -0.010527 -0.003518 0.014199 0.000000 0.000000 0.000000
# 4 0.000000 0.000000 0.000000 0.212721 0.000000 0.000000
# 5 0.000000 0.000000 0.000000 0.000000 0.033852 0.000000
# 6 0.000000 0.000000 0.000000 0.000000 0.000000 0.054568
#
#
# Mechanical properties :
#
#
# Convention : Reuss Voigt Hill
#
# Bulk Modulus (GPa) = 50.14799 61.42445 55.78622
# Shear Modulus (GPa) = 12.04397 18.83028 15.43712
#
# Velocity S-wave (km/s) = 2.81144 3.51538 3.18293
# Velocity P-wave (km/s) = 6.59166 7.53583 7.07950
#
# Compressibility (1/GPa) = 0.01994098
#
# Stress axis : x y z
#
# Youngs Moduli (GPa) = 39.89235 41.01232 70.42803
#
# Poissons Ratio (x) = 0.32030 0.74137
# Poissons Ratio (y) = 0.31155 0.24775
# Poissons Ratio (z) = 0.41993 0.14427
#
# Static dielectric constant tensor:
#      x y z
#    x 1.508320 0.000000 0.000000 
#    y 0.000000 1.496650 0.000000 
#    z 0.000000 0.000000 1.498760 
# 
# From -- ./inp_files/37658.got.cif
#   From: 2010.05.17/outbox.cif.g08.bks.cpg/sg51_19_cif.got.tgz:37658.got - 2010.06.03 11:52:47.
