data_PCOD9403202
_publ_section_title
;
Structure prediction by ZEFSAII (Michael W. Deem and Ramdas Pophale) SiO2 
 PCOD9403202
Probable space group: P M M A
;
_chemical_formula_sum "Si O2"
_cell_formula_units_Z 64
_cell_length_a 19.056922
_cell_length_b 9.095599
_cell_length_c 19.424100
_cell_angle_alpha 90.000000
_cell_angle_beta 90.000000
_cell_angle_gamma 90.000000
_cell_volume 3366.859294
_symmetry_space_group_name_H-M "P M M A"
_symmetry_group_IT_number 51
_symmetry_cell_setting 'orthorhombic'
loop_
_space_group_symop_operation_xyz
x,y,z
1/2-x,-y,z
1/2+x,-y,-z
-x,y,-z
-x,-y,-z
1/2+x,y,-z
1/2-x,y,z
x,-y,z
loop_
_atom_site_type_symbol
_atom_site_label
_atom_site_fract_x
_atom_site_fract_y
_atom_site_fract_z
Si Si1 0.525748 0.165970 0.790772
Si Si2 0.165681 0.830366 0.997874
Si Si3 0.565187 0.177423 0.642487
Si Si4 0.831237 0.662083 0.135848
Si Si5 0.667620 0.675121 0.539767
Si Si6 0.954144 0.674979 0.933351
Si Si7 0.581528 0.676053 0.399772
Si Si8 0.632037 0.167010 0.268131
O O1 0.568736 0.219133 0.723648
O O2 0.524401 0.260963 0.859527
O O3 0.447672 0.158694 0.759553
O O4 0.548427 0.000000 0.808706
O O5 0.250000 0.821007 0.004363
O O6 0.124416 0.730631 0.051398
O O7 0.145650 0.000000 0.005674
O O8 0.142249 0.772212 0.922509
O O9 0.632297 0.233557 0.600994
O O10 0.495681 0.251970 0.608647
O O11 0.557595 0.000000 0.639296
O O12 0.750000 0.643833 0.117813
O O13 0.865300 0.500000 0.133856
O O14 0.832601 0.734019 0.210377
O O15 0.750000 0.709719 0.528730
O O16 0.662795 0.500000 0.554215
O O17 0.619924 0.702621 0.472180
O O18 0.957444 0.500000 0.931372
O O19 0.000000 0.724541 0.000000
O O20 0.575905 0.500000 0.389426
O O21 0.628583 0.751096 0.340607
O O22 0.659164 0.000000 0.272610
#
# Coordination Sequence:
#
# PCOD9403202 Si02
#       8
#     8   8   8   8   8   8   8   8
#     4   9  20  37  55  78 108 141 178 222 273 327
#     4  10  21  37  56  77 104 142 185 227 275 331
#     4  10  21  38  60  85 112 144 187 234 277 329
#     4  10  20  33  50  73 104 143 184 225 271 327
#     4  10  22  39  58  83 115 149 187 231 280 335
#     4  11  23  36  55  85 115 143 180 227 277 329
#     4  10  20  35  57  83 113 150 187 226 276 333
#     4  10  20  34  53  79 110 143 181 226 274 326
#
# _framework density 19.008813
#
# number of rings (size 3 to 8) (size 9 to 14) (size 15 to 20)
#    0.000    2.000    0.000    4.125    0.000   10.750 
#    0.000    1.875    0.000    0.750    0.000    0.000 
#    0.000    0.000    0.000    0.000    0.000    0.000 
#
# Total GULP energy -357035.627232 kJ/mol
# GULP energy per Si atom -5578.681675 kJ/mol
# Density = 1.896555 g / cm^3
# Si number density = 19.008813 Si / 1000 Ang^3
#
#
#
# Elastic Constant Matrix: (Units=GPa)
#
#
# Indices 1 2 3 4 5 6 
#
# 1 50.2854 28.6992 35.7333 0.0000 0.0000 0.0000
# 2 28.6992 84.6283 61.7099 0.0000 0.0000 0.0000
# 3 35.7333 61.7099 122.7983 0.0000 0.0000 0.0000
# 4 0.0000 0.0000 0.0000 35.4697 0.0000 0.0000
# 5 0.0000 0.0000 0.0000 0.0000 28.8836 0.0000
# 6 0.0000 0.0000 0.0000 0.0000 0.0000 19.0368
#
#
#
# Elastic Compliance Matrix: (Units=1/GPa)
#
#
# Indices 1 2 3 4 5 6 
#
# 1 0.026501 -0.005309 -0.005043 0.000000 0.000000 0.000000
# 2 -0.005309 0.019714 -0.008362 0.000000 0.000000 0.000000
# 3 -0.005043 -0.008362 0.013813 0.000000 0.000000 0.000000
# 4 0.000000 0.000000 0.000000 0.028193 0.000000 0.000000
# 5 0.000000 0.000000 0.000000 0.000000 0.034622 0.000000
# 6 0.000000 0.000000 0.000000 0.000000 0.000000 0.052530
#
#
# Mechanical properties :
#
#
# Convention : Reuss Voigt Hill
#
# Bulk Modulus (GPa) = 44.25055 56.66632 50.45844
# Shear Modulus (GPa) = 22.69269 25.44933 24.07101
#
# Velocity S-wave (km/s) = 3.45889 3.66296 3.56238
# Velocity P-wave (km/s) = 6.26749 6.91122 6.59721
#
# Compressibility (1/GPa) = 0.02259859
#
# Stress axis : x y z
#
# Youngs Moduli (GPa) = 37.73508 50.72419 72.39437
#
# Poissons Ratio (x) = 0.26931 0.36511
# Poissons Ratio (y) = 0.20035 0.60537
# Poissons Ratio (z) = 0.19031 0.42416
#
# Static dielectric constant tensor:
#      x y z
#    x 1.709450 0.000000 0.000000 
#    y 0.000000 1.661610 0.000000 
#    z 0.000000 0.000000 1.661090 
# 
# From -- ./inp_files/30658.got.cif
#   From: 2010.05.17/outbox.cif.g08.bks.cpg/sg51_16_cif.got.tgz:30658.got - 2010.06.03 11:52:47.
