data_PCOD9403886
_publ_section_title
;
Structure prediction by ZEFSAII (Michael W. Deem and Ramdas Pophale) SiO2 
 PCOD9403886
Probable space group: P M M A
;
_chemical_formula_sum "Si O2"
_cell_formula_units_Z 64
_cell_length_a 18.605276
_cell_length_b 20.543415
_cell_length_c 9.403761
_cell_angle_alpha 90.000000
_cell_angle_beta 90.000000
_cell_angle_gamma 90.000000
_cell_volume 3594.267031
_symmetry_space_group_name_H-M "P M M A"
_symmetry_group_IT_number 51
_symmetry_cell_setting 'orthorhombic'
loop_
_space_group_symop_operation_xyz
x,y,z
1/2-x,-y,z
1/2+x,-y,-z
-x,y,-z
-x,-y,-z
1/2+x,y,-z
1/2-x,y,z
x,-y,z
loop_
_atom_site_type_symbol
_atom_site_label
_atom_site_fract_x
_atom_site_fract_y
_atom_site_fract_z
Si Si1 0.932211 0.924694 0.105072
Si Si2 0.836444 0.430047 0.759393
Si Si3 0.583722 0.711031 0.456932
Si Si4 0.836175 0.925495 0.610229
Si Si5 0.067661 0.148814 0.606612
Si Si6 0.163132 0.712775 0.238990
Si Si7 0.584147 0.430021 0.456023
Si Si8 0.163924 0.153333 0.104158
O O1 0.951085 0.890914 0.253302
O O2 0.909809 0.000000 0.125148
O O3 0.871886 0.881136 0.029292
O O4 0.000000 0.924219 0.000000
O O5 0.750000 0.430089 0.749650
O O6 0.857973 0.500000 0.826282
O O7 0.856617 0.359100 0.819887
O O8 0.870274 0.430074 0.601808
O O9 0.500000 0.707445 0.500000
O O10 0.591353 0.776559 0.366283
O O11 0.628360 0.719405 0.603961
O O12 0.600849 0.640466 0.388468
O O13 0.750000 0.925216 0.599355
O O14 0.870127 0.888193 0.478413
O O15 0.854959 0.888824 0.755969
O O16 0.861605 0.000000 0.615161
O O17 0.000000 0.150622 0.500000
O O18 0.250000 0.716283 0.254145
O O19 0.140460 0.772904 0.140233
O O20 0.500000 0.430266 0.500000
O O21 0.598256 0.500000 0.382463
O O22 0.250000 0.153033 0.088950
#
# Coordination Sequence:
#
# PCOD9403886 Si02
#       8
#     8   8   8   8   8   8   8   8
#     4  11  25  40  54  74 101 134 172 213 260 311
#     4   8  13  21  36  63  98 131 164 205 249 292
#     4   9  17  27  45  73 100 130 169 211 252 298
#     4  10  20  34  54  77  99 127 164 204 253 310
#     4  11  22  36  55  77 102 130 166 215 259 303
#     4   9  16  28  48  72 101 137 173 210 254 305
#     4   8  13  22  36  59  95 131 161 197 246 297
#     4  10  20  36  56  77 103 135 168 205 252 307
#
# _framework density 17.806134
#
# number of rings (size 3 to 8) (size 9 to 14) (size 15 to 20)
#    0.000    2.500    1.250    1.500    1.750    3.250 
#    0.000    0.000    0.000    0.000    0.000    0.875 
#    0.000    1.000    0.000    0.000    0.000    0.000 
#
# Total GULP energy -356291.651009 kJ/mol
# GULP energy per Si atom -5567.057047 kJ/mol
# Density = 1.776561 g / cm^3
# Si number density = 17.806134 Si / 1000 Ang^3
#
#
#
# Elastic Constant Matrix: (Units=GPa)
#
#
# Indices 1 2 3 4 5 6 
#
# 1 17.4946 24.1240 11.3314 0.0000 0.0000 0.0000
# 2 24.1240 204.0482 39.7411 0.0000 0.0000 0.0000
# 3 11.3314 39.7411 51.6206 0.0000 0.0000 0.0000
# 4 0.0000 0.0000 0.0000 9.4090 0.0000 0.0000
# 5 0.0000 0.0000 0.0000 0.0000 20.7205 0.0000
# 6 0.0000 0.0000 0.0000 0.0000 0.0000 13.7359
#
#
#
# Elastic Compliance Matrix: (Units=1/GPa)
#
#
# Indices 1 2 3 4 5 6 
#
# 1 0.073315 -0.006509 -0.011082 0.000000 0.000000 0.000000
# 2 -0.006509 0.006343 -0.003455 0.000000 0.000000 0.000000
# 3 -0.011082 -0.003455 0.024464 0.000000 0.000000 0.000000
# 4 0.000000 0.000000 0.000000 0.106281 0.000000 0.000000
# 5 0.000000 0.000000 0.000000 0.000000 0.048261 0.000000
# 6 0.000000 0.000000 0.000000 0.000000 0.000000 0.072802
#
#
# Mechanical properties :
#
#
# Convention : Reuss Voigt Hill
#
# Bulk Modulus (GPa) = 16.12125 47.06182 31.59153
# Shear Modulus (GPa) = 12.68278 21.97089 17.32684
#
# Velocity S-wave (km/s) = 2.67173 3.51649 3.12281
# Velocity P-wave (km/s) = 4.31172 6.55554 5.54825
#
# Compressibility (1/GPa) = 0.06202992
#
# Stress axis : x y z
#
# Youngs Moduli (GPa) = 13.63984 157.64928 40.87581
#
# Poissons Ratio (x) = 1.02619 0.45300
# Poissons Ratio (y) = 0.08879 0.14121
# Poissons Ratio (z) = 0.15116 0.54460
#
# Static dielectric constant tensor:
#      x y z
#    x 1.616280 0.000000 0.000000 
#    y 0.000000 1.703350 0.000000 
#    z 0.000000 0.000000 1.567450 
# 
# From -- ./inp_files/10057.got.cif
#   From: 2010.05.17/outbox.cif.g08.bks.cpg/sg51_6_cif.got.tgz:10057.got - 2010.06.03 11:52:47.
