data_PCOD9403935
_publ_section_title
;
Structure prediction by ZEFSAII (Michael W. Deem and Ramdas Pophale) SiO2 
 PCOD9403935
Probable space group: P M M A
;
_chemical_formula_sum "Si O2"
_cell_formula_units_Z 48
_cell_length_a 7.750760
_cell_length_b 9.652404
_cell_length_c 31.805061
_cell_angle_alpha 90.000000
_cell_angle_beta 90.000000
_cell_angle_gamma 90.000000
_cell_volume 2379.446876
_symmetry_space_group_name_H-M "P M M A"
_symmetry_group_IT_number 51
_symmetry_cell_setting 'orthorhombic'
loop_
_space_group_symop_operation_xyz
x,y,z
1/2-x,-y,z
1/2+x,-y,-z
-x,y,-z
-x,-y,-z
1/2+x,y,-z
1/2-x,y,z
x,-y,z
loop_
_atom_site_type_symbol
_atom_site_label
_atom_site_fract_x
_atom_site_fract_y
_atom_site_fract_z
Si Si1 0.042411 0.658074 0.546338
Si Si2 0.542237 0.157837 0.376612
Si Si3 0.455012 0.156520 0.125971
Si Si4 0.038283 0.659537 0.204079
Si Si5 0.457064 0.158660 0.282757
Si Si6 0.044520 0.656706 0.951956
O O1 0.250000 0.652973 0.549429
O O2 0.976621 0.500000 0.548504
O O3 0.977187 0.748550 0.585204
O O4 0.000000 0.714371 0.500000
O O5 0.750000 0.153668 0.379591
O O6 0.498918 0.208296 0.329781
O O7 0.477242 0.000000 0.380044
O O8 0.250000 0.145562 0.132960
O O9 0.521649 0.253588 0.163565
O O10 0.480240 0.233861 0.081890
O O11 0.525828 0.000000 0.126269
O O12 0.250000 0.658052 0.203858
O O13 0.982280 0.500000 0.202786
O O14 0.981694 0.740059 0.246066
O O15 0.250000 0.152077 0.279160
O O16 0.522779 0.000000 0.278133
O O17 0.250000 0.651930 0.948410
O O18 0.976505 0.500000 0.943814
O O19 0.000000 0.692651 0.000000
#
# Coordination Sequence:
#
# PCOD9403935 Si02
#       6
#     8   8   8   8   8   8
#     4   9  18  32  48  66  90 120 153 190 233 280
#     4   9  18  32  48  67  93 124 155 189 234 286
#     4  10  20  34  54  79 106 138 174 211 254 303
#     4   9  17  30  50  75 101 130 166 207 248 291
#     4   9  17  30  48  70  96 125 159 199 240 284
#     4  10  21  37  57  80 106 137 173 213 257 304
#
# _framework density 20.172756
#
# number of rings (size 3 to 8) (size 9 to 14) (size 15 to 20)
#    0.000    2.667    0.000    1.500    0.000    6.000 
#    0.000    0.833    0.000    3.000    0.000    0.000 
#    0.000    0.000    0.000    0.000    0.000    0.000 
#
# Total GULP energy -267872.832668 kJ/mol
# GULP energy per Si atom -5580.684014 kJ/mol
# Density = 2.012684 g / cm^3
# Si number density = 20.172756 Si / 1000 Ang^3
#
#
#
# Elastic Constant Matrix: (Units=GPa)
#
#
# Indices 1 2 3 4 5 6 
#
# 1 27.5148 6.0639 -4.1614 0.0000 0.0000 0.0000
# 2 6.0639 146.8877 132.8033 0.0000 0.0000 0.0000
# 3 -4.1614 132.8033 191.2917 0.0000 0.0000 0.0000
# 4 0.0000 0.0000 0.0000 40.5314 0.0000 0.0000
# 5 0.0000 0.0000 0.0000 0.0000 21.3898 0.0000
# 6 0.0000 0.0000 0.0000 0.0000 0.0000 7.5328
#
#
#
# Elastic Compliance Matrix: (Units=1/GPa)
#
#
# Indices 1 2 3 4 5 6 
#
# 1 0.038523 -0.006306 0.005216 0.000000 0.000000 0.000000
# 2 -0.006306 0.019317 -0.013548 0.000000 0.000000 0.000000
# 3 0.005216 -0.013548 0.014747 0.000000 0.000000 0.000000
# 4 0.000000 0.000000 0.000000 0.024672 0.000000 0.000000
# 5 0.000000 0.000000 0.000000 0.000000 0.046751 0.000000
# 6 0.000000 0.000000 0.000000 0.000000 0.000000 0.132752
#
#
# Mechanical properties :
#
#
# Convention : Reuss Voigt Hill
#
# Bulk Modulus (GPa) = 23.08914 70.56729 46.82822
# Shear Modulus (GPa) = 15.60177 29.29004 22.44591
#
# Velocity S-wave (km/s) = 2.78404 3.81459 3.33931
# Velocity P-wave (km/s) = 4.66959 7.37963 6.17511
#
# Compressibility (1/GPa) = 0.04331040
#
# Stress axis : x y z
#
# Youngs Moduli (GPa) = 25.95862 51.76686 67.81110
#
# Poissons Ratio (x) = 0.32646 -0.35372
# Poissons Ratio (y) = 0.16370 0.91872
# Poissons Ratio (z) = -0.13541 0.70135
#
# Static dielectric constant tensor:
#      x y z
#    x 1.743030 0.000000 0.000000 
#    y 0.000000 1.712220 0.000000 
#    z 0.000000 0.000000 1.690320 
# 
# From -- ./inp_files/36934.got.cif
#   From: 2010.05.17/outbox.cif.g08.bks.cpg/sg51_19_cif.got.tgz:36934.got - 2010.06.03 11:52:47.
