data_PCOD9403647
_publ_section_title
;
Structure prediction by ZEFSAII (Michael W. Deem and Ramdas Pophale) SiO2 
 PCOD9403647
Probable space group: P M M A
;
_chemical_formula_sum "Si O2"
_cell_formula_units_Z 64
_cell_length_a 20.426355
_cell_length_b 8.622766
_cell_length_c 18.142766
_cell_angle_alpha 90.000000
_cell_angle_beta 90.000000
_cell_angle_gamma 90.000000
_cell_volume 3195.515845
_symmetry_space_group_name_H-M "P M M A"
_symmetry_group_IT_number 51
_symmetry_cell_setting 'orthorhombic'
loop_
_space_group_symop_operation_xyz
x,y,z
1/2-x,-y,z
1/2+x,-y,-z
-x,y,-z
-x,-y,-z
1/2+x,y,-z
1/2-x,y,z
x,-y,z
loop_
_atom_site_type_symbol
_atom_site_label
_atom_site_fract_x
_atom_site_fract_y
_atom_site_fract_z
Si Si1 0.996044 0.820354 0.879626
Si Si2 0.176049 0.314973 0.379406
Si Si3 0.320653 0.685502 0.761554
Si Si4 0.961023 0.310494 0.571958
Si Si5 0.171809 0.826472 0.224902
Si Si6 0.869312 0.318801 0.929578
Si Si7 0.966667 0.311487 0.276556
Si Si8 0.351331 0.820899 0.917680
O O1 0.946781 0.717302 0.926823
O O2 0.998593 0.762000 0.795011
O O3 0.070102 0.811884 0.907922
O O4 0.975048 0.000000 0.884522
O O5 0.250000 0.252927 0.392904
O O6 0.179739 0.500000 0.388067
O O7 0.114670 0.257496 0.427005
O O8 0.155665 0.278263 0.295218
O O9 0.250000 0.743964 0.732608
O O10 0.320572 0.500000 0.753962
O O11 0.389812 0.738314 0.726569
O O12 0.324042 0.728294 0.848002
O O13 0.960194 0.500000 0.571077
O O14 0.000000 0.258103 0.500000
O O15 0.998260 0.267085 0.647421
O O16 0.250000 0.836265 0.225625
O O17 0.153315 0.756928 0.146679
O O18 0.144836 0.000000 0.234411
O O19 0.856487 0.500000 0.929061
O O20 0.836992 0.244755 0.001747
O O21 0.969156 0.500000 0.269382
O O22 0.331624 0.000000 0.912150
#
# Coordination Sequence:
#
# PCOD9403647 Si02
#       8
#     8   8   8   8   8   8   8   8
#     4  10  20  34  52  73  98 128 167 215 262 311
#     4   9  17  31  52  77 105 138 176 216 258 308
#     4   9  18  33  51  71  96 128 170 219 267 315
#     4   9  17  30  50  78 110 140 170 207 253 306
#     4  10  21  36  53  73  98 130 169 212 256 304
#     4  12  23  33  49  72 100 134 169 210 261 314
#     4   9  17  31  52  75  99 132 173 214 260 315
#     4  10  21  35  50  70  97 130 169 215 265 314
#
# _framework density 20.028065000000002
#
# number of rings (size 3 to 8) (size 9 to 14) (size 15 to 20)
#    0.000    2.250    0.000    3.375    0.000    5.500 
#    0.000    0.625    0.000    5.250    0.000    0.000 
#    0.000    2.000    0.000    0.000    0.000    0.000 
#
# Total GULP energy -357143.108850 kJ/mol
# GULP energy per Si atom -5580.361076 kJ/mol
# Density = 1.998248 g / cm^3
# Si number density = 20.028065 Si / 1000 Ang^3
#
#
#
# Elastic Constant Matrix: (Units=GPa)
#
#
# Indices 1 2 3 4 5 6 
#
# 1 103.7249 -0.3499 42.7653 0.0000 0.0000 0.0000
# 2 -0.3499 14.1181 2.3418 0.0000 0.0000 0.0000
# 3 42.7653 2.3418 92.8003 0.0000 0.0000 0.0000
# 4 0.0000 0.0000 0.0000 -10.7954 0.0000 0.0000
# 5 0.0000 0.0000 0.0000 0.0000 9.7929 0.0000
# 6 0.0000 0.0000 0.0000 0.0000 0.0000 11.7781
#
#
#
# Elastic Compliance Matrix: (Units=1/GPa)
#
#
# Indices 1 2 3 4 5 6 
#
# 1 0.011923 0.001212 -0.005525 0.000000 0.000000 0.000000
# 2 0.001212 0.071252 -0.002357 0.000000 0.000000 0.000000
# 3 -0.005525 -0.002357 0.013381 0.000000 0.000000 0.000000
# 4 0.000000 0.000000 0.000000 -0.092632 0.000000 0.000000
# 5 0.000000 0.000000 0.000000 0.000000 0.102115 0.000000
# 6 0.000000 0.000000 0.000000 0.000000 0.000000 0.084903
#
#
# Mechanical properties :
#
#
# Convention : Reuss Voigt Hill
#
# Bulk Modulus (GPa) = 12.01679 33.35086 22.68383
# Shear Modulus (GPa) = 21.54985 13.21420 17.38203
#
# Velocity S-wave (km/s) = 3.28378 2.57141 2.94918
# Velocity P-wave (km/s) = 4.51559 5.05019 4.79036
#
# Compressibility (1/GPa) = 0.08321687
#
# Stress axis : x y z
#
# Youngs Moduli (GPa) = 83.87206 14.03473 74.73057
#
# Poissons Ratio (x) = -0.01701 0.41289
# Poissons Ratio (y) = -0.10165 0.17611
# Poissons Ratio (z) = 0.46340 0.03307
#
# Static dielectric constant tensor:
#      x y z
#    x 1.811070 0.000000 0.000000 
#    y 0.000000 1.680490 0.000000 
#    z 0.000000 0.000000 1.677820 
# 
# From -- ./inp_files/30517.got.cif
#   From: 2010.05.17/outbox.cif.g08.bks.cpg/sg51_16_cif.got.tgz:30517.got - 2010.06.03 11:52:47.
