data_PCOD9403147
_publ_section_title
;
Structure prediction by ZEFSAII (Michael W. Deem and Ramdas Pophale) SiO2 
 PCOD9403147
Probable space group: P M M A
;
_chemical_formula_sum "Si O2"
_cell_formula_units_Z 48
_cell_length_a 15.601025
_cell_length_b 7.463924
_cell_length_c 19.390011
_cell_angle_alpha 90.000000
_cell_angle_beta 90.000000
_cell_angle_gamma 90.000000
_cell_volume 2257.867212
_symmetry_space_group_name_H-M "P M M A"
_symmetry_group_IT_number 51
_symmetry_cell_setting 'orthorhombic'
loop_
_space_group_symop_operation_xyz
x,y,z
1/2-x,-y,z
1/2+x,-y,-z
-x,y,-z
-x,-y,-z
1/2+x,y,-z
1/2-x,y,z
x,-y,z
loop_
_atom_site_type_symbol
_atom_site_label
_atom_site_fract_x
_atom_site_fract_y
_atom_site_fract_z
Si Si1 0.905960 0.291575 0.015117
Si Si2 0.342395 0.207857 0.836381
Si Si3 0.350774 0.218147 0.510535
Si Si4 0.490107 0.219971 0.238796
Si Si5 0.156708 0.216181 0.134944
Si Si6 0.489216 0.218056 0.396433
O O1 0.916579 0.500000 0.032619
O O2 0.862805 0.210195 0.082205
O O3 0.856082 0.275365 0.943711
O O4 0.000000 0.213522 0.000000
O O5 0.250000 0.291481 0.824394
O O6 0.420732 0.283946 0.793453
O O7 0.337824 0.000000 0.815821
O O8 0.250000 0.277062 0.513398
O O9 0.407205 0.271774 0.443124
O O10 0.418167 0.271806 0.571258
O O11 0.347281 0.000000 0.511162
O O12 0.416561 0.279627 0.186271
O O13 0.479609 0.275518 0.317633
O O14 0.488861 0.000000 0.238154
O O15 0.250000 0.271923 0.159792
O O16 0.153204 0.000000 0.133663
O O17 0.489636 0.000000 0.398253
#
# Coordination Sequence:
#
# PCOD9403147 Si02
#       6
#     8   8   8   8   8   8
#     4  11  22  35  52  71  91 120 157 196 239 283
#     4  10  20  33  50  70  91 121 158 194 238 284
#     4   8  13  21  34  53  79 112 149 185 219 261
#     4   9  17  29  43  61  89 119 152 196 232 271
#     4  10  20  33  50  70  91 121 158 194 238 284
#     4   8  14  23  35  54  80 113 150 185 224 263
#
# _framework density 21.259
#
# number of rings (size 3 to 8) (size 9 to 14) (size 15 to 20)
#    0.000    2.667    1.667    2.000    0.000    4.667 
#    0.000    6.667    0.000    0.000    0.000    0.000 
#    0.000    0.000    0.000   12.000    0.000   39.333 
#
# Total GULP energy -267778.202274 kJ/mol
# GULP energy per Si atom -5578.712547 kJ/mol
# Density = 2.121061 g / cm^3
# Si number density = 21.259000 Si / 1000 Ang^3
#
#
#
# Elastic Constant Matrix: (Units=GPa)
#
#
# Indices 1 2 3 4 5 6 
#
# 1 118.9390 -1.7395 0.6899 0.0000 0.0000 0.0000
# 2 -1.7395 60.5266 -12.8125 0.0000 0.0000 0.0000
# 3 0.6899 -12.8125 78.0911 0.0000 0.0000 0.0000
# 4 0.0000 0.0000 0.0000 -43.7900 0.0000 0.0000
# 5 0.0000 0.0000 0.0000 0.0000 -49.6039 0.0000
# 6 0.0000 0.0000 0.0000 0.0000 0.0000 -7.5347
#
#
#
# Elastic Compliance Matrix: (Units=1/GPa)
#
#
# Indices 1 2 3 4 5 6 
#
# 1 0.008411 0.000234 -0.000036 0.000000 0.000000 0.000000
# 2 0.000234 0.017123 0.002807 0.000000 0.000000 0.000000
# 3 -0.000036 0.002807 0.013266 0.000000 0.000000 0.000000
# 4 0.000000 0.000000 0.000000 -0.022836 0.000000 0.000000
# 5 0.000000 0.000000 0.000000 0.000000 -0.020160 0.000000
# 6 0.000000 0.000000 0.000000 0.000000 0.000000 -0.132719
#
#
# Mechanical properties :
#
#
# Convention : Reuss Voigt Hill
#
# Bulk Modulus (GPa) = 22.31576 25.53696 23.92636
# Shear Modulus (GPa) = -39.06608 -2.09115 -20.57862
#
# Velocity S-wave (km/s) = -4.29140 -0.99287 -3.11464
# Velocity P-wave (km/s) = 3.74633 3.27475 1.28666
#
# Compressibility (1/GPa) = 0.04481138
#
# Stress axis : x y z
#
# Youngs Moduli (GPa) = 118.88759 58.40226 75.37802
#
# Poissons Ratio (x) = -0.01367 0.00271
# Poissons Ratio (y) = -0.02784 -0.21161
# Poissons Ratio (z) = 0.00427 -0.16395
#
# Static dielectric constant tensor:
#      x y z
#    x 1.780300 0.000000 0.000000 
#    y 0.000000 1.806700 0.000000 
#    z 0.000000 0.000000 1.721890 
# 
# From -- ./inp_files/29472.got.cif
#   From: 2010.05.17/outbox.cif.g08.bks.cpg/sg51_15_cif.got.tgz:29472.got - 2010.06.03 11:52:47.
