data_PCOD9403164
_publ_section_title
;
Structure prediction by ZEFSAII (Michael W. Deem and Ramdas Pophale) SiO2 
 PCOD9403164
Probable space group: P M M A
;
_chemical_formula_sum "Si O2"
_cell_formula_units_Z 48
_cell_length_a 14.335085
_cell_length_b 9.649321
_cell_length_c 15.957644
_cell_angle_alpha 90.000000
_cell_angle_beta 90.000000
_cell_angle_gamma 90.000000
_cell_volume 2207.322543
_symmetry_space_group_name_H-M "P M M A"
_symmetry_group_IT_number 51
_symmetry_cell_setting 'orthorhombic'
loop_
_space_group_symop_operation_xyz
x,y,z
1/2-x,-y,z
1/2+x,-y,-z
-x,y,-z
-x,-y,-z
1/2+x,y,-z
1/2-x,y,z
x,-y,z
loop_
_atom_site_type_symbol
_atom_site_label
_atom_site_fract_x
_atom_site_fract_y
_atom_site_fract_z
Si Si1 0.892174 0.158038 0.478774
Si Si2 0.363915 0.659760 0.864563
Si Si3 0.135491 0.840339 0.211178
Si Si4 0.636225 0.660079 0.947629
Si Si5 0.857998 0.655267 0.635769
Si Si6 0.637609 0.157596 0.290040
O O1 0.856614 0.265241 0.547567
O O2 0.881407 0.209934 0.383871
O O3 0.000000 0.146507 0.500000
O O4 0.853198 0.000000 0.484438
O O5 0.250000 0.663521 0.864680
O O6 0.390729 0.500000 0.851933
O O7 0.396809 0.753201 0.787986
O O8 0.393388 0.701917 0.958459
O O9 0.250000 0.842136 0.212143
O O10 0.106622 0.759653 0.127203
O O11 0.101681 0.756159 0.292905
O O12 0.106071 0.000000 0.212598
O O13 0.750000 0.660554 0.947537
O O14 0.608069 0.500000 0.933227
O O15 0.750000 0.638470 0.660303
O O16 0.899451 0.500000 0.631527
O O17 0.750000 0.153172 0.282868
O O18 0.602553 0.000000 0.285975
#
# Coordination Sequence:
#
# PCOD9403164 Si02
#       6
#     8   8   8   8   8   8
#     4  10  21  36  52  70  94 125 160 199 244 291
#     4   8  14  24  39  61  90 123 155 187 226 272
#     4   9  16  25  40  64  93 124 156 190 229 274
#     4   8  13  22  36  57  89 124 153 184 224 269
#     4  10  20  33  50  72  97 126 160 198 239 283
#     4   9  17  29  46  68  93 121 154 193 234 276
#
# _framework density 21.745802999999999
#
# number of rings (size 3 to 8) (size 9 to 14) (size 15 to 20)
#    0.000    3.000    0.000    2.500    0.000    5.333 
#    0.000    5.000    0.000    0.000    0.000    1.167 
#    0.000    9.333    0.000    0.000    0.000    0.000 
#
# Total GULP energy -267990.108656 kJ/mol
# GULP energy per Si atom -5583.127264 kJ/mol
# Density = 2.169631 g / cm^3
# Si number density = 21.745803 Si / 1000 Ang^3
#
#
#
# Elastic Constant Matrix: (Units=GPa)
#
#
# Indices 1 2 3 4 5 6 
#
# 1 53.8025 2.8772 10.3481 0.0000 0.0000 0.0000
# 2 2.8772 156.1183 145.8865 0.0000 0.0000 0.0000
# 3 10.3481 145.8865 244.9047 0.0000 0.0000 0.0000
# 4 0.0000 0.0000 0.0000 32.1041 0.0000 0.0000
# 5 0.0000 0.0000 0.0000 0.0000 21.0717 0.0000
# 6 0.0000 0.0000 0.0000 0.0000 0.0000 -17.2127
#
#
#
# Elastic Compliance Matrix: (Units=1/GPa)
#
#
# Indices 1 2 3 4 5 6 
#
# 1 0.018794 0.000893 -0.001326 0.000000 0.000000 0.000000
# 2 0.000893 0.014490 -0.008669 0.000000 0.000000 0.000000
# 3 -0.001326 -0.008669 0.009303 0.000000 0.000000 0.000000
# 4 0.000000 0.000000 0.000000 0.031149 0.000000 0.000000
# 5 0.000000 0.000000 0.000000 0.000000 0.047457 0.000000
# 6 0.000000 0.000000 0.000000 0.000000 0.000000 -0.058097
#
#
# Mechanical properties :
#
#
# Convention : Reuss Voigt Hill
#
# Bulk Modulus (GPa) = 41.01349 85.89433 63.45391
# Shear Modulus (GPa) = 55.91045 26.90685 41.40865
#
# Velocity S-wave (km/s) = 5.07609 3.52139 4.36846
# Velocity P-wave (km/s) = 7.29774 7.49124 7.39512
#
# Compressibility (1/GPa) = 0.02438222
#
# Stress axis : x y z
#
# Youngs Moduli (GPa) = 53.20913 69.01317 107.48788
#
# Poissons Ratio (x) = -0.06160 0.14250
# Poissons Ratio (y) = -0.04749 0.93183
# Poissons Ratio (z) = 0.07054 0.59829
#
# Static dielectric constant tensor:
#      x y z
#    x 1.814030 0.000000 0.000000 
#    y 0.000000 1.765850 0.000000 
#    z 0.000000 0.000000 1.760540 
# 
# From -- ./inp_files/25438.got.cif
#   From: 2010.05.17/outbox.cif.g08.bks.cpg/sg51_13_cif.got.tgz:25438.got - 2010.06.03 11:52:47.
