data_PCOD9403634
_publ_section_title
;
Structure prediction by ZEFSAII (Michael W. Deem and Ramdas Pophale) SiO2 
 PCOD9403634
Probable space group: P M M A
;
_chemical_formula_sum "Si O2"
_cell_formula_units_Z 52
_cell_length_a 10.053332
_cell_length_b 7.322887
_cell_length_c 36.749280
_cell_angle_alpha 90.000000
_cell_angle_beta 90.000000
_cell_angle_gamma 90.000000
_cell_volume 2705.460466
_symmetry_space_group_name_H-M "P M M A"
_symmetry_group_IT_number 51
_symmetry_cell_setting 'orthorhombic'
loop_
_space_group_symop_operation_xyz
x,y,z
1/2-x,-y,z
1/2+x,-y,-z
-x,y,-z
-x,-y,-z
1/2+x,y,-z
1/2-x,y,z
x,-y,z
loop_
_atom_site_type_symbol
_atom_site_label
_atom_site_fract_x
_atom_site_fract_y
_atom_site_fract_z
Si Si1 0.403149 0.777583 0.531893
Si Si2 0.588721 0.793085 0.096224
Si Si3 0.902982 0.222418 0.677454
Si Si4 0.596873 0.222414 0.386275
Si Si5 0.589294 0.500000 0.035798
Si Si6 0.596923 0.777685 0.759425
Si Si7 0.596675 0.777014 0.176454
O O1 0.500000 0.715094 0.500000
O O2 0.250000 0.723054 0.525911
O O3 0.442782 0.721846 0.572811
O O4 0.404948 0.000000 0.531576
O O5 0.750000 0.796450 0.098280
O O6 0.555893 0.671220 0.061743
O O7 0.548128 0.722024 0.136142
O O8 0.541016 0.000000 0.091736
O O9 0.750000 0.276840 0.671229
O O10 0.941565 0.278253 0.718432
O O11 0.000248 0.284933 0.645662
O O12 0.904969 0.000000 0.677180
O O13 0.750000 0.276932 0.380313
O O14 0.595014 0.000000 0.385964
O O15 0.750000 0.500000 0.028617
O O16 0.500000 0.500000 0.000000
O O17 0.750000 0.722868 0.765745
O O18 0.497792 0.716854 0.790931
O O19 0.595259 0.000000 0.759754
O O20 0.750000 0.720250 0.181702
O O21 0.597140 0.000000 0.175850
#
# Coordination Sequence:
#
# PCOD9403634 Si02
#       7
#     8   8   8   8   4   8   8
#     4   8  13  19  24  29  36  47  68 103 148 198
#     4   8  15  29  48  69  93 121 153 188 226 269
#     4   8  13  19  25  34  50  72  95 119 153 202
#     4   8  13  19  24  30  41  57  80 113 153 199
#     4  10  20  34  52  72  96 126 156 190 232 272
#     4   8  13  20  29  44  67  90 112 142 180 222
#     4   8  13  22  37  55  73  96 128 161 191 230
#
# _framework density 19.220386999999999
#
# number of rings (size 3 to 8) (size 9 to 14) (size 15 to 20)
#    0.000    3.846    0.000    2.769    0.000    1.538 
#    0.000    6.923    0.000    0.923    0.000    0.000 
#    0.000    0.000    0.000    0.000    0.000    0.000 
#
# Total GULP energy -289826.304432 kJ/mol
# GULP energy per Si atom -5573.582778 kJ/mol
# Density = 1.917664 g / cm^3
# Si number density = 19.220387 Si / 1000 Ang^3
#
#
#
# Elastic Constant Matrix: (Units=GPa)
#
#
# Indices 1 2 3 4 5 6 
#
# 1 88.0451 17.9198 125.8432 0.0000 0.0000 0.0000
# 2 17.9198 78.1904 34.5274 0.0000 0.0000 0.0000
# 3 125.8432 34.5274 240.4388 0.0000 0.0000 0.0000
# 4 0.0000 0.0000 0.0000 -411.8801 0.0000 0.0000
# 5 0.0000 0.0000 0.0000 0.0000 45.3475 0.0000
# 6 0.0000 0.0000 0.0000 0.0000 0.0000 -8.4598
#
#
#
# Elastic Compliance Matrix: (Units=1/GPa)
#
#
# Indices 1 2 3 4 5 6 
#
# 1 0.045086 0.000093 -0.023611 0.000000 0.000000 0.000000
# 2 0.000093 0.013655 -0.002010 0.000000 0.000000 0.000000
# 3 -0.023611 -0.002010 0.016805 0.000000 0.000000 0.000000
# 4 0.000000 0.000000 0.000000 -0.002428 0.000000 0.000000
# 5 0.000000 0.000000 0.000000 0.000000 0.022052 0.000000
# 6 0.000000 0.000000 0.000000 0.000000 0.000000 -0.118206
#
#
# Mechanical properties :
#
#
# Convention : Reuss Voigt Hill
#
# Bulk Modulus (GPa) = 40.82977 84.80614 62.81795
# Shear Modulus (GPa) = 138.18424 -59.77289 39.20567
#
# Velocity S-wave (km/s) = 8.48827 -5.58267 4.52131
# Velocity P-wave (km/s) = 10.83313 1.63213 7.74663
#
# Compressibility (1/GPa) = 0.02449193
#
# Stress axis : x y z
#
# Youngs Moduli (GPa) = 22.17978 73.23114 59.50459
#
# Poissons Ratio (x) = -0.00683 1.40496
# Poissons Ratio (y) = -0.00207 0.11959
# Poissons Ratio (z) = 0.52369 0.14718
#
# Static dielectric constant tensor:
#      x y z
#    x 1.627170 0.000000 0.000000 
#    y 0.000000 1.643510 0.000000 
#    z 0.000000 0.000000 1.652000 
# 
# From -- ./inp_files/37691.got.cif
#   From: 2010.05.17/outbox.cif.g08.bks.cpg/sg51_19_cif.got.tgz:37691.got - 2010.06.03 11:52:47.
