data_PCOD9403593
_publ_section_title
;
Structure prediction by ZEFSAII (Michael W. Deem and Ramdas Pophale) SiO2 
 PCOD9403593
Probable space group: P M M A
;
_chemical_formula_sum "Si O2"
_cell_formula_units_Z 48
_cell_length_a 18.195762
_cell_length_b 7.668567
_cell_length_c 17.931315
_cell_angle_alpha 90.000000
_cell_angle_beta 90.000000
_cell_angle_gamma 90.000000
_cell_volume 2502.053570
_symmetry_space_group_name_H-M "P M M A"
_symmetry_group_IT_number 51
_symmetry_cell_setting 'orthorhombic'
loop_
_space_group_symop_operation_xyz
x,y,z
1/2-x,-y,z
1/2+x,-y,-z
-x,y,-z
-x,-y,-z
1/2+x,y,-z
1/2-x,y,z
x,-y,z
loop_
_atom_site_type_symbol
_atom_site_label
_atom_site_fract_x
_atom_site_fract_y
_atom_site_fract_z
Si Si1 0.833839 0.707037 0.076741
Si Si2 0.839097 0.500000 0.493711
Si Si3 0.929430 0.699033 0.210879
Si Si4 0.335182 0.210602 0.088952
Si Si5 0.337924 0.500000 0.677529
Si Si6 0.090609 0.798618 0.238723
Si Si7 0.661519 0.205085 0.608838
O O1 0.750000 0.777022 0.080773
O O2 0.828802 0.500000 0.091850
O O3 0.887876 0.778612 0.139908
O O4 0.861506 0.730765 0.992501
O O5 0.750000 0.500000 0.491351
O O6 0.863144 0.500000 0.407975
O O7 0.860747 0.671517 0.540275
O O8 0.953366 0.500000 0.190648
O O9 0.871448 0.664299 0.277324
O O10 0.002898 0.791270 0.236762
O O11 0.250000 0.264403 0.095793
O O12 0.378883 0.275916 0.160986
O O13 0.337924 0.000000 0.087704
O O14 0.250000 0.500000 0.682192
O O15 0.123768 0.726842 0.315264
O O16 0.115563 0.000000 0.239316
O O17 0.750000 0.216283 0.617783
O O18 0.643432 0.000000 0.596810
#
# Coordination Sequence:
#
# PCOD9403593 Si02
#       7
#     8   4   8   8   4   8   8
#     4   9  17  32  51  72  97 129 176 226 267 307
#     4   9  18  33  59  88 107 132 179 229 272 323
#     4   9  20  33  52  75  97 138 171 212 263 316
#     4   9  18  32  51  73  99 138 181 218 260 309
#     4   9  18  37  61  79  98 133 173 214 267 321
#     4  10  20  34  50  73 109 144 176 215 262 318
#     4   9  18  34  56  81 112 148 181 220 269 321
#
# _framework density 19.184239999999999
#
# number of rings (size 3 to 8) (size 9 to 14) (size 15 to 20)
#    0.500    2.333    0.000    1.000    1.167    4.000 
#    0.000    5.833    0.000    4.500    0.000    0.000 
#    0.000    0.000    0.000    0.000    0.000    0.000 
#
# Total GULP energy -267342.065507 kJ/mol
# GULP energy per Si atom -5569.626365 kJ/mol
# Density = 1.914058 g / cm^3
# Si number density = 19.184240 Si / 1000 Ang^3
#
#
#
# Elastic Constant Matrix: (Units=GPa)
#
#
# Indices 1 2 3 4 5 6 
#
# 1 54.8198 8.7717 60.7920 0.0000 0.0000 0.0000
# 2 8.7717 45.6924 24.8311 0.0000 0.0000 0.0000
# 3 60.7920 24.8311 176.2353 0.0000 0.0000 0.0000
# 4 0.0000 0.0000 0.0000 32.9986 0.0000 0.0000
# 5 0.0000 0.0000 0.0000 0.0000 -8.1901 0.0000
# 6 0.0000 0.0000 0.0000 0.0000 0.0000 17.6854
#
#
#
# Elastic Compliance Matrix: (Units=1/GPa)
#
#
# Indices 1 2 3 4 5 6 
#
# 1 0.029543 -0.000144 -0.010171 0.000000 0.000000 0.000000
# 2 -0.000144 0.023701 -0.003290 0.000000 0.000000 0.000000
# 3 -0.010171 -0.003290 0.009646 0.000000 0.000000 0.000000
# 4 0.000000 0.000000 0.000000 0.030304 0.000000 0.000000
# 5 0.000000 0.000000 0.000000 0.000000 -0.122098 0.000000
# 6 0.000000 0.000000 0.000000 0.000000 0.000000 0.056544
#
#
# Mechanical properties :
#
#
# Convention : Reuss Voigt Hill
#
# Bulk Modulus (GPa) = 28.02607 51.72635 39.87621
# Shear Modulus (GPa) = 74.91479 20.65563 47.78521
#
# Velocity S-wave (km/s) = 6.25579 3.28487 4.99626
# Velocity P-wave (km/s) = 8.17438 6.43495 7.35626
#
# Compressibility (1/GPa) = 0.03568107
#
# Stress axis : x y z
#
# Youngs Moduli (GPa) = 33.84876 42.19254 103.66976
#
# Poissons Ratio (x) = 0.00609 1.05437
# Poissons Ratio (y) = 0.00489 0.34103
# Poissons Ratio (z) = 0.34426 0.13880
#
# Static dielectric constant tensor:
#      x y z
#    x 1.650700 0.000000 0.000000 
#    y 0.000000 1.745720 0.000000 
#    z 0.000000 0.000000 1.677890 
# 
# From -- ./inp_files/24987.got.cif
#   From: 2010.05.17/outbox.cif.g08.bks.cpg/sg51_13_cif.got.tgz:24987.got - 2010.06.03 11:52:47.
