data_PCOD9403010
_publ_section_title
;
Structure prediction by ZEFSAII (Michael W. Deem and Ramdas Pophale) SiO2 
 PCOD9403010
Probable space group: P M M A
;
_chemical_formula_sum "Si O2"
_cell_formula_units_Z 48
_cell_length_a 7.702563
_cell_length_b 10.275954
_cell_length_c 33.271809
_cell_angle_alpha 90.000000
_cell_angle_beta 90.000000
_cell_angle_gamma 90.000000
_cell_volume 2633.503045
_symmetry_space_group_name_H-M "P M M A"
_symmetry_group_IT_number 51
_symmetry_cell_setting 'orthorhombic'
loop_
_space_group_symop_operation_xyz
x,y,z
1/2-x,-y,z
1/2+x,-y,-z
-x,y,-z
-x,-y,-z
1/2+x,y,-z
1/2-x,y,z
x,-y,z
loop_
_atom_site_type_symbol
_atom_site_label
_atom_site_fract_x
_atom_site_fract_y
_atom_site_fract_z
Si Si1 0.459469 0.252629 0.594663
Si Si2 0.750000 0.657364 0.106099
Si Si3 0.542939 0.849592 0.752382
Si Si4 0.457591 0.649691 0.317219
Si Si5 0.055072 0.657954 0.044651
Si Si6 0.541550 0.500000 0.453526
Si Si7 0.750000 0.849824 0.180787
Si Si8 0.540709 0.000000 0.452555
O O1 0.250000 0.249853 0.592490
O O2 0.503284 0.279003 0.640839
O O3 0.526083 0.373972 0.569052
O O4 0.523962 0.124598 0.572138
O O5 0.750000 0.500000 0.113464
O O6 0.583448 0.690941 0.078633
O O7 0.750000 0.742874 0.146031
O O8 0.750000 0.833154 0.760742
O O9 0.487044 0.743308 0.719259
O O10 0.420018 0.834491 0.790999
O O11 0.520253 0.000000 0.737994
O O12 0.250000 0.640339 0.313990
O O13 0.525960 0.500000 0.316864
O O14 0.250000 0.702169 0.053674
O O15 0.056568 0.500000 0.043008
O O16 0.000000 0.702028 0.000000
O O17 0.750000 0.500000 0.449471
O O18 0.500000 0.500000 0.500000
O O19 0.750000 0.000000 0.165746
O O20 0.500000 0.000000 0.500000
O O21 0.750000 0.000000 0.450430
#
# Coordination Sequence:
#
# PCOD9403010 Si02
#       8
#     8   4   8   8   8   4   4   4
#     4  10  21  36  52  77 106 134 170 213 257 313
#     4  10  20  32  52  84 116 148 196 246 284 346
#     4   9  20  39  60  82 108 141 185 232 273 336
#     4  10  21  36  55  82 110 134 168 215 275 326
#     4   9  15  26  47  78 115 152 192 244 297 337
#     4  10  20  34  52  72 100 136 172 204 250 312
#     4  10  22  40  58  82 112 154 196 226 292 348
#     4  10  22  38  54  76 104 138 176 216 254 300
#
# _framework density 18.226675
#
# number of rings (size 3 to 8) (size 9 to 14) (size 15 to 20)
#    0.000    2.333    1.667    0.500    2.333    2.667 
#    0.000    0.000    0.000    0.500    0.000    0.000 
#    0.000    0.000    0.000    0.000    0.000    0.000 
#
# Total GULP energy -267655.560047 kJ/mol
# GULP energy per Si atom -5576.157501 kJ/mol
# Density = 1.818519 g / cm^3
# Si number density = 18.226675 Si / 1000 Ang^3
#
#
#
# Elastic Constant Matrix: (Units=GPa)
#
#
# Indices 1 2 3 4 5 6 
#
# 1 77.7032 38.8194 45.4106 0.0000 0.0000 0.0000
# 2 38.8194 138.9475 91.2737 0.0000 0.0000 0.0000
# 3 45.4106 91.2737 142.7665 0.0000 0.0000 0.0000
# 4 0.0000 0.0000 0.0000 28.5289 0.0000 0.0000
# 5 0.0000 0.0000 0.0000 0.0000 27.2372 0.0000
# 6 0.0000 0.0000 0.0000 0.0000 0.0000 0.6702
#
#
#
# Elastic Compliance Matrix: (Units=1/GPa)
#
#
# Indices 1 2 3 4 5 6 
#
# 1 0.016111 -0.001957 -0.003874 0.000000 0.000000 0.000000
# 2 -0.001957 0.012645 -0.007462 0.000000 0.000000 0.000000
# 3 -0.003874 -0.007462 0.013007 0.000000 0.000000 0.000000
# 4 0.000000 0.000000 0.000000 0.035052 0.000000 0.000000
# 5 0.000000 0.000000 0.000000 0.000000 0.036714 0.000000
# 6 0.000000 0.000000 0.000000 0.000000 0.000000 1.492200
#
#
# Mechanical properties :
#
#
# Convention : Reuss Voigt Hill
#
# Bulk Modulus (GPa) = 65.88115 78.93606 72.40861
# Shear Modulus (GPa) = 3.05367 23.54816 13.30092
#
# Velocity S-wave (km/s) = 1.29577 3.59829 2.70432
# Velocity P-wave (km/s) = 6.20182 7.78881 7.04018
#
# Compressibility (1/GPa) = 0.01517885
#
# Stress axis : x y z
#
# Youngs Moduli (GPa) = 62.07062 79.07994 76.88008
#
# Poissons Ratio (x) = 0.15472 0.29780
# Poissons Ratio (y) = 0.12144 0.57369
# Poissons Ratio (z) = 0.24044 0.59011
#
# Static dielectric constant tensor:
#      x y z
#    x 1.659120 0.000000 0.000000 
#    y 0.000000 1.709220 0.000000 
#    z 0.000000 0.000000 1.587750 
# 
# From -- ./inp_files/37296.got.cif
#   From: 2010.05.17/outbox.cif.g08.bks.cpg/sg51_19_cif.got.tgz:37296.got - 2010.06.03 11:52:47.
