data_PCOD9403485
_publ_section_title
;
Structure prediction by ZEFSAII (Michael W. Deem and Ramdas Pophale) SiO2 
 PCOD9403485
Probable space group: P M M A
;
_chemical_formula_sum "Si O2"
_cell_formula_units_Z 64
_cell_length_a 19.783599
_cell_length_b 8.729422
_cell_length_c 20.512397
_cell_angle_alpha 90.000000
_cell_angle_beta 90.000000
_cell_angle_gamma 90.000000
_cell_volume 3542.478333
_symmetry_space_group_name_H-M "P M M A"
_symmetry_group_IT_number 51
_symmetry_cell_setting 'orthorhombic'
loop_
_space_group_symop_operation_xyz
x,y,z
1/2-x,-y,z
1/2+x,-y,-z
-x,y,-z
-x,-y,-z
1/2+x,y,-z
1/2-x,y,z
x,-y,z
loop_
_atom_site_type_symbol
_atom_site_label
_atom_site_fract_x
_atom_site_fract_y
_atom_site_fract_z
Si Si1 0.045803 0.682967 0.408168
Si Si2 0.326979 0.317417 0.649305
Si Si3 0.170779 0.685448 0.166593
Si Si4 0.329320 0.818131 0.884870
Si Si5 0.563191 0.817725 0.734384
Si Si6 0.094104 0.181826 0.536035
Si Si7 0.920763 0.683200 0.228334
Si Si8 0.331927 0.675960 0.021464
O O1 0.039904 0.500000 0.408563
O O2 0.065642 0.741750 0.337105
O O3 0.095575 0.739236 0.465384
O O4 0.973538 0.755003 0.428434
O O5 0.250000 0.287797 0.669590
O O6 0.334411 0.500000 0.637897
O O7 0.345685 0.229577 0.583579
O O8 0.377987 0.274532 0.707061
O O9 0.250000 0.725660 0.174129
O O10 0.166134 0.500000 0.169797
O O11 0.124552 0.760436 0.221039
O O12 0.147100 0.730256 0.093376
O O13 0.250000 0.772916 0.876497
O O14 0.376697 0.733482 0.833452
O O15 0.333811 0.000000 0.875390
O O16 0.350019 0.774710 0.958639
O O17 0.493056 0.763613 0.767187
O O18 0.563854 0.000000 0.727768
O O19 0.089142 0.000000 0.528690
O O20 0.930083 0.500000 0.228327
O O21 0.250000 0.673303 0.024276
O O22 0.354404 0.500000 0.011975
#
# Coordination Sequence:
#
# PCOD9403485 Si02
#       8
#     8   8   8   8   8   8   8   8
#     4  11  21  37  60  82 109 147 189 230 273 330
#     4  10  21  37  57  82 114 154 197 238 282 337
#     4   9  19  38  63  88 113 145 186 231 282 345
#     4  10  20  33  52  81 117 153 190 236 288 336
#     4  12  24  38  58  87 119 149 184 234 289 342
#     4  11  21  35  57  85 113 143 184 234 284 330
#     4  11  22  37  57  80 111 154 199 238 278 335
#     4   8  15  31  56  82 108 143 189 233 275 334
#
# _framework density 18.066447
#
# number of rings (size 3 to 8) (size 9 to 14) (size 15 to 20)
#    0.000    1.750    1.250    6.000    0.000    2.750 
#    0.000    2.500    0.000    7.500    0.000    0.000 
#    0.000    0.000    0.000    0.000    0.000    0.000 
#
# Total GULP energy -357390.397241 kJ/mol
# GULP energy per Si atom -5584.224957 kJ/mol
# Density = 1.802533 g / cm^3
# Si number density = 18.066447 Si / 1000 Ang^3
#
#
#
# Elastic Constant Matrix: (Units=GPa)
#
#
# Indices 1 2 3 4 5 6 
#
# 1 66.2568 31.3339 40.2133 0.0000 0.0000 0.0000
# 2 31.3339 71.2578 35.0750 0.0000 0.0000 0.0000
# 3 40.2133 35.0750 120.7185 0.0000 0.0000 0.0000
# 4 0.0000 0.0000 0.0000 8.1898 0.0000 0.0000
# 5 0.0000 0.0000 0.0000 0.0000 27.6137 0.0000
# 6 0.0000 0.0000 0.0000 0.0000 0.0000 19.3711
#
#
#
# Elastic Compliance Matrix: (Units=1/GPa)
#
#
# Indices 1 2 3 4 5 6 
#
# 1 0.021488 -0.006914 -0.005149 0.000000 0.000000 0.000000
# 2 -0.006914 0.018600 -0.003101 0.000000 0.000000 0.000000
# 3 -0.005149 -0.003101 0.010900 0.000000 0.000000 0.000000
# 4 0.000000 0.000000 0.000000 0.122103 0.000000 0.000000
# 5 0.000000 0.000000 0.000000 0.000000 0.036214 0.000000
# 6 0.000000 0.000000 0.000000 0.000000 0.000000 0.051623
#
#
# Mechanical properties :
#
#
# Convention : Reuss Voigt Hill
#
# Bulk Modulus (GPa) = 48.40410 52.38638 50.39524
# Shear Modulus (GPa) = 16.77047 21.14234 18.95640
#
# Velocity S-wave (km/s) = 3.05005 3.42461 3.24274
# Velocity P-wave (km/s) = 6.26532 6.68556 6.47885
#
# Compressibility (1/GPa) = 0.02065941
#
# Stress axis : x y z
#
# Youngs Moduli (GPa) = 46.53825 53.76237 91.74339
#
# Poissons Ratio (x) = 0.37173 0.47238
# Poissons Ratio (y) = 0.32178 0.28451
# Poissons Ratio (z) = 0.23962 0.16672
#
# Static dielectric constant tensor:
#      x y z
#    x 1.608200 0.000000 0.000000 
#    y 0.000000 1.606160 0.000000 
#    z 0.000000 0.000000 1.620000 
# 
# From -- ./inp_files/33942.got.cif
#   From: 2010.05.17/outbox.cif.g08.bks.cpg/sg51_17_cif.got.tgz:33942.got - 2010.06.03 11:52:47.
