data_PCOD9403169
_publ_section_title
;
Structure prediction by ZEFSAII (Michael W. Deem and Ramdas Pophale) SiO2 
 PCOD9403169
Probable space group: P M M A
;
_chemical_formula_sum "Si O2"
_cell_formula_units_Z 40
_cell_length_a 8.642662
_cell_length_b 27.182051
_cell_length_c 9.455505
_cell_angle_alpha 90.000000
_cell_angle_beta 90.000000
_cell_angle_gamma 90.000000
_cell_volume 2221.337153
_symmetry_space_group_name_H-M "P M M A"
_symmetry_group_IT_number 51
_symmetry_cell_setting 'orthorhombic'
loop_
_space_group_symop_operation_xyz
x,y,z
1/2-x,-y,z
1/2+x,-y,-z
-x,y,-z
-x,-y,-z
1/2+x,y,-z
1/2-x,y,z
x,-y,z
loop_
_atom_site_type_symbol
_atom_site_label
_atom_site_fract_x
_atom_site_fract_y
_atom_site_fract_z
Si Si1 0.564014 0.340642 0.839049
Si Si2 0.935357 0.238639 0.159278
Si Si3 0.564530 0.144052 0.342710
Si Si4 0.564645 0.056662 0.843717
Si Si5 0.936856 0.447077 0.839263
O O1 0.750000 0.337290 0.842055
O O2 0.496261 0.290313 0.777696
O O3 0.517804 0.393983 0.775512
O O4 0.500000 0.341474 0.000000
O O5 0.750000 0.240625 0.151477
O O6 0.983061 0.191883 0.251883
O O7 0.000000 0.233436 0.000000
O O8 0.500000 0.147387 0.500000
O O9 0.750000 0.142630 0.345883
O O10 0.502796 0.095362 0.265953
O O11 0.750000 0.060173 0.846411
O O12 0.522187 0.000000 0.810038
O O13 0.500000 0.067694 0.000000
O O14 0.750000 0.446878 0.845175
O O15 0.985448 0.500000 0.775189
O O16 0.000000 0.447190 0.000000
#
# Coordination Sequence:
#
# PCOD9403169 Si02
#       5
#     8   8   8   8   8
#     4   9  15  23  38  59  84 118 157 197 241 288
#     4  10  20  33  50  72  97 128 166 207 250 296
#     4  11  24  39  56  78 105 138 173 212 258 305
#     4  10  21  38  61  87 113 141 173 209 248 293
#     4   8  13  20  30  48  77 112 149 188 232 284
#
# _framework density 18.007172000000001
#
# number of rings (size 3 to 8) (size 9 to 14) (size 15 to 20)
#    0.000    2.400    0.000    4.200    0.000    7.200 
#    0.000    0.000    0.000    0.000    0.000    0.000 
#    0.000    0.800    0.000    1.800    0.000    9.400 
#
# Total GULP energy -222887.646556 kJ/mol
# GULP energy per Si atom -5572.191164 kJ/mol
# Density = 1.796619 g / cm^3
# Si number density = 18.007172 Si / 1000 Ang^3
#
#
#
# Elastic Constant Matrix: (Units=GPa)
#
#
# Indices 1 2 3 4 5 6 
#
# 1 40.2962 44.5347 23.4546 0.0000 0.0000 0.0000
# 2 44.5347 179.2706 82.0364 0.0000 0.0000 0.0000
# 3 23.4546 82.0364 63.1252 0.0000 0.0000 0.0000
# 4 0.0000 0.0000 0.0000 -4.1683 0.0000 0.0000
# 5 0.0000 0.0000 0.0000 0.0000 20.5130 0.0000
# 6 0.0000 0.0000 0.0000 0.0000 0.0000 3.5632
#
#
#
# Elastic Compliance Matrix: (Units=1/GPa)
#
#
# Indices 1 2 3 4 5 6 
#
# 1 0.034646 -0.006701 -0.004164 0.000000 0.000000 0.000000
# 2 -0.006701 0.015059 -0.017081 0.000000 0.000000 0.000000
# 3 -0.004164 -0.017081 0.039587 0.000000 0.000000 0.000000
# 4 0.000000 0.000000 0.000000 -0.239905 0.000000 0.000000
# 5 0.000000 0.000000 0.000000 0.000000 0.048749 0.000000
# 6 0.000000 0.000000 0.000000 0.000000 0.000000 0.280644
#
#
# Mechanical properties :
#
#
# Convention : Reuss Voigt Hill
#
# Bulk Modulus (GPa) = 29.94046 64.74927 47.34487
# Shear Modulus (GPa) = 20.34123 12.82602 16.58363
#
# Velocity S-wave (km/s) = 3.36463 2.67174 3.03800
# Velocity P-wave (km/s) = 5.63536 6.74931 6.21733
#
# Compressibility (1/GPa) = 0.03339962
#
# Stress axis : x y z
#
# Youngs Moduli (GPa) = 28.86322 66.40390 25.26097
#
# Poissons Ratio (x) = 0.44500 0.10519
# Poissons Ratio (y) = 0.19342 0.43148
# Poissons Ratio (z) = 0.12019 1.13424
#
# Static dielectric constant tensor:
#      x y z
#    x 1.605420 0.000000 0.000000 
#    y 0.000000 1.692520 0.000000 
#    z 0.000000 0.000000 1.559620 
# 
# From -- ./inp_files/5484.got.cif
#   From: 2010.05.17/outbox.cif.g08.bks.cpg/sg51_3_cif.got.tgz:5484.got - 2010.06.03 11:52:47.
