data_PCOD9403568
_publ_section_title
;
Structure prediction by ZEFSAII (Michael W. Deem and Ramdas Pophale) SiO2 
 PCOD9403568
Probable space group: P M M A
;
_chemical_formula_sum "Si O2"
_cell_formula_units_Z 64
_cell_length_a 29.370551
_cell_length_b 8.531952
_cell_length_c 16.205050
_cell_angle_alpha 90.000000
_cell_angle_beta 90.000000
_cell_angle_gamma 90.000000
_cell_volume 4060.793198
_symmetry_space_group_name_H-M "P M M A"
_symmetry_group_IT_number 51
_symmetry_cell_setting 'orthorhombic'
loop_
_space_group_symop_operation_xyz
x,y,z
1/2-x,-y,z
1/2+x,-y,-z
-x,y,-z
-x,-y,-z
1/2+x,y,-z
1/2-x,y,z
x,-y,z
loop_
_atom_site_type_symbol
_atom_site_label
_atom_site_fract_x
_atom_site_fract_y
_atom_site_fract_z
Si Si1 0.801549 0.812290 0.906042
Si Si2 0.698325 0.687725 0.091843
Si Si3 0.447209 0.810494 0.999709
Si Si4 0.554148 0.309915 0.320583
Si Si5 0.393124 0.687708 0.158815
Si Si6 0.444669 0.681458 0.498957
Si Si7 0.107760 0.187605 0.836160
Si Si8 0.948520 0.308154 0.681022
O O1 0.750000 0.765644 0.882383
O O2 0.841494 0.745601 0.849853
O O3 0.804146 0.000000 0.906960
O O4 0.809341 0.752098 0.999336
O O5 0.750000 0.732166 0.115886
O O6 0.695500 0.500000 0.089409
O O7 0.658961 0.753863 0.149556
O O8 0.420917 0.748056 0.079496
O O9 0.445940 0.000000 0.002351
O O10 0.500000 0.760942 0.000000
O O11 0.421874 0.759605 0.915862
O O12 0.554857 0.500000 0.322525
O O13 0.568738 0.251330 0.411997
O O14 0.585228 0.250981 0.246894
O O15 0.501366 0.262791 0.306431
O O16 0.393765 0.500000 0.157713
O O17 0.417767 0.742289 0.242561
O O18 0.500000 0.679459 0.500000
O O19 0.429438 0.500000 0.498631
O O20 0.432463 0.749446 0.409442
O O21 0.107164 0.000000 0.835022
O O22 0.948060 0.500000 0.678150
#
# Coordination Sequence:
#
# PCOD9403568 Si02
#       8
#     8   8   8   8   8   8   8   8
#     4  10  20  34  50  66  88 119 153 190 233 280
#     4  10  20  34  52  71  89 112 149 197 239 275
#     4  10  21  34  44  58  89 132 167 189 217 265
#     4   9  16  28  48  69  92 124 160 196 228 269
#     4  11  20  29  46  70  94 121 153 194 233 271
#     4   7  11  23  44  67  90 118 153 193 235 273
#     4  11  21  31  45  66  95 129 156 187 229 273
#     4   8  15  27  44  70  97 121 154 194 236 275
#
# _framework density 15.760467999999999
#
# number of rings (size 3 to 8) (size 9 to 14) (size 15 to 20)
#    0.000    2.500    1.250    3.750    0.000    2.250 
#    0.000    0.625    0.000    4.875    0.000    0.875 
#    0.000    3.000    0.000    0.000    0.000    0.000 
#
# Total GULP energy -356713.871748 kJ/mol
# GULP energy per Si atom -5573.654246 kJ/mol
# Density = 1.572460 g / cm^3
# Si number density = 15.760468 Si / 1000 Ang^3
#
#
#
# Elastic Constant Matrix: (Units=GPa)
#
#
# Indices 1 2 3 4 5 6 
#
# 1 109.8194 20.1819 76.5728 0.0000 0.0000 0.0000
# 2 20.1819 15.7280 20.7556 0.0000 0.0000 0.0000
# 3 76.5728 20.7556 150.3851 0.0000 0.0000 0.0000
# 4 0.0000 0.0000 0.0000 -11.9071 0.0000 0.0000
# 5 0.0000 0.0000 0.0000 0.0000 9.0671 0.0000
# 6 0.0000 0.0000 0.0000 0.0000 0.0000 19.3936
#
#
#
# Elastic Compliance Matrix: (Units=1/GPa)
#
#
# Indices 1 2 3 4 5 6 
#
# 1 0.015712 -0.011743 -0.006380 0.000000 0.000000 0.000000
# 2 -0.011743 0.086516 -0.005961 0.000000 0.000000 0.000000
# 3 -0.006380 -0.005961 0.010721 0.000000 0.000000 0.000000
# 4 0.000000 0.000000 0.000000 -0.083984 0.000000 0.000000
# 5 0.000000 0.000000 0.000000 0.000000 0.110289 0.000000
# 6 0.000000 0.000000 0.000000 0.000000 0.000000 0.051563
#
#
# Mechanical properties :
#
#
# Convention : Reuss Voigt Hill
#
# Bulk Modulus (GPa) = 15.43655 56.77257 36.10456
# Shear Modulus (GPa) = 19.18805 13.87220 16.53013
#
# Velocity S-wave (km/s) = 3.49303 2.97002 3.24209
# Velocity P-wave (km/s) = 5.10725 6.91821 6.08053
#
# Compressibility (1/GPa) = 0.06478133
#
# Stress axis : x y z
#
# Youngs Moduli (GPa) = 63.64527 11.55856 93.27732
#
# Poissons Ratio (x) = 0.13573 0.59507
# Poissons Ratio (y) = 0.74736 0.55607
# Poissons Ratio (z) = 0.40603 0.06891
#
# Static dielectric constant tensor:
#      x y z
#    x 1.517600 0.000000 0.000000 
#    y 0.000000 1.536160 0.000000 
#    z 0.000000 0.000000 1.533330 
# 
# From -- ./inp_files/26574.got.cif
#   From: 2010.05.17/outbox.cif.g08.bks.cpg/sg51_14_cif.got.tgz:26574.got - 2010.06.03 11:52:47.
