data_PCOD9403101
_publ_section_title
;
Structure prediction by ZEFSAII (Michael W. Deem and Ramdas Pophale) SiO2 
 PCOD9403101
Probable space group: P M M A
;
_chemical_formula_sum "Si O2"
_cell_formula_units_Z 56
_cell_length_a 14.357696
_cell_length_b 8.856151
_cell_length_c 26.737417
_cell_angle_alpha 90.000000
_cell_angle_beta 90.000000
_cell_angle_gamma 90.000000
_cell_volume 3399.767484
_symmetry_space_group_name_H-M "P M M A"
_symmetry_group_IT_number 51
_symmetry_cell_setting 'orthorhombic'
loop_
_space_group_symop_operation_xyz
x,y,z
1/2-x,-y,z
1/2+x,-y,-z
-x,y,-z
-x,-y,-z
1/2+x,y,-z
1/2-x,y,z
x,-y,z
loop_
_atom_site_type_symbol
_atom_site_label
_atom_site_fract_x
_atom_site_fract_y
_atom_site_fract_z
Si Si1 0.641413 0.180645 0.719000
Si Si2 0.858630 0.319470 0.827066
Si Si3 0.029057 0.680675 0.372305
Si Si4 0.860724 0.677820 0.527812
Si Si5 0.039065 0.817436 0.078898
Si Si6 0.644675 0.183486 0.022849
Si Si7 0.859023 0.179451 0.421623
O O1 0.750000 0.219735 0.708523
O O2 0.618232 0.248575 0.773247
O O3 0.576929 0.247306 0.675842
O O4 0.633696 0.000000 0.720521
O O5 0.750000 0.280445 0.837799
O O6 0.865888 0.500000 0.824409
O O7 0.922911 0.255254 0.870822
O O8 0.032210 0.500000 0.368549
O O9 0.925047 0.737972 0.382352
O O10 0.086252 0.726015 0.422301
O O11 0.750000 0.694669 0.535910
O O12 0.880188 0.500000 0.519123
O O13 0.885524 0.766638 0.477567
O O14 0.934528 0.770994 0.062601
O O15 0.040989 0.000000 0.083233
O O16 0.105833 0.775649 0.032094
O O17 0.750000 0.237648 0.031169
O O18 0.646401 0.000000 0.023903
O O19 0.750000 0.217268 0.414909
O O20 0.870113 0.000000 0.417779
#
# Coordination Sequence:
#
# PCOD9403101 Si02
#       7
#     8   8   8   8   8   8   8
#     4  10  21  36  54  76 100 126 158 197 241 291
#     4  10  20  33  49  70  98 129 159 196 243 290
#     4  11  21  33  52  75 100 130 161 197 244 295
#     4   9  18  32  49  71 100 131 160 191 235 294
#     4   9  16  27  47  72  96 128 168 204 238 282
#     4   8  14  25  43  70 102 132 163 200 241 284
#     4  10  21  35  50  70  97 129 166 206 243 282
#
# _framework density 16.471715
#
# number of rings (size 3 to 8) (size 9 to 14) (size 15 to 20)
#    0.000    2.429    0.000    3.857    0.000    6.571 
#    0.000    2.857    0.000    2.143    0.000    2.000 
#    0.000    0.000    0.000    0.000    0.000    0.000 
#
# Total GULP energy -312468.313901 kJ/mol
# GULP energy per Si atom -5579.791320 kJ/mol
# Density = 1.643422 g / cm^3
# Si number density = 16.471715 Si / 1000 Ang^3
#
#
#
# Elastic Constant Matrix: (Units=GPa)
#
#
# Indices 1 2 3 4 5 6 
#
# 1 117.1588 41.4513 89.8996 0.0000 0.0000 0.0000
# 2 41.4513 38.5728 50.2317 0.0000 0.0000 0.0000
# 3 89.8996 50.2317 136.7533 0.0000 0.0000 0.0000
# 4 0.0000 0.0000 0.0000 35.9415 0.0000 0.0000
# 5 0.0000 0.0000 0.0000 0.0000 29.6012 0.0000
# 6 0.0000 0.0000 0.0000 0.0000 0.0000 20.1155
#
#
#
# Elastic Compliance Matrix: (Units=1/GPa)
#
#
# Indices 1 2 3 4 5 6 
#
# 1 0.018339 -0.007683 -0.009234 0.000000 0.000000 0.000000
# 2 -0.007683 0.052916 -0.014386 0.000000 0.000000 0.000000
# 3 -0.009234 -0.014386 0.018667 0.000000 0.000000 0.000000
# 4 0.000000 0.000000 0.000000 0.027823 0.000000 0.000000
# 5 0.000000 0.000000 0.000000 0.000000 0.033782 0.000000
# 6 0.000000 0.000000 0.000000 0.000000 0.000000 0.049713
#
#
# Mechanical properties :
#
#
# Convention : Reuss Voigt Hill
#
# Bulk Modulus (GPa) = 36.60862 72.85001 54.72931
# Shear Modulus (GPa) = 18.31834 24.52514 21.42174
#
# Velocity S-wave (km/s) = 3.33845 3.86284 3.61018
# Velocity P-wave (km/s) = 6.09374 8.01366 7.11872
#
# Compressibility (1/GPa) = 0.02731597
#
# Stress axis : x y z
#
# Youngs Moduli (GPa) = 54.52872 18.89800 53.57090
#
# Poissons Ratio (x) = 0.14519 0.49466
# Poissons Ratio (y) = 0.41893 0.77068
# Poissons Ratio (z) = 0.50350 0.27187
#
# Static dielectric constant tensor:
#      x y z
#    x 1.569750 0.000000 0.000000 
#    y 0.000000 1.547730 0.000000 
#    z 0.000000 0.000000 1.518220 
# 
# From -- ./inp_files/33306.got.cif
#   From: 2010.05.17/outbox.cif.g08.bks.cpg/sg51_17_cif.got.tgz:33306.got - 2010.06.03 11:52:47.
