data_PCOD9403857
_publ_section_title
;
Structure prediction by ZEFSAII (Michael W. Deem and Ramdas Pophale) SiO2 
 PCOD9403857
Probable space group: P M M A
;
_chemical_formula_sum "Si O2"
_cell_formula_units_Z 48
_cell_length_a 9.681030
_cell_length_b 9.070727
_cell_length_c 29.723559
_cell_angle_alpha 90.000000
_cell_angle_beta 90.000000
_cell_angle_gamma 90.000000
_cell_volume 2610.144022
_symmetry_space_group_name_H-M "P M M A"
_symmetry_group_IT_number 51
_symmetry_cell_setting 'orthorhombic'
loop_
_space_group_symop_operation_xyz
x,y,z
1/2-x,-y,z
1/2+x,-y,-z
-x,y,-z
-x,-y,-z
1/2+x,y,-z
1/2-x,y,z
x,-y,z
loop_
_atom_site_type_symbol
_atom_site_label
_atom_site_fract_x
_atom_site_fract_y
_atom_site_fract_z
Si Si1 0.085404 0.826116 0.693129
Si Si2 0.410832 0.179402 0.956736
Si Si3 0.587003 0.821961 0.868288
Si Si4 0.250000 0.662044 0.544400
Si Si5 0.250000 0.826339 0.452737
Si Si6 0.519926 0.669953 0.605372
Si Si7 0.088247 0.676621 0.789434
O O1 0.250000 0.810804 0.683888
O O2 0.003645 0.748325 0.652986
O O3 0.059672 0.748010 0.740797
O O4 0.054015 0.000000 0.695618
O O5 0.250000 0.228918 0.956685
O O6 0.496985 0.219719 0.912202
O O7 0.406573 0.000000 0.958076
O O8 0.500000 0.227820 0.000000
O O9 0.750000 0.784839 0.872849
O O10 0.514338 0.745133 0.825987
O O11 0.578602 0.000000 0.863450
O O12 0.250000 0.500000 0.521870
O O13 0.250000 0.778591 0.504648
O O14 0.379139 0.671265 0.577185
O O15 0.377617 0.757762 0.426344
O O16 0.250000 0.000000 0.449356
O O17 0.562776 0.500000 0.611803
O O18 0.250000 0.710145 0.800677
O O19 0.074309 0.500000 0.787322
#
# Coordination Sequence:
#
# PCOD9403857 Si02
#       7
#     8   8   8   4   4   8   8
#     4  10  20  36  61  90 117 145 184 235 289 345
#     4   9  16  27  47  77 113 152 193 239 291 345
#     4  10  20  34  53  80 114 150 191 239 289 342
#     4  10  22  40  64  88 114 152 196 238 285 348
#     4  12  26  40  56  86 122 156 194 242 291 338
#     4  11  22  40  63  87 117 154 194 236 287 349
#     4  10  21  37  58  82 109 144 188 234 283 343
#
# _framework density 18.389789
#
# number of rings (size 3 to 8) (size 9 to 14) (size 15 to 20)
#    0.000    1.833    0.833    3.750    0.000    8.000 
#    1.500    0.000    0.000    0.500    0.000    0.000 
#    0.000    0.000    0.000    0.000    0.000    0.000 
#
# Total GULP energy -267991.463401 kJ/mol
# GULP energy per Si atom -5583.155488 kJ/mol
# Density = 1.834793 g / cm^3
# Si number density = 18.389789 Si / 1000 Ang^3
#
#
#
# Elastic Constant Matrix: (Units=GPa)
#
#
# Indices 1 2 3 4 5 6 
#
# 1 114.1050 43.7094 55.3167 0.0000 0.0000 0.0000
# 2 43.7094 81.3636 47.2387 0.0000 0.0000 0.0000
# 3 55.3167 47.2387 123.3604 0.0000 0.0000 0.0000
# 4 0.0000 0.0000 0.0000 222.9357 0.0000 0.0000
# 5 0.0000 0.0000 0.0000 0.0000 -22.7797 0.0000
# 6 0.0000 0.0000 0.0000 0.0000 0.0000 24.2972
#
#
#
# Elastic Compliance Matrix: (Units=1/GPa)
#
#
# Indices 1 2 3 4 5 6 
#
# 1 0.012303 -0.004380 -0.003840 0.000000 0.000000 0.000000
# 2 -0.004380 0.017364 -0.004685 0.000000 0.000000 0.000000
# 3 -0.003840 -0.004685 0.011622 0.000000 0.000000 0.000000
# 4 0.000000 0.000000 0.000000 0.004486 0.000000 0.000000
# 5 0.000000 0.000000 0.000000 0.000000 -0.043899 0.000000
# 6 0.000000 0.000000 0.000000 0.000000 0.000000 0.041157
#
#
# Mechanical properties :
#
#
# Convention : Reuss Voigt Hill
#
# Bulk Modulus (GPa) = 64.60203 67.92872 66.26538
# Shear Modulus (GPa) = 67.56577 56.39492 61.98035
#
# Velocity S-wave (km/s) = 6.06800 5.54374 5.81178
# Velocity P-wave (km/s) = 9.18149 8.83152 9.00821
#
# Compressibility (1/GPa) = 0.01547939
#
# Stress axis : x y z
#
# Youngs Moduli (GPa) = 81.28021 57.59171 86.04303
#
# Poissons Ratio (x) = 0.25226 0.33037
# Poissons Ratio (y) = 0.35602 0.40311
# Poissons Ratio (z) = 0.31208 0.26982
#
# Static dielectric constant tensor:
#      x y z
#    x 1.601630 0.000000 0.000000 
#    y 0.000000 1.615280 0.000000 
#    z 0.000000 0.000000 1.595710 
# 
# From -- ./inp_files/37073.got.cif
#   From: 2010.05.17/outbox.cif.g08.bks.cpg/sg51_19_cif.got.tgz:37073.got - 2010.06.03 11:52:47.
