data_PCOD9403621
_publ_section_title
;
Structure prediction by ZEFSAII (Michael W. Deem and Ramdas Pophale) SiO2 
 PCOD9403621
Probable space group: P M M A
;
_chemical_formula_sum "Si O2"
_cell_formula_units_Z 64
_cell_length_a 8.305482
_cell_length_b 24.528827
_cell_length_c 15.837357
_cell_angle_alpha 90.000000
_cell_angle_beta 90.000000
_cell_angle_gamma 90.000000
_cell_volume 3226.445459
_symmetry_space_group_name_H-M "P M M A"
_symmetry_group_IT_number 51
_symmetry_cell_setting 'orthorhombic'
loop_
_space_group_symop_operation_xyz
x,y,z
1/2-x,-y,z
1/2+x,-y,-z
-x,y,-z
-x,-y,-z
1/2+x,y,-z
1/2-x,y,z
x,-y,z
loop_
_atom_site_type_symbol
_atom_site_label
_atom_site_fract_x
_atom_site_fract_y
_atom_site_fract_z
Si Si1 0.944946 0.059211 0.403322
Si Si2 0.946808 0.349076 0.768267
Si Si3 0.937683 0.834476 0.818962
Si Si4 0.558705 0.701591 0.592415
Si Si5 0.059058 0.062804 0.904244
Si Si6 0.944357 0.436983 0.906215
Si Si7 0.435338 0.180179 0.642069
Si Si8 0.059106 0.267429 0.088767
O O1 0.750000 0.060408 0.396018
O O2 0.004231 0.119107 0.374602
O O3 0.000000 0.056657 0.500000
O O4 0.996143 0.000000 0.364628
O O5 0.750000 0.350522 0.764360
O O6 0.002327 0.333968 0.673234
O O7 0.996661 0.401634 0.824462
O O8 0.998804 0.299963 0.829793
O O9 0.750000 0.825211 0.796904
O O10 0.979206 0.795944 0.897773
O O11 0.968970 0.896242 0.843150
O O12 0.046932 0.815867 0.742206
O O13 0.500000 0.683783 0.500000
O O14 0.750000 0.697657 0.593580
O O15 0.515439 0.765711 0.604510
O O16 0.250000 0.073004 0.899596
O O17 0.029253 0.000000 0.882153
O O18 0.000000 0.070958 0.000000
O O19 0.750000 0.435025 0.907366
O O20 0.996223 0.500000 0.897375
O O21 0.000000 0.418270 0.000000
O O22 0.250000 0.180537 0.614026
O O23 0.250000 0.273343 0.088268
O O24 0.000000 0.288424 0.000000
#
# Coordination Sequence:
#
# PCOD9403621 Si02
#       8
#     8   8   8   8   8   8   8   8
#     4   9  19  35  53  73  97 125 159 205 265 332
#     4   9  18  35  55  78 114 152 187 231 281 330
#     4  11  22  36  53  74 104 139 176 223 276 333
#     4  11  22  39  59  80 110 148 190 240 292 344
#     4  10  21  37  55  74  98 132 176 226 278 336
#     4   9  17  31  55  87 121 159 198 232 274 329
#     4  11  22  36  55  79 106 138 179 227 282 344
#     4  10  20  34  51  75 106 144 178 217 272 326
#
# _framework density 19.836069999999999
#
# number of rings (size 3 to 8) (size 9 to 14) (size 15 to 20)
#    0.000    2.000    1.250    2.625    0.000    5.250 
#    0.000    2.500    0.000    0.375    0.000    0.000 
#    0.000    0.000    0.000    0.000    0.000    0.125 
#
# Total GULP energy -356734.999333 kJ/mol
# GULP energy per Si atom -5573.984365 kJ/mol
# Density = 1.979092 g / cm^3
# Si number density = 19.836070 Si / 1000 Ang^3
#
#
#
# Elastic Constant Matrix: (Units=GPa)
#
#
# Indices 1 2 3 4 5 6 
#
# 1 9.4540 17.9230 13.1105 0.0000 0.0000 0.0000
# 2 17.9230 100.7031 56.0299 0.0000 0.0000 0.0000
# 3 13.1105 56.0299 136.9237 0.0000 0.0000 0.0000
# 4 0.0000 0.0000 0.000015917.3121 0.0000 0.0000
# 5 0.0000 0.0000 0.0000 0.0000 27.9115 0.0000
# 6 0.0000 0.0000 0.0000 0.0000 0.0000 30.2877
#
#
#
# Elastic Compliance Matrix: (Units=1/GPa)
#
#
# Indices 1 2 3 4 5 6 
#
# 1 0.162049 -0.026166 -0.004809 0.000000 0.000000 0.000000
# 2 -0.026166 0.017082 -0.004485 0.000000 0.000000 0.000000
# 3 -0.004809 -0.004485 0.009599 0.000000 0.000000 0.000000
# 4 0.000000 0.000000 0.000000 0.000063 0.000000 0.000000
# 5 0.000000 0.000000 0.000000 0.000000 0.035827 0.000000
# 6 0.000000 0.000000 0.000000 0.000000 0.000000 0.033017
#
#
# Mechanical properties :
#
#
# Convention : Reuss Voigt Hill
#
# Bulk Modulus (GPa) = 8.48815 46.80083 27.64449
# Shear Modulus (GPa) = 13.59336 3205.77010 1609.68173
#
# Velocity S-wave (km/s) = 2.62063 40.24475 28.51761
# Velocity P-wave (km/s) = 3.66680 46.72435 33.14069
#
# Compressibility (1/GPa) = 0.11781127
#
# Stress axis : x y z
#
# Youngs Moduli (GPa) = 6.17098 58.53979 104.17715
#
# Poissons Ratio (x) = 1.53172 0.50100
# Poissons Ratio (y) = 0.16147 0.46722
# Poissons Ratio (z) = 0.02968 0.26254
#
# Static dielectric constant tensor:
#      x y z
#    x 1.720380 0.000000 0.000000 
#    y 0.000000 1.754490 0.000000 
#    z 0.000000 0.000000 1.708430 
# 
# From -- ./inp_files/22225.got.cif
#   From: 2010.05.17/outbox.cif.g08.bks.cpg/sg51_12_cif.got.tgz:22225.got - 2010.06.03 11:52:47.
