data_PCOD9403427
_publ_section_title
;
Structure prediction by ZEFSAII (Michael W. Deem and Ramdas Pophale) SiO2 
 PCOD9403427
Probable space group: P M M A
;
_chemical_formula_sum "Si O2"
_cell_formula_units_Z 48
_cell_length_a 9.733927
_cell_length_b 14.199913
_cell_length_c 19.495456
_cell_angle_alpha 90.000000
_cell_angle_beta 90.000000
_cell_angle_gamma 90.000000
_cell_volume 2694.679797
_symmetry_space_group_name_H-M "P M M A"
_symmetry_group_IT_number 51
_symmetry_cell_setting 'orthorhombic'
loop_
_space_group_symop_operation_xyz
x,y,z
1/2-x,-y,z
1/2+x,-y,-z
-x,y,-z
-x,-y,-z
1/2+x,y,-z
1/2-x,y,z
x,-y,z
loop_
_atom_site_type_symbol
_atom_site_label
_atom_site_fract_x
_atom_site_fract_y
_atom_site_fract_z
Si Si1 0.590255 0.114084 0.434965
Si Si2 0.598997 0.388951 0.682464
Si Si3 0.592202 0.251057 0.810084
Si Si4 0.914310 0.112345 0.279036
Si Si5 0.585282 0.607498 0.930049
Si Si6 0.095270 0.385728 0.562068
O O1 0.500000 0.145205 0.500000
O O2 0.750000 0.140417 0.443444
O O3 0.543962 0.140195 0.357472
O O4 0.586538 0.000000 0.435021
O O5 0.750000 0.375892 0.648938
O O6 0.585618 0.500000 0.696644
O O7 0.595792 0.330515 0.751282
O O8 0.478342 0.359423 0.632208
O O9 0.750000 0.217318 0.819727
O O10 0.495818 0.170226 0.778679
O O11 0.547739 0.308790 0.877636
O O12 0.750000 0.128333 0.273984
O O13 0.937722 0.000000 0.271903
O O14 0.750000 0.613858 0.941925
O O15 0.560218 0.500000 0.903166
O O16 0.500000 0.616491 0.000000
O O17 0.250000 0.352338 0.556959
O O18 0.098048 0.500000 0.560408
O O19 0.000000 0.355373 0.500000
#
# Coordination Sequence:
#
# PCOD9403427 Si02
#       6
#     8   8   8   8   8   8
#     4   8  14  26  45  68  93 123 162 209 260 310
#     4   9  17  30  47  67  94 127 160 197 245 298
#     4  10  20  33  52  78 104 131 166 207 250 298
#     4   9  19  35  52  72 102 139 176 216 264 312
#     4   9  18  34  56  83 114 143 169 200 243 298
#     4   9  16  26  41  61  86 120 163 207 248 291
#
# _framework density 17.812877
#
# number of rings (size 3 to 8) (size 9 to 14) (size 15 to 20)
#    0.000    3.000    0.000    2.000    0.000    6.333 
#    0.000    2.500    0.000    7.500    0.000    0.000 
#    0.000    0.000    0.000    0.000    0.000    0.000 
#
# Total GULP energy -267551.166283 kJ/mol
# GULP energy per Si atom -5573.982631 kJ/mol
# Density = 1.777233 g / cm^3
# Si number density = 17.812877 Si / 1000 Ang^3
#
#
#
# Elastic Constant Matrix: (Units=GPa)
#
#
# Indices 1 2 3 4 5 6 
#
# 1 78.6646 41.0701 51.0780 0.0000 0.0000 0.0000
# 2 41.0701 102.8330 46.7877 0.0000 0.0000 0.0000
# 3 51.0780 46.7877 93.7039 0.0000 0.0000 0.0000
# 4 0.0000 0.0000 0.0000 72.8470 0.0000 0.0000
# 5 0.0000 0.0000 0.0000 0.0000 29.9015 0.0000
# 6 0.0000 0.0000 0.0000 0.0000 0.0000 13.5838
#
#
#
# Elastic Compliance Matrix: (Units=1/GPa)
#
#
# Indices 1 2 3 4 5 6 
#
# 1 0.020932 -0.004100 -0.009363 0.000000 0.000000 0.000000
# 2 -0.004100 0.013386 -0.004449 0.000000 0.000000 0.000000
# 3 -0.009363 -0.004449 0.017997 0.000000 0.000000 0.000000
# 4 0.000000 0.000000 0.000000 0.013727 0.000000 0.000000
# 5 0.000000 0.000000 0.000000 0.000000 0.033443 0.000000
# 6 0.000000 0.000000 0.000000 0.000000 0.000000 0.073617
#
#
# Mechanical properties :
#
#
# Convention : Reuss Voigt Hill
#
# Bulk Modulus (GPa) = 60.63690 61.45255 61.04472
# Shear Modulus (GPa) = 23.31824 32.35084 27.83454
#
# Velocity S-wave (km/s) = 3.62203 4.26625 3.95727
# Velocity P-wave (km/s) = 7.18381 7.67084 7.43131
#
# Compressibility (1/GPa) = 0.01649161
#
# Stress axis : x y z
#
# Youngs Moduli (GPa) = 47.77303 74.70359 55.56442
#
# Poissons Ratio (x) = 0.30629 0.52025
# Poissons Ratio (y) = 0.19587 0.24721
# Poissons Ratio (z) = 0.44730 0.33236
#
# Static dielectric constant tensor:
#      x y z
#    x 1.613740 0.000000 0.000000 
#    y 0.000000 1.643340 0.000000 
#    z 0.000000 0.000000 1.590160 
# 
# From -- ./inp_files/27552.got.cif
#   From: 2010.05.17/outbox.cif.g08.bks.cpg/sg51_14_cif.got.tgz:27552.got - 2010.06.03 11:52:47.
