data_PCOD9403684
_publ_section_title
;
Structure prediction by ZEFSAII (Michael W. Deem and Ramdas Pophale) SiO2 
 PCOD9403684
Probable space group: P M M A
;
_chemical_formula_sum "Si O2"
_cell_formula_units_Z 64
_cell_length_a 18.574977
_cell_length_b 9.133558
_cell_length_c 21.365136
_cell_angle_alpha 90.000000
_cell_angle_beta 90.000000
_cell_angle_gamma 90.000000
_cell_volume 3624.715603
_symmetry_space_group_name_H-M "P M M A"
_symmetry_group_IT_number 51
_symmetry_cell_setting 'orthorhombic'
loop_
_space_group_symop_operation_xyz
x,y,z
1/2-x,-y,z
1/2+x,-y,-z
-x,y,-z
-x,-y,-z
1/2+x,y,-z
1/2-x,y,z
x,-y,z
loop_
_atom_site_type_symbol
_atom_site_label
_atom_site_fract_x
_atom_site_fract_y
_atom_site_fract_z
Si Si1 0.836834 0.670555 0.700755
Si Si2 0.427348 0.322865 0.808917
Si Si3 0.834140 0.175471 0.940605
Si Si4 0.917475 0.175943 0.814319
Si Si5 0.162261 0.832106 0.426243
Si Si6 0.837766 0.669348 0.448796
Si Si7 0.667123 0.678296 0.310458
Si Si8 0.166118 0.324495 0.930552
O O1 0.750000 0.680396 0.704497
O O2 0.857062 0.500000 0.704905
O O3 0.871402 0.760774 0.756989
O O4 0.859370 0.737106 0.633810
O O5 0.436001 0.500000 0.807647
O O6 0.503677 0.244809 0.811117
O O7 0.383190 0.278933 0.746858
O O8 0.381215 0.285097 0.870567
O O9 0.750000 0.214633 0.930670
O O10 0.879822 0.217718 0.879988
O O11 0.838136 0.000000 0.947501
O O12 0.858295 0.250047 0.005042
O O13 0.919851 0.000000 0.810930
O O14 0.250000 0.830338 0.427359
O O15 0.138070 0.763243 0.491997
O O16 0.139413 0.000000 0.419538
O O17 0.750000 0.669804 0.448160
O O18 0.859914 0.500000 0.456574
O O19 0.858810 0.724132 0.379651
O O20 0.750000 0.725984 0.300875
O O21 0.668623 0.500000 0.312066
O O22 0.250000 0.284129 0.920064
O O23 0.163165 0.500000 0.937756
#
# Coordination Sequence:
#
# PCOD9403684 Si02
#       8
#     8   8   8   8   8   8   8   8
#     4  10  20  34  54  78 101 128 166 211 255 300
#     4  10  20  34  52  75 104 136 171 210 252 299
#     4   9  19  36  56  75  97 129 167 205 247 300
#     4  11  23  37  52  72 102 138 173 208 250 301
#     4   9  16  26  43  70 103 134 162 198 248 301
#     4   8  13  23  42  69  98 127 163 206 248 292
#     4   8  14  27  50  76 100 131 171 212 253 299
#     4   9  18  33  55  81 105 130 164 209 256 299
#
# _framework density 17.656556999999999
#
# number of rings (size 3 to 8) (size 9 to 14) (size 15 to 20)
#    0.000    2.750    0.000    2.625    0.000    6.250 
#    0.000    4.375    0.000    2.625    0.000    5.250 
#    0.000    0.000    0.000    0.000    0.000    0.000 
#
# Total GULP energy -356862.361078 kJ/mol
# GULP energy per Si atom -5575.974392 kJ/mol
# Density = 1.761637 g / cm^3
# Si number density = 17.656557 Si / 1000 Ang^3
#
#
#
# Elastic Constant Matrix: (Units=GPa)
#
#
# Indices 1 2 3 4 5 6 
#
# 1 39.9609 29.5414 54.8173 0.0000 0.0000 0.0000
# 2 29.5414 51.4872 58.8213 0.0000 0.0000 0.0000
# 3 54.8173 58.8213 177.8214 0.0000 0.0000 0.0000
# 4 0.0000 0.0000 0.0000 -104.4436 0.0000 0.0000
# 5 0.0000 0.0000 0.0000 0.0000 -5.7431 0.0000
# 6 0.0000 0.0000 0.0000 0.0000 0.0000 20.6815
#
#
#
# Elastic Compliance Matrix: (Units=1/GPa)
#
#
# Indices 1 2 3 4 5 6 
#
# 1 0.052635 -0.018748 -0.010024 0.000000 0.000000 0.000000
# 2 -0.018748 0.037899 -0.006757 0.000000 0.000000 0.000000
# 3 -0.010024 -0.006757 0.010949 0.000000 0.000000 0.000000
# 4 0.000000 0.000000 0.000000 -0.009575 0.000000 0.000000
# 5 0.000000 0.000000 0.000000 0.000000 -0.174122 0.000000
# 6 0.000000 0.000000 0.000000 0.000000 0.000000 0.048352
#
#
# Mechanical properties :
#
#
# Convention : Reuss Voigt Hill
#
# Bulk Modulus (GPa) = 32.86841 61.73661 47.30251
# Shear Modulus (GPa) = 105.62326 -9.49507 48.06409
#
# Velocity S-wave (km/s) = 7.74279 -2.32149 5.22310
# Velocity P-wave (km/s) = 9.92926 5.27782 7.95128
#
# Compressibility (1/GPa) = 0.03042435
#
# Stress axis : x y z
#
# Youngs Moduli (GPa) = 18.99881 26.38622 91.33267
#
# Poissons Ratio (x) = 0.49468 0.91555
# Poissons Ratio (y) = 0.35618 0.61714
# Poissons Ratio (z) = 0.19045 0.17829
#
# Static dielectric constant tensor:
#      x y z
#    x 1.582850 0.000000 0.000000 
#    y 0.000000 1.589700 0.000000 
#    z 0.000000 0.000000 1.596230 
# 
# From -- ./inp_files/33757.got.cif
#   From: 2010.05.17/outbox.cif.g08.bks.cpg/sg51_17_cif.got.tgz:33757.got - 2010.06.03 11:52:47.
