data_PCOD9403300
_publ_section_title
;
Structure prediction by ZEFSAII (Michael W. Deem and Ramdas Pophale) SiO2 
 PCOD9403300
Probable space group: P M M A
;
_chemical_formula_sum "Si O2"
_cell_formula_units_Z 64
_cell_length_a 24.574802
_cell_length_b 8.767981
_cell_length_c 15.910273
_cell_angle_alpha 90.000000
_cell_angle_beta 90.000000
_cell_angle_gamma 90.000000
_cell_volume 3428.208750
_symmetry_space_group_name_H-M "P M M A"
_symmetry_group_IT_number 51
_symmetry_cell_setting 'orthorhombic'
loop_
_space_group_symop_operation_xyz
x,y,z
1/2-x,-y,z
1/2+x,-y,-z
-x,y,-z
-x,-y,-z
1/2+x,y,-z
1/2-x,y,z
x,-y,z
loop_
_atom_site_type_symbol
_atom_site_label
_atom_site_fract_x
_atom_site_fract_y
_atom_site_fract_z
Si Si1 0.115632 0.317445 0.273470
Si Si2 0.341660 0.325697 0.594847
Si Si3 0.501551 0.825416 0.259914
Si Si4 0.530895 0.334623 0.413953
Si Si5 0.813284 0.183575 0.062158
Si Si6 0.624286 0.184680 0.230551
Si Si7 0.687153 0.683602 0.886023
Si Si8 0.688919 0.817555 0.580183
O O1 0.116096 0.500000 0.281166
O O2 0.054919 0.262758 0.249767
O O3 0.153701 0.269182 0.195594
O O4 0.142336 0.251171 0.359039
O O5 0.321531 0.500000 0.600453
O O6 0.405356 0.329537 0.571222
O O7 0.344404 0.249756 0.687482
O O8 0.315046 0.239208 0.516454
O O9 0.512427 0.806836 0.359088
O O10 0.560415 0.766845 0.226639
O O11 0.494810 0.000000 0.233451
O O12 0.500000 0.333967 0.500000
O O13 0.519065 0.500000 0.370991
O O14 0.750000 0.229364 0.071303
O O15 0.846178 0.230427 0.144760
O O16 0.815355 0.000000 0.057386
O O17 0.833966 0.251002 0.974293
O O18 0.624300 0.000000 0.237763
O O19 0.750000 0.732819 0.877479
O O20 0.685911 0.500000 0.890294
O O21 0.750000 0.775259 0.611352
O O22 0.683942 0.000000 0.581309
#
# Coordination Sequence:
#
# PCOD9403300 Si02
#       8
#     8   8   8   8   8   8   8   8
#     4  11  22  37  57  79 107 143 181 225 276 326
#     4  10  20  33  52  78 107 141 179 218 262 313
#     4  10  20  33  51  75 105 142 182 222 264 317
#     4   9  17  30  48  70  97 131 172 217 262 307
#     4   9  18  34  58  84 107 136 176 221 269 322
#     4   9  19  36  55  79 114 150 182 221 271 322
#     4   9  19  36  57  81 107 135 171 219 275 330
#     4  11  24  39  55  78 109 144 182 225 272 325
#
# _framework density 18.668641999999998
#
# number of rings (size 3 to 8) (size 9 to 14) (size 15 to 20)
#    0.000    2.250    0.000    2.625    0.000    5.750 
#    0.000    3.125    0.000    3.750    0.000    0.000 
#    0.000    0.000    0.000    0.000    0.000    0.000 
#
# Total GULP energy -356646.531695 kJ/mol
# GULP energy per Si atom -5572.602058 kJ/mol
# Density = 1.862615 g / cm^3
# Si number density = 18.668642 Si / 1000 Ang^3
#
#
#
# Elastic Constant Matrix: (Units=GPa)
#
#
# Indices 1 2 3 4 5 6 
#
# 1 70.5662 23.4965 58.9681 0.0000 0.0000 0.0000
# 2 23.4965 38.6833 26.2582 0.0000 0.0000 0.0000
# 3 58.9681 26.2582 104.5945 0.0000 0.0000 0.0000
# 4 0.0000 0.0000 0.0000 20.1446 0.0000 0.0000
# 5 0.0000 0.0000 0.0000 0.0000 4.7836 0.0000
# 6 0.0000 0.0000 0.0000 0.0000 0.0000 22.6543
#
#
#
# Elastic Compliance Matrix: (Units=1/GPa)
#
#
# Indices 1 2 3 4 5 6 
#
# 1 0.028599 -0.007747 -0.014179 0.000000 0.000000 0.000000
# 2 -0.007747 0.033260 -0.003982 0.000000 0.000000 0.000000
# 3 -0.014179 -0.003982 0.018554 0.000000 0.000000 0.000000
# 4 0.000000 0.000000 0.000000 0.049641 0.000000 0.000000
# 5 0.000000 0.000000 0.000000 0.000000 0.209047 0.000000
# 6 0.000000 0.000000 0.000000 0.000000 0.000000 0.044142
#
#
# Mechanical properties :
#
#
# Convention : Reuss Voigt Hill
#
# Bulk Modulus (GPa) = 34.96847 47.92109 41.44478
# Shear Modulus (GPa) = 11.24633 16.52457 13.88545
#
# Velocity S-wave (km/s) = 2.45708 2.97838 2.73020
# Velocity P-wave (km/s) = 5.17895 6.12802 5.67336
#
# Compressibility (1/GPa) = 0.02859719
#
# Stress axis : x y z
#
# Youngs Moduli (GPa) = 34.96664 30.06659 53.89653
#
# Poissons Ratio (x) = 0.23291 0.76418
# Poissons Ratio (y) = 0.27087 0.21464
# Poissons Ratio (z) = 0.49578 0.11974
#
# Static dielectric constant tensor:
#      x y z
#    x 1.661180 0.000000 0.000000 
#    y 0.000000 1.697490 0.000000 
#    z 0.000000 0.000000 1.616240 
# 
# From -- ./inp_files/26360.got.cif
#   From: 2010.05.17/outbox.cif.g08.bks.cpg/sg51_14_cif.got.tgz:26360.got - 2010.06.03 11:52:47.
