data_PCOD9403104
_publ_section_title
;
Structure prediction by ZEFSAII (Michael W. Deem and Ramdas Pophale) SiO2 
 PCOD9403104
Probable space group: P M M A
;
_chemical_formula_sum "Si O2"
_cell_formula_units_Z 40
_cell_length_a 18.691758
_cell_length_b 9.095857
_cell_length_c 13.893132
_cell_angle_alpha 90.000000
_cell_angle_beta 90.000000
_cell_angle_gamma 90.000000
_cell_volume 2362.076373
_symmetry_space_group_name_H-M "P M M A"
_symmetry_group_IT_number 51
_symmetry_cell_setting 'orthorhombic'
loop_
_space_group_symop_operation_xyz
x,y,z
1/2-x,-y,z
1/2+x,-y,-z
-x,y,-z
-x,-y,-z
1/2+x,y,-z
1/2-x,y,z
x,-y,z
loop_
_atom_site_type_symbol
_atom_site_label
_atom_site_fract_x
_atom_site_fract_y
_atom_site_fract_z
Si Si1 0.958151 0.675627 0.699723
Si Si2 0.168579 0.824083 0.810448
Si Si3 0.034323 0.676689 0.899312
Si Si4 0.592523 0.824701 0.391263
Si Si5 0.333289 0.823032 0.406749
O O1 0.955555 0.500000 0.691289
O O2 0.984613 0.714319 0.807464
O O3 0.882800 0.746262 0.672135
O O4 0.018832 0.740328 0.628473
O O5 0.250000 0.775071 0.824829
O O6 0.143216 0.795301 0.700716
O O7 0.111145 0.747533 0.878821
O O8 0.165530 0.000000 0.823798
O O9 0.041625 0.500000 0.900787
O O10 0.000000 0.724197 0.000000
O O11 0.632689 0.784855 0.489300
O O12 0.577553 0.000000 0.393634
O O13 0.250000 0.781371 0.402360
O O14 0.337693 0.000000 0.397007
#
# Coordination Sequence:
#
# PCOD9403104 Si02
#       5
#     8   8   8   8   8
#     4  10  20  33  50  72  96 123 159 202 243 282
#     4   9  17  30  50  77 103 123 151 197 246 285
#     4   9  19  36  54  70  92 126 165 200 238 289
#     4   9  17  31  51  72  97 130 162 191 229 281
#     4  10  20  33  49  70  98 133 167 193 224 276
#
# _framework density 16.934253999999999
#
# number of rings (size 3 to 8) (size 9 to 14) (size 15 to 20)
#    0.000    2.600    0.000    1.800    0.000    7.600 
#    0.000    1.000    0.000    9.600    0.000    0.000 
#    0.000    0.000    0.000    0.000    0.000    0.000 
#
# Total GULP energy -223146.880724 kJ/mol
# GULP energy per Si atom -5578.672018 kJ/mol
# Density = 1.689571 g / cm^3
# Si number density = 16.934254 Si / 1000 Ang^3
#
#
#
# Elastic Constant Matrix: (Units=GPa)
#
#
# Indices 1 2 3 4 5 6 
#
# 1 163.2187 48.8562 81.8460 0.0000 0.0000 0.0000
# 2 48.8562 18.5083 34.1528 0.0000 0.0000 0.0000
# 3 81.8460 34.1528 88.7117 0.0000 0.0000 0.0000
# 4 0.0000 0.0000 0.0000 23.4862 0.0000 0.0000
# 5 0.0000 0.0000 0.0000 0.0000 18.7557 0.0000
# 6 0.0000 0.0000 0.0000 0.0000 0.0000 -2.4496
#
#
#
# Elastic Compliance Matrix: (Units=1/GPa)
#
#
# Indices 1 2 3 4 5 6 
#
# 1 0.031678 -0.102520 0.010243 0.000000 0.000000 0.000000
# 2 -0.102520 0.518357 -0.104975 0.000000 0.000000 0.000000
# 3 0.010243 -0.104975 0.042237 0.000000 0.000000 0.000000
# 4 0.000000 0.000000 0.000000 0.042578 0.000000 0.000000
# 5 0.000000 0.000000 0.000000 0.000000 0.053317 0.000000
# 6 0.000000 0.000000 0.000000 0.000000 0.000000 -0.408223
#
#
# Mechanical properties :
#
#
# Convention : Reuss Voigt Hill
#
# Bulk Modulus (GPa) = 5.05646 66.68321 35.86983
# Shear Modulus (GPa) = 6.75337 14.99737 10.87537
#
# Velocity S-wave (km/s) = 1.99916 2.97917 2.53694
# Velocity P-wave (km/s) = 2.88466 7.16220 5.45978
#
# Compressibility (1/GPa) = 0.19776683
#
# Stress axis : x y z
#
# Youngs Moduli (GPa) = 31.56785 1.92917 23.67609
#
# Poissons Ratio (x) = 0.19778 -0.24251
# Poissons Ratio (y) = 3.23633 2.48541
# Poissons Ratio (z) = -0.32334 0.20252
#
# Static dielectric constant tensor:
#      x y z
#    x 1.555320 0.000000 0.000000 
#    y 0.000000 1.563620 0.000000 
#    z 0.000000 0.000000 1.566040 
# 
# From -- ./inp_files/17090.got.cif
#   From: 2010.05.17/outbox.cif.g08.bks.cpg/sg51_9_cif.got.tgz:17090.got - 2010.06.03 11:52:47.
