data_PCOD9403166
_publ_section_title
;
Structure prediction by ZEFSAII (Michael W. Deem and Ramdas Pophale) SiO2 
 PCOD9403166
Probable space group: P M M A
;
_chemical_formula_sum "Si O2"
_cell_formula_units_Z 48
_cell_length_a 9.664579
_cell_length_b 7.497956
_cell_length_c 31.933661
_cell_angle_alpha 90.000000
_cell_angle_beta 90.000000
_cell_angle_gamma 90.000000
_cell_volume 2314.059591
_symmetry_space_group_name_H-M "P M M A"
_symmetry_group_IT_number 51
_symmetry_cell_setting 'orthorhombic'
loop_
_space_group_symop_operation_xyz
x,y,z
1/2-x,-y,z
1/2+x,-y,-z
-x,y,-z
-x,-y,-z
1/2+x,y,-z
1/2-x,y,z
x,-y,z
loop_
_atom_site_type_symbol
_atom_site_label
_atom_site_fract_x
_atom_site_fract_y
_atom_site_fract_z
Si Si1 0.093403 0.788573 0.787691
Si Si2 0.409412 0.218685 0.290083
Si Si3 0.408438 0.714834 0.132459
Si Si4 0.909913 0.282653 0.961129
Si Si5 0.407070 0.285965 0.537979
Si Si6 0.908190 0.786983 0.368008
O O1 0.250000 0.716063 0.788056
O O2 0.997155 0.719839 0.750106
O O3 0.014081 0.765219 0.831384
O O4 0.104899 0.000000 0.780412
O O5 0.250000 0.276222 0.288582
O O6 0.489587 0.277596 0.331918
O O7 0.407521 0.000000 0.289871
O O8 0.250000 0.776455 0.140729
O O9 0.403417 0.500000 0.131482
O O10 0.451161 0.774896 0.085749
O O11 0.750000 0.233526 0.966862
O O12 0.916460 0.500000 0.961254
O O13 0.000000 0.218644 0.000000
O O14 0.500000 0.217585 0.500000
O O15 0.250000 0.216923 0.535410
O O16 0.401119 0.500000 0.534032
O O17 0.458815 0.248139 0.584847
O O18 0.750000 0.717260 0.364144
O O19 0.899804 0.000000 0.363048
#
# Coordination Sequence:
#
# PCOD9403166 Si02
#       6
#     8   8   8   8   8   8
#     4  10  20  33  50  72  97 127 163 199 236 284
#     4   9  17  30  49  71  93 120 155 193 233 278
#     4   9  18  32  49  71  99 127 157 197 242 285
#     4   8  14  25  42  65  92 121 153 190 233 281
#     4   9  18  32  48  66  91 123 154 183 220 268
#     4   9  17  30  48  69  92 117 148 189 232 270
#
# _framework density 20.742766
#
# number of rings (size 3 to 8) (size 9 to 14) (size 15 to 20)
#    0.000    3.000    0.000    2.000    0.000    5.000 
#    0.000    2.500    0.000    3.500    0.000    0.000 
#    0.000    0.000    0.000    0.000    0.000    0.000 
#
# Total GULP energy -267835.801978 kJ/mol
# GULP energy per Si atom -5579.912541 kJ/mol
# Density = 2.069555 g / cm^3
# Si number density = 20.742766 Si / 1000 Ang^3
#
#
#
# Elastic Constant Matrix: (Units=GPa)
#
#
# Indices 1 2 3 4 5 6 
#
# 1 155.6000 5.6648 147.6574 0.0000 0.0000 0.0000
# 2 5.6648 54.8687 -1.2136 0.0000 0.0000 0.0000
# 3 147.6574 -1.2136 232.3432 0.0000 0.0000 0.0000
# 4 0.0000 0.0000 0.0000 18.7994 0.0000 0.0000
# 5 0.0000 0.0000 0.0000 0.0000 39.3410 0.0000
# 6 0.0000 0.0000 0.0000 0.0000 0.0000 0.2821
#
#
#
# Elastic Compliance Matrix: (Units=1/GPa)
#
#
# Indices 1 2 3 4 5 6 
#
# 1 0.016392 -0.001923 -0.010427 0.000000 0.000000 0.000000
# 2 -0.001923 0.018453 0.001318 0.000000 0.000000 0.000000
# 3 -0.010427 0.001318 0.010937 0.000000 0.000000 0.000000
# 4 0.000000 0.000000 0.000000 0.053193 0.000000 0.000000
# 5 0.000000 0.000000 0.000000 0.000000 0.025419 0.000000
# 6 0.000000 0.000000 0.000000 0.000000 0.000000 3.545465
#
#
# Mechanical properties :
#
#
# Convention : Reuss Voigt Hill
#
# Bulk Modulus (GPa) = 42.16064 83.00323 62.58193
# Shear Modulus (GPa) = 1.35141 31.06472 16.20807
#
# Velocity S-wave (km/s) = 0.80804 3.87410 2.79836
# Velocity P-wave (km/s) = 4.60870 7.75332 6.37786
#
# Compressibility (1/GPa) = 0.02371881
#
# Stress axis : x y z
#
# Youngs Moduli (GPa) = 61.00665 54.19168 91.42873
#
# Poissons Ratio (x) = 0.10421 0.95334
# Poissons Ratio (y) = 0.11731 -0.12054
# Poissons Ratio (z) = 0.63613 -0.07145
#
# Static dielectric constant tensor:
#      x y z
#    x 1.715370 0.000000 0.000000 
#    y 0.000000 1.805610 0.000000 
#    z 0.000000 0.000000 1.719390 
# 
# From -- ./inp_files/35304.got.cif
#   From: 2010.05.17/outbox.cif.g08.bks.cpg/sg51_18_cif.got.tgz:35304.got - 2010.06.03 11:52:47.
