data_PCOD9403304
_publ_section_title
;
Structure prediction by ZEFSAII (Michael W. Deem and Ramdas Pophale) SiO2 
 PCOD9403304
Probable space group: P M M A
;
_chemical_formula_sum "Si O2"
_cell_formula_units_Z 40
_cell_length_a 9.306691
_cell_length_b 10.171910
_cell_length_c 25.122852
_cell_angle_alpha 90.000000
_cell_angle_beta 90.000000
_cell_angle_gamma 90.000000
_cell_volume 2378.300590
_symmetry_space_group_name_H-M "P M M A"
_symmetry_group_IT_number 51
_symmetry_cell_setting 'orthorhombic'
loop_
_space_group_symop_operation_xyz
x,y,z
1/2-x,-y,z
1/2+x,-y,-z
-x,y,-z
-x,-y,-z
1/2+x,y,-z
1/2-x,y,z
x,-y,z
loop_
_atom_site_type_symbol
_atom_site_label
_atom_site_fract_x
_atom_site_fract_y
_atom_site_fract_z
Si Si1 0.914524 0.340133 0.948324
Si Si2 0.074901 0.348113 0.169934
Si Si3 0.921893 0.247862 0.371483
Si Si4 0.077096 0.500000 0.557323
Si Si5 0.080357 0.000000 0.555140
Si Si6 0.076354 0.155120 0.265646
O O1 0.750000 0.295039 0.951756
O O2 0.912863 0.500000 0.949615
O O3 0.973704 0.308418 0.889578
O O4 0.000000 0.294082 0.000000
O O5 0.250000 0.350580 0.167980
O O6 0.030245 0.500000 0.181271
O O7 0.033698 0.242253 0.214353
O O8 0.750000 0.251271 0.360850
O O9 0.959989 0.375303 0.405997
O O10 0.005778 0.223051 0.317016
O O11 0.954275 0.125807 0.409636
O O12 0.250000 0.500000 0.548505
O O13 0.000000 0.500000 0.500000
O O14 0.000000 0.000000 0.500000
O O15 0.250000 0.000000 0.544694
O O16 0.250000 0.159809 0.269903
O O17 0.035668 0.000000 0.262306
#
# Coordination Sequence:
#
# PCOD9403304 Si02
#       6
#     8   8   8   4   4   8
#     4   8  13  23  41  64  91 122 155 194 239 285
#     4   8  15  28  46  69  97 128 160 198 246 290
#     4  10  21  37  53  73 102 133 159 193 246 295
#     4  10  22  38  56  78 104 130 159 196 241 294
#     4  10  20  34  54  74  96 126 159 194 235 282
#     4  10  20  33  51  75  98 126 169 210 240 283
#
# _framework density 16.818732000000001
#
# number of rings (size 3 to 8) (size 9 to 14) (size 15 to 20)
#    0.000    2.800    1.000    1.800    1.400    1.600 
#    0.000    1.000    0.000    1.800    0.000    0.000 
#    0.000    0.000    0.000    0.000    0.000    0.000 
#
# Total GULP energy -222783.019923 kJ/mol
# GULP energy per Si atom -5569.575498 kJ/mol
# Density = 1.678045 g / cm^3
# Si number density = 16.818732 Si / 1000 Ang^3
#
#
#
# Elastic Constant Matrix: (Units=GPa)
#
#
# Indices 1 2 3 4 5 6 
#
# 1 19.2673 30.4909 55.1785 0.0000 0.0000 0.0000
# 2 30.4909 125.0010 89.6481 0.0000 0.0000 0.0000
# 3 55.1785 89.6481 200.4278 0.0000 0.0000 0.0000
# 4 0.0000 0.0000 0.0000 40.0269 0.0000 0.0000
# 5 0.0000 0.0000 0.0000 0.0000 31.9334 0.0000
# 6 0.0000 0.0000 0.0000 0.0000 0.0000 46.2103
#
#
#
# Elastic Compliance Matrix: (Units=1/GPa)
#
#
# Indices 1 2 3 4 5 6 
#
# 1 0.271827 -0.018603 -0.066514 0.000000 0.000000 0.000000
# 2 -0.018603 0.013051 -0.000716 0.000000 0.000000 0.000000
# 3 -0.066514 -0.000716 0.023621 0.000000 0.000000 0.000000
# 4 0.000000 0.000000 0.000000 0.024983 0.000000 0.000000
# 5 0.000000 0.000000 0.000000 0.000000 0.031315 0.000000
# 6 0.000000 0.000000 0.000000 0.000000 0.000000 0.021640
#
#
# Mechanical properties :
#
#
# Convention : Reuss Voigt Hill
#
# Bulk Modulus (GPa) = 7.30819 77.25903 42.28361
# Shear Modulus (GPa) = 8.28205 34.92604 21.60404
#
# Velocity S-wave (km/s) = 2.22148 4.56193 3.58791
# Velocity P-wave (km/s) = 3.30676 8.58978 6.50842
#
# Compressibility (1/GPa) = 0.13683284
#
# Stress axis : x y z
#
# Youngs Moduli (GPa) = 3.67881 76.62073 42.33481
#
# Poissons Ratio (x) = 1.42538 2.81586
# Poissons Ratio (y) = 0.06844 0.03032
# Poissons Ratio (z) = 0.24469 0.05487
#
# Static dielectric constant tensor:
#      x y z
#    x 1.568080 0.000000 0.000000 
#    y 0.000000 1.549370 0.000000 
#    z 0.000000 0.000000 1.561890 
# 
# From -- ./inp_files/32874.got.cif
#   From: 2010.05.17/outbox.cif.g08.bks.cpg/sg51_17_cif.got.tgz:32874.got - 2010.06.03 11:52:47.
