data_PCOD9403655
_publ_section_title
;
Structure prediction by ZEFSAII (Michael W. Deem and Ramdas Pophale) SiO2 
 PCOD9403655
Probable space group: P M M A
;
_chemical_formula_sum "Si O2"
_cell_formula_units_Z 48
_cell_length_a 7.844631
_cell_length_b 14.945202
_cell_length_c 21.400561
_cell_angle_alpha 90.000000
_cell_angle_beta 90.000000
_cell_angle_gamma 90.000000
_cell_volume 2508.993102
_symmetry_space_group_name_H-M "P M M A"
_symmetry_group_IT_number 51
_symmetry_cell_setting 'orthorhombic'
loop_
_space_group_symop_operation_xyz
x,y,z
1/2-x,-y,z
1/2+x,-y,-z
-x,y,-z
-x,-y,-z
1/2+x,y,-z
1/2-x,y,z
x,-y,z
loop_
_atom_site_type_symbol
_atom_site_label
_atom_site_fract_x
_atom_site_fract_y
_atom_site_fract_z
Si Si1 0.455147 0.397696 0.429949
Si Si2 0.040878 0.713805 0.311198
Si Si3 0.546573 0.901094 0.119291
Si Si4 0.541234 0.603196 0.811646
Si Si5 0.546901 0.901240 0.736273
Si Si6 0.548612 0.712813 0.931226
O O1 0.500000 0.368345 0.500000
O O2 0.250000 0.400737 0.425483
O O3 0.518314 0.500000 0.421801
O O4 0.516623 0.333390 0.374818
O O5 0.250000 0.715158 0.311540
O O6 0.989837 0.655437 0.250954
O O7 0.980653 0.815418 0.300842
O O8 0.750000 0.903822 0.122641
O O9 0.479564 0.885856 0.189689
O O10 0.498196 0.816743 0.077764
O O11 0.485394 0.000000 0.098574
O O12 0.750000 0.603705 0.812206
O O13 0.487525 0.500000 0.810959
O O14 0.478440 0.655209 0.873294
O O15 0.750000 0.904553 0.725830
O O16 0.475681 0.000000 0.721530
O O17 0.750000 0.707020 0.926390
O O18 0.500000 0.680839 0.000000
#
# Coordination Sequence:
#
# PCOD9403655 Si02
#       6
#     8   8   8   8   8   8
#     4   9  17  29  47  71 100 132 165 201 241 288
#     4   9  15  27  49  76  99 126 163 202 243 286
#     4  10  20  34  52  74 100 129 161 200 249 302
#     4   9  17  30  50  75  98 123 162 207 246 288
#     4   9  16  28  49  76 101 125 159 203 247 292
#     4  11  22  36  53  73  98 130 165 205 251 298
#
# _framework density 19.131181000000002
#
# number of rings (size 3 to 8) (size 9 to 14) (size 15 to 20)
#    0.000    2.500    1.667    1.500    0.000    3.667 
#    0.000    0.833    0.000    2.000    0.000    0.000 
#    0.000    0.000    0.000    0.000    0.000    0.000 
#
# Total GULP energy -267789.895686 kJ/mol
# GULP energy per Si atom -5578.956160 kJ/mol
# Density = 1.908764 g / cm^3
# Si number density = 19.131181 Si / 1000 Ang^3
#
#
#
# Elastic Constant Matrix: (Units=GPa)
#
#
# Indices 1 2 3 4 5 6 
#
# 1 19.9349 9.2835 2.2591 0.0000 0.0000 0.0000
# 2 9.2835 140.4778 96.2437 0.0000 0.0000 0.0000
# 3 2.2591 96.2437 147.8314 0.0000 0.0000 0.0000
# 4 0.0000 0.0000 0.0000 21.5274 0.0000 0.0000
# 5 0.0000 0.0000 0.0000 0.0000 18.0373 0.0000
# 6 0.0000 0.0000 0.0000 0.0000 0.0000 4.4980
#
#
#
# Elastic Compliance Matrix: (Units=1/GPa)
#
#
# Indices 1 2 3 4 5 6 
#
# 1 0.052312 -0.005252 0.002620 0.000000 0.000000 0.000000
# 2 -0.005252 0.013378 -0.008629 0.000000 0.000000 0.000000
# 3 0.002620 -0.008629 0.012342 0.000000 0.000000 0.000000
# 4 0.000000 0.000000 0.000000 0.046452 0.000000 0.000000
# 5 0.000000 0.000000 0.000000 0.000000 0.055441 0.000000
# 6 0.000000 0.000000 0.000000 0.000000 0.000000 0.222319
#
#
# Mechanical properties :
#
#
# Convention : Reuss Voigt Hill
#
# Bulk Modulus (GPa) = 18.01490 58.20184 38.10837
# Shear Modulus (GPa) = 11.27981 22.17640 16.72811
#
# Velocity S-wave (km/s) = 2.43081 3.40836 2.96022
# Velocity P-wave (km/s) = 4.16118 6.78069 5.62553
#
# Compressibility (1/GPa) = 0.05550960
#
# Stress axis : x y z
#
# Youngs Moduli (GPa) = 19.11603 74.75230 81.02264
#
# Poissons Ratio (x) = 0.39259 -0.21226
# Poissons Ratio (y) = 0.10040 0.69914
# Poissons Ratio (z) = -0.05008 0.64504
#
# Static dielectric constant tensor:
#      x y z
#    x 1.703360 0.000000 0.000000 
#    y 0.000000 1.672760 0.000000 
#    z 0.000000 0.000000 1.637340 
# 
# From -- ./inp_files/27542.got.cif
#   From: 2010.05.17/outbox.cif.g08.bks.cpg/sg51_14_cif.got.tgz:27542.got - 2010.06.03 11:52:47.
