data_PCOD9403082
_publ_section_title
;
Structure prediction by ZEFSAII (Michael W. Deem and Ramdas Pophale) SiO2 
 PCOD9403082
Probable space group: P M M A
;
_chemical_formula_sum "Si O2"
_cell_formula_units_Z 48
_cell_length_a 7.540486
_cell_length_b 9.459659
_cell_length_c 32.860000
_cell_angle_alpha 90.000000
_cell_angle_beta 90.000000
_cell_angle_gamma 90.000000
_cell_volume 2343.917807
_symmetry_space_group_name_H-M "P M M A"
_symmetry_group_IT_number 51
_symmetry_cell_setting 'orthorhombic'
loop_
_space_group_symop_operation_xyz
x,y,z
1/2-x,-y,z
1/2+x,-y,-z
-x,y,-z
-x,-y,-z
1/2+x,y,-z
1/2-x,y,z
x,-y,z
loop_
_atom_site_type_symbol
_atom_site_label
_atom_site_fract_x
_atom_site_fract_y
_atom_site_fract_z
Si Si1 0.962352 0.338776 0.454385
Si Si2 0.032554 0.162255 0.623173
Si Si3 0.957463 0.172495 0.869090
Si Si4 0.462930 0.837554 0.043844
Si Si5 0.538310 0.659501 0.299273
Si Si6 0.463886 0.838379 0.219470
O O1 0.750000 0.346087 0.450312
O O2 0.031192 0.500000 0.451040
O O3 0.026619 0.240318 0.417972
O O4 0.000000 0.286735 0.500000
O O5 0.250000 0.162019 0.623255
O O6 0.971865 0.248356 0.662793
O O7 0.975740 0.000000 0.624714
O O8 0.750000 0.213487 0.868510
O O9 0.030237 0.221853 0.912888
O O10 0.032178 0.211814 0.824904
O O11 0.964019 0.000000 0.869978
O O12 0.250000 0.844368 0.047313
O O13 0.530914 0.000000 0.041521
O O14 0.500000 0.769260 0.000000
O O15 0.750000 0.650219 0.304689
O O16 0.467262 0.500000 0.299124
O O17 0.507680 0.738482 0.256846
O O18 0.250000 0.844444 0.216442
O O19 0.525577 0.000000 0.226778
#
# Coordination Sequence:
#
# PCOD9403082 Si02
#       6
#     8   8   8   8   8   8
#     4   9  17  30  48  69  93 121 152 185 222 265
#     4   9  17  30  49  70  91 119 155 190 224 267
#     4   7  11  21  36  53  76 109 144 175 213 263
#     4   8  12  18  29  46  71 104 139 172 207 251
#     4  10  20  33  49  69  93 121 153 189 230 277
#     4   9  17  30  48  68  90 118 153 191 230 273
#
# _framework density 20.478532999999999
#
# number of rings (size 3 to 8) (size 9 to 14) (size 15 to 20)
#    0.000    3.333    0.000    3.000    0.000    3.667 
#    0.000    1.667    0.000    6.000    0.000    0.000 
#    0.000    0.667    0.000    1.500    0.000    4.333 
#
# Total GULP energy -267388.722771 kJ/mol
# GULP energy per Si atom -5570.598391 kJ/mol
# Density = 2.043192 g / cm^3
# Si number density = 20.478533 Si / 1000 Ang^3
#
#
#
# Elastic Constant Matrix: (Units=GPa)
#
#
# Indices 1 2 3 4 5 6 
#
# 1 49.8396 5.6001 3.5507 0.0000 0.0000 0.0000
# 2 5.6001 96.0033 109.1883 0.0000 0.0000 0.0000
# 3 3.5507 109.1883 263.2636 0.0000 0.0000 0.0000
# 4 0.0000 0.0000 0.0000 -23.8038 0.0000 0.0000
# 5 0.0000 0.0000 0.0000 0.0000 23.0927 0.0000
# 6 0.0000 0.0000 0.0000 0.0000 0.0000 4.0928
#
#
#
# Elastic Compliance Matrix: (Units=1/GPa)
#
#
# Indices 1 2 3 4 5 6 
#
# 1 0.020220 -0.001646 0.000410 0.000000 0.000000 0.000000
# 2 -0.001646 0.019851 -0.008211 0.000000 0.000000 0.000000
# 3 0.000410 -0.008211 0.007198 0.000000 0.000000 0.000000
# 4 0.000000 0.000000 0.000000 -0.042010 0.000000 0.000000
# 5 0.000000 0.000000 0.000000 0.000000 0.043304 0.000000
# 6 0.000000 0.000000 0.000000 0.000000 0.000000 0.244332
#
#
# Mechanical properties :
#
#
# Convention : Reuss Voigt Hill
#
# Bulk Modulus (GPa) = 35.24107 71.75386 53.49747
# Shear Modulus (GPa) = 15.56431 20.06083 17.81257
#
# Velocity S-wave (km/s) = 2.75986 3.13326 2.95247
# Velocity P-wave (km/s) = 5.23468 6.94294 6.14842
#
# Compressibility (1/GPa) = 0.02837598
#
# Stress axis : x y z
#
# Youngs Moduli (GPa) = 49.45582 50.37543 138.91898
#
# Poissons Ratio (x) = 0.08290 -0.05693
# Poissons Ratio (y) = 0.08138 1.14066
# Poissons Ratio (z) = -0.02027 0.41363
#
# Static dielectric constant tensor:
#      x y z
#    x 1.787840 0.000000 0.000000 
#    y 0.000000 1.689900 0.000000 
#    z 0.000000 0.000000 1.771570 
# 
# From -- ./inp_files/36513.got.cif
#   From: 2010.05.17/outbox.cif.g08.bks.cpg/sg51_19_cif.got.tgz:36513.got - 2010.06.03 11:52:47.
