data_PCOD9403765
_publ_section_title
;
Structure prediction by ZEFSAII (Michael W. Deem and Ramdas Pophale) SiO2 
 PCOD9403765
Probable space group: P M M A
;
_chemical_formula_sum "Si O2"
_cell_formula_units_Z 48
_cell_length_a 7.748565
_cell_length_b 19.393875
_cell_length_c 12.704784
_cell_angle_alpha 90.000000
_cell_angle_beta 90.000000
_cell_angle_gamma 90.000000
_cell_volume 1909.207617
_symmetry_space_group_name_H-M "P M M A"
_symmetry_group_IT_number 51
_symmetry_cell_setting 'orthorhombic'
loop_
_space_group_symop_operation_xyz
x,y,z
1/2-x,-y,z
1/2+x,-y,-z
-x,y,-z
-x,-y,-z
1/2+x,y,-z
1/2-x,y,z
x,-y,z
loop_
_atom_site_type_symbol
_atom_site_label
_atom_site_fract_x
_atom_site_fract_y
_atom_site_fract_z
Si Si1 0.455510 0.723549 0.114958
Si Si2 0.953748 0.776458 0.338596
Si Si3 0.060245 0.918073 0.113891
Si Si4 0.048385 0.426300 0.163000
Si Si5 0.456301 0.623790 0.613941
Si Si6 0.448051 0.076520 0.654020
O O1 0.250000 0.720199 0.128561
O O2 0.526450 0.766941 0.212423
O O3 0.528727 0.645272 0.121778
O O4 0.500000 0.749466 0.000000
O O5 0.750000 0.778616 0.362409
O O6 0.023270 0.703470 0.381146
O O7 0.028907 0.849682 0.378056
O O8 0.250000 0.888515 0.137919
O O9 0.947333 0.914735 0.218851
O O10 0.078803 0.000000 0.099764
O O11 0.000000 0.892987 0.000000
O O12 0.250000 0.427319 0.133275
O O13 0.970661 0.500000 0.131737
O O14 0.035286 0.417315 0.288983
O O15 0.500000 0.595096 0.500000
O O16 0.250000 0.624947 0.628929
O O17 0.250000 0.074030 0.617069
O O18 0.525592 0.000000 0.631432
#
# Coordination Sequence:
#
# PCOD9403765 Si02
#       6
#     8   8   8   8   8   8
#     4  10  20  34  53  76 104 141 180 215 252 295
#     4   9  19  35  53  74 100 131 171 216 258 306
#     4   9  16  25  37  55  81 113 149 189 234 286
#     4   9  19  36  56  80 110 140 172 211 252 296
#     4  10  20  35  56  80 105 135 170 208 254 307
#     4   9  17  30  48  68  90 119 157 204 258 308
#
# _framework density 25.14132
#
# number of rings (size 3 to 8) (size 9 to 14) (size 15 to 20)
#    0.000    2.667    0.000    1.500    0.000    5.667 
#    0.000    0.000    0.000    0.500    0.000    0.000 
#    0.000    0.000    0.000    0.000    0.000    0.500 
#
# Total GULP energy -267955.442537 kJ/mol
# GULP energy per Si atom -5582.405053 kJ/mol
# Density = 2.508410 g / cm^3
# Si number density = 25.141320 Si / 1000 Ang^3
#
#
#
# Elastic Constant Matrix: (Units=GPa)
#
#
# Indices 1 2 3 4 5 6 
#
# 1 61.8171 2.6479 -19.1110 0.0000 0.0000 0.0000
# 2 2.6479 203.3549 -5.2365 0.0000 0.0000 0.0000
# 3 -19.1110 -5.2365 99.2218 0.0000 0.0000 0.0000
# 4 0.0000 0.0000 0.0000 -100.8045 0.0000 0.0000
# 5 0.0000 0.0000 0.0000 0.0000 7.5705 0.0000
# 6 0.0000 0.0000 0.0000 0.0000 0.0000 10.3933
#
#
#
# Elastic Compliance Matrix: (Units=1/GPa)
#
#
# Indices 1 2 3 4 5 6 
#
# 1 0.017205 -0.000139 0.003306 0.000000 0.000000 0.000000
# 2 -0.000139 0.004925 0.000233 0.000000 0.000000 0.000000
# 3 0.003306 0.000233 0.010728 0.000000 0.000000 0.000000
# 4 0.000000 0.000000 0.000000 -0.009920 0.000000 0.000000
# 5 0.000000 0.000000 0.000000 0.000000 0.132092 0.000000
# 6 0.000000 0.000000 0.000000 0.000000 0.000000 0.096216
#
#
# Mechanical properties :
#
#
# Convention : Reuss Voigt Hill
#
# Bulk Modulus (GPa) = 25.21467 35.66606 30.44036
# Shear Modulus (GPa) = 19.40512 9.17142 14.28827
#
# Velocity S-wave (km/s) = 2.78122 1.91203 2.38653
# Velocity P-wave (km/s) = 4.51271 4.36938 4.44162
#
# Compressibility (1/GPa) = 0.03965945
#
# Stress axis : x y z
#
# Youngs Moduli (GPa) = 58.12287 203.03230 93.21755
#
# Poissons Ratio (x) = 0.02820 -0.30822
# Poissons Ratio (y) = 0.00807 -0.02174
# Poissons Ratio (z) = -0.19218 -0.04734
#
# Static dielectric constant tensor:
#      x y z
#    x 1.917860 0.000000 0.000000 
#    y 0.000000 2.078960 0.000000 
#    z 0.000000 0.000000 1.972160 
# 
# From -- ./inp_files/21399.got.cif
#   From: 2010.05.17/outbox.cif.g08.bks.cpg/sg51_11_cif.got.tgz:21399.got - 2010.06.03 11:52:47.
