data_PCOD9403209
_publ_section_title
;
Structure prediction by ZEFSAII (Michael W. Deem and Ramdas Pophale) SiO2 
 PCOD9403209
Probable space group: P M M A
;
_chemical_formula_sum "Si O2"
_cell_formula_units_Z 48
_cell_length_a 7.498958
_cell_length_b 9.701300
_cell_length_c 31.810374
_cell_angle_alpha 90.000000
_cell_angle_beta 90.000000
_cell_angle_gamma 90.000000
_cell_volume 2314.193296
_symmetry_space_group_name_H-M "P M M A"
_symmetry_group_IT_number 51
_symmetry_cell_setting 'orthorhombic'
loop_
_space_group_symop_operation_xyz
x,y,z
1/2-x,-y,z
1/2+x,-y,-z
-x,y,-z
-x,-y,-z
1/2+x,y,-z
1/2-x,y,z
x,-y,z
loop_
_atom_site_type_symbol
_atom_site_label
_atom_site_fract_x
_atom_site_fract_y
_atom_site_fract_z
Si Si1 0.964781 0.157393 0.282334
Si Si2 0.036352 0.656789 0.546513
Si Si3 0.467606 0.158548 0.623197
Si Si4 0.036669 0.656615 0.048023
Si Si5 0.461289 0.344081 0.202832
Si Si6 0.468645 0.158553 0.125282
O O1 0.750000 0.152710 0.283137
O O2 0.024181 0.197037 0.329474
O O3 0.015921 0.264664 0.246651
O O4 0.026408 0.000000 0.273367
O O5 0.250000 0.650308 0.550673
O O6 0.966795 0.500000 0.547673
O O7 0.968492 0.745679 0.585476
O O8 0.000000 0.714676 0.500000
O O9 0.250000 0.162540 0.623029
O O10 0.519097 0.000000 0.616196
O O11 0.250000 0.649700 0.052748
O O12 0.967652 0.500000 0.054199
O O13 0.972721 0.763399 0.082946
O O14 0.000000 0.697721 0.000000
O O15 0.250000 0.355681 0.195384
O O16 0.533948 0.500000 0.203303
O O17 0.530301 0.247960 0.165191
O O18 0.250000 0.156549 0.125592
O O19 0.526516 0.000000 0.127375
#
# Coordination Sequence:
#
# PCOD9403209 Si02
#       6
#     8   8   8   8   8   8
#     4   9  18  33  52  73  97 125 158 197 241 287
#     4   9  17  29  45  65  89 118 151 186 225 269
#     4   8  15  29  48  68  90 118 152 188 226 273
#     4   9  17  30  48  69  93 121 153 190 232 278
#     4  10  20  33  50  73  99 127 161 199 238 283
#     4   9  17  30  49  70  92 123 161 196 232 278
#
# _framework density 20.741568000000001
#
# number of rings (size 3 to 8) (size 9 to 14) (size 15 to 20)
#    0.000    3.000    0.000    2.000    0.000    4.667 
#    0.000    3.333    0.000    6.000    0.000    0.000 
#    0.000    0.000    0.000    0.000    0.000    0.000 
#
# Total GULP energy -267843.130029 kJ/mol
# GULP energy per Si atom -5580.065209 kJ/mol
# Density = 2.069436 g / cm^3
# Si number density = 20.741568 Si / 1000 Ang^3
#
#
#
# Elastic Constant Matrix: (Units=GPa)
#
#
# Indices 1 2 3 4 5 6 
#
# 1 54.8619 6.1285 -0.6448 0.0000 0.0000 0.0000
# 2 6.1285 167.5675 151.1935 0.0000 0.0000 0.0000
# 3 -0.6448 151.1935 210.6641 0.0000 0.0000 0.0000
# 4 0.0000 0.0000 0.0000 44.1552 0.0000 0.0000
# 5 0.0000 0.0000 0.0000 0.0000 22.7860 0.0000
# 6 0.0000 0.0000 0.0000 0.0000 0.0000 5.5003
#
#
#
# Elastic Compliance Matrix: (Units=1/GPa)
#
#
# Indices 1 2 3 4 5 6 
#
# 1 0.018476 -0.002062 0.001537 0.000000 0.000000 0.000000
# 2 -0.002062 0.017163 -0.012324 0.000000 0.000000 0.000000
# 3 0.001537 -0.012324 0.013597 0.000000 0.000000 0.000000
# 4 0.000000 0.000000 0.000000 0.022647 0.000000 0.000000
# 5 0.000000 0.000000 0.000000 0.000000 0.043887 0.000000
# 6 0.000000 0.000000 0.000000 0.000000 0.000000 0.181809
#
#
# Mechanical properties :
#
#
# Convention : Reuss Voigt Hill
#
# Bulk Modulus (GPa) = 42.48790 82.93868 62.71329
# Shear Modulus (GPa) = 15.10007 32.91604 24.00806
#
# Velocity S-wave (km/s) = 2.70109 3.98799 3.40587
# Velocity P-wave (km/s) = 5.50061 7.82808 6.76519
#
# Compressibility (1/GPa) = 0.02353611
#
# Stress axis : x y z
#
# Youngs Moduli (GPa) = 54.12431 58.26406 73.54680
#
# Poissons Ratio (x) = 0.12015 -0.11301
# Poissons Ratio (y) = 0.11161 0.90642
# Poissons Ratio (z) = -0.08316 0.71807
#
# Static dielectric constant tensor:
#      x y z
#    x 1.800210 0.000000 0.000000 
#    y 0.000000 1.718450 0.000000 
#    z 0.000000 0.000000 1.716750 
# 
# From -- ./inp_files/36509.got.cif
#   From: 2010.05.17/outbox.cif.g08.bks.cpg/sg51_19_cif.got.tgz:36509.got - 2010.06.03 11:52:47.
