data_PCOD9403472
_publ_section_title
;
Structure prediction by ZEFSAII (Michael W. Deem and Ramdas Pophale) SiO2 
 PCOD9403472
Probable space group: P M M A
;
_chemical_formula_sum "Si O2"
_cell_formula_units_Z 64
_cell_length_a 18.096961
_cell_length_b 8.652576
_cell_length_c 23.381936
_cell_angle_alpha 90.000000
_cell_angle_beta 90.000000
_cell_angle_gamma 90.000000
_cell_volume 3661.268174
_symmetry_space_group_name_H-M "P M M A"
_symmetry_group_IT_number 51
_symmetry_cell_setting 'orthorhombic'
loop_
_space_group_symop_operation_xyz
x,y,z
1/2-x,-y,z
1/2+x,-y,-z
-x,y,-z
-x,-y,-z
1/2+x,y,-z
1/2-x,y,z
x,-y,z
loop_
_atom_site_type_symbol
_atom_site_label
_atom_site_fract_x
_atom_site_fract_y
_atom_site_fract_z
Si Si1 0.489912 0.315222 0.745448
Si Si2 0.830327 0.314226 0.293984
Si Si3 0.665297 0.315644 0.943487
Si Si4 0.960488 0.816160 0.626390
Si Si5 0.927485 0.822568 0.040834
Si Si6 0.035196 0.814500 0.134969
Si Si7 0.874686 0.183300 0.414628
Si Si8 0.667149 0.811504 0.541628
O O1 0.489940 0.500000 0.751181
O O2 0.404473 0.259364 0.738077
O O3 0.530109 0.267850 0.686743
O O4 0.527780 0.241258 0.800483
O O5 0.750000 0.259014 0.272876
O O6 0.831131 0.500000 0.290896
O O7 0.839070 0.265957 0.360207
O O8 0.750000 0.262698 0.936075
O O9 0.663384 0.500000 0.938068
O O10 0.608185 0.245775 0.897395
O O11 0.634013 0.269380 0.005988
O O12 0.893654 0.759529 0.587023
O O13 0.037250 0.797551 0.592120
O O14 0.951498 0.000000 0.637141
O O15 0.962032 0.760296 0.099725
O O16 0.902899 0.000000 0.048146
O O17 0.000000 0.824849 0.000000
O O18 0.035738 0.000000 0.131563
O O19 0.849138 0.238978 0.476678
O O20 0.857953 0.000000 0.410264
O O21 0.750000 0.767383 0.557941
O O22 0.662951 0.000000 0.540451
#
# Coordination Sequence:
#
# PCOD9403472 Si02
#       8
#     8   8   8   8   8   8   8   8
#     4  10  20  34  52  71  94 128 167 206 246 289
#     4   9  18  32  48  68  95 124 154 193 246 304
#     4  10  20  33  52  81 112 138 167 204 244 286
#     4   9  17  30  47  66  91 124 160 198 241 293
#     4   8  16  31  51  75 102 131 162 197 239 286
#     4  10  20  35  55  77 101 133 173 210 244 287
#     4   9  16  27  46  70  92 116 151 195 242 294
#     4   9  16  26  43  68  94 119 152 196 244 293
#
# _framework density 17.480281000000002
#
# number of rings (size 3 to 8) (size 9 to 14) (size 15 to 20)
#    0.000    2.750    0.000    2.625    0.000    6.500 
#    0.000    1.875    0.000    8.625    0.000    0.000 
#    0.000    0.000    0.000    0.000    0.000    0.000 
#
# Total GULP energy -356669.706362 kJ/mol
# GULP energy per Si atom -5572.964162 kJ/mol
# Density = 1.744049 g / cm^3
# Si number density = 17.480281 Si / 1000 Ang^3
#
#
#
# Elastic Constant Matrix: (Units=GPa)
#
#
# Indices 1 2 3 4 5 6 
#
# 1 103.6518 27.9302 45.2832 0.0000 0.0000 0.0000
# 2 27.9302 23.5938 15.6026 0.0000 0.0000 0.0000
# 3 45.2832 15.6026 63.9696 0.0000 0.0000 0.0000
# 4 0.0000 0.0000 0.0000 9.4887 0.0000 0.0000
# 5 0.0000 0.0000 0.0000 0.0000 15.1830 0.0000
# 6 0.0000 0.0000 0.0000 0.0000 0.0000 13.8749
#
#
#
# Elastic Compliance Matrix: (Units=1/GPa)
#
#
# Indices 1 2 3 4 5 6 
#
# 1 0.017486 -0.014921 -0.008739 0.000000 0.000000 0.000000
# 2 -0.014921 0.063267 -0.004869 0.000000 0.000000 0.000000
# 3 -0.008739 -0.004869 0.023006 0.000000 0.000000 0.000000
# 4 0.000000 0.000000 0.000000 0.105389 0.000000 0.000000
# 5 0.000000 0.000000 0.000000 0.000000 0.065863 0.000000
# 6 0.000000 0.000000 0.000000 0.000000 0.000000 0.072073
#
#
# Mechanical properties :
#
#
# Convention : Reuss Voigt Hill
#
# Bulk Modulus (GPa) = 21.41239 40.98302 31.19770
# Shear Modulus (GPa) = 11.91302 14.53594 13.22448
#
# Velocity S-wave (km/s) = 2.61341 2.88681 2.75351
# Velocity P-wave (km/s) = 4.62413 5.88283 5.29105
#
# Compressibility (1/GPa) = 0.04670194
#
# Stress axis : x y z
#
# Youngs Moduli (GPa) = 57.18811 15.80597 43.46676
#
# Poissons Ratio (x) = 0.23584 0.37985
# Poissons Ratio (y) = 0.85330 0.21163
# Poissons Ratio (z) = 0.49976 0.07696
#
# Static dielectric constant tensor:
#      x y z
#    x 1.610910 0.000000 0.000000 
#    y 0.000000 1.598170 0.000000 
#    z 0.000000 0.000000 1.576140 
# 
# From -- ./inp_files/35903.got.cif
#   From: 2010.05.17/outbox.cif.g08.bks.cpg/sg51_18_cif.got.tgz:35903.got - 2010.06.03 11:52:47.
