data_PCOD9403764
_publ_section_title
;
Structure prediction by ZEFSAII (Michael W. Deem and Ramdas Pophale) SiO2 
 PCOD9403764
Probable space group: P M M A
;
_chemical_formula_sum "Si O2"
_cell_formula_units_Z 40
_cell_length_a 9.276272
_cell_length_b 7.707741
_cell_length_c 30.678315
_cell_angle_alpha 90.000000
_cell_angle_beta 90.000000
_cell_angle_gamma 90.000000
_cell_volume 2193.471974
_symmetry_space_group_name_H-M "P M M A"
_symmetry_group_IT_number 51
_symmetry_cell_setting 'orthorhombic'
loop_
_space_group_symop_operation_xyz
x,y,z
1/2-x,-y,z
1/2+x,-y,-z
-x,y,-z
-x,-y,-z
1/2+x,y,-z
1/2-x,y,z
x,-y,z
loop_
_atom_site_type_symbol
_atom_site_label
_atom_site_fract_x
_atom_site_fract_y
_atom_site_fract_z
Si Si1 0.916496 0.789571 0.043453
Si Si2 0.574693 0.000000 0.803462
Si Si3 0.915386 0.711896 0.542554
Si Si4 0.573957 0.699564 0.638804
Si Si5 0.426107 0.000000 0.296123
Si Si6 0.920266 0.302340 0.868439
O O1 0.750000 0.735668 0.041933
O O2 0.993770 0.724889 0.086976
O O3 0.920886 0.000000 0.044504
O O4 0.000000 0.732696 0.000000
O O5 0.523493 0.000000 0.753740
O O6 0.531648 0.832368 0.831533
O O7 0.750000 0.000000 0.801668
O O8 0.750000 0.768553 0.539327
O O9 0.916015 0.500000 0.542551
O O10 0.973065 0.759932 0.590450
O O11 0.000000 0.770991 0.500000
O O12 0.750000 0.699453 0.637330
O O13 0.529351 0.500000 0.646019
O O14 0.529294 0.830629 0.676545
O O15 0.250000 0.000000 0.295434
O O16 0.750000 0.270146 0.877222
O O17 0.935731 0.500000 0.853495
#
# Coordination Sequence:
#
# PCOD9403764 Si02
#       6
#     8   4   8   8   4   8
#     4  10  20  34  55  81 108 140 173 205 244 289
#     4   9  18  32  48  69  98 126 161 207 248 293
#     4   8  13  22  37  58  85 117 150 185 227 275
#     4   8  14  24  38  59  88 118 150 189 232 282
#     4   9  16  26  43  65  89 120 152 191 246 291
#     4  10  20  34  53  76 104 137 168 203 248 293
#
# _framework density 18.23593
#
# number of rings (size 3 to 8) (size 9 to 14) (size 15 to 20)
#    0.000    3.000    1.000    1.800    0.000    2.400 
#    0.000    4.500    0.000    0.000    0.000    2.800 
#    0.000    3.200    0.000    0.000    0.000    0.000 
#
# Total GULP energy -222984.593501 kJ/mol
# GULP energy per Si atom -5574.614838 kJ/mol
# Density = 1.819442 g / cm^3
# Si number density = 18.235930 Si / 1000 Ang^3
#
#
#
# Elastic Constant Matrix: (Units=GPa)
#
#
# Indices 1 2 3 4 5 6 
#
# 1 38.4648 31.9031 49.0114 0.0000 0.0000 0.0000
# 2 31.9031 87.3702 82.4966 0.0000 0.0000 0.0000
# 3 49.0114 82.4966 204.4102 0.0000 0.0000 0.0000
# 4 0.0000 0.0000 0.0000 -6.2768 0.0000 0.0000
# 5 0.0000 0.0000 0.0000 0.0000 20.5669 0.0000
# 6 0.0000 0.0000 0.0000 0.0000 0.0000 8.8296
#
#
#
# Elastic Compliance Matrix: (Units=1/GPa)
#
#
# Indices 1 2 3 4 5 6 
#
# 1 0.041674 -0.009343 -0.006222 0.000000 0.000000 0.000000
# 2 -0.009343 0.020587 -0.006068 0.000000 0.000000 0.000000
# 3 -0.006222 -0.006068 0.008833 0.000000 0.000000 0.000000
# 4 0.000000 0.000000 0.000000 -0.159316 0.000000 0.000000
# 5 0.000000 0.000000 0.000000 0.000000 0.048622 0.000000
# 6 0.000000 0.000000 0.000000 0.000000 0.000000 0.113255
#
#
# Mechanical properties :
#
#
# Convention : Reuss Voigt Hill
#
# Bulk Modulus (GPa) = 35.93419 73.00748 54.47083
# Shear Modulus (GPa) = 39.62049 15.74621 27.68335
#
# Velocity S-wave (km/s) = 4.66624 2.94168 3.90046
# Velocity P-wave (km/s) = 6.98424 7.18748 7.08659
#
# Compressibility (1/GPa) = 0.02782865
#
# Stress axis : x y z
#
# Youngs Moduli (GPa) = 23.99559 48.57445 113.21146
#
# Poissons Ratio (x) = 0.45382 0.70437
# Poissons Ratio (y) = 0.22418 0.68702
# Poissons Ratio (z) = 0.14929 0.29477
#
# Static dielectric constant tensor:
#      x y z
#    x 1.614110 0.000000 0.000000 
#    y 0.000000 1.659150 0.000000 
#    z 0.000000 0.000000 1.608620 
# 
# From -- ./inp_files/36076.got.cif
#   From: 2010.05.17/outbox.cif.g08.bks.cpg/sg51_19_cif.got.tgz:36076.got - 2010.06.03 11:52:47.
