data_PCOD9403799
_publ_section_title
;
Structure prediction by ZEFSAII (Michael W. Deem and Ramdas Pophale) SiO2 
 PCOD9403799
Probable space group: P M M A
;
_chemical_formula_sum "Si O2"
_cell_formula_units_Z 64
_cell_length_a 8.582428
_cell_length_b 20.110716
_cell_length_c 20.389566
_cell_angle_alpha 90.000000
_cell_angle_beta 90.000000
_cell_angle_gamma 90.000000
_cell_volume 3519.214055
_symmetry_space_group_name_H-M "P M M A"
_symmetry_group_IT_number 51
_symmetry_cell_setting 'orthorhombic'
loop_
_space_group_symop_operation_xyz
x,y,z
1/2-x,-y,z
1/2+x,-y,-z
-x,y,-z
-x,-y,-z
1/2+x,y,-z
1/2-x,y,z
x,-y,z
loop_
_atom_site_type_symbol
_atom_site_label
_atom_site_fract_x
_atom_site_fract_y
_atom_site_fract_z
Si Si1 0.061067 0.295471 0.704161
Si Si2 0.569130 0.248406 0.063840
Si Si3 0.066499 0.395380 0.070494
Si Si4 0.062409 0.573697 0.784845
Si Si5 0.573148 0.804779 0.810904
Si Si6 0.066323 0.926702 0.596379
Si Si7 0.075315 0.075571 0.753847
Si Si8 0.561455 0.223117 0.430595
O O1 0.250000 0.292082 0.707582
O O2 0.014120 0.367329 0.734813
O O3 0.016791 0.270177 0.631049
O O4 0.986299 0.242581 0.753258
O O5 0.750000 0.264644 0.055772
O O6 0.474669 0.317076 0.071127
O O7 0.538160 0.206552 0.127893
O O8 0.500000 0.213580 0.000000
O O9 0.250000 0.406940 0.070289
O O10 0.998593 0.419637 0.140225
O O11 0.000000 0.420383 0.000000
O O12 0.250000 0.577539 0.789119
O O13 0.018365 0.500000 0.760816
O O14 0.750000 0.788592 0.828737
O O15 0.553496 0.878959 0.785491
O O16 0.250000 0.927701 0.577953
O O17 0.059536 0.924756 0.675297
O O18 0.002986 0.854188 0.575581
O O19 0.000311 0.000000 0.576405
O O20 0.250000 0.102271 0.767668
O O21 0.067625 0.000000 0.776520
O O22 0.500000 0.248978 0.500000
O O23 0.750000 0.220351 0.430490
#
# Coordination Sequence:
#
# PCOD9403799 Si02
#       8
#     8   8   8   8   8   8   8   8
#     4  10  20  37  58  78 105 141 182 227 273 329
#     4  11  21  35  54  78 110 145 185 229 273 324
#     4  11  21  34  53  80 114 151 185 220 268 321
#     4  10  21  37  58  82 107 141 185 232 280 328
#     4  12  22  32  53  83 112 143 180 228 279 324
#     4   8  14  27  48  73 103 140 179 215 257 316
#     4   9  17  32  54  77 104 143 187 227 271 322
#     4  10  20  34  53  77 106 142 181 222 275 325
#
# _framework density 18.185877999999999
#
# number of rings (size 3 to 8) (size 9 to 14) (size 15 to 20)
#    0.000    1.875    2.500    4.875    0.000    1.500 
#    0.000    0.000    0.000    0.750    0.000    0.000 
#    0.000    0.000    0.000    0.000    0.000    0.000 
#
# Total GULP energy -356720.496705 kJ/mol
# GULP energy per Si atom -5573.757761 kJ/mol
# Density = 1.814449 g / cm^3
# Si number density = 18.185878 Si / 1000 Ang^3
#
#
#
# Elastic Constant Matrix: (Units=GPa)
#
#
# Indices 1 2 3 4 5 6 
#
# 1 29.1950 20.0467 23.0973 0.0000 0.0000 0.0000
# 2 20.0467 93.8826 56.0748 0.0000 0.0000 0.0000
# 3 23.0973 56.0748 113.1007 0.0000 0.0000 0.0000
# 4 0.0000 0.0000 0.0000 11.2770 0.0000 0.0000
# 5 0.0000 0.0000 0.0000 0.0000 24.0741 0.0000
# 6 0.0000 0.0000 0.0000 0.0000 0.0000 22.3690
#
#
#
# Elastic Compliance Matrix: (Units=1/GPa)
#
#
# Indices 1 2 3 4 5 6 
#
# 1 0.042808 -0.005568 -0.005982 0.000000 0.000000 0.000000
# 2 -0.005568 0.015857 -0.006725 0.000000 0.000000 0.000000
# 3 -0.005982 -0.006725 0.013397 0.000000 0.000000 0.000000
# 4 0.000000 0.000000 0.000000 0.088676 0.000000 0.000000
# 5 0.000000 0.000000 0.000000 0.000000 0.041538 0.000000
# 6 0.000000 0.000000 0.000000 0.000000 0.000000 0.044705
#
#
# Mechanical properties :
#
#
# Convention : Reuss Voigt Hill
#
# Bulk Modulus (GPa) = 28.15823 48.29066 38.22444
# Shear Modulus (GPa) = 16.92799 20.67464 18.80131
#
# Velocity S-wave (km/s) = 3.05426 3.37538 3.21883
# Velocity P-wave (km/s) = 5.28727 6.46549 5.90583
#
# Compressibility (1/GPa) = 0.03551359
#
# Stress axis : x y z
#
# Youngs Moduli (GPa) = 23.36016 63.06287 74.64156
#
# Poissons Ratio (x) = 0.35114 0.44647
# Poissons Ratio (y) = 0.13007 0.50195
# Poissons Ratio (z) = 0.13973 0.42409
#
# Static dielectric constant tensor:
#      x y z
#    x 1.639270 0.000000 0.000000 
#    y 0.000000 1.651610 0.000000 
#    z 0.000000 0.000000 1.644000 
# 
# From -- ./inp_files/28431.got.cif
#   From: 2010.05.17/outbox.cif.g08.bks.cpg/sg51_15_cif.got.tgz:28431.got - 2010.06.03 11:52:47.
