data_PCOD9403949
_publ_section_title
;
Structure prediction by ZEFSAII (Michael W. Deem and Ramdas Pophale) SiO2 
 PCOD9403949
Probable space group: P M M A
;
_chemical_formula_sum "Si O2"
_cell_formula_units_Z 48
_cell_length_a 9.137425
_cell_length_b 9.322233
_cell_length_c 32.035397
_cell_angle_alpha 90.000000
_cell_angle_beta 90.000000
_cell_angle_gamma 90.000000
_cell_volume 2728.813715
_symmetry_space_group_name_H-M "P M M A"
_symmetry_group_IT_number 51
_symmetry_cell_setting 'orthorhombic'
loop_
_space_group_symop_operation_xyz
x,y,z
1/2-x,-y,z
1/2+x,-y,-z
-x,y,-z
-x,-y,-z
1/2+x,y,-z
1/2-x,y,z
x,-y,z
loop_
_atom_site_type_symbol
_atom_site_label
_atom_site_fract_x
_atom_site_fract_y
_atom_site_fract_z
Si Si1 0.074500 0.169190 0.543060
Si Si2 0.418392 0.825398 0.205410
Si Si3 0.928409 0.665059 0.373958
Si Si4 0.922593 0.671766 0.956495
Si Si5 0.424729 0.170665 0.709538
Si Si6 0.577788 0.827330 0.120236
O O1 0.250000 0.184417 0.539272
O O2 0.024474 0.255745 0.583747
O O3 0.000000 0.216398 0.500000
O O4 0.042906 0.000000 0.548989
O O5 0.250000 0.779143 0.203054
O O6 0.493773 0.780269 0.248592
O O7 0.506944 0.781380 0.164265
O O8 0.420447 0.000000 0.205772
O O9 0.750000 0.668674 0.374108
O O10 0.974494 0.500000 0.373459
O O11 0.973844 0.747179 0.332002
O O12 0.750000 0.703551 0.958499
O O13 0.940009 0.500000 0.951235
O O14 0.996581 0.752380 0.918015
O O15 0.000000 0.711942 0.000000
O O16 0.250000 0.191331 0.714865
O O17 0.448872 0.000000 0.704027
O O18 0.750000 0.794264 0.119629
O O19 0.561520 0.000000 0.116886
#
# Coordination Sequence:
#
# PCOD9403949 Si02
#       6
#     8   8   8   8   8   8
#     4   9  17  30  48  69  92 119 153 192 232 276
#     4   9  17  30  49  73 100 129 161 200 246 293
#     4   9  17  29  46  68  93 121 154 192 234 280
#     4  10  21  37  56  77 103 137 175 213 255 304
#     4   9  16  28  48  70  90 117 156 197 234 278
#     4  10  20  34  54  80 107 135 170 212 256 302
#
# _framework density 17.590060999999999
#
# number of rings (size 3 to 8) (size 9 to 14) (size 15 to 20)
#    0.000    2.667    0.000    2.000    0.000    6.667 
#    0.000    1.667    0.000    8.500    0.000    0.000 
#    0.000    0.000    0.000    0.000    0.000    0.000 
#
# Total GULP energy -267722.107375 kJ/mol
# GULP energy per Si atom -5577.543904 kJ/mol
# Density = 1.755002 g / cm^3
# Si number density = 17.590061 Si / 1000 Ang^3
#
#
#
# Elastic Constant Matrix: (Units=GPa)
#
#
# Indices 1 2 3 4 5 6 
#
# 1 84.6904 47.2115 92.7438 0.0000 0.0000 0.0000
# 2 47.2115 42.8789 75.5231 0.0000 0.0000 0.0000
# 3 92.7438 75.5231 227.0076 0.0000 0.0000 0.0000
# 4 0.0000 0.0000 0.0000 -14.4635 0.0000 0.0000
# 5 0.0000 0.0000 0.0000 0.0000 34.8207 0.0000
# 6 0.0000 0.0000 0.0000 0.0000 0.0000 16.1712
#
#
#
# Elastic Compliance Matrix: (Units=1/GPa)
#
#
# Indices 1 2 3 4 5 6 
#
# 1 0.031516 -0.029037 -0.003216 0.000000 0.000000 0.000000
# 2 -0.029037 0.083080 -0.015777 0.000000 0.000000 0.000000
# 3 -0.003216 -0.015777 0.010968 0.000000 0.000000 0.000000
# 4 0.000000 0.000000 0.000000 -0.069139 0.000000 0.000000
# 5 0.000000 0.000000 0.000000 0.000000 0.028719 0.000000
# 6 0.000000 0.000000 0.000000 0.000000 0.000000 0.061838
#
#
# Mechanical properties :
#
#
# Convention : Reuss Voigt Hill
#
# Bulk Modulus (GPa) = 33.89217 87.28152 60.58684
# Shear Modulus (GPa) = 19.77261 16.57890 18.17575
#
# Velocity S-wave (km/s) = 3.35637 3.07337 3.21798
# Velocity P-wave (km/s) = 5.85917 7.89441 6.95167
#
# Compressibility (1/GPa) = 0.02950534
#
# Stress axis : x y z
#
# Youngs Moduli (GPa) = 31.73010 12.03656 91.17647
#
# Poissons Ratio (x) = 0.34950 0.29319
# Poissons Ratio (y) = 0.92133 1.43850
# Poissons Ratio (z) = 0.10203 0.18990
#
# Static dielectric constant tensor:
#      x y z
#    x 1.589410 0.000000 0.000000 
#    y 0.000000 1.587110 0.000000 
#    z 0.000000 0.000000 1.574390 
# 
# From -- ./inp_files/36978.got.cif
#   From: 2010.05.17/outbox.cif.g08.bks.cpg/sg51_19_cif.got.tgz:36978.got - 2010.06.03 11:52:47.
