data_PCOD9403587
_publ_section_title
;
Structure prediction by ZEFSAII (Michael W. Deem and Ramdas Pophale) SiO2 
 PCOD9403587
Probable space group: P M M A
;
_chemical_formula_sum "Si O2"
_cell_formula_units_Z 56
_cell_length_a 18.871735
_cell_length_b 9.086776
_cell_length_c 19.831784
_cell_angle_alpha 90.000000
_cell_angle_beta 90.000000
_cell_angle_gamma 90.000000
_cell_volume 3400.818351
_symmetry_space_group_name_H-M "P M M A"
_symmetry_group_IT_number 51
_symmetry_cell_setting 'orthorhombic'
loop_
_space_group_symop_operation_xyz
x,y,z
1/2-x,-y,z
1/2+x,-y,-z
-x,y,-z
-x,-y,-z
1/2+x,y,-z
1/2-x,y,z
x,-y,z
loop_
_atom_site_type_symbol
_atom_site_label
_atom_site_fract_x
_atom_site_fract_y
_atom_site_fract_z
Si Si1 0.534712 0.676825 0.070979
Si Si2 0.833745 0.167433 0.867271
Si Si3 0.166451 0.822519 0.447090
Si Si4 0.433693 0.668607 0.551771
Si Si5 0.331395 0.824703 0.975175
Si Si6 0.463843 0.176051 0.347439
Si Si7 0.449172 0.674245 0.204204
O O1 0.533308 0.500000 0.069714
O O2 0.613869 0.736815 0.069478
O O3 0.494957 0.723594 0.138980
O O4 0.500000 0.728630 0.000000
O O5 0.750000 0.164830 0.857247
O O6 0.870530 0.282003 0.818740
O O7 0.860462 0.000000 0.855778
O O8 0.845584 0.206678 0.945673
O O9 0.250000 0.783211 0.436491
O O10 0.131440 0.745506 0.512723
O O11 0.110418 0.785195 0.386657
O O12 0.163651 0.000000 0.455000
O O13 0.500000 0.663914 0.500000
O O14 0.416447 0.500000 0.570326
O O15 0.468412 0.759911 0.612550
O O16 0.250000 0.787198 0.961436
O O17 0.339962 0.000000 0.966727
O O18 0.464872 0.242755 0.273059
O O19 0.467376 0.000000 0.346122
O O20 0.457656 0.500000 0.213110
#
# Coordination Sequence:
#
# PCOD9403587 Si02
#       7
#     8   8   8   8   8   8   8
#     4  10  20  34  50  72 100 132 172 218 265 316
#     4   9  18  32  48  68  96 129 165 204 251 310
#     4   9  18  33  54  80 108 138 171 206 245 295
#     4   9  17  31  52  77 104 134 169 208 247 290
#     4   9  18  32  51  74  96 121 160 211 262 311
#     4  10  20  34  52  74 104 142 179 211 253 306
#     4  11  22  34  49  72 103 136 174 218 263 311
#
# _framework density 16.466625000000001
#
# number of rings (size 3 to 8) (size 9 to 14) (size 15 to 20)
#    0.000    2.429    1.429    2.143    0.000    5.143 
#    0.000    2.857    0.000    0.857    0.000    4.000 
#    0.000    0.000    0.000    0.000    0.000    0.000 
#
# Total GULP energy -311953.041211 kJ/mol
# GULP energy per Si atom -5570.590022 kJ/mol
# Density = 1.642915 g / cm^3
# Si number density = 16.466625 Si / 1000 Ang^3
#
#
#
# Elastic Constant Matrix: (Units=GPa)
#
#
# Indices 1 2 3 4 5 6 
#
# 1 68.7500 30.7184 61.3879 0.0000 0.0000 0.0000
# 2 30.7184 40.3600 50.3674 0.0000 0.0000 0.0000
# 3 61.3879 50.3674 112.2472 0.0000 0.0000 0.0000
# 4 0.0000 0.0000 0.0000 26.3744 0.0000 0.0000
# 5 0.0000 0.0000 0.0000 0.0000 12.4401 0.0000
# 6 0.0000 0.0000 0.0000 0.0000 0.0000 27.4019
#
#
#
# Elastic Compliance Matrix: (Units=1/GPa)
#
#
# Indices 1 2 3 4 5 6 
#
# 1 0.028893 -0.005161 -0.013486 0.000000 0.000000 0.000000
# 2 -0.005161 0.057231 -0.022858 0.000000 0.000000 0.000000
# 3 -0.013486 -0.022858 0.026541 0.000000 0.000000 0.000000
# 4 0.000000 0.000000 0.000000 0.037916 0.000000 0.000000
# 5 0.000000 0.000000 0.000000 0.000000 0.080385 0.000000
# 6 0.000000 0.000000 0.000000 0.000000 0.000000 0.036494
#
#
# Mechanical properties :
#
#
# Convention : Reuss Voigt Hill
#
# Bulk Modulus (GPa) = 33.72084 56.25607 44.98845
# Shear Modulus (GPa) = 13.87525 18.50218 16.18871
#
# Velocity S-wave (km/s) = 2.90596 3.35568 3.13888
# Velocity P-wave (km/s) = 5.63757 7.01797 6.36530
#
# Compressibility (1/GPa) = 0.02965525
#
# Stress axis : x y z
#
# Youngs Moduli (GPa) = 34.61032 17.47312 37.67775
#
# Poissons Ratio (x) = 0.09019 0.50811
# Poissons Ratio (y) = 0.17864 0.86123
# Poissons Ratio (z) = 0.46674 0.39940
#
# Static dielectric constant tensor:
#      x y z
#    x 1.561430 0.000000 0.000000 
#    y 0.000000 1.560610 0.000000 
#    z 0.000000 0.000000 1.550080 
# 
# From -- ./inp_files/33710.got.cif
#   From: 2010.05.17/outbox.cif.g08.bks.cpg/sg51_17_cif.got.tgz:33710.got - 2010.06.03 11:52:47.
