data_PCOD9403606
_publ_section_title
;
Structure prediction by ZEFSAII (Michael W. Deem and Ramdas Pophale) SiO2 
 PCOD9403606
Probable space group: P M M A
;
_chemical_formula_sum "Si O2"
_cell_formula_units_Z 40
_cell_length_a 25.717462
_cell_length_b 8.388996
_cell_length_c 10.543552
_cell_angle_alpha 90.000000
_cell_angle_beta 90.000000
_cell_angle_gamma 90.000000
_cell_volume 2274.704770
_symmetry_space_group_name_H-M "P M M A"
_symmetry_group_IT_number 51
_symmetry_cell_setting 'orthorhombic'
loop_
_space_group_symop_operation_xyz
x,y,z
1/2-x,-y,z
1/2+x,-y,-z
-x,y,-z
-x,-y,-z
1/2+x,y,-z
1/2-x,y,z
x,-y,z
loop_
_atom_site_type_symbol
_atom_site_label
_atom_site_fract_x
_atom_site_fract_y
_atom_site_fract_z
Si Si1 0.862650 0.188768 0.272580
Si Si2 0.250000 0.684764 0.025474
Si Si3 0.468914 0.694315 0.125474
Si Si4 0.138025 0.306449 0.016461
Si Si5 0.250000 0.683106 0.717314
Si Si6 0.530778 0.693054 0.374295
O O1 0.870519 0.259338 0.130406
O O2 0.805026 0.239211 0.319058
O O3 0.910199 0.248355 0.358772
O O4 0.864343 0.000000 0.262634
O O5 0.250000 0.500000 0.067586
O O6 0.305664 0.756079 0.060839
O O7 0.250000 0.685455 0.871649
O O8 0.469133 0.500000 0.128198
O O9 0.498141 0.748135 0.251330
O O10 0.500000 0.743470 0.000000
O O11 0.409639 0.745572 0.103750
O O12 0.139897 0.500000 0.017330
O O13 0.250000 0.500000 0.676353
O O14 0.500000 0.743754 0.500000
O O15 0.532215 0.500000 0.373309
#
# Coordination Sequence:
#
# PCOD9403606 Si02
#       6
#     8   4   8   8   4   8
#     4  11  20  30  47  74 105 130 161 205 255 302
#     4   7  12  21  39  66  89 114 146 192 242 288
#     4   9  15  26  48  71  92 123 168 215 249 286
#     4   9  15  27  46  67  94 126 164 203 250 299
#     4   9  17  31  51  72  97 130 168 204 244 292
#     4  10  20  34  51  70  96 135 177 213 251 298
#
# _framework density 17.584700000000002
#
# number of rings (size 3 to 8) (size 9 to 14) (size 15 to 20)
#    0.000    2.600    2.000    3.300    0.000    0.400 
#    0.000    2.000    0.000    1.200    0.000    5.600 
#    0.000    3.200    0.000    0.000    0.000    0.000 
#
# Total GULP energy -222815.216144 kJ/mol
# GULP energy per Si atom -5570.380404 kJ/mol
# Density = 1.754468 g / cm^3
# Si number density = 17.584700 Si / 1000 Ang^3
#
#
#
# Elastic Constant Matrix: (Units=GPa)
#
#
# Indices 1 2 3 4 5 6 
#
# 1 197.7985 24.8688 63.5767 0.0000 0.0000 0.0000
# 2 24.8688 26.1877 11.5411 0.0000 0.0000 0.0000
# 3 63.5767 11.5411 77.0200 0.0000 0.0000 0.0000
# 4 0.0000 0.0000 0.0000 1.1726 0.0000 0.0000
# 5 0.0000 0.0000 0.0000 0.0000 21.4321 0.0000
# 6 0.0000 0.0000 0.0000 0.0000 0.0000 7.4091
#
#
#
# Elastic Compliance Matrix: (Units=1/GPa)
#
#
# Indices 1 2 3 4 5 6 
#
# 1 0.007369 -0.004623 -0.005390 0.000000 0.000000 0.000000
# 2 -0.004623 0.043786 -0.002745 0.000000 0.000000 0.000000
# 3 -0.005390 -0.002745 0.017845 0.000000 0.000000 0.000000
# 4 0.000000 0.000000 0.000000 0.852793 0.000000 0.000000
# 5 0.000000 0.000000 0.000000 0.000000 0.046659 0.000000
# 6 0.000000 0.000000 0.000000 0.000000 0.000000 0.134970
#
#
# Mechanical properties :
#
#
# Convention : Reuss Voigt Hill
#
# Bulk Modulus (GPa) = 22.99755 55.66437 39.33096
# Shear Modulus (GPa) = 4.37280 19.40408 11.88844
#
# Velocity S-wave (km/s) = 1.57864 3.32545 2.60295
# Velocity P-wave (km/s) = 4.05331 6.81678 5.60793
#
# Compressibility (1/GPa) = 0.04348289
#
# Stress axis : x y z
#
# Youngs Moduli (GPa) = 135.69497 22.83853 56.03928
#
# Poissons Ratio (x) = 0.10558 0.30208
# Poissons Ratio (y) = 0.62728 0.15384
# Poissons Ratio (z) = 0.73146 0.06270
#
# Static dielectric constant tensor:
#      x y z
#    x 1.653620 0.000000 0.000000 
#    y 0.000000 1.592930 0.000000 
#    z 0.000000 0.000000 1.566330 
# 
# From -- ./inp_files/12212.got.cif
#   From: 2010.05.17/outbox.cif.g08.bks.cpg/sg51_7_cif.got.tgz:12212.got - 2010.06.03 11:52:47.
