data_PCOD9403480
_publ_section_title
;
Structure prediction by ZEFSAII (Michael W. Deem and Ramdas Pophale) SiO2 
 PCOD9403480
Probable space group: P M M A
;
_chemical_formula_sum "Si O2"
_cell_formula_units_Z 56
_cell_length_a 20.269247
_cell_length_b 8.651444
_cell_length_c 16.112723
_cell_angle_alpha 90.000000
_cell_angle_beta 90.000000
_cell_angle_gamma 90.000000
_cell_volume 2825.498994
_symmetry_space_group_name_H-M "P M M A"
_symmetry_group_IT_number 51
_symmetry_cell_setting 'orthorhombic'
loop_
_space_group_symop_operation_xyz
x,y,z
1/2-x,-y,z
1/2+x,-y,-z
-x,y,-z
-x,-y,-z
1/2+x,y,-z
1/2-x,y,z
x,-y,z
loop_
_atom_site_type_symbol
_atom_site_label
_atom_site_fract_x
_atom_site_fract_y
_atom_site_fract_z
Si Si1 0.955492 0.184424 0.422109
Si Si2 0.825142 0.687829 0.688263
Si Si3 0.083939 0.313282 0.159495
Si Si4 0.544450 0.684363 0.245827
Si Si5 0.823560 0.186194 0.174322
Si Si6 0.175884 0.813915 0.019134
Si Si7 0.673466 0.686545 0.498137
O O1 0.978028 0.258330 0.335990
O O2 0.880569 0.235802 0.440360
O O3 0.000000 0.236238 0.500000
O O4 0.959361 0.000000 0.415936
O O5 0.750000 0.736024 0.706690
O O6 0.826111 0.500000 0.687913
O O7 0.873993 0.739564 0.760131
O O8 0.840717 0.734490 0.593844
O O9 0.085683 0.500000 0.157098
O O10 0.119762 0.251906 0.078090
O O11 0.008804 0.264505 0.176762
O O12 0.545783 0.500000 0.246477
O O13 0.616690 0.747029 0.226302
O O14 0.750000 0.236386 0.200674
O O15 0.825392 0.000000 0.178572
O O16 0.832129 0.230087 0.077357
O O17 0.250000 0.763477 0.045655
O O18 0.174454 0.000000 0.022902
O O19 0.750000 0.725302 0.480211
O O20 0.667476 0.500000 0.492917
#
# Coordination Sequence:
#
# PCOD9403480 Si02
#       7
#     8   8   8   8   8   8   8
#     4  11  24  40  58  81 111 148 188 229 277 334
#     4   8  14  27  49  76 106 141 179 218 264 319
#     4  10  20  33  52  81 115 148 183 225 273 326
#     4  11  24  39  58  85 113 144 184 230 280 332
#     4   9  20  41  64  83 109 147 189 232 278 329
#     4   9  19  36  58  84 113 148 188 226 269 323
#     4   9  18  34  57  82 107 140 184 232 281 333
#
# _framework density 19.819507999999999
#
# number of rings (size 3 to 8) (size 9 to 14) (size 15 to 20)
#    0.000    2.429    0.000    3.857    0.000    6.571 
#    0.000    5.000    0.000    0.857    0.000    0.000 
#    0.000    0.000    0.000    0.000    0.000    0.000 
#
# Total GULP energy -312655.234780 kJ/mol
# GULP energy per Si atom -5583.129192 kJ/mol
# Density = 1.977440 g / cm^3
# Si number density = 19.819508 Si / 1000 Ang^3
#
#
#
# Elastic Constant Matrix: (Units=GPa)
#
#
# Indices 1 2 3 4 5 6 
#
# 1 95.8964 23.5918 43.6188 0.0000 0.0000 0.0000
# 2 23.5918 14.3796 17.7707 0.0000 0.0000 0.0000
# 3 43.6188 17.7707 58.8113 0.0000 0.0000 0.0000
# 4 0.0000 0.0000 0.0000 30.0654 0.0000 0.0000
# 5 0.0000 0.0000 0.0000 0.0000 36.8831 0.0000
# 6 0.0000 0.0000 0.0000 0.0000 0.0000 21.1447
#
#
#
# Elastic Compliance Matrix: (Units=1/GPa)
#
#
# Indices 1 2 3 4 5 6 
#
# 1 0.019412 -0.022432 -0.007619 0.000000 0.000000 0.000000
# 2 -0.022432 0.136911 -0.024732 0.000000 0.000000 0.000000
# 3 -0.007619 -0.024732 0.030128 0.000000 0.000000 0.000000
# 4 0.000000 0.000000 0.000000 0.033261 0.000000 0.000000
# 5 0.000000 0.000000 0.000000 0.000000 0.027113 0.000000
# 6 0.000000 0.000000 0.000000 0.000000 0.000000 0.047293
#
#
# Mechanical properties :
#
#
# Convention : Reuss Voigt Hill
#
# Bulk Modulus (GPa) = 13.00673 37.67220 25.33947
# Shear Modulus (GPa) = 11.64649 23.22569 17.43609
#
# Velocity S-wave (km/s) = 2.42673 3.42696 2.96927
# Velocity P-wave (km/s) = 3.79854 5.89132 4.95664
#
# Compressibility (1/GPa) = 0.07688329
#
# Stress axis : x y z
#
# Youngs Moduli (GPa) = 51.51391 7.30400 33.19195
#
# Poissons Ratio (x) = 0.16385 0.25290
# Poissons Ratio (y) = 1.15558 0.82091
# Poissons Ratio (z) = 0.39250 0.18065
#
# Static dielectric constant tensor:
#      x y z
#    x 1.702800 0.000000 0.000000 
#    y 0.000000 1.670390 0.000000 
#    z 0.000000 0.000000 1.689900 
# 
# From -- ./inp_files/25767.got.cif
#   From: 2010.05.17/outbox.cif.g08.bks.cpg/sg51_13_cif.got.tgz:25767.got - 2010.06.03 11:52:47.
