data_PCOD9403826
_publ_section_title
;
Structure prediction by ZEFSAII (Michael W. Deem and Ramdas Pophale) SiO2 
 PCOD9403826
Probable space group: P M M A
;
_chemical_formula_sum "Si O2"
_cell_formula_units_Z 64
_cell_length_a 9.420143
_cell_length_b 15.352692
_cell_length_c 24.165473
_cell_angle_alpha 90.000000
_cell_angle_beta 90.000000
_cell_angle_gamma 90.000000
_cell_volume 3494.920757
_symmetry_space_group_name_H-M "P M M A"
_symmetry_group_IT_number 51
_symmetry_cell_setting 'orthorhombic'
loop_
_space_group_symop_operation_xyz
x,y,z
1/2-x,-y,z
1/2+x,-y,-z
-x,y,-z
-x,-y,-z
1/2+x,y,-z
1/2-x,y,z
x,-y,z
loop_
_atom_site_type_symbol
_atom_site_label
_atom_site_fract_x
_atom_site_fract_y
_atom_site_fract_z
Si Si1 0.413912 0.104717 0.054407
Si Si2 0.594873 0.653851 0.152143
Si Si3 0.413437 0.403245 0.726887
Si Si4 0.920767 0.399553 0.558222
Si Si5 0.580231 0.099028 0.719504
Si Si6 0.414293 0.142080 0.832284
Si Si7 0.920013 0.270973 0.656204
Si Si8 0.409190 0.394704 0.051446
O O1 0.250000 0.136816 0.056453
O O2 0.499622 0.122067 0.111293
O O3 0.406205 0.000000 0.049304
O O4 0.500000 0.136885 0.000000
O O5 0.750000 0.634895 0.126709
O O6 0.579076 0.597799 0.207010
O O7 0.592256 0.753519 0.171072
O O8 0.475504 0.636871 0.108057
O O9 0.250000 0.381430 0.711939
O O10 0.445458 0.500000 0.706296
O O11 0.520100 0.332809 0.703906
O O12 0.750000 0.393733 0.551073
O O13 0.949843 0.500000 0.577540
O O14 0.966102 0.322798 0.600571
O O15 0.000000 0.389068 0.500000
O O16 0.750000 0.109820 0.730560
O O17 0.495073 0.110070 0.777182
O O18 0.537829 0.172892 0.674476
O O19 0.558342 0.000000 0.699516
O O20 0.250000 0.110415 0.835127
O O21 0.750000 0.271885 0.654995
O O22 0.250000 0.364631 0.045235
O O23 0.411925 0.500000 0.051679
O O24 0.500000 0.363317 0.000000
#
# Coordination Sequence:
#
# PCOD9403826 Si02
#       8
#     8   8   8   8   8   8   8   8
#     4  10  21  37  56  77 101 130 168 217 276 342
#     4  10  21  36  52  72 102 136 171 214 265 323
#     4  10  20  34  53  78 110 146 180 219 271 327
#     4   9  18  33  54  83 118 155 193 231 274 323
#     4  10  21  37  57  81 110 147 189 233 284 337
#     4  11  22  36  55  78 105 138 178 224 277 336
#     4  10  20  35  56  82 114 149 189 235 276 320
#     4  10  21  36  54  74  95 126 171 219 268 324
#
# _framework density 18.312287999999999
#
# number of rings (size 3 to 8) (size 9 to 14) (size 15 to 20)
#    0.000    2.000    1.250    2.250    0.000    7.000 
#    0.000    1.250    0.000    0.375    0.000    0.000 
#    0.000    0.000    0.000    0.000    0.000    0.000 
#
# Total GULP energy -356933.498010 kJ/mol
# GULP energy per Si atom -5577.085906 kJ/mol
# Density = 1.827061 g / cm^3
# Si number density = 18.312288 Si / 1000 Ang^3
#
#
#
# Elastic Constant Matrix: (Units=GPa)
#
#
# Indices 1 2 3 4 5 6 
#
# 1 67.4867 38.7133 46.0773 0.0000 0.0000 0.0000
# 2 38.7133 90.3455 52.8578 0.0000 0.0000 0.0000
# 3 46.0773 52.8578 96.6620 0.0000 0.0000 0.0000
# 4 0.0000 0.0000 0.0000 21.8020 0.0000 0.0000
# 5 0.0000 0.0000 0.0000 0.0000 30.0596 0.0000
# 6 0.0000 0.0000 0.0000 0.0000 0.0000 -50.4403
#
#
#
# Elastic Compliance Matrix: (Units=1/GPa)
#
#
# Indices 1 2 3 4 5 6 
#
# 1 0.023502 -0.005170 -0.008376 0.000000 0.000000 0.000000
# 2 -0.005170 0.017413 -0.007057 0.000000 0.000000 0.000000
# 3 -0.008376 -0.007057 0.018197 0.000000 0.000000 0.000000
# 4 0.000000 0.000000 0.000000 0.045867 0.000000 0.000000
# 5 0.000000 0.000000 0.000000 0.000000 0.033267 0.000000
# 6 0.000000 0.000000 0.000000 0.000000 0.000000 -0.019825
#
#
# Mechanical properties :
#
#
# Convention : Reuss Voigt Hill
#
# Bulk Modulus (GPa) = 55.84923 58.86568 57.35746
# Shear Modulus (GPa) = 30.19360 8.07397 19.13378
#
# Velocity S-wave (km/s) = 4.06497 2.10205 3.23594
# Velocity P-wave (km/s) = 7.25234 6.17306 6.73436
#
# Compressibility (1/GPa) = 0.01790535
#
# Stress axis : x y z
#
# Youngs Moduli (GPa) = 42.54877 57.42770 54.95351
#
# Poissons Ratio (x) = 0.29693 0.46028
# Poissons Ratio (y) = 0.22000 0.38783
# Poissons Ratio (z) = 0.35638 0.40529
#
# Static dielectric constant tensor:
#      x y z
#    x 1.635860 0.000000 0.000000 
#    y 0.000000 1.668040 0.000000 
#    z 0.000000 0.000000 1.606540 
# 
# From -- ./inp_files/34993.got.cif
#   From: 2010.05.17/outbox.cif.g08.bks.cpg/sg51_18_cif.got.tgz:34993.got - 2010.06.03 11:52:47.
