data_PCOD9403174
_publ_section_title
;
Structure prediction by ZEFSAII (Michael W. Deem and Ramdas Pophale) SiO2 
 PCOD9403174
Probable space group: P M M A
;
_chemical_formula_sum "Si O2"
_cell_formula_units_Z 48
_cell_length_a 16.928995
_cell_length_b 9.225109
_cell_length_c 18.660093
_cell_angle_alpha 90.000000
_cell_angle_beta 90.000000
_cell_angle_gamma 90.000000
_cell_volume 2914.180762
_symmetry_space_group_name_H-M "P M M A"
_symmetry_group_IT_number 51
_symmetry_cell_setting 'orthorhombic'
loop_
_space_group_symop_operation_xyz
x,y,z
1/2-x,-y,z
1/2+x,-y,-z
-x,y,-z
-x,-y,-z
1/2+x,y,-z
1/2-x,y,z
x,-y,z
loop_
_atom_site_type_symbol
_atom_site_label
_atom_site_fract_x
_atom_site_fract_y
_atom_site_fract_z
Si Si1 0.920366 0.165250 0.702030
Si Si2 0.992249 0.325760 0.418040
Si Si3 0.919567 0.166379 0.201824
Si Si4 0.987185 0.328250 0.915677
Si Si5 0.840007 0.174607 0.843051
Si Si6 0.838878 0.673515 0.326994
O O1 0.855066 0.214104 0.759439
O O2 0.940537 0.261167 0.633582
O O3 0.000204 0.165202 0.750306
O O4 0.903928 0.000000 0.680075
O O5 0.997552 0.500000 0.416713
O O6 0.907355 0.285212 0.383412
O O7 0.000000 0.276791 0.500000
O O8 0.857083 0.246943 0.252225
O O9 0.943924 0.252310 0.130656
O O10 0.897924 0.000000 0.186993
O O11 0.986009 0.500000 0.900269
O O12 0.905048 0.256420 0.890047
O O13 0.000000 0.306863 0.000000
O O14 0.750000 0.205663 0.863642
O O15 0.853132 0.000000 0.847872
O O16 0.750000 0.706506 0.351538
O O17 0.845077 0.500000 0.316200
#
# Coordination Sequence:
#
# PCOD9403174 Si02
#       6
#     8   8   8   8   8   8
#     4   8  15  28  46  67  89 116 151 189 230 277
#     4   9  17  29  45  66  93 125 160 196 235 284
#     4   9  17  30  49  70  91 119 156 195 233 278
#     4  10  20  33  50  73 100 129 160 194 234 284
#     4   9  18  33  52  73  97 125 159 201 244 283
#     4   9  17  30  48  68  92 124 160 201 248 290
#
# _framework density 16.471181000000001
#
# number of rings (size 3 to 8) (size 9 to 14) (size 15 to 20)
#    0.000    3.000    0.000    2.000    0.000    6.333 
#    0.000    1.667    0.000    2.000    0.000    0.000 
#    0.000    0.000    0.000    0.000    0.000    0.000 
#
# Total GULP energy -267274.119988 kJ/mol
# GULP energy per Si atom -5568.210833 kJ/mol
# Density = 1.643369 g / cm^3
# Si number density = 16.471181 Si / 1000 Ang^3
#
#
#
# Elastic Constant Matrix: (Units=GPa)
#
#
# Indices 1 2 3 4 5 6 
#
# 1 73.9227 34.7002 39.9237 0.0000 0.0000 0.0000
# 2 34.7002 53.9950 58.1623 0.0000 0.0000 0.0000
# 3 39.9237 58.1623 114.7456 0.0000 0.0000 0.0000
# 4 0.0000 0.0000 0.0000 18.6907 0.0000 0.0000
# 5 0.0000 0.0000 0.0000 0.0000 15.7326 0.0000
# 6 0.0000 0.0000 0.0000 0.0000 0.0000 19.3558
#
#
#
# Elastic Compliance Matrix: (Units=1/GPa)
#
#
# Indices 1 2 3 4 5 6 
#
# 1 0.019418 -0.011457 -0.000949 0.000000 0.000000 0.000000
# 2 -0.011457 0.047554 -0.020118 0.000000 0.000000 0.000000
# 3 -0.000949 -0.020118 0.019242 0.000000 0.000000 0.000000
# 4 0.000000 0.000000 0.000000 0.053502 0.000000 0.000000
# 5 0.000000 0.000000 0.000000 0.000000 0.063562 0.000000
# 6 0.000000 0.000000 0.000000 0.000000 0.000000 0.051664
#
#
# Mechanical properties :
#
#
# Convention : Reuss Voigt Hill
#
# Bulk Modulus (GPa) = 47.24381 56.47062 51.85721
# Shear Modulus (GPa) = 15.28836 18.08096 16.68466
#
# Velocity S-wave (km/s) = 3.04992 3.31680 3.18616
# Velocity P-wave (km/s) = 6.41465 7.00194 6.71472
#
# Compressibility (1/GPa) = 0.02116680
#
# Stress axis : x y z
#
# Youngs Moduli (GPa) = 51.49800 21.02885 51.96883
#
# Poissons Ratio (x) = 0.24093 0.04931
# Poissons Ratio (y) = 0.59003 1.04549
# Poissons Ratio (z) = 0.04886 0.42305
#
# Static dielectric constant tensor:
#      x y z
#    x 1.564590 0.000000 0.000000 
#    y 0.000000 1.557620 0.000000 
#    z 0.000000 0.000000 1.543100 
# 
# From -- ./inp_files/30041.got.cif
#   From: 2010.05.17/outbox.cif.g08.bks.cpg/sg51_16_cif.got.tgz:30041.got - 2010.06.03 11:52:47.
