data_PCOD9403404
_publ_section_title
;
Structure prediction by ZEFSAII (Michael W. Deem and Ramdas Pophale) SiO2 
 PCOD9403404
Probable space group: P M M A
;
_chemical_formula_sum "Si O2"
_cell_formula_units_Z 40
_cell_length_a 8.822962
_cell_length_b 19.035310
_cell_length_c 13.956559
_cell_angle_alpha 90.000000
_cell_angle_beta 90.000000
_cell_angle_gamma 90.000000
_cell_volume 2343.973614
_symmetry_space_group_name_H-M "P M M A"
_symmetry_group_IT_number 51
_symmetry_cell_setting 'orthorhombic'
loop_
_space_group_symop_operation_xyz
x,y,z
1/2-x,-y,z
1/2+x,-y,-z
-x,y,-z
-x,-y,-z
1/2+x,y,-z
1/2-x,y,z
x,-y,z
loop_
_atom_site_type_symbol
_atom_site_label
_atom_site_fract_x
_atom_site_fract_y
_atom_site_fract_z
Si Si1 0.432604 0.080523 0.801373
Si Si2 0.068979 0.850388 0.602451
Si Si3 0.432033 0.710265 0.713984
Si Si4 0.069030 0.418687 0.394484
Si Si5 0.069172 0.215432 0.102900
O O1 0.250000 0.090491 0.810079
O O2 0.473293 0.099086 0.691051
O O3 0.514897 0.137154 0.867462
O O4 0.468600 0.000000 0.823547
O O5 0.250000 0.852768 0.593734
O O6 0.026577 0.771830 0.637765
O O7 0.000000 0.867609 0.500000
O O8 0.250000 0.709200 0.721477
O O9 0.495283 0.636778 0.677072
O O10 0.502937 0.734421 0.814357
O O11 0.250000 0.408924 0.398143
O O12 0.038057 0.500000 0.368452
O O13 0.000000 0.406905 0.500000
O O14 0.250000 0.218898 0.100992
O O15 0.000000 0.233075 0.000000
#
# Coordination Sequence:
#
# PCOD9403404 Si02
#       5
#     8   8   8   8   8
#     4   9  19  36  53  71 100 135 171 213 260 309
#     4   9  18  30  46  70  99 133 170 208 250 298
#     4  10  20  35  54  76 104 137 175 217 260 306
#     4  10  20  33  51  79 114 149 182 214 252 300
#     4  11  22  37  57  79 102 129 167 213 263 317
#
# _framework density 17.06504
#
# number of rings (size 3 to 8) (size 9 to 14) (size 15 to 20)
#    0.000    2.200    0.000    4.800    0.000    8.000 
#    0.000    0.000    0.000    0.600    0.000    0.000 
#    0.000    0.000    0.000    0.000    0.000    0.000 
#
# Total GULP energy -223302.240747 kJ/mol
# GULP energy per Si atom -5582.556019 kJ/mol
# Density = 1.702620 g / cm^3
# Si number density = 17.065040 Si / 1000 Ang^3
#
#
#
# Elastic Constant Matrix: (Units=GPa)
#
#
# Indices 1 2 3 4 5 6 
#
# 1 72.3191 53.0816 34.4651 0.0000 0.0000 0.0000
# 2 53.0816 107.4730 40.0494 0.0000 0.0000 0.0000
# 3 34.4651 40.0494 73.2224 0.0000 0.0000 0.0000
# 4 0.0000 0.0000 0.0000 8.5769 0.0000 0.0000
# 5 0.0000 0.0000 0.0000 0.0000 32.9857 0.0000
# 6 0.0000 0.0000 0.0000 0.0000 0.0000 28.0844
#
#
#
# Elastic Compliance Matrix: (Units=1/GPa)
#
#
# Indices 1 2 3 4 5 6 
#
# 1 0.023583 -0.009434 -0.005940 0.000000 0.000000 0.000000
# 2 -0.009434 0.015461 -0.004016 0.000000 0.000000 0.000000
# 3 -0.005940 -0.004016 0.018649 0.000000 0.000000 0.000000
# 4 0.000000 0.000000 0.000000 0.116592 0.000000 0.000000
# 5 0.000000 0.000000 0.000000 0.000000 0.030316 0.000000
# 6 0.000000 0.000000 0.000000 0.000000 0.000000 0.035607
#
#
# Mechanical properties :
#
#
# Convention : Reuss Voigt Hill
#
# Bulk Modulus (GPa) = 52.87393 56.46741 54.67067
# Shear Modulus (GPa) = 17.52581 22.29063 19.90822
#
# Velocity S-wave (km/s) = 3.20816 3.61808 3.41927
# Velocity P-wave (km/s) = 6.69135 7.11445 6.90614
#
# Compressibility (1/GPa) = 0.01891291
#
# Stress axis : x y z
#
# Youngs Moduli (GPa) = 42.40300 64.67985 53.62084
#
# Poissons Ratio (x) = 0.61021 0.31852
# Poissons Ratio (y) = 0.40004 0.21533
# Poissons Ratio (z) = 0.25188 0.25974
#
# Static dielectric constant tensor:
#      x y z
#    x 1.568530 0.000000 0.000000 
#    y 0.000000 1.573330 0.000000 
#    z 0.000000 0.000000 1.558660 
# 
# From -- ./inp_files/13996.got.cif
#   From: 2010.05.17/outbox.cif.g08.bks.cpg/sg51_7_cif.got.tgz:13996.got - 2010.06.03 11:52:47.
