data_PCOD9403944
_publ_section_title
;
Structure prediction by ZEFSAII (Michael W. Deem and Ramdas Pophale) SiO2 
 PCOD9403944
Probable space group: P M M A
;
_chemical_formula_sum "Si O2"
_cell_formula_units_Z 48
_cell_length_a 19.612148
_cell_length_b 7.658581
_cell_length_c 15.697586
_cell_angle_alpha 90.000000
_cell_angle_beta 90.000000
_cell_angle_gamma 90.000000
_cell_volume 2357.796632
_symmetry_space_group_name_H-M "P M M A"
_symmetry_group_IT_number 51
_symmetry_cell_setting 'orthorhombic'
loop_
_space_group_symop_operation_xyz
x,y,z
1/2-x,-y,z
1/2+x,-y,-z
-x,y,-z
-x,-y,-z
1/2+x,y,-z
1/2-x,y,z
x,-y,z
loop_
_atom_site_type_symbol
_atom_site_label
_atom_site_fract_x
_atom_site_fract_y
_atom_site_fract_z
Si Si1 0.570018 0.290316 0.542916
Si Si2 0.827602 0.210010 0.394190
Si Si3 0.327806 0.289895 0.121315
Si Si4 0.570285 0.292259 0.734680
Si Si5 0.414121 0.788405 0.768991
Si Si6 0.327843 0.790488 0.929674
O O1 0.500000 0.223197 0.500000
O O2 0.563079 0.500000 0.548920
O O3 0.632531 0.252541 0.480551
O O4 0.578912 0.221716 0.638773
O O5 0.750000 0.275651 0.392793
O O6 0.871987 0.273284 0.313782
O O7 0.824686 0.000000 0.387186
O O8 0.250000 0.224470 0.130251
O O9 0.325528 0.500000 0.127693
O O10 0.377788 0.221699 0.194493
O O11 0.351423 0.248923 0.025421
O O12 0.582744 0.500000 0.730120
O O13 0.492315 0.265923 0.762138
O O14 0.376839 0.726439 0.854828
O O15 0.412863 0.000000 0.768572
O O16 0.250000 0.723838 0.920311
O O17 0.324736 0.000000 0.921456
#
# Coordination Sequence:
#
# PCOD9403944 Si02
#       6
#     8   8   8   8   8   8
#     4  10  20  36  56  78 106 141 180 220 264 316
#     4  10  21  36  55  81 110 140 177 220 265 317
#     4   9  19  36  55  75 101 136 177 218 262 312
#     4  10  21  36  55  78 106 139 175 218 265 315
#     4  10  20  34  54  79 108 141 174 212 262 319
#     4   9  18  34  55  77 104 139 176 216 261 308
#
# _framework density 20.357989
#
# number of rings (size 3 to 8) (size 9 to 14) (size 15 to 20)
#    0.000    2.333    1.667    0.500    0.000    6.000 
#    0.000    5.000    0.000    5.000    0.000    0.000 
#    0.000    0.000    0.000    0.000    0.000    0.000 
#
# Total GULP energy -268016.290012 kJ/mol
# GULP energy per Si atom -5583.672709 kJ/mol
# Density = 2.031165 g / cm^3
# Si number density = 20.357989 Si / 1000 Ang^3
#
#
#
# Elastic Constant Matrix: (Units=GPa)
#
#
# Indices 1 2 3 4 5 6 
#
# 1 124.3096 -9.5393 114.0055 0.0000 0.0000 0.0000
# 2 -9.5393 33.6335 1.0316 0.0000 0.0000 0.0000
# 3 114.0055 1.0316 224.9555 0.0000 0.0000 0.0000
# 4 0.0000 0.0000 0.0000 20.8269 0.0000 0.0000
# 5 0.0000 0.0000 0.0000 0.0000 42.2131 0.0000
# 6 0.0000 0.0000 0.0000 0.0000 0.0000 26.0871
#
#
#
# Elastic Compliance Matrix: (Units=1/GPa)
#
#
# Indices 1 2 3 4 5 6 
#
# 1 0.015743 0.004710 -0.008000 0.000000 0.000000 0.000000
# 2 0.004710 0.031146 -0.002530 0.000000 0.000000 0.000000
# 3 -0.008000 -0.002530 0.008511 0.000000 0.000000 0.000000
# 4 0.000000 0.000000 0.000000 0.048015 0.000000 0.000000
# 5 0.000000 0.000000 0.000000 0.000000 0.023689 0.000000
# 6 0.000000 0.000000 0.000000 0.000000 0.000000 0.038333
#
#
# Mechanical properties :
#
#
# Convention : Reuss Voigt Hill
#
# Bulk Modulus (GPa) = 22.85156 65.98824 44.41990
# Shear Modulus (GPa) = 26.08751 36.31882 31.20316
#
# Velocity S-wave (km/s) = 3.58360 4.22833 3.91925
# Velocity P-wave (km/s) = 5.32655 7.50485 6.50749
#
# Compressibility (1/GPa) = 0.04376069
#
# Stress axis : x y z
#
# Youngs Moduli (GPa) = 63.52193 32.10703 117.49285
#
# Poissons Ratio (x) = -0.15124 0.93992
# Poissons Ratio (y) = -0.29921 0.29726
# Poissons Ratio (z) = 0.50816 0.08123
#
# Static dielectric constant tensor:
#      x y z
#    x 1.689500 0.000000 0.000000 
#    y 0.000000 1.778430 0.000000 
#    z 0.000000 0.000000 1.711130 
# 
# From -- ./inp_files/17279.got.cif
#   From: 2010.05.17/outbox.cif.g08.bks.cpg/sg51_9_cif.got.tgz:17279.got - 2010.06.03 11:52:47.
