data_PCOD9403872
_publ_section_title
;
Structure prediction by ZEFSAII (Michael W. Deem and Ramdas Pophale) SiO2 
 PCOD9403872
Probable space group: P M M A
;
_chemical_formula_sum "Si O2"
_cell_formula_units_Z 56
_cell_length_a 20.634659
_cell_length_b 7.583156
_cell_length_c 16.263966
_cell_angle_alpha 90.000000
_cell_angle_beta 90.000000
_cell_angle_gamma 90.000000
_cell_volume 2544.917712
_symmetry_space_group_name_H-M "P M M A"
_symmetry_group_IT_number 51
_symmetry_cell_setting 'orthorhombic'
loop_
_space_group_symop_operation_xyz
x,y,z
1/2-x,-y,z
1/2+x,-y,-z
-x,y,-z
-x,-y,-z
1/2+x,y,-z
1/2-x,y,z
x,-y,z
loop_
_atom_site_type_symbol
_atom_site_label
_atom_site_fract_x
_atom_site_fract_y
_atom_site_fract_z
Si Si1 0.677946 0.209315 0.496110
Si Si2 0.955266 0.216027 0.425009
Si Si3 0.178075 0.212419 0.031192
Si Si4 0.176529 0.712984 0.314179
Si Si5 0.049396 0.206379 0.755474
Si Si6 0.080843 0.293451 0.174172
Si Si7 0.322207 0.784210 0.841009
O O1 0.750000 0.283822 0.481829
O O2 0.618370 0.274481 0.442406
O O3 0.661572 0.235283 0.592308
O O4 0.681637 0.000000 0.481522
O O5 0.973690 0.275539 0.333381
O O6 0.000000 0.277776 0.500000
O O7 0.957698 0.000000 0.427977
O O8 0.250000 0.272829 0.059485
O O9 0.120925 0.269315 0.090919
O O10 0.178811 0.000000 0.031738
O O11 0.169803 0.268208 0.936559
O O12 0.250000 0.773673 0.295823
O O13 0.176921 0.500000 0.310311
O O14 0.125363 0.781197 0.248017
O O15 0.117092 0.281112 0.788382
O O16 0.991321 0.219787 0.820393
O O17 0.062075 0.000000 0.741967
O O18 0.073416 0.500000 0.188839
O O19 0.250000 0.730658 0.813393
O O20 0.322889 0.000000 0.840106
#
# Coordination Sequence:
#
# PCOD9403872 Si02
#       7
#     8   8   8   8   8   8   8
#     4   9  17  29  47  72  98 123 158 207 257 302
#     4   9  17  29  46  70 100 130 161 201 248 296
#     4   9  18  34  56  79 102 130 166 207 250 300
#     4   9  18  32  48  67  95 132 169 204 247 299
#     4  10  20  34  54  76 100 136 175 210 253 304
#     4  11  22  34  49  73 107 139 170 210 252 300
#     4   8  16  33  56  80 102 126 165 215 258 299
#
# _framework density 22.004640999999999
#
# number of rings (size 3 to 8) (size 9 to 14) (size 15 to 20)
#    0.000    2.714    0.000    2.571    0.000    4.286 
#    0.000    8.571    0.000    3.857    0.000    0.000 
#    0.000    0.000    0.000    0.000    0.000    0.000 
#
# Total GULP energy -312609.250716 kJ/mol
# GULP energy per Si atom -5582.308048 kJ/mol
# Density = 2.195456 g / cm^3
# Si number density = 22.004641 Si / 1000 Ang^3
#
#
#
# Elastic Constant Matrix: (Units=GPa)
#
#
# Indices 1 2 3 4 5 6 
#
# 1 128.8776 2.8332 67.8102 0.0000 0.0000 0.0000
# 2 2.8332 43.3336 -0.0846 0.0000 0.0000 0.0000
# 3 67.8102 -0.0846 74.9719 0.0000 0.0000 0.0000
# 4 0.0000 0.0000 0.0000 12.5523 0.0000 0.0000
# 5 0.0000 0.0000 0.0000 0.0000 38.0179 0.0000
# 6 0.0000 0.0000 0.0000 0.0000 0.0000 -12.8567
#
#
#
# Elastic Compliance Matrix: (Units=1/GPa)
#
#
# Indices 1 2 3 4 5 6 
#
# 1 0.014848 -0.000997 -0.013431 0.000000 0.000000 0.000000
# 2 -0.000997 0.023144 0.000928 0.000000 0.000000 0.000000
# 3 -0.013431 0.000928 0.025487 0.000000 0.000000 0.000000
# 4 0.000000 0.000000 0.000000 0.079667 0.000000 0.000000
# 5 0.000000 0.000000 0.000000 0.000000 0.026303 0.000000
# 6 0.000000 0.000000 0.000000 0.000000 0.000000 -0.077780
#
#
# Mechanical properties :
#
#
# Convention : Reuss Voigt Hill
#
# Bulk Modulus (GPa) = 27.41293 43.14453 35.27873
# Shear Modulus (GPa) = 38.21825 19.31766 28.76795
#
# Velocity S-wave (km/s) = 4.17205 2.96614 3.61966
# Velocity P-wave (km/s) = 5.97435 5.60180 5.79107
#
# Compressibility (1/GPa) = 0.03647914
#
# Stress axis : x y z
#
# Youngs Moduli (GPa) = 67.34966 43.20818 39.23558
#
# Poissons Ratio (x) = 0.04308 0.52696
# Poissons Ratio (y) = 0.06715 -0.03640
# Poissons Ratio (z) = 0.90455 -0.04009
#
# Static dielectric constant tensor:
#      x y z
#    x 1.815540 0.000000 0.000000 
#    y 0.000000 1.838990 0.000000 
#    z 0.000000 0.000000 1.778180 
# 
# From -- ./inp_files/25639.got.cif
#   From: 2010.05.17/outbox.cif.g08.bks.cpg/sg51_13_cif.got.tgz:25639.got - 2010.06.03 11:52:47.
