data_PCOD9403527
_publ_section_title
;
Structure prediction by ZEFSAII (Michael W. Deem and Ramdas Pophale) SiO2 
 PCOD9403527
Probable space group: P M M A
;
_chemical_formula_sum "Si O2"
_cell_formula_units_Z 64
_cell_length_a 9.090441
_cell_length_b 14.093139
_cell_length_c 26.760066
_cell_angle_alpha 90.000000
_cell_angle_beta 90.000000
_cell_angle_gamma 90.000000
_cell_volume 3428.308284
_symmetry_space_group_name_H-M "P M M A"
_symmetry_group_IT_number 51
_symmetry_cell_setting 'orthorhombic'
loop_
_space_group_symop_operation_xyz
x,y,z
1/2-x,-y,z
1/2+x,-y,-z
-x,y,-z
-x,-y,-z
1/2+x,y,-z
1/2-x,y,z
x,-y,z
loop_
_atom_site_type_symbol
_atom_site_label
_atom_site_fract_x
_atom_site_fract_y
_atom_site_fract_z
Si Si1 0.926460 0.111587 0.088415
Si Si2 0.074965 0.707277 0.050229
Si Si3 0.926208 0.892702 0.697128
Si Si4 0.423329 0.386366 0.551697
Si Si5 0.919767 0.614771 0.144978
Si Si6 0.572650 0.705839 0.647431
Si Si7 0.583983 0.115242 0.202791
Si Si8 0.921143 0.614487 0.753499
O O1 0.750000 0.123448 0.081048
O O2 0.959227 0.138664 0.146296
O O3 0.019504 0.184189 0.056072
O O4 0.959672 0.000000 0.080817
O O5 0.250000 0.702187 0.047092
O O6 0.014536 0.653748 0.099111
O O7 0.000000 0.667879 0.000000
O O8 0.750000 0.895117 0.698511
O O9 0.969161 0.815576 0.656193
O O10 0.980811 0.858440 0.751424
O O11 0.980484 0.000000 0.688361
O O12 0.500000 0.356354 0.500000
O O13 0.250000 0.366688 0.549520
O O14 0.443302 0.500000 0.556281
O O15 0.495726 0.338369 0.599715
O O16 0.750000 0.644924 0.139397
O O17 0.924563 0.500000 0.144126
O O18 0.983500 0.645622 0.198826
O O19 0.750000 0.698092 0.642145
O O20 0.532744 0.653660 0.699481
O O21 0.750000 0.148987 0.212061
O O22 0.587822 0.000000 0.202671
O O23 0.750000 0.641625 0.761513
O O24 0.927891 0.500000 0.751396
#
# Coordination Sequence:
#
# PCOD9403527 Si02
#       8
#     8   8   8   8   8   8   8   8
#     4   9  19  37  59  83 113 146 181 225 277 332
#     4  12  26  42  61  83 109 141 183 231 280 338
#     4   9  18  31  47  73 112 153 192 232 272 318
#     4  10  21  37  58  84 114 148 187 232 283 337
#     4  10  22  41  63  85 111 144 182 227 281 339
#     4  10  20  33  53  82 116 154 193 232 278 326
#     4   8  15  29  49  73 102 138 178 220 267 318
#     4   9  18  33  53  80 114 148 182 223 275 334
#
# _framework density 18.668099999999999
#
# number of rings (size 3 to 8) (size 9 to 14) (size 15 to 20)
#    0.000    2.375    0.000    3.000    1.750    4.250 
#    0.000    2.500    0.000    0.375    0.000    0.000 
#    0.000    0.000    0.000    0.000    0.000    0.000 
#
# Total GULP energy -357353.653159 kJ/mol
# GULP energy per Si atom -5583.650831 kJ/mol
# Density = 1.862561 g / cm^3
# Si number density = 18.668100 Si / 1000 Ang^3
#
#
#
# Elastic Constant Matrix: (Units=GPa)
#
#
# Indices 1 2 3 4 5 6 
#
# 1 80.4019 41.2936 78.6439 0.0000 0.0000 0.0000
# 2 41.2936 52.6427 49.3753 0.0000 0.0000 0.0000
# 3 78.6439 49.3753 158.4429 0.0000 0.0000 0.0000
# 4 0.0000 0.0000 0.0000 30.2123 0.0000 0.0000
# 5 0.0000 0.0000 0.0000 0.0000 36.8665 0.0000
# 6 0.0000 0.0000 0.0000 0.0000 0.0000 22.6568
#
#
#
# Elastic Compliance Matrix: (Units=1/GPa)
#
#
# Indices 1 2 3 4 5 6 
#
# 1 0.029583 -0.013329 -0.010530 0.000000 0.000000 0.000000
# 2 -0.013329 0.032847 -0.003620 0.000000 0.000000 0.000000
# 3 -0.010530 -0.003620 0.012666 0.000000 0.000000 0.000000
# 4 0.000000 0.000000 0.000000 0.033099 0.000000 0.000000
# 5 0.000000 0.000000 0.000000 0.000000 0.027125 0.000000
# 6 0.000000 0.000000 0.000000 0.000000 0.000000 0.044137
#
#
# Mechanical properties :
#
#
# Convention : Reuss Voigt Hill
#
# Bulk Modulus (GPa) = 49.65761 70.01258 59.83509
# Shear Modulus (GPa) = 20.73600 26.09211 23.41405
#
# Velocity S-wave (km/s) = 3.33644 3.74262 3.54535
# Velocity P-wave (km/s) = 6.44208 7.50077 6.99149
#
# Compressibility (1/GPa) = 0.02013790
#
# Stress axis : x y z
#
# Youngs Moduli (GPa) = 33.80357 30.44449 78.95066
#
# Poissons Ratio (x) = 0.40579 0.83134
# Poissons Ratio (y) = 0.45056 0.28582
# Poissons Ratio (z) = 0.35595 0.11021
#
# Static dielectric constant tensor:
#      x y z
#    x 1.626970 0.000000 0.000000 
#    y 0.000000 1.692960 0.000000 
#    z 0.000000 0.000000 1.619150 
# 
# From -- ./inp_files/34844.got.cif
#   From: 2010.05.17/outbox.cif.g08.bks.cpg/sg51_18_cif.got.tgz:34844.got - 2010.06.03 11:52:47.
