data_PCOD9403424
_publ_section_title
;
Structure prediction by ZEFSAII (Michael W. Deem and Ramdas Pophale) SiO2 
 PCOD9403424
Probable space group: P M M A
;
_chemical_formula_sum "Si O2"
_cell_formula_units_Z 64
_cell_length_a 23.810175
_cell_length_b 9.432327
_cell_length_c 17.000199
_cell_angle_alpha 90.000000
_cell_angle_beta 90.000000
_cell_angle_gamma 90.000000
_cell_volume 3817.995753
_symmetry_space_group_name_H-M "P M M A"
_symmetry_group_IT_number 51
_symmetry_cell_setting 'orthorhombic'
loop_
_space_group_symop_operation_xyz
x,y,z
1/2-x,-y,z
1/2+x,-y,-z
-x,y,-z
-x,-y,-z
1/2+x,y,-z
1/2-x,y,z
x,-y,z
loop_
_atom_site_type_symbol
_atom_site_label
_atom_site_fract_x
_atom_site_fract_y
_atom_site_fract_z
Si Si1 0.687513 0.331779 0.228917
Si Si2 0.684723 0.165569 0.778108
Si Si3 0.517564 0.338261 0.835595
Si Si4 0.510936 0.167014 0.592461
Si Si5 0.396156 0.833001 0.071223
Si Si6 0.899510 0.662845 0.683044
Si Si7 0.686339 0.170619 0.064474
Si Si8 0.930675 0.329573 0.289518
O O1 0.750000 0.303859 0.261388
O O2 0.683954 0.500000 0.210981
O O3 0.681734 0.244923 0.148466
O O4 0.635221 0.299220 0.284792
O O5 0.750000 0.195735 0.791743
O O6 0.648746 0.183637 0.857680
O O7 0.657388 0.264592 0.712226
O O8 0.678996 0.000000 0.755499
O O9 0.511930 0.500000 0.862695
O O10 0.547336 0.245734 0.902133
O O11 0.559796 0.336202 0.760170
O O12 0.459415 0.291613 0.794846
O O13 0.500000 0.182035 0.500000
O O14 0.568140 0.244381 0.618750
O O15 0.462488 0.243825 0.643083
O O16 0.513333 0.000000 0.612197
O O17 0.407827 0.000000 0.062943
O O18 0.363017 0.781993 0.994108
O O19 0.892575 0.500000 0.658836
O O20 0.750000 0.200597 0.033728
O O21 0.682468 0.000000 0.072078
O O22 0.939690 0.500000 0.299765
#
# Coordination Sequence:
#
# PCOD9403424 Si02
#       8
#     8   8   8   8   8   8   8   8
#     4   9  18  33  52  72  93 120 157 198 237 279
#     4   9  16  26  42  64  91 126 165 201 237 276
#     4   8  15  27  42  62  88 118 152 190 233 279
#     4  10  20  33  52  78 101 119 145 182 224 274
#     4   9  16  26  41  62  89 122 161 203 243 281
#     4   9  17  29  45  66  94 125 156 190 226 269
#     4   9  17  29  44  63  89 121 159 204 248 285
#     4   9  18  33  52  73  97 124 154 189 232 282
#
# _framework density 16.762722
#
# number of rings (size 3 to 8) (size 9 to 14) (size 15 to 20)
#    0.000    3.000    0.000    1.875    0.000    6.750 
#    0.000    0.625    0.000    6.750    0.000    3.500 
#    0.000    0.000    0.000    0.000    0.000    0.000 
#
# Total GULP energy -356471.240433 kJ/mol
# GULP energy per Si atom -5569.863132 kJ/mol
# Density = 1.672457 g / cm^3
# Si number density = 16.762722 Si / 1000 Ang^3
#
#
#
# Elastic Constant Matrix: (Units=GPa)
#
#
# Indices 1 2 3 4 5 6 
#
# 1 76.3968 30.4120 14.6007 0.0000 0.0000 0.0000
# 2 30.4120 47.1871 23.9397 0.0000 0.0000 0.0000
# 3 14.6007 23.9397 31.7992 0.0000 0.0000 0.0000
# 4 0.0000 0.0000 0.0000 17.2051 0.0000 0.0000
# 5 0.0000 0.0000 0.0000 0.0000 18.6112 0.0000
# 6 0.0000 0.0000 0.0000 0.0000 0.0000 22.4486
#
#
#
# Elastic Compliance Matrix: (Units=1/GPa)
#
#
# Indices 1 2 3 4 5 6 
#
# 1 0.017618 -0.011731 0.000743 0.000000 0.000000 0.000000
# 2 -0.011731 0.042100 -0.026308 0.000000 0.000000 0.000000
# 3 0.000743 -0.026308 0.050912 0.000000 0.000000 0.000000
# 4 0.000000 0.000000 0.000000 0.058122 0.000000 0.000000
# 5 0.000000 0.000000 0.000000 0.000000 0.053731 0.000000
# 6 0.000000 0.000000 0.000000 0.000000 0.000000 0.044546
#
#
# Mechanical properties :
#
#
# Convention : Reuss Voigt Hill
#
# Bulk Modulus (GPa) = 27.74986 32.58753 30.16870
# Shear Modulus (GPa) = 14.13885 17.41502 15.77693
#
# Velocity S-wave (km/s) = 2.90741 3.22671 3.07121
# Velocity P-wave (km/s) = 5.27836 5.77624 5.53290
#
# Compressibility (1/GPa) = 0.03603621
#
# Stress axis : x y z
#
# Youngs Moduli (GPa) = 56.76135 23.75288 19.64162
#
# Poissons Ratio (x) = 0.27865 -0.01459
# Poissons Ratio (y) = 0.66588 0.51674
# Poissons Ratio (z) = -0.04215 0.62490
#
# Static dielectric constant tensor:
#      x y z
#    x 1.592780 0.000000 0.000000 
#    y 0.000000 1.564100 0.000000 
#    z 0.000000 0.000000 1.542280 
# 
# From -- ./inp_files/30606.got.cif
#   From: 2010.05.17/outbox.cif.g08.bks.cpg/sg51_16_cif.got.tgz:30606.got - 2010.06.03 11:52:47.
