data_PCOD9403952
_publ_section_title
;
Structure prediction by ZEFSAII (Michael W. Deem and Ramdas Pophale) SiO2 
 PCOD9403952
Probable space group: P M M A
;
_chemical_formula_sum "Si O2"
_cell_formula_units_Z 64
_cell_length_a 20.677643
_cell_length_b 8.783263
_cell_length_c 20.325629
_cell_angle_alpha 90.000000
_cell_angle_beta 90.000000
_cell_angle_gamma 90.000000
_cell_volume 3691.483353
_symmetry_space_group_name_H-M "P M M A"
_symmetry_group_IT_number 51
_symmetry_cell_setting 'orthorhombic'
loop_
_space_group_symop_operation_xyz
x,y,z
1/2-x,-y,z
1/2+x,-y,-z
-x,y,-z
-x,-y,-z
1/2+x,y,-z
1/2-x,y,z
x,-y,z
loop_
_atom_site_type_symbol
_atom_site_label
_atom_site_fract_x
_atom_site_fract_y
_atom_site_fract_z
Si Si1 0.824966 0.682320 0.071538
Si Si2 0.675073 0.817698 0.926954
Si Si3 0.929436 0.182634 0.170654
Si Si4 0.823539 0.314502 0.573410
Si Si5 0.929952 0.317383 0.828549
Si Si6 0.928468 0.181716 0.323580
Si Si7 0.324906 0.316586 0.577222
Si Si8 0.068061 0.683595 0.324289
O O1 0.750000 0.719229 0.087934
O O2 0.831353 0.500000 0.069592
O O3 0.874381 0.751267 0.123800
O O4 0.838073 0.749846 0.999224
O O5 0.750000 0.780503 0.910550
O O6 0.625571 0.749042 0.874705
O O7 0.668775 0.000000 0.929124
O O8 0.916492 0.224050 0.247089
O O9 0.999827 0.250130 0.153438
O O10 0.931435 0.000000 0.165456
O O11 0.750000 0.265426 0.588259
O O12 0.823197 0.500000 0.574533
O O13 0.839443 0.270477 0.498304
O O14 0.875980 0.263227 0.626382
O O15 0.931669 0.500000 0.833918
O O16 0.918021 0.276706 0.751830
O O17 0.873473 0.244554 0.371141
O O18 0.998395 0.248881 0.341984
O O19 0.930759 0.000000 0.327367
O O20 0.250000 0.276344 0.590520
O O21 0.329932 0.500000 0.580503
O O22 0.064191 0.500000 0.328054
#
# Coordination Sequence:
#
# PCOD9403952 Si02
#       8
#     8   8   8   8   8   8   8   8
#     4  10  21  37  57  81 107 133 167 215 262 302
#     4  10  21  37  56  78 107 142 175 207 249 306
#     4  10  21  37  55  75 103 139 175 210 254 311
#     4   8  15  30  52  77 102 130 169 214 257 302
#     4  10  20  34  54  80 107 135 172 218 262 302
#     4  10  21  35  51  73 104 138 170 209 254 304
#     4   9  18  33  53  75 100 132 171 214 256 302
#     4   9  18  33  54  77 102 134 171 213 257 303
#
# _framework density 17.337204
#
# number of rings (size 3 to 8) (size 9 to 14) (size 15 to 20)
#    0.000    2.500    0.000    2.625    0.000    5.750 
#    0.000    9.375    0.000    1.125    0.000    0.000 
#    0.000    0.000    0.000    0.000    0.000    0.000 
#
# Total GULP energy -357103.395447 kJ/mol
# GULP energy per Si atom -5579.740554 kJ/mol
# Density = 1.729774 g / cm^3
# Si number density = 17.337204 Si / 1000 Ang^3
#
#
#
# Elastic Constant Matrix: (Units=GPa)
#
#
# Indices 1 2 3 4 5 6 
#
# 1 164.7979 55.3269 129.9691 0.0000 0.0000 0.0000
# 2 55.3269 40.3090 47.0061 0.0000 0.0000 0.0000
# 3 129.9691 47.0061 123.1201 0.0000 0.0000 0.0000
# 4 0.0000 0.0000 0.0000 22.1190 0.0000 0.0000
# 5 0.0000 0.0000 0.0000 0.0000 44.9906 0.0000
# 6 0.0000 0.0000 0.0000 0.0000 0.0000 21.3826
#
#
#
# Elastic Compliance Matrix: (Units=1/GPa)
#
#
# Indices 1 2 3 4 5 6 
#
# 1 0.038251 -0.009760 -0.036653 0.000000 0.000000 0.000000
# 2 -0.009760 0.047208 -0.007720 0.000000 0.000000 0.000000
# 3 -0.036653 -0.007720 0.049762 0.000000 0.000000 0.000000
# 4 0.000000 0.000000 0.000000 0.045210 0.000000 0.000000
# 5 0.000000 0.000000 0.000000 0.000000 0.022227 0.000000
# 6 0.000000 0.000000 0.000000 0.000000 0.000000 0.046767
#
#
# Mechanical properties :
#
#
# Convention : Reuss Voigt Hill
#
# Bulk Modulus (GPa) = 37.10035 88.09236 62.59635
# Shear Modulus (GPa) = 13.63601 24.09345 18.86473
#
# Velocity S-wave (km/s) = 2.80753 3.73191 3.30222
# Velocity P-wave (km/s) = 5.65291 8.33613 7.12202
#
# Compressibility (1/GPa) = 0.02695393
#
# Stress axis : x y z
#
# Youngs Moduli (GPa) = 26.14288 21.18287 20.09584
#
# Poissons Ratio (x) = 0.20675 0.73657
# Poissons Ratio (y) = 0.25516 0.15515
# Poissons Ratio (z) = 0.95821 0.16354
#
# Static dielectric constant tensor:
#      x y z
#    x 1.562540 0.000000 0.000000 
#    y 0.000000 1.579620 0.000000 
#    z 0.000000 0.000000 1.571730 
# 
# From -- ./inp_files/30554.got.cif
#   From: 2010.05.17/outbox.cif.g08.bks.cpg/sg51_16_cif.got.tgz:30554.got - 2010.06.03 11:52:47.
