data_PCOD9403170
_publ_section_title
;
Structure prediction by ZEFSAII (Michael W. Deem and Ramdas Pophale) SiO2 
 PCOD9403170
Probable space group: P M M A
;
_chemical_formula_sum "Si O2"
_cell_formula_units_Z 64
_cell_length_a 8.930236
_cell_length_b 14.667118
_cell_length_c 29.574288
_cell_angle_alpha 90.000000
_cell_angle_beta 90.000000
_cell_angle_gamma 90.000000
_cell_volume 3873.664646
_symmetry_space_group_name_H-M "P M M A"
_symmetry_group_IT_number 51
_symmetry_cell_setting 'orthorhombic'
loop_
_space_group_symop_operation_xyz
x,y,z
1/2-x,-y,z
1/2+x,-y,-z
-x,y,-z
-x,-y,-z
1/2+x,y,-z
1/2-x,y,z
x,-y,z
loop_
_atom_site_type_symbol
_atom_site_label
_atom_site_fract_x
_atom_site_fract_y
_atom_site_fract_z
Si Si1 0.069851 0.894144 0.859468
Si Si2 0.925252 0.891076 0.688888
Si Si3 0.572343 0.107032 0.408413
Si Si4 0.922255 0.110886 0.953802
Si Si5 0.068189 0.395546 0.369225
Si Si6 0.569783 0.392936 0.733582
Si Si7 0.570249 0.219403 0.228793
Si Si8 0.070518 0.727486 0.453393
O O1 0.250000 0.893413 0.862555
O O2 0.025167 0.830539 0.817712
O O3 0.003572 0.863106 0.907391
O O4 0.024045 0.000000 0.851318
O O5 0.750000 0.866017 0.684879
O O6 0.007134 0.872626 0.641482
O O7 0.000471 0.837321 0.729725
O O8 0.935104 0.000000 0.697096
O O9 0.750000 0.124035 0.409472
O O10 0.487892 0.171102 0.443503
O O11 0.546464 0.000000 0.417073
O O12 0.750000 0.139065 0.952973
O O13 0.926740 0.000000 0.954763
O O14 0.000000 0.142642 0.000000
O O15 0.250000 0.394312 0.368965
O O16 0.021394 0.500000 0.376951
O O17 0.023202 0.369396 0.318257
O O18 0.019626 0.331525 0.410007
O O19 0.750000 0.382825 0.736531
O O20 0.535818 0.500000 0.740974
O O21 0.490322 0.321963 0.766404
O O22 0.750000 0.217837 0.231844
O O23 0.250000 0.725442 0.455973
O O24 0.000000 0.693295 0.500000
#
# Coordination Sequence:
#
# PCOD9403170 Si02
#       8
#     8   8   8   8   8   8   8   8
#     4   9  18  31  44  62  94 134 172 208 247 289
#     4  10  20  33  50  72  98 129 163 196 233 284
#     4  10  21  37  55  73  94 121 156 198 238 276
#     4   9  16  26  42  63  88 123 167 211 251 290
#     4   8  16  33  55  75  94 119 151 186 227 276
#     4   9  18  34  55  75  95 123 161 203 245 291
#     4  11  21  31  47  71 101 134 165 203 248 290
#     4  11  22  35  53  75  99 125 152 186 229 279
#
# _framework density 16.521822
#
# number of rings (size 3 to 8) (size 9 to 14) (size 15 to 20)
#    0.000    2.375    0.000    3.750    0.000    6.250 
#    0.000    1.875    0.000    2.625    0.000    0.000 
#    0.000    0.500    0.000    1.625    0.000    2.375 
#
# Total GULP energy -357106.765619 kJ/mol
# GULP energy per Si atom -5579.793213 kJ/mol
# Density = 1.648422 g / cm^3
# Si number density = 16.521822 Si / 1000 Ang^3
#
#
#
# Elastic Constant Matrix: (Units=GPa)
#
#
# Indices 1 2 3 4 5 6 
#
# 1 44.4253 32.0779 33.4745 0.0000 0.0000 0.0000
# 2 32.0779 61.4630 57.7545 0.0000 0.0000 0.0000
# 3 33.4745 57.7545 99.4526 0.0000 0.0000 0.0000
# 4 0.0000 0.0000 0.0000 17.6051 0.0000 0.0000
# 5 0.0000 0.0000 0.0000 0.0000 29.2181 0.0000
# 6 0.0000 0.0000 0.0000 0.0000 0.0000 18.7348
#
#
#
# Elastic Compliance Matrix: (Units=1/GPa)
#
#
# Indices 1 2 3 4 5 6 
#
# 1 0.036446 -0.016496 -0.002688 0.000000 0.000000 0.000000
# 2 -0.016496 0.043278 -0.019580 0.000000 0.000000 0.000000
# 3 -0.002688 -0.019580 0.022331 0.000000 0.000000 0.000000
# 4 0.000000 0.000000 0.000000 0.056802 0.000000 0.000000
# 5 0.000000 0.000000 0.000000 0.000000 0.034225 0.000000
# 6 0.000000 0.000000 0.000000 0.000000 0.000000 0.053376
#
#
# Mechanical properties :
#
#
# Convention : Reuss Voigt Hill
#
# Bulk Modulus (GPa) = 40.77176 50.21717 45.49447
# Shear Modulus (GPa) = 15.05291 18.58053 16.81672
#
# Velocity S-wave (km/s) = 3.02171 3.35715 3.19384
# Velocity P-wave (km/s) = 6.07498 6.74446 6.41845
#
# Compressibility (1/GPa) = 0.02452678
#
# Stress axis : x y z
#
# Youngs Moduli (GPa) = 27.43792 23.10637 44.78177
#
# Poissons Ratio (x) = 0.38116 0.12036
# Poissons Ratio (y) = 0.45261 0.87684
# Poissons Ratio (z) = 0.07375 0.45243
#
# Static dielectric constant tensor:
#      x y z
#    x 1.553620 0.000000 0.000000 
#    y 0.000000 1.560780 0.000000 
#    z 0.000000 0.000000 1.543600 
# 
# From -- ./inp_files/34981.got.cif
#   From: 2010.05.17/outbox.cif.g08.bks.cpg/sg51_18_cif.got.tgz:34981.got - 2010.06.03 11:52:47.
