data_PCOD9403154
_publ_section_title
;
Structure prediction by ZEFSAII (Michael W. Deem and Ramdas Pophale) SiO2 
 PCOD9403154
Probable space group: P M M A
;
_chemical_formula_sum "Si O2"
_cell_formula_units_Z 48
_cell_length_a 7.602589
_cell_length_b 12.267830
_cell_length_c 20.679631
_cell_angle_alpha 90.000000
_cell_angle_beta 90.000000
_cell_angle_gamma 90.000000
_cell_volume 1928.732716
_symmetry_space_group_name_H-M "P M M A"
_symmetry_group_IT_number 51
_symmetry_cell_setting 'orthorhombic'
loop_
_space_group_symop_operation_xyz
x,y,z
1/2-x,-y,z
1/2+x,-y,-z
-x,y,-z
-x,-y,-z
1/2+x,y,-z
1/2-x,y,z
x,-y,z
loop_
_atom_site_type_symbol
_atom_site_label
_atom_site_fract_x
_atom_site_fract_y
_atom_site_fract_z
Si Si1 0.451331 0.378273 0.102658
Si Si2 0.465073 0.113938 0.712732
Si Si3 0.961325 0.341791 0.244147
Si Si4 0.957887 0.384622 0.606828
Si Si5 0.054082 0.152670 0.571008
Si Si6 0.040169 0.124667 0.076113
O O1 0.250000 0.374274 0.078528
O O2 0.523870 0.500000 0.080156
O O3 0.456327 0.388514 0.180298
O O4 0.524574 0.251912 0.092785
O O5 0.250000 0.119796 0.710399
O O6 0.520122 0.216296 0.753095
O O7 0.534587 0.120787 0.638796
O O8 0.518319 0.000000 0.741250
O O9 0.750000 0.352247 0.239041
O O10 0.011116 0.381922 0.315753
O O11 0.750000 0.374406 0.595843
O O12 0.022619 0.500000 0.582014
O O13 0.049106 0.282921 0.574540
O O14 0.250000 0.113898 0.578025
O O15 0.000000 0.118498 0.500000
O O16 0.250000 0.126745 0.088556
O O17 0.978782 0.000000 0.100249
O O18 0.000000 0.119730 0.000000
#
# Coordination Sequence:
#
# PCOD9403154 Si02
#       6
#     8   8   8   8   8   8
#     4  10  21  36  54  79 113 150 184 221 269 323
#     4   8  16  32  51  71  97 129 165 207 257 311
#     4  10  20  33  52  78 106 136 171 214 261 311
#     4  10  20  34  52  71  94 128 166 206 256 313
#     4  10  20  33  50  71  96 126 161 206 258 313
#     4   9  19  37  59  82 111 148 189 231 274 320
#
# _framework density 24.886806
#
# number of rings (size 3 to 8) (size 9 to 14) (size 15 to 20)
#    0.000    2.500    0.000    3.000    0.000    6.000 
#    0.000    0.000    0.000   17.000    0.000    0.000 
#    0.000    0.000    0.000    0.000    0.000    0.000 
#
# Total GULP energy -267263.078586 kJ/mol
# GULP energy per Si atom -5567.980804 kJ/mol
# Density = 2.483016 g / cm^3
# Si number density = 24.886806 Si / 1000 Ang^3
#
#
#
# Elastic Constant Matrix: (Units=GPa)
#
#
# Indices 1 2 3 4 5 6 
#
# 1 63.7241 9.7909 -9.5748 0.0000 0.0000 0.0000
# 2 9.7909 288.3086 33.5473 0.0000 0.0000 0.0000
# 3 -9.5748 33.5473 84.3322 0.0000 0.0000 0.0000
# 4 0.0000 0.0000 0.0000 -98.6813 0.0000 0.0000
# 5 0.0000 0.0000 0.0000 0.0000 17.8382 0.0000
# 6 0.0000 0.0000 0.0000 0.0000 0.0000 26.8786
#
#
#
# Elastic Compliance Matrix: (Units=1/GPa)
#
#
# Indices 1 2 3 4 5 6 
#
# 1 0.016138 -0.000798 0.002150 0.000000 0.000000 0.000000
# 2 -0.000798 0.003676 -0.001553 0.000000 0.000000 0.000000
# 3 0.002150 -0.001553 0.012720 0.000000 0.000000 0.000000
# 4 0.000000 0.000000 0.000000 -0.010134 0.000000 0.000000
# 5 0.000000 0.000000 0.000000 0.000000 0.056059 0.000000
# 6 0.000000 0.000000 0.000000 0.000000 0.000000 0.037204
#
#
# Mechanical properties :
#
#
# Convention : Reuss Voigt Hill
#
# Bulk Modulus (GPa) = 31.12210 55.98795 43.55502
# Shear Modulus (GPa) = 39.43904 16.04720 27.74312
#
# Velocity S-wave (km/s) = 3.98519 2.54206 3.34244
# Velocity P-wave (km/s) = 5.80589 5.58229 5.69519
#
# Compressibility (1/GPa) = 0.03213151
#
# Stress axis : x y z
#
# Youngs Moduli (GPa) = 61.96434 272.01079 78.61786
#
# Poissons Ratio (x) = 0.21712 -0.16901
# Poissons Ratio (y) = 0.04946 0.12210
# Poissons Ratio (z) = -0.13321 0.42245
#
# Static dielectric constant tensor:
#      x y z
#    x 1.931810 0.000000 0.000000 
#    y 0.000000 2.095320 0.000000 
#    z 0.000000 0.000000 1.924650 
# 
# From -- ./inp_files/28976.got.cif
#   From: 2010.05.17/outbox.cif.g08.bks.cpg/sg51_15_cif.got.tgz:28976.got - 2010.06.03 11:52:47.
