data_PCOD9403038
_publ_section_title
;
Structure prediction by ZEFSAII (Michael W. Deem and Ramdas Pophale) SiO2 
 PCOD9403038
Probable space group: P M M A
;
_chemical_formula_sum "Si O2"
_cell_formula_units_Z 48
_cell_length_a 9.178579
_cell_length_b 17.993783
_cell_length_c 15.546767
_cell_angle_alpha 90.000000
_cell_angle_beta 90.000000
_cell_angle_gamma 90.000000
_cell_volume 2567.662975
_symmetry_space_group_name_H-M "P M M A"
_symmetry_group_IT_number 51
_symmetry_cell_setting 'orthorhombic'
loop_
_space_group_symop_operation_xyz
x,y,z
1/2-x,-y,z
1/2+x,-y,-z
-x,y,-z
-x,-y,-z
1/2+x,y,-z
1/2-x,y,z
x,-y,z
loop_
_atom_site_type_symbol
_atom_site_label
_atom_site_fract_x
_atom_site_fract_y
_atom_site_fract_z
Si Si1 0.083890 0.390791 0.915224
Si Si2 0.072412 0.331873 0.412967
Si Si3 0.918726 0.212388 0.088304
Si Si4 0.574803 0.789729 0.728978
Si Si5 0.575891 0.914227 0.589525
Si Si6 0.587844 0.500000 0.607340
Si Si7 0.089265 0.500000 0.190457
O O1 0.250000 0.415031 0.915711
O O2 0.081666 0.302181 0.914234
O O3 0.997980 0.427606 0.837848
O O4 0.000000 0.415722 0.000000
O O5 0.250000 0.330325 0.418848
O O6 0.034587 0.284009 0.327468
O O7 0.022108 0.418470 0.409596
O O8 0.000000 0.299898 0.500000
O O9 0.750000 0.187247 0.088564
O O10 0.998755 0.197595 0.179014
O O11 0.000000 0.187515 0.000000
O O12 0.750000 0.786421 0.742463
O O13 0.538917 0.858222 0.665900
O O14 0.500000 0.894053 0.500000
O O15 0.750000 0.910086 0.577480
O O16 0.537640 0.000000 0.609564
O O17 0.750000 0.500000 0.566275
O O18 0.603806 0.500000 0.708921
O O19 0.250000 0.500000 0.150425
#
# Coordination Sequence:
#
# PCOD9403038 Si02
#       7
#     8   8   8   8   8   4   4
#     4  10  20  33  47  66  92 122 160 209 264 317
#     4  10  20  34  51  72  99 133 173 216 261 307
#     4  10  21  36  55  77 103 136 174 217 264 315
#     4  10  20  34  54  79 108 140 175 217 263 314
#     4   9  18  33  54  82 115 148 179 215 263 316
#     4   9  19  33  47  64  91 129 169 208 253 303
#     4  11  20  31  48  66  88 123 166 212 263 319
#
# _framework density 18.694040999999999
#
# number of rings (size 3 to 8) (size 9 to 14) (size 15 to 20)
#    0.000    2.167    0.000    3.250    0.000    4.667 
#    0.000    1.667    0.000    0.500    0.000    0.000 
#    0.000    0.000    0.000    0.000    0.000    0.000 
#
# Total GULP energy -267528.276087 kJ/mol
# GULP energy per Si atom -5573.505752 kJ/mol
# Density = 1.865149 g / cm^3
# Si number density = 18.694041 Si / 1000 Ang^3
#
#
#
# Elastic Constant Matrix: (Units=GPa)
#
#
# Indices 1 2 3 4 5 6 
#
# 1 82.4253 28.1679 64.8637 0.0000 0.0000 0.0000
# 2 28.1679 74.6815 52.3186 0.0000 0.0000 0.0000
# 3 64.8637 52.3186 166.6397 0.0000 0.0000 0.0000
# 4 0.0000 0.0000 0.0000 20.3993 0.0000 0.0000
# 5 0.0000 0.0000 0.0000 0.0000 34.0222 0.0000
# 6 0.0000 0.0000 0.0000 0.0000 0.0000 14.3368
#
#
#
# Elastic Compliance Matrix: (Units=1/GPa)
#
#
# Indices 1 2 3 4 5 6 
#
# 1 0.017815 -0.002386 -0.006185 0.000000 0.000000 0.000000
# 2 -0.002386 0.017485 -0.004561 0.000000 0.000000 0.000000
# 3 -0.006185 -0.004561 0.009841 0.000000 0.000000 0.000000
# 4 0.000000 0.000000 0.000000 0.049021 0.000000 0.000000
# 5 0.000000 0.000000 0.000000 0.000000 0.029393 0.000000
# 6 0.000000 0.000000 0.000000 0.000000 0.000000 0.069751
#
#
# Mechanical properties :
#
#
# Convention : Reuss Voigt Hill
#
# Bulk Modulus (GPa) = 52.97691 68.27189 60.62440
# Shear Modulus (GPa) = 22.13735 25.64473 23.89104
#
# Velocity S-wave (km/s) = 3.44494 3.70782 3.57879
# Velocity P-wave (km/s) = 6.65011 7.41151 7.04111
#
# Compressibility (1/GPa) = 0.01887615
#
# Stress axis : x y z
#
# Youngs Moduli (GPa) = 56.13217 57.19051 101.62080
#
# Poissons Ratio (x) = 0.13647 0.62855
# Poissons Ratio (y) = 0.13395 0.46348
# Poissons Ratio (z) = 0.34719 0.26084
#
# Static dielectric constant tensor:
#      x y z
#    x 1.671530 0.000000 0.000000 
#    y 0.000000 1.664450 0.000000 
#    z 0.000000 0.000000 1.641130 
# 
# From -- ./inp_files/21222.got.cif
#   From: 2010.05.17/outbox.cif.g08.bks.cpg/sg51_11_cif.got.tgz:21222.got - 2010.06.03 11:52:47.
