data_PCOD9403860
_publ_section_title
;
Structure prediction by ZEFSAII (Michael W. Deem and Ramdas Pophale) SiO2 
 PCOD9403860
Probable space group: P M M A
;
_chemical_formula_sum "Si O2"
_cell_formula_units_Z 52
_cell_length_a 26.820468
_cell_length_b 12.782133
_cell_length_c 8.311365
_cell_angle_alpha 90.000000
_cell_angle_beta 90.000000
_cell_angle_gamma 90.000000
_cell_volume 2849.325331
_symmetry_space_group_name_H-M "P M M A"
_symmetry_group_IT_number 51
_symmetry_cell_setting 'orthorhombic'
loop_
_space_group_symop_operation_xyz
x,y,z
1/2-x,-y,z
1/2+x,-y,-z
-x,y,-z
-x,-y,-z
1/2+x,y,-z
1/2-x,y,z
x,-y,z
loop_
_atom_site_type_symbol
_atom_site_label
_atom_site_fract_x
_atom_site_fract_y
_atom_site_fract_z
Si Si1 0.091743 0.380603 0.044224
Si Si2 0.806218 0.668586 0.133948
Si Si3 0.308212 0.881279 0.020297
Si Si4 0.000000 0.761569 0.000000
Si Si5 0.807410 0.383430 0.506401
Si Si6 0.871957 0.772621 0.699809
Si Si7 0.472862 0.876024 0.336559
O O1 0.075838 0.500000 0.055374
O O2 0.146039 0.375206 0.959738
O O3 0.048435 0.310547 0.965003
O O4 0.100429 0.324530 0.213954
O O5 0.750000 0.644349 0.068492
O O6 0.807755 0.626911 0.314044
O O7 0.811899 0.794763 0.120402
O O8 0.250000 0.883496 0.067665
O O9 0.340584 0.834987 0.165774
O O10 0.323210 0.000000 0.978831
O O11 0.989379 0.826800 0.835989
O O12 0.750000 0.377963 0.561428
O O13 0.826516 0.500000 0.551479
O O14 0.836533 0.284665 0.574823
O O15 0.914835 0.848321 0.638154
O O16 0.500000 0.837864 0.500000
O O17 0.480471 0.000000 0.324457
#
# Coordination Sequence:
#
# PCOD9403860 Si02
#       7
#     8   8   8   4   8   8   8
#     4  10  20  35  56  81 110 146 186 232 281 338
#     4   9  19  34  53  79 109 146 189 232 277 335
#     4   9  17  32  53  76 104 138 177 223 274 329
#     4  10  22  38  62  84 114 150 188 240 294 346
#     4  10  20  34  53  80 116 152 185 226 276 334
#     4  10  20  34  55  78 110 140 182 226 278 334
#     4  10  22  40  60  83 111 144 189 238 287 344
#
# _framework density 18.249934
#
# number of rings (size 3 to 8) (size 9 to 14) (size 15 to 20)
#    0.000    2.308    0.000    2.308    2.154    1.538 
#    0.000    2.308    0.000    6.462    0.000    0.000 
#    0.000    0.000    0.000    0.000    0.000    0.000 
#
# Total GULP energy -289600.686581 kJ/mol
# GULP energy per Si atom -5569.243973 kJ/mol
# Density = 1.820840 g / cm^3
# Si number density = 18.249934 Si / 1000 Ang^3
#
#
#
# Elastic Constant Matrix: (Units=GPa)
#
#
# Indices 1 2 3 4 5 6 
#
# 1 66.2955 20.4476 16.0478 0.0000 0.0000 0.0000
# 2 20.4476 102.3456 20.6846 0.0000 0.0000 0.0000
# 3 16.0478 20.6846 40.1769 0.0000 0.0000 0.0000
# 4 0.0000 0.0000 0.0000 14.3325 0.0000 0.0000
# 5 0.0000 0.0000 0.0000 0.0000 35.7989 0.0000
# 6 0.0000 0.0000 0.0000 0.0000 0.0000 35.2785
#
#
#
# Elastic Compliance Matrix: (Units=1/GPa)
#
#
# Indices 1 2 3 4 5 6 
#
# 1 0.017163 -0.002281 -0.005681 0.000000 0.000000 0.000000
# 2 -0.002281 0.011209 -0.004860 0.000000 0.000000 0.000000
# 3 -0.005681 -0.004860 0.029661 0.000000 0.000000 0.000000
# 4 0.000000 0.000000 0.000000 0.069771 0.000000 0.000000
# 5 0.000000 0.000000 0.000000 0.000000 0.027934 0.000000
# 6 0.000000 0.000000 0.000000 0.000000 0.000000 0.028346
#
#
# Mechanical properties :
#
#
# Convention : Reuss Voigt Hill
#
# Bulk Modulus (GPa) = 30.87425 35.90865 33.39145
# Shear Modulus (GPa) = 22.67341 27.19119 24.93230
#
# Velocity S-wave (km/s) = 3.52857 3.86415 3.70017
# Velocity P-wave (km/s) = 5.79269 6.29505 6.04909
#
# Compressibility (1/GPa) = 0.03238945
#
# Stress axis : x y z
#
# Youngs Moduli (GPa) = 58.26626 89.21689 33.71433
#
# Poissons Ratio (x) = 0.20348 0.19153
# Poissons Ratio (y) = 0.13289 0.16384
# Poissons Ratio (z) = 0.33101 0.43356
#
# Static dielectric constant tensor:
#      x y z
#    x 1.656670 0.000000 0.000000 
#    y 0.000000 1.643010 0.000000 
#    z 0.000000 0.000000 1.613210 
# 
# From -- ./inp_files/12352.got.cif
#   From: 2010.05.17/outbox.cif.g08.bks.cpg/sg51_7_cif.got.tgz:12352.got - 2010.06.03 11:52:47.
