data_PCOD9403968
_publ_section_title
;
Structure prediction by ZEFSAII (Michael W. Deem and Ramdas Pophale) SiO2 
 PCOD9403968
Probable space group: P M M A
;
_chemical_formula_sum "Si O2"
_cell_formula_units_Z 48
_cell_length_a 9.269639
_cell_length_b 7.767004
_cell_length_c 31.818703
_cell_angle_alpha 90.000000
_cell_angle_beta 90.000000
_cell_angle_gamma 90.000000
_cell_volume 2290.861443
_symmetry_space_group_name_H-M "P M M A"
_symmetry_group_IT_number 51
_symmetry_cell_setting 'orthorhombic'
loop_
_space_group_symop_operation_xyz
x,y,z
1/2-x,-y,z
1/2+x,-y,-z
-x,y,-z
-x,-y,-z
1/2+x,y,-z
1/2-x,y,z
x,-y,z
loop_
_atom_site_type_symbol
_atom_site_label
_atom_site_fract_x
_atom_site_fract_y
_atom_site_fract_z
Si Si1 0.585997 0.706598 0.124595
Si Si2 0.414394 0.292581 0.374444
Si Si3 0.086112 0.205409 0.208807
Si Si4 0.913825 0.706476 0.292928
Si Si5 0.416404 0.710764 0.042045
Si Si6 0.085464 0.792526 0.541015
O O1 0.750000 0.773286 0.126458
O O2 0.594708 0.500000 0.120389
O O3 0.499527 0.742504 0.167089
O O4 0.499608 0.770050 0.083767
O O5 0.250000 0.227685 0.375953
O O6 0.407698 0.500000 0.371190
O O7 0.499478 0.227084 0.333469
O O8 0.500268 0.250674 0.416695
O O9 0.250000 0.274742 0.208753
O O10 0.000109 0.259331 0.250310
O O11 0.094044 0.000000 0.209100
O O12 0.750000 0.773726 0.291033
O O13 0.904670 0.500000 0.297440
O O14 0.250000 0.765930 0.041893
O O15 0.416077 0.500000 0.042362
O O16 0.500000 0.764141 0.000000
O O17 0.250000 0.727994 0.542246
O O18 0.000000 0.728520 0.500000
O O19 0.091574 0.000000 0.538028
#
# Coordination Sequence:
#
# PCOD9403968 Si02
#       6
#     8   8   8   8   8   8
#     4  10  20  34  54  80 108 140 179 221 267 319
#     4  10  21  37  58  84 112 143 179 220 268 320
#     4  11  24  39  55  78 108 142 180 221 266 318
#     4  10  21  38  60  84 109 139 177 221 269 321
#     4   9  16  27  46  74 107 140 175 218 265 312
#     4  10  21  37  57  81 110 146 186 226 269 317
#
# _framework density 20.952818000000001
#
# number of rings (size 3 to 8) (size 9 to 14) (size 15 to 20)
#    0.000    2.000    0.000    3.500    0.000   10.333 
#    0.000    0.000    0.000    0.500    0.000    0.000 
#    0.000    0.000    0.000    0.000    0.000    0.000 
#
# Total GULP energy -268312.447293 kJ/mol
# GULP energy per Si atom -5589.842652 kJ/mol
# Density = 2.090513 g / cm^3
# Si number density = 20.952818 Si / 1000 Ang^3
#
#
#
# Elastic Constant Matrix: (Units=GPa)
#
#
# Indices 1 2 3 4 5 6 
#
# 1 271.5818 9.9144 160.0279 0.0000 0.0000 0.0000
# 2 9.9144 29.0448 -2.1390 0.0000 0.0000 0.0000
# 3 160.0279 -2.1390 248.1329 0.0000 0.0000 0.0000
# 4 0.0000 0.0000 0.0000 56.1298 0.0000 0.0000
# 5 0.0000 0.0000 0.0000 0.0000 48.6605 0.0000
# 6 0.0000 0.0000 0.0000 0.0000 0.0000 15.7505
#
#
#
# Elastic Compliance Matrix: (Units=1/GPa)
#
#
# Indices 1 2 3 4 5 6 
#
# 1 0.006098 -0.002373 -0.003953 0.000000 0.000000 0.000000
# 2 -0.002373 0.035375 0.001835 0.000000 0.000000 0.000000
# 3 -0.003953 0.001835 0.006596 0.000000 0.000000 0.000000
# 4 0.000000 0.000000 0.000000 0.017816 0.000000 0.000000
# 5 0.000000 0.000000 0.000000 0.000000 0.020551 0.000000
# 6 0.000000 0.000000 0.000000 0.000000 0.000000 0.063490
#
#
# Mechanical properties :
#
#
# Convention : Reuss Voigt Hill
#
# Bulk Modulus (GPa) = 25.58420 98.26290 61.92355
# Shear Modulus (GPa) = 29.08059 49.50522 39.29290
#
# Velocity S-wave (km/s) = 3.72951 4.86603 4.33518
# Velocity P-wave (km/s) = 5.54820 8.86398 7.39434
#
# Compressibility (1/GPa) = 0.03908662
#
# Stress axis : x y z
#
# Youngs Moduli (GPa) = 163.98088 28.26878 151.61671
#
# Poissons Ratio (x) = 0.06708 0.59940
# Poissons Ratio (y) = 0.38909 -0.27825
# Poissons Ratio (z) = 0.64828 -0.05188
#
# Static dielectric constant tensor:
#      x y z
#    x 1.740340 0.000000 0.000000 
#    y 0.000000 1.778720 0.000000 
#    z 0.000000 0.000000 1.694080 
# 
# From -- ./inp_files/36963.got.cif
#   From: 2010.05.17/outbox.cif.g08.bks.cpg/sg51_19_cif.got.tgz:36963.got - 2010.06.03 11:52:47.
