data_PCOD9403023
_publ_section_title
;
Structure prediction by ZEFSAII (Michael W. Deem and Ramdas Pophale) SiO2 
 PCOD9403023
Probable space group: P M M A
;
_chemical_formula_sum "Si O2"
_cell_formula_units_Z 56
_cell_length_a 9.031591
_cell_length_b 15.493317
_cell_length_c 31.605572
_cell_angle_alpha 90.000000
_cell_angle_beta 90.000000
_cell_angle_gamma 90.000000
_cell_volume 4422.545641
_symmetry_space_group_name_H-M "P M M A"
_symmetry_group_IT_number 51
_symmetry_cell_setting 'orthorhombic'
loop_
_space_group_symop_operation_xyz
x,y,z
1/2-x,-y,z
1/2+x,-y,-z
-x,y,-z
-x,-y,-z
1/2+x,y,-z
1/2-x,y,z
x,-y,z
loop_
_atom_site_type_symbol
_atom_site_label
_atom_site_fract_x
_atom_site_fract_y
_atom_site_fract_z
Si Si1 0.420859 0.894820 0.956809
Si Si2 0.079161 0.894830 0.129564
Si Si3 0.072530 0.595237 0.546750
Si Si4 0.927490 0.768417 0.546649
Si Si5 0.924165 0.103486 0.389225
Si Si6 0.579111 0.105218 0.215972
Si Si7 0.580201 0.104893 0.698096
O O1 0.250000 0.868690 0.956436
O O2 0.502322 0.866706 0.913974
O O3 0.424316 0.000000 0.956825
O O4 0.500000 0.866697 0.000000
O O5 0.250000 0.868580 0.130789
O O6 0.994744 0.866917 0.171959
O O7 0.076015 0.000000 0.129487
O O8 0.250000 0.608270 0.543547
O O9 0.047628 0.500000 0.566254
O O10 0.000000 0.591130 0.500000
O O11 0.993851 0.679132 0.565848
O O12 0.750000 0.764158 0.543365
O O13 0.000000 0.778108 0.500000
O O14 0.981467 0.846363 0.575912
O O15 0.750000 0.123483 0.393579
O O16 0.983303 0.128437 0.342685
O O17 0.941769 0.000000 0.393628
O O18 0.750000 0.131429 0.218260
O O19 0.490374 0.133734 0.257575
O O20 0.576288 0.000000 0.216006
O O21 0.750000 0.133544 0.693572
O O22 0.581534 0.000000 0.699272
#
# Coordination Sequence:
#
# PCOD9403023 Si02
#       7
#     8   8   8   8   8   8   8
#     4   9  15  21  27  34  45  62  83 106 134 172
#     4   9  15  21  28  38  51  66  85 111 143 178
#     4   9  16  27  44  64  84 103 122 145 173 205
#     4  11  21  32  46  62  81 102 124 150 177 208
#     4  10  20  33  46  58  74  97 124 152 180 211
#     4   9  15  22  32  45  59  74  93 119 152 188
#     4   9  16  26  39  53  67  83 105 133 165 200
#
# _framework density 12.662391
#
# number of rings (size 3 to 8) (size 9 to 14) (size 15 to 20)
#    0.000    2.571    0.000    4.714    0.000    8.857 
#    0.000    0.000    0.000    0.000    0.000    0.000 
#    0.000    0.000    0.000    0.000    0.000    0.000 
#
# Total GULP energy -311778.480745 kJ/mol
# GULP energy per Si atom -5567.472870 kJ/mol
# Density = 1.263357 g / cm^3
# Si number density = 12.662391 Si / 1000 Ang^3
#
#
#
# Elastic Constant Matrix: (Units=GPa)
#
#
# Indices 1 2 3 4 5 6 
#
# 1 114.2486 23.3352 46.6016 0.0000 0.0000 0.0000
# 2 23.3352 21.2923 19.3487 0.0000 0.0000 0.0000
# 3 46.6016 19.3487 82.7834 0.0000 0.0000 0.0000
# 4 0.0000 0.0000 0.0000 -0.3516 0.0000 0.0000
# 5 0.0000 0.0000 0.0000 0.0000 25.2882 0.0000
# 6 0.0000 0.0000 0.0000 0.0000 0.0000 11.4710
#
#
#
# Elastic Compliance Matrix: (Units=1/GPa)
#
#
# Indices 1 2 3 4 5 6 
#
# 1 0.012693 -0.009418 -0.004944 0.000000 0.000000 0.000000
# 2 -0.009418 0.066619 -0.010269 0.000000 0.000000 0.000000
# 3 -0.004944 -0.010269 0.017263 0.000000 0.000000 0.000000
# 4 0.000000 0.000000 0.000000 -2.844522 0.000000 0.000000
# 5 0.000000 0.000000 0.000000 0.000000 0.039544 0.000000
# 6 0.000000 0.000000 0.000000 0.000000 0.000000 0.087176
#
#
# Mechanical properties :
#
#
# Convention : Reuss Voigt Hill
#
# Bulk Modulus (GPa) = 21.13600 44.09948 32.61774
# Shear Modulus (GPa) = -1.95603 15.88412 6.96404
#
# Velocity S-wave (km/s) = -1.24423 3.54564 2.34771
# Velocity P-wave (km/s) = 3.82937 7.18782 5.75886
#
# Compressibility (1/GPa) = 0.04731265
#
# Stress axis : x y z
#
# Youngs Moduli (GPa) = 78.78234 15.01084 57.92732
#
# Poissons Ratio (x) = 0.14137 0.28640
# Poissons Ratio (y) = 0.74199 0.59484
# Poissons Ratio (z) = 0.38951 0.15414
#
# Static dielectric constant tensor:
#      x y z
#    x 1.424980 0.000000 0.000000 
#    y 0.000000 1.398660 0.000000 
#    z 0.000000 0.000000 1.411520 
# 
# From -- ./inp_files/37459.got.cif
#   From: 2010.05.17/outbox.cif.g08.bks.cpg/sg51_19_cif.got.tgz:37459.got - 2010.06.03 11:52:47.
