data_PCOD9403172
_publ_section_title
;
Structure prediction by ZEFSAII (Michael W. Deem and Ramdas Pophale) SiO2 
 PCOD9403172
Probable space group: P M M A
;
_chemical_formula_sum "Si O2"
_cell_formula_units_Z 48
_cell_length_a 14.579904
_cell_length_b 7.732034
_cell_length_c 21.761147
_cell_angle_alpha 90.000000
_cell_angle_beta 90.000000
_cell_angle_gamma 90.000000
_cell_volume 2453.184445
_symmetry_space_group_name_H-M "P M M A"
_symmetry_group_IT_number 51
_symmetry_cell_setting 'orthorhombic'
loop_
_space_group_symop_operation_xyz
x,y,z
1/2-x,-y,z
1/2+x,-y,-z
-x,y,-z
-x,-y,-z
1/2+x,y,-z
1/2-x,y,z
x,-y,z
loop_
_atom_site_type_symbol
_atom_site_label
_atom_site_fract_x
_atom_site_fract_y
_atom_site_fract_z
Si Si1 0.853640 0.798436 0.847436
Si Si2 0.854607 0.711879 0.174689
Si Si3 0.020076 0.703888 0.259359
Si Si4 0.645968 0.211377 0.489585
Si Si5 0.517855 0.700680 0.066879
Si Si6 0.484781 0.208619 0.401325
O O1 0.750000 0.730709 0.849598
O O2 0.897216 0.784712 0.779566
O O3 0.925028 0.708732 0.893220
O O4 0.852204 0.000000 0.864599
O O5 0.750000 0.769662 0.181508
O O6 0.853646 0.500000 0.174051
O O7 0.923960 0.765168 0.229156
O O8 0.902668 0.772489 0.111334
O O9 0.025612 0.500000 0.247475
O O10 0.024059 0.734385 0.331568
O O11 0.750000 0.271545 0.484175
O O12 0.579161 0.265809 0.434180
O O13 0.597093 0.264534 0.553184
O O14 0.646912 0.000000 0.489298
O O15 0.543216 0.500000 0.056754
O O16 0.500000 0.780051 0.000000
O O17 0.484800 0.000000 0.401645
#
# Coordination Sequence:
#
# PCOD9403172 Si02
#       6
#     8   8   8   8   8   8
#     4  10  21  36  53  73  99 133 171 209 248 291
#     4   8  15  29  47  67  94 128 163 196 234 287
#     4  10  20  33  50  72  99 130 164 206 253 297
#     4   8  15  29  48  69  94 125 160 197 238 288
#     4   9  18  32  52  78 104 131 163 201 248 298
#     4   9  17  30  49  71  94 123 161 201 240 288
#
# _framework density 19.566405
#
# number of rings (size 3 to 8) (size 9 to 14) (size 15 to 20)
#    0.000    3.000    0.000    3.000    0.000    3.667 
#    0.000    5.000    0.000   13.000    0.000    0.000 
#    0.000    0.000    0.000    0.000    0.000    0.000 
#
# Total GULP energy -267614.044941 kJ/mol
# GULP energy per Si atom -5575.292603 kJ/mol
# Density = 1.952187 g / cm^3
# Si number density = 19.566405 Si / 1000 Ang^3
#
#
#
# Elastic Constant Matrix: (Units=GPa)
#
#
# Indices 1 2 3 4 5 6 
#
# 1 106.1534 -10.0464 12.4962 0.0000 0.0000 0.0000
# 2 -10.0464 29.6684 -13.1623 0.0000 0.0000 0.0000
# 3 12.4962 -13.1623 105.2944 0.0000 0.0000 0.0000
# 4 0.0000 0.0000 0.0000 17.0583 0.0000 0.0000
# 5 0.0000 0.0000 0.0000 0.0000 7.0631 0.0000
# 6 0.0000 0.0000 0.0000 0.0000 0.0000 -31.3343
#
#
#
# Elastic Compliance Matrix: (Units=1/GPa)
#
#
# Indices 1 2 3 4 5 6 
#
# 1 0.009794 0.002965 -0.000792 0.000000 0.000000 0.000000
# 2 0.002965 0.036583 0.004221 0.000000 0.000000 0.000000
# 3 -0.000792 0.004221 0.010119 0.000000 0.000000 0.000000
# 4 0.000000 0.000000 0.000000 0.058623 0.000000 0.000000
# 5 0.000000 0.000000 0.000000 0.000000 0.141581 0.000000
# 6 0.000000 0.000000 0.000000 0.000000 0.000000 -0.031914
#
#
# Mechanical properties :
#
#
# Convention : Reuss Voigt Hill
#
# Bulk Modulus (GPa) = 14.43310 24.41013 19.42162
# Shear Modulus (GPa) = 21.26840 15.34601 18.30720
#
# Velocity S-wave (km/s) = 3.30052 2.80358 3.06215
# Velocity P-wave (km/s) = 4.68157 4.79403 4.73813
#
# Compressibility (1/GPa) = 0.06928517
#
# Stress axis : x y z
#
# Youngs Moduli (GPa) = 102.10161 27.33528 98.82604
#
# Poissons Ratio (x) = -0.08106 0.07824
# Poissons Ratio (y) = -0.30276 -0.41715
# Poissons Ratio (z) = 0.08083 -0.11538
#
# Static dielectric constant tensor:
#      x y z
#    x 1.673040 0.000000 0.000000 
#    y 0.000000 1.742130 0.000000 
#    z 0.000000 0.000000 1.667890 
# 
# From -- ./inp_files/33185.got.cif
#   From: 2010.05.17/outbox.cif.g08.bks.cpg/sg51_17_cif.got.tgz:33185.got - 2010.06.03 11:52:47.
