data_PCOD9403438
_publ_section_title
;
Structure prediction by ZEFSAII (Michael W. Deem and Ramdas Pophale) SiO2 
 PCOD9403438
Probable space group: P M M A
;
_chemical_formula_sum "Si O2"
_cell_formula_units_Z 48
_cell_length_a 9.390471
_cell_length_b 7.492091
_cell_length_c 35.495963
_cell_angle_alpha 90.000000
_cell_angle_beta 90.000000
_cell_angle_gamma 90.000000
_cell_volume 2497.292326
_symmetry_space_group_name_H-M "P M M A"
_symmetry_group_IT_number 51
_symmetry_cell_setting 'orthorhombic'
loop_
_space_group_symop_operation_xyz
x,y,z
1/2-x,-y,z
1/2+x,-y,-z
-x,y,-z
-x,-y,-z
1/2+x,y,-z
1/2-x,y,z
x,-y,z
loop_
_atom_site_type_symbol
_atom_site_label
_atom_site_fract_x
_atom_site_fract_y
_atom_site_fract_z
Si Si1 0.919973 0.500000 0.539374
Si Si2 0.420018 0.000000 0.039380
Si Si3 0.581440 0.711002 0.898477
Si Si4 0.088816 0.713119 0.249033
Si Si5 0.913661 0.282064 0.176642
Si Si6 0.411704 0.785701 0.675767
Si Si7 0.918538 0.211744 0.601671
O O1 0.750000 0.500000 0.532945
O O2 0.954728 0.328036 0.565146
O O3 0.000000 0.500000 0.500000
O O4 0.454957 0.171487 0.065231
O O5 0.250000 0.000000 0.032964
O O6 0.500000 0.000000 0.000000
O O7 0.750000 0.736459 0.890501
O O8 0.558270 0.500000 0.905028
O O9 0.491492 0.767738 0.862069
O O10 0.250000 0.783630 0.251103
O O11 0.098932 0.500000 0.244155
O O12 0.001542 0.781036 0.212972
O O13 0.002778 0.743477 0.287327
O O14 0.750000 0.223621 0.177929
O O15 0.913249 0.500000 0.177479
O O16 0.250000 0.717730 0.678574
O O17 0.491330 0.726923 0.637794
O O18 0.405159 0.000000 0.673430
O O19 0.750000 0.237624 0.609608
O O20 0.941491 0.000000 0.595582
#
# Coordination Sequence:
#
# PCOD9403438 Si02
#       7
#     4   4   8   8   8   8   8
#     4  10  22  38  58  86 114 142 184 230 278 340
#     4  10  22  38  56  82 112 140 178 226 274 330
#     4   9  18  35  57  78 105 143 182 221 270 330
#     4  10  20  33  52  78 108 145 186 227 272 326
#     4   9  17  31  52  78 107 139 180 227 273 322
#     4  10  21  36  53  77 109 143 183 230 279 329
#     4   9  19  37  58  79 109 148 185 226 276 332
#
# _framework density 19.220818000000001
#
# number of rings (size 3 to 8) (size 9 to 14) (size 15 to 20)
#    0.000    2.500    0.000    1.500    1.167    6.000 
#    1.500    0.000    0.000    0.000    0.000    0.000 
#    0.000    0.000    0.000    0.000    0.000    0.000 
#
# Total GULP energy -268038.949514 kJ/mol
# GULP energy per Si atom -5584.144782 kJ/mol
# Density = 1.917707 g / cm^3
# Si number density = 19.220818 Si / 1000 Ang^3
#
#
#
# Elastic Constant Matrix: (Units=GPa)
#
#
# Indices 1 2 3 4 5 6 
#
# 1 140.5121 45.5461 127.8374 0.0000 0.0000 0.0000
# 2 45.5461 69.3355 53.3379 0.0000 0.0000 0.0000
# 3 127.8374 53.3379 221.9426 0.0000 0.0000 0.0000
# 4 0.0000 0.0000 0.0000 37.3246 0.0000 0.0000
# 5 0.0000 0.0000 0.0000 0.0000 44.4013 0.0000
# 6 0.0000 0.0000 0.0000 0.0000 0.0000 7.1333
#
#
#
# Elastic Compliance Matrix: (Units=1/GPa)
#
#
# Indices 1 2 3 4 5 6 
#
# 1 0.015875 -0.004164 -0.008143 0.000000 0.000000 0.000000
# 2 -0.004164 0.018786 -0.002116 0.000000 0.000000 0.000000
# 3 -0.008143 -0.002116 0.009705 0.000000 0.000000 0.000000
# 4 0.000000 0.000000 0.000000 0.026792 0.000000 0.000000
# 5 0.000000 0.000000 0.000000 0.000000 0.022522 0.000000
# 6 0.000000 0.000000 0.000000 0.000000 0.000000 0.140188
#
#
# Mechanical properties :
#
#
# Convention : Reuss Voigt Hill
#
# Bulk Modulus (GPa) = 64.43795 98.35924 81.39859
# Shear Modulus (GPa) = 18.66454 31.44310 25.05382
#
# Velocity S-wave (km/s) = 3.11956 4.04900 3.61428
# Velocity P-wave (km/s) = 6.82447 8.55240 7.73683
#
# Compressibility (1/GPa) = 0.01551881
#
# Stress axis : x y z
#
# Youngs Moduli (GPa) = 62.99059 53.23143 103.04168
#
# Poissons Ratio (x) = 0.22165 0.83911
# Poissons Ratio (y) = 0.26229 0.21807
# Poissons Ratio (z) = 0.51296 0.11265
#
# Static dielectric constant tensor:
#      x y z
#    x 1.660370 0.000000 0.000000 
#    y 0.000000 1.709320 0.000000 
#    z 0.000000 0.000000 1.612450 
# 
# From -- ./inp_files/37066.got.cif
#   From: 2010.05.17/outbox.cif.g08.bks.cpg/sg51_19_cif.got.tgz:37066.got - 2010.06.03 11:52:47.
