data_PCOD9403073
_publ_section_title
;
Structure prediction by ZEFSAII (Michael W. Deem and Ramdas Pophale) SiO2 
 PCOD9403073
Probable space group: P M M A
;
_chemical_formula_sum "Si O2"
_cell_formula_units_Z 64
_cell_length_a 9.563439
_cell_length_b 14.855272
_cell_length_c 29.588565
_cell_angle_alpha 90.000000
_cell_angle_beta 90.000000
_cell_angle_gamma 90.000000
_cell_volume 4203.573091
_symmetry_space_group_name_H-M "P M M A"
_symmetry_group_IT_number 51
_symmetry_cell_setting 'orthorhombic'
loop_
_space_group_symop_operation_xyz
x,y,z
1/2-x,-y,z
1/2+x,-y,-z
-x,y,-z
-x,-y,-z
1/2+x,y,-z
1/2-x,y,z
x,-y,z
loop_
_atom_site_type_symbol
_atom_site_label
_atom_site_fract_x
_atom_site_fract_y
_atom_site_fract_z
Si Si1 0.910469 0.890198 0.043676
Si Si2 0.408385 0.891306 0.128160
Si Si3 0.581735 0.105953 0.766844
Si Si4 0.593145 0.861017 0.541220
Si Si5 0.413008 0.643530 0.455461
Si Si6 0.415121 0.394814 0.636690
Si Si7 0.401067 0.901851 0.621899
Si Si8 0.089456 0.238327 0.702456
O O1 0.750000 0.860797 0.040759
O O2 0.985366 0.859679 0.089802
O O3 0.909541 0.000000 0.043970
O O4 0.000000 0.862866 0.000000
O O5 0.250000 0.858388 0.119904
O O6 0.447043 0.874484 0.180197
O O7 0.403226 0.000000 0.124400
O O8 0.750000 0.110471 0.760276
O O9 0.504778 0.182222 0.737480
O O10 0.541667 0.000000 0.757739
O O11 0.500000 0.892283 0.500000
O O12 0.750000 0.891650 0.536256
O O13 0.590839 0.752172 0.541967
O O14 0.524758 0.892785 0.587208
O O15 0.500000 0.612478 0.500000
O O16 0.250000 0.612825 0.455706
O O17 0.493768 0.620725 0.408790
O O18 0.250000 0.373484 0.627123
O O19 0.424378 0.500000 0.648128
O O20 0.457856 0.332464 0.679423
O O21 0.250000 0.893379 0.597723
O O22 0.407191 0.826256 0.658980
O O23 0.405628 0.000000 0.643836
O O24 0.250000 0.248470 0.719242
#
# Coordination Sequence:
#
# PCOD9403073 Si02
#       8
#     8   8   8   8   8   8   8   8
#     4   9  15  21  31  49  74 107 147 190 233 272
#     4   8  14  25  38  53  77 109 146 188 228 264
#     4   9  18  31  47  67  91 120 153 189 229 270
#     4  10  20  33  50  69  89 114 141 168 202 244
#     4  10  20  34  54  76  96 117 140 168 205 251
#     4  10  21  37  56  75  94 117 144 175 214 260
#     4  10  20  33  49  68  89 114 143 174 209 249
#     4  10  20  34  51  69  91 115 143 180 220 261
#
# _framework density 15.225142
#
# number of rings (size 3 to 8) (size 9 to 14) (size 15 to 20)
#    0.000    2.500    1.250    2.250    0.000    5.750 
#    0.000    1.250    0.000    0.000    0.000    0.000 
#    0.000    0.000    0.000    0.000    0.000    0.625 
#
# Total GULP energy -356460.120417 kJ/mol
# GULP energy per Si atom -5569.689382 kJ/mol
# Density = 1.519049 g / cm^3
# Si number density = 15.225142 Si / 1000 Ang^3
#
#
#
# Elastic Constant Matrix: (Units=GPa)
#
#
# Indices 1 2 3 4 5 6 
#
# 1 107.9537 30.0276 70.5337 0.0000 0.0000 0.0000
# 2 30.0276 62.9574 31.6837 0.0000 0.0000 0.0000
# 3 70.5337 31.6837 97.4956 0.0000 0.0000 0.0000
# 4 0.0000 0.0000 0.0000 6.2383 0.0000 0.0000
# 5 0.0000 0.0000 0.0000 0.0000 28.3502 0.0000
# 6 0.0000 0.0000 0.0000 0.0000 0.0000 12.7496
#
#
#
# Elastic Compliance Matrix: (Units=1/GPa)
#
#
# Indices 1 2 3 4 5 6 
#
# 1 0.017868 -0.002411 -0.012143 0.000000 0.000000 0.000000
# 2 -0.002411 0.019315 -0.004533 0.000000 0.000000 0.000000
# 3 -0.012143 -0.004533 0.020515 0.000000 0.000000 0.000000
# 4 0.000000 0.000000 0.000000 0.160301 0.000000 0.000000
# 5 0.000000 0.000000 0.000000 0.000000 0.035273 0.000000
# 6 0.000000 0.000000 0.000000 0.000000 0.000000 0.078434
#
#
# Mechanical properties :
#
#
# Convention : Reuss Voigt Hill
#
# Bulk Modulus (GPa) = 51.21874 59.21075 55.21475
# Shear Modulus (GPa) = 13.28422 18.54507 15.91464
#
# Velocity S-wave (km/s) = 2.95705 3.49385 3.23660
# Velocity P-wave (km/s) = 6.73593 7.43307 7.09307
#
# Compressibility (1/GPa) = 0.01952410
#
# Stress axis : x y z
#
# Youngs Moduli (GPa) = 55.96693 51.77395 48.74546
#
# Poissons Ratio (x) = 0.12483 0.59191
# Poissons Ratio (y) = 0.13494 0.22094
# Poissons Ratio (z) = 0.67960 0.23467
#
# Static dielectric constant tensor:
#      x y z
#    x 1.536520 0.000000 0.000000 
#    y 0.000000 1.509750 0.000000 
#    z 0.000000 0.000000 1.494300 
# 
# From -- ./inp_files/37619.got.cif
#   From: 2010.05.17/outbox.cif.g08.bks.cpg/sg51_19_cif.got.tgz:37619.got - 2010.06.03 11:52:47.
