data_PCOD9403939
_publ_section_title
;
Structure prediction by ZEFSAII (Michael W. Deem and Ramdas Pophale) SiO2 
 PCOD9403939
Probable space group: P M M A
;
_chemical_formula_sum "Si O2"
_cell_formula_units_Z 64
_cell_length_a 19.104081
_cell_length_b 9.059091
_cell_length_c 21.218690
_cell_angle_alpha 90.000000
_cell_angle_beta 90.000000
_cell_angle_gamma 90.000000
_cell_volume 3672.225491
_symmetry_space_group_name_H-M "P M M A"
_symmetry_group_IT_number 51
_symmetry_cell_setting 'orthorhombic'
loop_
_space_group_symop_operation_xyz
x,y,z
1/2-x,-y,z
1/2+x,-y,-z
-x,y,-z
-x,-y,-z
1/2+x,y,-z
1/2-x,y,z
x,-y,z
loop_
_atom_site_type_symbol
_atom_site_label
_atom_site_fract_x
_atom_site_fract_y
_atom_site_fract_z
Si Si1 0.829871 0.322815 0.622864
Si Si2 0.401988 0.323146 0.243684
Si Si3 0.167688 0.821979 0.121527
Si Si4 0.967163 0.175457 0.304696
Si Si5 0.459280 0.823571 0.437752
Si Si6 0.329731 0.323507 0.890060
Si Si7 0.080774 0.822289 0.996871
Si Si8 0.669893 0.676794 0.258248
O O1 0.750000 0.273837 0.614014
O O2 0.832495 0.500000 0.616810
O O3 0.855962 0.287652 0.693911
O O4 0.884783 0.251508 0.574959
O O5 0.406574 0.500000 0.237993
O O6 0.366285 0.254008 0.182395
O O7 0.478355 0.255256 0.257655
O O8 0.250000 0.784409 0.115861
O O9 0.162577 0.000000 0.128147
O O10 0.124778 0.778529 0.058902
O O11 0.889866 0.238064 0.295205
O O12 0.994812 0.205671 0.375272
O O13 0.969296 0.000000 0.294093
O O14 0.500000 0.772722 0.500000
O O15 0.449323 0.000000 0.442416
O O16 0.250000 0.281232 0.906981
O O17 0.335853 0.500000 0.897321
O O18 0.383094 0.242904 0.935266
O O19 0.339563 0.290786 0.816190
O O20 0.082467 0.000000 0.993632
O O21 0.000000 0.775186 0.000000
O O22 0.750000 0.715556 0.275183
O O23 0.662255 0.500000 0.266220
#
# Coordination Sequence:
#
# PCOD9403939 Si02
#       8
#     8   8   8   8   8   8   8   8
#     4   9  18  33  53  79 109 138 174 218 259 306
#     4  10  20  34  54  79 107 139 173 214 264 315
#     4  10  21  36  52  73 105 140 173 215 265 314
#     4  10  20  34  55  81 108 138 175 217 259 309
#     4   9  19  36  55  77 107 143 180 216 256 304
#     4   9  19  36  56  76  99 130 171 217 262 311
#     4  10  22  37  52  74 104 137 173 215 262 312
#     4   9  19  36  56  79 108 139 173 217 267 315
#
# _framework density 17.428122999999999
#
# number of rings (size 3 to 8) (size 9 to 14) (size 15 to 20)
#    0.000    2.500    0.000    2.250    1.750    4.500 
#    0.000    1.875    0.000    3.750    0.000    0.000 
#    0.000    0.000    0.000    0.000    0.000    0.000 
#
# Total GULP energy -357125.921084 kJ/mol
# GULP energy per Si atom -5580.092517 kJ/mol
# Density = 1.738846 g / cm^3
# Si number density = 17.428123 Si / 1000 Ang^3
#
#
#
# Elastic Constant Matrix: (Units=GPa)
#
#
# Indices 1 2 3 4 5 6 
#
# 1 160.3780 51.3758 63.2977 0.0000 0.0000 0.0000
# 2 51.3758 24.6371 32.1560 0.0000 0.0000 0.0000
# 3 63.2977 32.1560 53.2590 0.0000 0.0000 0.0000
# 4 0.0000 0.0000 0.0000 24.5694 0.0000 0.0000
# 5 0.0000 0.0000 0.0000 0.0000 28.2281 0.0000
# 6 0.0000 0.0000 0.0000 0.0000 0.0000 27.1159
#
#
#
# Elastic Compliance Matrix: (Units=1/GPa)
#
#
# Indices 1 2 3 4 5 6 
#
# 1 0.019233 -0.048462 0.006401 0.000000 0.000000 0.000000
# 2 -0.048462 0.313591 -0.131740 0.000000 0.000000 0.000000
# 3 0.006401 -0.131740 0.090708 0.000000 0.000000 0.000000
# 4 0.000000 0.000000 0.000000 0.040701 0.000000 0.000000
# 5 0.000000 0.000000 0.000000 0.000000 0.035426 0.000000
# 6 0.000000 0.000000 0.000000 0.000000 0.000000 0.036879
#
#
# Mechanical properties :
#
#
# Convention : Reuss Voigt Hill
#
# Bulk Modulus (GPa) = 13.16960 59.10366 36.13663
# Shear Modulus (GPa) = 5.49784 22.07900 13.78842
#
# Velocity S-wave (km/s) = 1.77804 3.56316 2.81581
# Velocity P-wave (km/s) = 3.43339 7.13544 5.59923
#
# Compressibility (1/GPa) = 0.07593246
#
# Stress axis : x y z
#
# Youngs Moduli (GPa) = 51.99346 3.18887 11.02433
#
# Poissons Ratio (x) = 0.15454 -0.07057
# Poissons Ratio (y) = 2.51968 1.45234
# Poissons Ratio (z) = -0.33281 0.42010
#
# Static dielectric constant tensor:
#      x y z
#    x 1.588190 0.000000 0.000000 
#    y 0.000000 1.579350 0.000000 
#    z 0.000000 0.000000 1.569260 
# 
# From -- ./inp_files/33985.got.cif
#   From: 2010.05.17/outbox.cif.g08.bks.cpg/sg51_17_cif.got.tgz:33985.got - 2010.06.03 11:52:47.
