data_PCOD9403261
_publ_section_title
;
Structure prediction by ZEFSAII (Michael W. Deem and Ramdas Pophale) SiO2 
 PCOD9403261
Probable space group: P M M A
;
_chemical_formula_sum "Si O2"
_cell_formula_units_Z 56
_cell_length_a 21.850218
_cell_length_b 7.600661
_cell_length_c 15.345961
_cell_angle_alpha 90.000000
_cell_angle_beta 90.000000
_cell_angle_gamma 90.000000
_cell_volume 2548.597350
_symmetry_space_group_name_H-M "P M M A"
_symmetry_group_IT_number 51
_symmetry_cell_setting 'orthorhombic'
loop_
_space_group_symop_operation_xyz
x,y,z
1/2-x,-y,z
1/2+x,-y,-z
-x,y,-z
-x,-y,-z
1/2+x,y,-z
1/2-x,y,z
x,-y,z
loop_
_atom_site_type_symbol
_atom_site_label
_atom_site_fract_x
_atom_site_fract_y
_atom_site_fract_z
Si Si1 0.005404 0.209919 0.728851
Si Si2 0.318851 0.699917 0.925224
Si Si3 0.684044 0.705858 0.525334
Si Si4 0.059268 0.709788 0.552499
Si Si5 0.319953 0.797992 0.120285
Si Si6 0.371644 0.213257 0.297661
Si Si7 0.955671 0.293761 0.078810
O O1 0.054283 0.260434 0.655885
O O2 0.013404 0.279908 0.826432
O O3 0.941199 0.267894 0.686166
O O4 0.003774 0.000000 0.737055
O O5 0.250000 0.775740 0.904253
O O6 0.318567 0.500000 0.890408
O O7 0.386240 0.781314 0.906654
O O8 0.321205 0.697511 0.030230
O O9 0.750000 0.783968 0.502734
O O10 0.685858 0.500000 0.501139
O O11 0.623025 0.784494 0.483227
O O12 0.672936 0.717703 0.628788
O O13 0.059810 0.500000 0.537033
O O14 0.000000 0.781212 0.500000
O O15 0.250000 0.803632 0.150981
O O16 0.357705 0.725680 0.200113
O O17 0.339289 0.000000 0.101707
O O18 0.366777 0.000000 0.297675
O O19 0.946246 0.500000 0.057145
O O20 0.000000 0.224032 0.000000
#
# Coordination Sequence:
#
# PCOD9403261 Si02
#       7
#     8   8   8   8   8   8   8
#     4  11  23  36  56  85 112 145 189 234 280 334
#     4   9  18  33  52  74 101 137 182 230 278 326
#     4  10  21  36  56  83 111 141 183 232 278 326
#     4  10  20  38  61  82 108 147 187 226 276 330
#     4   9  17  29  46  70 102 140 177 213 265 333
#     4  10  20  33  50  76 111 146 179 220 276 338
#     4  10  21  37  57  82 112 147 187 233 284 337
#
# _framework density 21.97287
#
# number of rings (size 3 to 8) (size 9 to 14) (size 15 to 20)
#    0.000    2.143    1.429    1.714    0.000    3.714 
#    0.000    2.143    0.000    4.286    0.000    0.000 
#    0.000    0.000    0.000    0.000    0.000    0.000 
#
# Total GULP energy -312177.166840 kJ/mol
# GULP energy per Si atom -5574.592265 kJ/mol
# Density = 2.192286 g / cm^3
# Si number density = 21.972870 Si / 1000 Ang^3
#
#
#
# Elastic Constant Matrix: (Units=GPa)
#
#
# Indices 1 2 3 4 5 6 
#
# 1 154.1366 11.4590 40.3317 0.0000 0.0000 0.0000
# 2 11.4590 51.6709 -10.3340 0.0000 0.0000 0.0000
# 3 40.3317 -10.3340 74.4467 0.0000 0.0000 0.0000
# 4 0.0000 0.0000 0.0000 27.8156 0.0000 0.0000
# 5 0.0000 0.0000 0.0000 0.0000 33.4150 0.0000
# 6 0.0000 0.0000 0.0000 0.0000 0.0000 1.7524
#
#
#
# Elastic Compliance Matrix: (Units=1/GPa)
#
#
# Indices 1 2 3 4 5 6 
#
# 1 0.007905 -0.002684 -0.004655 0.000000 0.000000 0.000000
# 2 -0.002684 0.020817 0.004344 0.000000 0.000000 0.000000
# 3 -0.004655 0.004344 0.016557 0.000000 0.000000 0.000000
# 4 0.000000 0.000000 0.000000 0.035951 0.000000 0.000000
# 5 0.000000 0.000000 0.000000 0.000000 0.029927 0.000000
# 6 0.000000 0.000000 0.000000 0.000000 0.000000 0.570637
#
#
# Mechanical properties :
#
#
# Convention : Reuss Voigt Hill
#
# Bulk Modulus (GPa) = 25.45265 40.35196 32.90230
# Shear Modulus (GPa) = 7.13386 28.51643 17.82515
#
# Velocity S-wave (km/s) = 1.80381 3.60641 2.85131
# Velocity P-wave (km/s) = 3.99338 5.97879 5.08395
#
# Compressibility (1/GPa) = 0.03928865
#
# Stress axis : x y z
#
# Youngs Moduli (GPa) = 126.49493 48.03701 60.39560
#
# Poissons Ratio (x) = 0.12894 0.28117
# Poissons Ratio (y) = 0.33954 -0.26235
# Poissons Ratio (z) = 0.58889 -0.20867
#
# Static dielectric constant tensor:
#      x y z
#    x 1.916240 0.000000 0.000000 
#    y 0.000000 1.825410 0.000000 
#    z 0.000000 0.000000 1.752420 
# 
# From -- ./inp_files/25753.got.cif
#   From: 2010.05.17/outbox.cif.g08.bks.cpg/sg51_13_cif.got.tgz:25753.got - 2010.06.03 11:52:47.
