data_PCOD9403294
_publ_section_title
;
Structure prediction by ZEFSAII (Michael W. Deem and Ramdas Pophale) SiO2 
 PCOD9403294
Probable space group: P M M A
;
_chemical_formula_sum "Si O2"
_cell_formula_units_Z 64
_cell_length_a 15.507035
_cell_length_b 7.664379
_cell_length_c 24.327173
_cell_angle_alpha 90.000000
_cell_angle_beta 90.000000
_cell_angle_gamma 90.000000
_cell_volume 2891.328140
_symmetry_space_group_name_H-M "P M M A"
_symmetry_group_IT_number 51
_symmetry_cell_setting 'orthorhombic'
loop_
_space_group_symop_operation_xyz
x,y,z
1/2-x,-y,z
1/2+x,-y,-z
-x,y,-z
-x,-y,-z
1/2+x,y,-z
1/2-x,y,z
x,-y,z
loop_
_atom_site_type_symbol
_atom_site_label
_atom_site_fract_x
_atom_site_fract_y
_atom_site_fract_z
Si Si1 0.577441 0.698468 0.964178
Si Si2 0.653278 0.703190 0.409932
Si Si3 0.651245 0.210447 0.536765
Si Si4 0.849456 0.213924 0.186668
Si Si5 0.349292 0.802276 0.930606
Si Si6 0.151349 0.289913 0.149800
Si Si7 0.481710 0.789712 0.246909
Si Si8 0.470984 0.797418 0.367308
O O1 0.550631 0.500000 0.951322
O O2 0.611001 0.778203 0.907841
O O3 0.500000 0.779148 0.000000
O O4 0.647046 0.700789 0.012571
O O5 0.750000 0.773993 0.398842
O O6 0.652846 0.500000 0.394869
O O7 0.638534 0.717983 0.475528
O O8 0.572560 0.789812 0.380334
O O9 0.750000 0.248420 0.553504
O O10 0.583713 0.277228 0.581881
O O11 0.642492 0.000000 0.531496
O O12 0.750000 0.270095 0.197401
O O13 0.886047 0.271799 0.126325
O O14 0.922363 0.270431 0.229496
O O15 0.848477 0.000000 0.185172
O O16 0.250000 0.815199 0.915109
O O17 0.380394 0.000000 0.939028
O O18 0.250000 0.226817 0.156986
O O19 0.156307 0.500000 0.144358
O O20 0.088398 0.250132 0.200205
O O21 0.456095 0.720646 0.306926
O O22 0.487058 0.000000 0.250713
O O23 0.444195 0.000000 0.364817
#
# Coordination Sequence:
#
# PCOD9403294 Si02
#       8
#     8   8   8   8   8   8   8   8
#     4  10  20  33  51  75 101 130 167 214 267 321
#     4  10  21  36  55  82 114 145 178 217 262 316
#     4   9  18  34  55  78 108 144 178 218 271 325
#     4   8  15  30  51  75 105 137 168 211 271 331
#     4   9  17  29  47  71  96 123 158 201 252 311
#     4  10  22  39  55  73 105 148 185 220 270 326
#     4  10  21  36  56  81 105 136 183 230 264 305
#     4  10  21  35  54  82 111 141 180 224 271 320
#
# _framework density 22.135157
#
# number of rings (size 3 to 8) (size 9 to 14) (size 15 to 20)
#    0.000    2.500    0.000    2.625    0.000    6.000 
#    0.000    2.500    0.000    2.625    0.000    0.000 
#    0.000    0.000    0.000    0.000    0.000    0.000 
#
# Total GULP energy -356822.619282 kJ/mol
# GULP energy per Si atom -5575.353426 kJ/mol
# Density = 2.208478 g / cm^3
# Si number density = 22.135157 Si / 1000 Ang^3
#
#
#
# Elastic Constant Matrix: (Units=GPa)
#
#
# Indices 1 2 3 4 5 6 
#
# 1 85.1350 -3.8993 15.2389 0.0000 0.0000 0.0000
# 2 -3.8993 39.8435 -6.9383 0.0000 0.0000 0.0000
# 3 15.2389 -6.9383 41.6243 0.0000 0.0000 0.0000
# 4 0.0000 0.0000 0.0000 303.8298 0.0000 0.0000
# 5 0.0000 0.0000 0.0000 0.0000 16.3186 0.0000
# 6 0.0000 0.0000 0.0000 0.0000 0.0000 9.8091
#
#
#
# Elastic Compliance Matrix: (Units=1/GPa)
#
#
# Indices 1 2 3 4 5 6 
#
# 1 0.012577 0.000442 -0.004531 0.000000 0.000000 0.000000
# 2 0.000442 0.025864 0.004149 0.000000 0.000000 0.000000
# 3 -0.004531 0.004149 0.026375 0.000000 0.000000 0.000000
# 4 0.000000 0.000000 0.000000 0.003291 0.000000 0.000000
# 5 0.000000 0.000000 0.000000 0.000000 0.061280 0.000000
# 6 0.000000 0.000000 0.000000 0.000000 0.000000 0.101946
#
#
# Mechanical properties :
#
#
# Convention : Reuss Voigt Hill
#
# Bulk Modulus (GPa) = 15.39958 19.48953 17.44456
# Shear Modulus (GPa) = 19.77392 76.80494 48.28943
#
# Velocity S-wave (km/s) = 2.99210 5.89691 4.67580
# Velocity P-wave (km/s) = 4.34845 7.42890 6.08677
#
# Compressibility (1/GPa) = 0.06493682
#
# Stress axis : x y z
#
# Youngs Moduli (GPa) = 79.50817 38.66380 37.91485
#
# Poissons Ratio (x) = -0.01708 0.17179
# Poissons Ratio (y) = -0.03513 -0.15733
# Poissons Ratio (z) = 0.36025 -0.16043
#
# Static dielectric constant tensor:
#      x y z
#    x 1.599460 0.000000 0.000000 
#    y 0.000000 1.865450 0.000000 
#    z 0.000000 0.000000 1.888890 
# 
# From -- ./inp_files/35761.got.cif
#   From: 2010.05.17/outbox.cif.g08.bks.cpg/sg51_18_cif.got.tgz:35761.got - 2010.06.03 11:52:47.
