data_PCOD9403579
_publ_section_title
;
Structure prediction by ZEFSAII (Michael W. Deem and Ramdas Pophale) SiO2 
 PCOD9403579
Probable space group: P M M A
;
_chemical_formula_sum "Si O2"
_cell_formula_units_Z 36
_cell_length_a 7.357179
_cell_length_b 8.206294
_cell_length_c 26.279992
_cell_angle_alpha 90.000000
_cell_angle_beta 90.000000
_cell_angle_gamma 90.000000
_cell_volume 1586.659087
_symmetry_space_group_name_H-M "P M M A"
_symmetry_group_IT_number 51
_symmetry_cell_setting 'orthorhombic'
loop_
_space_group_symop_operation_xyz
x,y,z
1/2-x,-y,z
1/2+x,-y,-z
-x,y,-z
-x,-y,-z
1/2+x,y,-z
1/2-x,y,z
x,-y,z
loop_
_atom_site_type_symbol
_atom_site_label
_atom_site_fract_x
_atom_site_fract_y
_atom_site_fract_z
Si Si1 0.028154 0.179815 0.880851
Si Si2 0.466701 0.500000 0.940129
Si Si3 0.467356 0.814680 0.554881
Si Si4 0.528215 0.690310 0.227400
Si Si5 0.038508 0.695482 0.662668
O O1 0.250000 0.180772 0.881906
O O2 0.965272 0.333720 0.914004
O O3 0.973742 0.211135 0.822316
O O4 0.969984 0.000000 0.898010
O O5 0.250000 0.500000 0.931588
O O6 0.500000 0.500000 0.000000
O O7 0.500000 0.732708 0.500000
O O8 0.250000 0.817710 0.559018
O O9 0.538876 0.743352 0.607864
O O10 0.536087 0.000000 0.551610
O O11 0.750000 0.692288 0.229055
O O12 0.476596 0.500000 0.220829
O O13 0.463528 0.751515 0.282733
O O14 0.250000 0.748539 0.662194
O O15 0.035386 0.500000 0.665284
#
# Coordination Sequence:
#
# PCOD9403579 Si02
#       5
#     8   4   8   8   8
#     4   9  16  26  43  67  94 124 155 187 227 273
#     4  10  20  34  50  70  98 128 157 190 226 262
#     4   9  17  28  40  55  78 108 140 174 212 255
#     4   8  12  21  37  58  87 116 138 172 226 274
#     4   8  14  23  37  58  83 109 136 171 217 262
#
# _framework density 22.689185999999999
#
# number of rings (size 3 to 8) (size 9 to 14) (size 15 to 20)
#    0.000    3.333    1.111    1.333    0.000    1.778 
#    0.000    4.444    0.000    0.000    0.000    1.556 
#    0.000    0.000    0.000    0.000    0.000    0.000 
#
# Total GULP energy -200689.107503 kJ/mol
# GULP energy per Si atom -5574.697431 kJ/mol
# Density = 2.263754 g / cm^3
# Si number density = 22.689186 Si / 1000 Ang^3
#
#
#
# Elastic Constant Matrix: (Units=GPa)
#
#
# Indices 1 2 3 4 5 6 
#
# 1 81.7813 7.8190 3.8175 0.0000 0.0000 0.0000
# 2 7.8190 110.6798 90.8945 0.0000 0.0000 0.0000
# 3 3.8175 90.8945 210.2049 0.0000 0.0000 0.0000
# 4 0.0000 0.0000 0.0000 -25.7976 0.0000 0.0000
# 5 0.0000 0.0000 0.0000 0.0000 7.4074 0.0000
# 6 0.0000 0.0000 0.0000 0.0000 0.0000 -24.1046
#
#
#
# Elastic Compliance Matrix: (Units=1/GPa)
#
#
# Indices 1 2 3 4 5 6 
#
# 1 0.012318 -0.001065 0.000237 0.000000 0.000000 0.000000
# 2 -0.001065 0.014102 -0.006079 0.000000 0.000000 0.000000
# 3 0.000237 -0.006079 0.007381 0.000000 0.000000 0.000000
# 4 0.000000 0.000000 0.000000 -0.038763 0.000000 0.000000
# 5 0.000000 0.000000 0.000000 0.000000 0.135001 0.000000
# 6 0.000000 0.000000 0.000000 0.000000 0.000000 -0.041486
#
#
# Mechanical properties :
#
#
# Convention : Reuss Voigt Hill
#
# Bulk Modulus (GPa) = 50.02746 67.52535 58.77640
# Shear Modulus (GPa) = 45.85894 11.51003 28.68449
#
# Velocity S-wave (km/s) = 4.50063 2.25476 3.55947
# Velocity P-wave (km/s) = 7.00746 6.05014 6.54632
#
# Compressibility (1/GPa) = 0.01998902
#
# Stress axis : x y z
#
# Youngs Moduli (GPa) = 81.17894 70.91064 135.47550
#
# Poissons Ratio (x) = 0.07549 -0.03205
# Poissons Ratio (y) = 0.08642 0.82350
# Poissons Ratio (z) = -0.01921 0.43104
#
# Static dielectric constant tensor:
#      x y z
#    x 1.926010 0.000000 0.000000 
#    y 0.000000 1.818930 0.000000 
#    z 0.000000 0.000000 1.864950 
# 
# From -- ./inp_files/32746.got.cif
#   From: 2010.05.17/outbox.cif.g08.bks.cpg/sg51_17_cif.got.tgz:32746.got - 2010.06.03 11:52:47.
