data_PCOD9403529
_publ_section_title
;
Structure prediction by ZEFSAII (Michael W. Deem and Ramdas Pophale) SiO2 
 PCOD9403529
Probable space group: P M M A
;
_chemical_formula_sum "Si O2"
_cell_formula_units_Z 52
_cell_length_a 25.364194
_cell_length_b 7.466636
_cell_length_c 12.235219
_cell_angle_alpha 90.000000
_cell_angle_beta 90.000000
_cell_angle_gamma 90.000000
_cell_volume 2317.169447
_symmetry_space_group_name_H-M "P M M A"
_symmetry_group_IT_number 51
_symmetry_cell_setting 'orthorhombic'
loop_
_space_group_symop_operation_xyz
x,y,z
1/2-x,-y,z
1/2+x,-y,-z
-x,y,-z
-x,-y,-z
1/2+x,y,-z
1/2-x,y,z
x,-y,z
loop_
_atom_site_type_symbol
_atom_site_label
_atom_site_fract_x
_atom_site_fract_y
_atom_site_fract_z
Si Si1 0.669305 0.296558 0.015699
Si Si2 0.603403 0.715718 0.435312
Si Si3 0.508632 0.208621 0.292114
Si Si4 0.388612 0.295179 0.315841
Si Si5 0.191373 0.717726 0.734480
Si Si6 0.553006 0.216315 0.064716
Si Si7 0.165699 0.000000 0.157687
O O1 0.687951 0.500000 0.001360
O O2 0.686931 0.156891 0.926189
O O3 0.682245 0.234127 0.139246
O O4 0.605272 0.295422 0.013059
O O5 0.603195 0.500000 0.433045
O O6 0.545280 0.773363 0.397703
O O7 0.617735 0.766320 0.558299
O O8 0.645957 0.782148 0.346950
O O9 0.451808 0.296930 0.297277
O O10 0.543416 0.274087 0.189342
O O11 0.497970 0.000000 0.270590
O O12 0.369168 0.500000 0.303247
O O13 0.360679 0.157216 0.236036
O O14 0.250000 0.773346 0.700230
O O15 0.189647 0.500000 0.731931
O O16 0.559957 0.000000 0.059290
O O17 0.500000 0.260839 0.000000
#
# Coordination Sequence:
#
# PCOD9403529 Si02
#       7
#     8   8   8   8   8   8   4
#     4  11  22  38  64  91 121 163 206 255 317 378
#     4  10  21  38  61  91 125 163 213 265 314 376
#     4  11  21  33  57  88 128 174 215 253 310 373
#     4  11  24  40  60  89 126 175 224 257 302 368
#     4   9  19  40  70 100 126 156 200 262 331 384
#     4  10  20  33  53  82 125 168 208 246 297 365
#     4  12  24  42  59  86 128 169 210 266 306 367
#
# _framework density 22.441172000000002
#
# number of rings (size 3 to 8) (size 9 to 14) (size 15 to 20)
#    0.000    1.538    3.077    2.308    3.231    2.769 
#    0.000    0.385    0.000    1.846    0.000    4.308 
#    0.000    0.000    0.000    0.000    0.000    0.000 
#
# Total GULP energy -289866.330662 kJ/mol
# GULP energy per Si atom -5574.352513 kJ/mol
# Density = 2.239009 g / cm^3
# Si number density = 22.441172 Si / 1000 Ang^3
#
#
#
# Elastic Constant Matrix: (Units=GPa)
#
#
# Indices 1 2 3 4 5 6 
#
# 1 69.8204 7.4785 32.0182 0.0000 0.0000 0.0000
# 2 7.4785 116.7459 52.3662 0.0000 0.0000 0.0000
# 3 32.0182 52.3662 112.2475 0.0000 0.0000 0.0000
# 4 0.0000 0.0000 0.0000 22.1356 0.0000 0.0000
# 5 0.0000 0.0000 0.0000 0.0000 -0.5099 0.0000
# 6 0.0000 0.0000 0.0000 0.0000 0.0000 16.5803
#
#
#
# Elastic Compliance Matrix: (Units=1/GPa)
#
#
# Indices 1 2 3 4 5 6 
#
# 1 0.016643 0.001345 -0.005375 0.000000 0.000000 0.000000
# 2 0.001345 0.010941 -0.005488 0.000000 0.000000 0.000000
# 3 -0.005375 -0.005488 0.013002 0.000000 0.000000 0.000000
# 4 0.000000 0.000000 0.000000 0.045176 0.000000 0.000000
# 5 0.000000 0.000000 0.000000 0.000000 -1.961126 0.000000
# 6 0.000000 0.000000 0.000000 0.000000 0.000000 0.060312
#
#
# Mechanical properties :
#
#
# Convention : Reuss Voigt Hill
#
# Bulk Modulus (GPa) = 46.40223 53.61552 50.00888
# Shear Modulus (GPa) = -2.79512 21.43793 9.32141
#
# Velocity S-wave (km/s) = -1.11724 3.09414 2.04028
# Velocity P-wave (km/s) = 4.36553 6.05874 5.28045
#
# Compressibility (1/GPa) = 0.02155069
#
# Stress axis : x y z
#
# Youngs Moduli (GPa) = 60.08468 91.39909 76.90995
#
# Poissons Ratio (x) = -0.12291 0.41337
# Poissons Ratio (y) = -0.08080 0.42207
# Poissons Ratio (z) = 0.32294 0.50158
#
# Static dielectric constant tensor:
#      x y z
#    x 1.812330 0.000000 0.000000 
#    y 0.000000 1.842160 0.000000 
#    z 0.000000 0.000000 1.833550 
# 
# From -- ./inp_files/19074.got.cif
#   From: 2010.05.17/outbox.cif.g08.bks.cpg/sg51_10_cif.got.tgz:19074.got - 2010.06.03 11:52:47.
