data_PCOD9403365
_publ_section_title
;
Structure prediction by ZEFSAII (Michael W. Deem and Ramdas Pophale) SiO2 
 PCOD9403365
Probable space group: P M M A
;
_chemical_formula_sum "Si O2"
_cell_formula_units_Z 40
_cell_length_a 20.254475
_cell_length_b 9.323390
_cell_length_c 11.811215
_cell_angle_alpha 90.000000
_cell_angle_beta 90.000000
_cell_angle_gamma 90.000000
_cell_volume 2230.434207
_symmetry_space_group_name_H-M "P M M A"
_symmetry_group_IT_number 51
_symmetry_cell_setting 'orthorhombic'
loop_
_space_group_symop_operation_xyz
x,y,z
1/2-x,-y,z
1/2+x,-y,-z
-x,y,-z
-x,-y,-z
1/2+x,y,-z
1/2-x,y,z
x,-y,z
loop_
_atom_site_type_symbol
_atom_site_label
_atom_site_fract_x
_atom_site_fract_y
_atom_site_fract_z
Si Si1 0.328763 0.170528 0.958318
Si Si2 0.941387 0.328896 0.910627
Si Si3 0.464310 0.834031 0.319021
Si Si4 0.171221 0.339432 0.733412
Si Si5 0.396190 0.165353 0.549142
O O1 0.250000 0.196144 0.975065
O O2 0.348685 0.235172 0.835953
O O3 0.339579 0.000000 0.960555
O O4 0.374805 0.250741 0.047889
O O5 0.932301 0.500000 0.908531
O O6 0.960288 0.268640 0.787743
O O7 0.000000 0.296144 0.000000
O O8 0.534964 0.826942 0.381465
O O9 0.412021 0.800677 0.418739
O O10 0.454432 0.000000 0.283485
O O11 0.250000 0.347682 0.738474
O O12 0.143734 0.500000 0.749693
O O13 0.150917 0.273025 0.614118
O O14 0.373027 0.000000 0.555830
#
# Coordination Sequence:
#
# PCOD9403365 Si02
#       5
#     8   8   8   8   8
#     4  10  21  37  57  79 104 139 181 221 264 313
#     4  11  23  36  53  81 112 141 176 217 264 318
#     4   9  19  35  54  77 104 135 172 214 259 305
#     4  10  20  33  51  77 107 136 168 209 257 308
#     4   9  18  34  55  77 102 133 171 214 257 303
#
# _framework density 17.933727999999999
#
# number of rings (size 3 to 8) (size 9 to 14) (size 15 to 20)
#    0.000    2.200    0.000    4.200    0.000    8.800 
#    0.000    3.000    0.000    1.200    0.000    0.000 
#    0.000    0.000    0.000    0.000    0.000    0.000 
#
# Total GULP energy -223217.204913 kJ/mol
# GULP energy per Si atom -5580.430123 kJ/mol
# Density = 1.789291 g / cm^3
# Si number density = 17.933728 Si / 1000 Ang^3
#
#
#
# Elastic Constant Matrix: (Units=GPa)
#
#
# Indices 1 2 3 4 5 6 
#
# 1 31.1239 41.3215 24.9743 0.0000 0.0000 0.0000
# 2 41.3215 104.6535 68.3384 0.0000 0.0000 0.0000
# 3 24.9743 68.3384 103.6638 0.0000 0.0000 0.0000
# 4 0.0000 0.0000 0.0000 -25.9834 0.0000 0.0000
# 5 0.0000 0.0000 0.0000 0.0000 29.9296 0.0000
# 6 0.0000 0.0000 0.0000 0.0000 0.0000 10.2435
#
#
#
# Elastic Compliance Matrix: (Units=1/GPa)
#
#
# Indices 1 2 3 4 5 6 
#
# 1 0.067842 -0.028294 0.002308 0.000000 0.000000 0.000000
# 2 -0.028294 0.028578 -0.012023 0.000000 0.000000 0.000000
# 3 0.002308 -0.012023 0.017016 0.000000 0.000000 0.000000
# 4 0.000000 0.000000 0.000000 -0.038486 0.000000 0.000000
# 5 0.000000 0.000000 0.000000 0.000000 0.033412 0.000000
# 6 0.000000 0.000000 0.000000 0.000000 0.000000 0.097623
#
#
# Mechanical properties :
#
#
# Convention : Reuss Voigt Hill
#
# Bulk Modulus (GPa) = 26.72472 56.52330 41.62401
# Shear Modulus (GPa) = 16.97932 9.82506 13.40219
#
# Velocity S-wave (km/s) = 3.08032 2.34317 2.73668
# Velocity P-wave (km/s) = 5.25218 6.23754 5.76595
#
# Compressibility (1/GPa) = 0.03741855
#
# Stress axis : x y z
#
# Youngs Moduli (GPa) = 14.74012 34.99203 58.76661
#
# Poissons Ratio (x) = 0.99006 -0.13563
# Poissons Ratio (y) = 0.41706 0.70655
# Poissons Ratio (z) = -0.03402 0.42071
#
# Static dielectric constant tensor:
#      x y z
#    x 1.629380 0.000000 0.000000 
#    y 0.000000 1.610240 0.000000 
#    z 0.000000 0.000000 1.600400 
# 
# From -- ./inp_files/17068.got.cif
#   From: 2010.05.17/outbox.cif.g08.bks.cpg/sg51_9_cif.got.tgz:17068.got - 2010.06.03 11:52:47.
