data_PCOD9403891
_publ_section_title
;
Structure prediction by ZEFSAII (Michael W. Deem and Ramdas Pophale) SiO2 
 PCOD9403891
Probable space group: P M M A
;
_chemical_formula_sum "Si O2"
_cell_formula_units_Z 40
_cell_length_a 7.556017
_cell_length_b 9.468200
_cell_length_c 26.538679
_cell_angle_alpha 90.000000
_cell_angle_beta 90.000000
_cell_angle_gamma 90.000000
_cell_volume 1898.626993
_symmetry_space_group_name_H-M "P M M A"
_symmetry_group_IT_number 51
_symmetry_cell_setting 'orthorhombic'
loop_
_space_group_symop_operation_xyz
x,y,z
1/2-x,-y,z
1/2+x,-y,-z
-x,y,-z
-x,-y,-z
1/2+x,y,-z
1/2-x,y,z
x,-y,z
loop_
_atom_site_type_symbol
_atom_site_label
_atom_site_fract_x
_atom_site_fract_y
_atom_site_fract_z
Si Si1 0.537786 0.838825 0.056757
Si Si2 0.537757 0.839478 0.749330
Si Si3 0.537381 0.659908 0.151105
Si Si4 0.966896 0.337623 0.652587
Si Si5 0.961994 0.838870 0.556714
O O1 0.750000 0.845498 0.061850
O O2 0.470033 0.738118 0.100889
O O3 0.469796 0.000000 0.061790
O O4 0.500000 0.789467 0.000000
O O5 0.750000 0.847964 0.744416
O O6 0.500358 0.753945 0.800089
O O7 0.473709 0.752947 0.700724
O O8 0.469422 0.000000 0.751353
O O9 0.750000 0.651451 0.146686
O O10 0.469660 0.500000 0.156429
O O11 0.750000 0.338040 0.652751
O O12 0.023508 0.500000 0.655783
O O13 0.025962 0.262101 0.601130
O O14 0.750000 0.845971 0.561765
O O15 0.000000 0.789267 0.500000
O O16 0.030328 0.000000 0.561693
#
# Coordination Sequence:
#
# PCOD9403891 Si02
#       5
#     8   8   8   8   8
#     4   9  18  33  52  73  99 132 169 207 246 291
#     4  10  20  34  54  78 101 129 169 212 251 297
#     4  10  21  36  53  75 105 138 169 204 251 303
#     4   9  17  30  49  72  98 128 162 202 248 295
#     4   9  17  30  48  69  94 125 161 200 242 290
#
# _framework density 21.067857
#
# number of rings (size 3 to 8) (size 9 to 14) (size 15 to 20)
#    0.000    2.600    0.000    1.800    0.000    6.400 
#    0.000    3.000    0.000    3.600    0.000    0.000 
#    0.000    0.000    0.000    0.000    0.000    0.000 
#
# Total GULP energy -223396.122609 kJ/mol
# GULP energy per Si atom -5584.903065 kJ/mol
# Density = 2.101991 g / cm^3
# Si number density = 21.067857 Si / 1000 Ang^3
#
#
#
# Elastic Constant Matrix: (Units=GPa)
#
#
# Indices 1 2 3 4 5 6 
#
# 1 49.6935 6.9836 -1.3405 0.0000 0.0000 0.0000
# 2 6.9836 199.1985 157.4151 0.0000 0.0000 0.0000
# 3 -1.3405 157.4151 233.0921 0.0000 0.0000 0.0000
# 4 0.0000 0.0000 0.0000 85.5771 0.0000 0.0000
# 5 0.0000 0.0000 0.0000 0.0000 24.3135 0.0000
# 6 0.0000 0.0000 0.0000 0.0000 0.0000 14.0593
#
#
#
# Elastic Compliance Matrix: (Units=1/GPa)
#
#
# Indices 1 2 3 4 5 6 
#
# 1 0.020402 -0.001733 0.001287 0.000000 0.000000 0.000000
# 2 -0.001733 0.010912 -0.007380 0.000000 0.000000 0.000000
# 3 0.001287 -0.007380 0.009281 0.000000 0.000000 0.000000
# 4 0.000000 0.000000 0.000000 0.011685 0.000000 0.000000
# 5 0.000000 0.000000 0.000000 0.000000 0.041129 0.000000
# 6 0.000000 0.000000 0.000000 0.000000 0.000000 0.071127
#
#
# Mechanical properties :
#
#
# Convention : Reuss Voigt Hill
#
# Bulk Modulus (GPa) = 40.08689 89.78895 64.93792
# Shear Modulus (GPa) = 26.52494 46.05172 36.28833
#
# Velocity S-wave (km/s) = 3.55212 4.68041 4.15474
# Velocity P-wave (km/s) = 5.99101 8.48055 7.34207
#
# Compressibility (1/GPa) = 0.02494581
#
# Stress axis : x y z
#
# Youngs Moduli (GPa) = 49.01577 91.63819 107.74460
#
# Poissons Ratio (x) = 0.15878 -0.13871
# Poissons Ratio (y) = 0.08493 0.79511
# Poissons Ratio (z) = -0.06310 0.67625
#
# Static dielectric constant tensor:
#      x y z
#    x 1.809310 0.000000 0.000000 
#    y 0.000000 1.741330 0.000000 
#    z 0.000000 0.000000 1.713370 
# 
# From -- ./inp_files/28792.got.cif
#   From: 2010.05.17/outbox.cif.g08.bks.cpg/sg51_15_cif.got.tgz:28792.got - 2010.06.03 11:52:47.
