data_PCOD9403128
_publ_section_title
;
Structure prediction by ZEFSAII (Michael W. Deem and Ramdas Pophale) SiO2 
 PCOD9403128
Probable space group: P M M A
;
_chemical_formula_sum "Si O2"
_cell_formula_units_Z 56
_cell_length_a 8.934486
_cell_length_b 14.416626
_cell_length_c 26.446271
_cell_angle_alpha 90.000000
_cell_angle_beta 90.000000
_cell_angle_gamma 90.000000
_cell_volume 3406.415722
_symmetry_space_group_name_H-M "P M M A"
_symmetry_group_IT_number 51
_symmetry_cell_setting 'orthorhombic'
loop_
_space_group_symop_operation_xyz
x,y,z
1/2-x,-y,z
1/2+x,-y,-z
-x,y,-z
-x,-y,-z
1/2+x,y,-z
1/2-x,y,z
x,-y,z
loop_
_atom_site_type_symbol
_atom_site_label
_atom_site_fract_x
_atom_site_fract_y
_atom_site_fract_z
Si Si1 0.928724 0.104000 0.099335
Si Si2 0.427832 0.106755 0.209829
Si Si3 0.422520 0.612813 0.551875
Si Si4 0.071575 0.286992 0.752341
Si Si5 0.071002 0.701533 0.947057
Si Si6 0.572440 0.389176 0.657541
Si Si7 0.426781 0.610670 0.151504
O O1 0.750000 0.107975 0.109603
O O2 0.964158 0.189541 0.063022
O O3 0.014382 0.117367 0.152190
O O4 0.963182 0.000000 0.080156
O O5 0.250000 0.122891 0.211438
O O6 0.512609 0.182010 0.243204
O O7 0.457351 0.000000 0.224447
O O8 0.500000 0.644474 0.500000
O O9 0.250000 0.642428 0.554333
O O10 0.423510 0.500000 0.550615
O O11 0.510915 0.639105 0.602504
O O12 0.250000 0.289955 0.754443
O O13 0.011185 0.335861 0.702042
O O14 0.003737 0.340166 0.800860
O O15 0.250000 0.690428 0.947989
O O16 0.002152 0.646462 0.899911
O O17 0.000000 0.671994 0.000000
O O18 0.750000 0.373319 0.660736
O O19 0.546765 0.500000 0.663257
O O20 0.250000 0.633102 0.151154
O O21 0.442994 0.500000 0.155830
#
# Coordination Sequence:
#
# PCOD9403128 Si02
#       7
#     8   8   8   8   8   8   8
#     4   9  18  34  55  79 105 131 160 196 244 301
#     4  10  20  34  55  80 104 133 167 203 247 302
#     4   9  16  27  44  67  98 138 182 224 265 309
#     4  12  23  35  54  79 107 138 169 209 258 310
#     4  11  23  38  57  79 103 133 165 206 252 301
#     4  10  20  33  49  72 104 142 183 225 264 303
#     4  11  24  41  59  77  99 130 169 213 257 304
#
# _framework density 16.439567
#
# number of rings (size 3 to 8) (size 9 to 14) (size 15 to 20)
#    0.000    1.714    1.429    3.857    0.000    7.429 
#    0.000    0.000    0.000    0.000    0.000    0.000 
#    0.000    0.571    0.000    2.143    0.000    3.286 
#
# Total GULP energy -312738.421263 kJ/mol
# GULP energy per Si atom -5584.614665 kJ/mol
# Density = 1.640215 g / cm^3
# Si number density = 16.439567 Si / 1000 Ang^3
#
#
#
# Elastic Constant Matrix: (Units=GPa)
#
#
# Indices 1 2 3 4 5 6 
#
# 1 105.4975 55.3957 67.2889 0.0000 0.0000 0.0000
# 2 55.3957 62.8887 49.6752 0.0000 0.0000 0.0000
# 3 67.2889 49.6752 131.7154 0.0000 0.0000 0.0000
# 4 0.0000 0.0000 0.0000 3.8552 0.0000 0.0000
# 5 0.0000 0.0000 0.0000 0.0000 31.9894 0.0000
# 6 0.0000 0.0000 0.0000 0.0000 0.0000 22.9406
#
#
#
# Elastic Compliance Matrix: (Units=1/GPa)
#
#
# Indices 1 2 3 4 5 6 
#
# 1 0.019718 -0.013406 -0.005018 0.000000 0.000000 0.000000
# 2 -0.013406 0.031762 -0.005130 0.000000 0.000000 0.000000
# 3 -0.005018 -0.005130 0.012090 0.000000 0.000000 0.000000
# 4 0.000000 0.000000 0.000000 0.259388 0.000000 0.000000
# 5 0.000000 0.000000 0.000000 0.000000 0.031260 0.000000
# 6 0.000000 0.000000 0.000000 0.000000 0.000000 0.043591
#
#
# Mechanical properties :
#
#
# Convention : Reuss Voigt Hill
#
# Bulk Modulus (GPa) = 60.74029 71.64679 66.19354
# Shear Modulus (GPa) = 11.10114 20.27317 15.68715
#
# Velocity S-wave (km/s) = 2.60141 3.51550 3.09242
# Velocity P-wave (km/s) = 6.78609 7.75595 7.28717
#
# Compressibility (1/GPa) = 0.01646354
#
# Stress axis : x y z
#
# Youngs Moduli (GPa) = 50.71388 31.48443 82.71112
#
# Poissons Ratio (x) = 0.42207 0.41502
# Poissons Ratio (y) = 0.67985 0.42432
# Poissons Ratio (z) = 0.25447 0.16152
#
# Static dielectric constant tensor:
#      x y z
#    x 1.546260 0.000000 0.000000 
#    y 0.000000 1.559430 0.000000 
#    z 0.000000 0.000000 1.522180 
# 
# From -- ./inp_files/31982.got.cif
#   From: 2010.05.17/outbox.cif.g08.bks.cpg/sg51_16_cif.got.tgz:31982.got - 2010.06.03 11:52:47.
