data_PCOD9403920
_publ_section_title
;
Structure prediction by ZEFSAII (Michael W. Deem and Ramdas Pophale) SiO2 
 PCOD9403920
Probable space group: P M M A
;
_chemical_formula_sum "Si O2"
_cell_formula_units_Z 64
_cell_length_a 14.898346
_cell_length_b 9.251785
_cell_length_c 24.174540
_cell_angle_alpha 90.000000
_cell_angle_beta 90.000000
_cell_angle_gamma 90.000000
_cell_volume 3332.129004
_symmetry_space_group_name_H-M "P M M A"
_symmetry_group_IT_number 51
_symmetry_cell_setting 'orthorhombic'
loop_
_space_group_symop_operation_xyz
x,y,z
1/2-x,-y,z
1/2+x,-y,-z
-x,y,-z
-x,-y,-z
1/2+x,y,-z
1/2-x,y,z
x,-y,z
loop_
_atom_site_type_symbol
_atom_site_label
_atom_site_fract_x
_atom_site_fract_y
_atom_site_fract_z
Si Si1 0.353834 0.341035 0.078910
Si Si2 0.014328 0.327292 0.635505
Si Si3 0.354804 0.827646 0.419961
Si Si4 0.016516 0.672394 0.759730
Si Si5 0.643177 0.672527 0.137195
Si Si6 0.855929 0.670227 0.465214
Si Si7 0.400270 0.164268 0.974748
Si Si8 0.856459 0.828336 0.813419
O O1 0.250000 0.359255 0.093260
O O2 0.397810 0.500000 0.079060
O O3 0.387323 0.236119 0.127105
O O4 0.354559 0.268144 0.019321
O O5 0.999332 0.500000 0.631783
O O6 0.047933 0.295976 0.697408
O O7 0.085001 0.288424 0.587609
O O8 0.922156 0.245238 0.622915
O O9 0.250000 0.793671 0.408832
O O10 0.377130 0.762262 0.480359
O O11 0.365020 0.000000 0.420238
O O12 0.001021 0.500000 0.764060
O O13 0.088384 0.710210 0.807238
O O14 0.922916 0.753188 0.770584
O O15 0.750000 0.698627 0.143238
O O16 0.631562 0.500000 0.126924
O O17 0.607220 0.763302 0.085085
O O18 0.750000 0.686986 0.453286
O O19 0.872146 0.500000 0.477366
O O20 0.364818 0.000000 0.973751
O O21 0.500000 0.157632 0.000000
O O22 0.750000 0.799613 0.803954
O O23 0.867744 0.000000 0.813697
#
# Coordination Sequence:
#
# PCOD9403920 Si02
#       8
#     8   8   8   8   8   8   8   8
#     4  10  20  34  54  79 104 131 167 212 264 324
#     4  10  21  36  56  83 112 145 187 232 278 328
#     4  10  21  36  55  82 116 151 185 224 275 333
#     4  10  22  39  58  81 110 146 189 235 279 327
#     4  10  22  40  60  82 111 149 191 234 281 332
#     4   9  18  34  57  84 114 147 183 226 277 332
#     4  11  23  36  53  80 111 141 176 222 275 330
#     4  10  21  37  57  81 111 146 183 228 283 340
#
# _framework density 19.206938999999998
#
# number of rings (size 3 to 8) (size 9 to 14) (size 15 to 20)
#    0.000    2.000    0.000    3.000    0.000   11.000 
#    0.000    5.000    0.000    0.000    0.000    3.500 
#    0.000    0.000    0.000    0.000    0.000    0.000 
#
# Total GULP energy -357223.643134 kJ/mol
# GULP energy per Si atom -5581.619424 kJ/mol
# Density = 1.916322 g / cm^3
# Si number density = 19.206939 Si / 1000 Ang^3
#
#
#
# Elastic Constant Matrix: (Units=GPa)
#
#
# Indices 1 2 3 4 5 6 
#
# 1 72.8379 30.4767 37.6500 0.0000 0.0000 0.0000
# 2 30.4767 42.8479 26.9054 0.0000 0.0000 0.0000
# 3 37.6500 26.9054 90.6251 0.0000 0.0000 0.0000
# 4 0.0000 0.0000 0.0000 -48.4332 0.0000 0.0000
# 5 0.0000 0.0000 0.0000 0.0000 20.5372 0.0000
# 6 0.0000 0.0000 0.0000 0.0000 0.0000 11.3614
#
#
#
# Elastic Compliance Matrix: (Units=1/GPa)
#
#
# Indices 1 2 3 4 5 6 
#
# 1 0.021500 -0.011902 -0.005398 0.000000 0.000000 0.000000
# 2 -0.011902 0.035275 -0.005528 0.000000 0.000000 0.000000
# 3 -0.005398 -0.005528 0.014918 0.000000 0.000000 0.000000
# 4 0.000000 0.000000 0.000000 -0.020647 0.000000 0.000000
# 5 0.000000 0.000000 0.000000 0.000000 0.048692 0.000000
# 6 0.000000 0.000000 0.000000 0.000000 0.000000 0.088018
#
#
# Mechanical properties :
#
#
# Convention : Reuss Voigt Hill
#
# Bulk Modulus (GPa) = 38.40832 44.04168 41.22500
# Shear Modulus (GPa) = 20.65327 4.11167 12.38247
#
# Velocity S-wave (km/s) = 3.28274 1.46471 2.54182
# Velocity P-wave (km/s) = 5.86592 5.08334 5.48860
#
# Compressibility (1/GPa) = 0.02603602
#
# Stress axis : x y z
#
# Youngs Moduli (GPa) = 46.51228 28.34833 67.03151
#
# Poissons Ratio (x) = 0.33742 0.36186
# Poissons Ratio (y) = 0.55361 0.37055
# Poissons Ratio (z) = 0.25109 0.15671
#
# Static dielectric constant tensor:
#      x y z
#    x 1.600570 0.000000 0.000000 
#    y 0.000000 1.662060 0.000000 
#    z 0.000000 0.000000 1.652780 
# 
# From -- ./inp_files/35815.got.cif
#   From: 2010.05.17/outbox.cif.g08.bks.cpg/sg51_18_cif.got.tgz:35815.got - 2010.06.03 11:52:47.
