data_PCOD9403696
_publ_section_title
;
Structure prediction by ZEFSAII (Michael W. Deem and Ramdas Pophale) SiO2 
 PCOD9403696
Probable space group: P M M A
;
_chemical_formula_sum "Si O2"
_cell_formula_units_Z 36
_cell_length_a 9.527772
_cell_length_b 10.491855
_cell_length_c 19.107876
_cell_angle_alpha 90.000000
_cell_angle_beta 90.000000
_cell_angle_gamma 90.000000
_cell_volume 1910.099760
_symmetry_space_group_name_H-M "P M M A"
_symmetry_group_IT_number 51
_symmetry_cell_setting 'orthorhombic'
loop_
_space_group_symop_operation_xyz
x,y,z
1/2-x,-y,z
1/2+x,-y,-z
-x,y,-z
-x,-y,-z
1/2+x,y,-z
1/2-x,y,z
x,-y,z
loop_
_atom_site_type_symbol
_atom_site_label
_atom_site_fract_x
_atom_site_fract_y
_atom_site_fract_z
Si Si1 0.094805 0.649996 0.936077
Si Si2 0.410949 0.762292 0.172207
Si Si3 0.091299 0.000000 0.068509
Si Si4 0.583306 0.150964 0.668022
Si Si5 0.081938 0.353155 0.573747
O O1 0.250000 0.708567 0.936960
O O2 0.108697 0.500000 0.949132
O O3 0.020391 0.665572 0.861330
O O4 0.000000 0.700454 0.000000
O O5 0.250000 0.715159 0.167391
O O6 0.435013 0.809354 0.250822
O O7 0.427402 0.880766 0.119832
O O8 0.250000 0.000000 0.043696
O O9 0.000000 0.000000 0.000000
O O10 0.750000 0.167479 0.651359
O O11 0.487943 0.245896 0.622640
O O12 0.550962 0.000000 0.659020
O O13 0.250000 0.333282 0.565486
O O14 0.062568 0.500000 0.599949
O O15 0.000000 0.345867 0.500000
#
# Coordination Sequence:
#
# PCOD9403696 Si02
#       5
#     8   8   4   8   8
#     4  10  21  36  53  75 105 141 185 238 292 347
#     4  10  20  36  56  78 109 146 186 232 283 341
#     4  10  20  34  52  76 105 140 183 232 281 328
#     4  10  21  39  62  88 122 162 200 243 296 355
#     4  10  22  41  65  93 124 158 199 246 294 351
#
# _framework density 18.847183000000001
#
# number of rings (size 3 to 8) (size 9 to 14) (size 15 to 20)
#    0.000    2.000    1.111    2.000    0.000    8.000 
#    0.000    4.444    0.000    0.000    0.000    0.000 
#    0.000    0.000    0.000    0.000    0.000    0.000 
#
# Total GULP energy -200775.896947 kJ/mol
# GULP energy per Si atom -5577.108249 kJ/mol
# Density = 1.880429 g / cm^3
# Si number density = 18.847183 Si / 1000 Ang^3
#
#
#
# Elastic Constant Matrix: (Units=GPa)
#
#
# Indices 1 2 3 4 5 6 
#
# 1 129.0040 74.5281 83.8095 0.0000 0.0000 0.0000
# 2 74.5281 84.3237 56.2325 0.0000 0.0000 0.0000
# 3 83.8095 56.2325 104.4298 0.0000 0.0000 0.0000
# 4 0.0000 0.0000 0.0000 42.7388 0.0000 0.0000
# 5 0.0000 0.0000 0.0000 0.0000 32.3344 0.0000
# 6 0.0000 0.0000 0.0000 0.0000 0.0000 28.4384
#
#
#
# Elastic Compliance Matrix: (Units=1/GPa)
#
#
# Indices 1 2 3 4 5 6 
#
# 1 0.021858 -0.011890 -0.011139 0.000000 0.000000 0.000000
# 2 -0.011890 0.024971 -0.003904 0.000000 0.000000 0.000000
# 3 -0.011139 -0.003904 0.020618 0.000000 0.000000 0.000000
# 4 0.000000 0.000000 0.000000 0.023398 0.000000 0.000000
# 5 0.000000 0.000000 0.000000 0.000000 0.030927 0.000000
# 6 0.000000 0.000000 0.000000 0.000000 0.000000 0.035164
#
#
# Mechanical properties :
#
#
# Convention : Reuss Voigt Hill
#
# Bulk Modulus (GPa) = 73.63767 82.98863 78.31315
# Shear Modulus (GPa) = 23.22031 27.58149 25.40090
#
# Velocity S-wave (km/s) = 3.51384 3.82963 3.67513
# Velocity P-wave (km/s) = 7.45778 7.98014 7.72338
#
# Compressibility (1/GPa) = 0.01358001
#
# Stress axis : x y z
#
# Youngs Moduli (GPa) = 45.75061 40.04571 48.50195
#
# Poissons Ratio (x) = 0.47615 0.54027
# Poissons Ratio (y) = 0.54398 0.18935
# Poissons Ratio (z) = 0.50963 0.15634
#
# Static dielectric constant tensor:
#      x y z
#    x 1.662500 0.000000 0.000000 
#    y 0.000000 1.678890 0.000000 
#    z 0.000000 0.000000 1.627770 
# 
# From -- ./inp_files/27023.got.cif
#   From: 2010.05.17/outbox.cif.g08.bks.cpg/sg51_14_cif.got.tgz:27023.got - 2010.06.03 11:52:47.
