data_PCOD9403870
_publ_section_title
;
Structure prediction by ZEFSAII (Michael W. Deem and Ramdas Pophale) SiO2 
 PCOD9403870
Probable space group: P M M A
;
_chemical_formula_sum "Si O2"
_cell_formula_units_Z 64
_cell_length_a 23.332713
_cell_length_b 9.353397
_cell_length_c 18.464222
_cell_angle_alpha 90.000000
_cell_angle_beta 90.000000
_cell_angle_gamma 90.000000
_cell_volume 4029.634169
_symmetry_space_group_name_H-M "P M M A"
_symmetry_group_IT_number 51
_symmetry_cell_setting 'orthorhombic'
loop_
_space_group_symop_operation_xyz
x,y,z
1/2-x,-y,z
1/2+x,-y,-z
-x,y,-z
-x,-y,-z
1/2+x,y,-z
1/2-x,y,z
x,-y,z
loop_
_atom_site_type_symbol
_atom_site_label
_atom_site_fract_x
_atom_site_fract_y
_atom_site_fract_z
Si Si1 0.680242 0.664733 0.061902
Si Si2 0.002609 0.169202 0.413498
Si Si3 0.318409 0.171835 0.241509
Si Si4 0.875495 0.168888 0.353973
Si Si5 0.682757 0.672739 0.222873
Si Si6 0.884875 0.671073 0.630795
Si Si7 0.319646 0.835702 0.078209
Si Si8 0.318074 0.833657 0.493513
O O1 0.750000 0.667269 0.061513
O O2 0.662657 0.500000 0.056073
O O3 0.664192 0.719561 0.141839
O O4 0.659969 0.748587 0.991275
O O5 0.051511 0.265479 0.378239
O O6 0.000000 0.195697 0.500000
O O7 0.940629 0.196913 0.378597
O O8 0.015975 0.000000 0.404282
O O9 0.250000 0.196228 0.250843
O O10 0.353875 0.259373 0.299914
O O11 0.335057 0.213551 0.159167
O O12 0.327144 0.000000 0.249384
O O13 0.854497 0.258740 0.285870
O O14 0.836240 0.198064 0.424289
O O15 0.870350 0.000000 0.337681
O O16 0.750000 0.711043 0.232881
O O17 0.679530 0.500000 0.224512
O O18 0.884596 0.500000 0.633777
O O19 0.850174 0.729990 0.561297
O O20 0.250000 0.833122 0.077095
O O21 0.337418 0.000000 0.070974
O O22 0.250000 0.823093 0.484596
O O23 0.335105 0.000000 0.478860
#
# Coordination Sequence:
#
# PCOD9403870 Si02
#       8
#     8   8   8   8   8   8   8   8
#     4   8  14  25  41  63  95 135 168 189 224 284
#     4  10  20  39  60  71  88 122 165 210 253 296
#     4   9  18  33  51  71 100 136 168 199 242 294
#     4  10  20  34  54  75  91 119 166 211 245 283
#     4   9  18  31  46  69 105 141 164 190 238 295
#     4  12  24  34  49  74 101 126 161 205 247 292
#     4   8  14  25  43  68  95 125 163 203 238 274
#     4  10  20  35  53  71  96 130 164 197 240 294
#
# _framework density 15.882336
#
# number of rings (size 3 to 8) (size 9 to 14) (size 15 to 20)
#    0.000    2.500    1.250    3.375    0.000    5.000 
#    0.000    2.500    0.000    0.000    0.000    0.875 
#    0.000    7.000    0.000    0.000    0.000    0.000 
#
# Total GULP energy -356763.365651 kJ/mol
# GULP energy per Si atom -5574.427588 kJ/mol
# Density = 1.584619 g / cm^3
# Si number density = 15.882336 Si / 1000 Ang^3
#
#
#
# Elastic Constant Matrix: (Units=GPa)
#
#
# Indices 1 2 3 4 5 6 
#
# 1 40.6154 30.8369 30.9590 0.0000 0.0000 0.0000
# 2 30.8369 60.6806 65.3006 0.0000 0.0000 0.0000
# 3 30.9590 65.3006 126.2431 0.0000 0.0000 0.0000
# 4 0.0000 0.0000 0.0000 60.8467 0.0000 0.0000
# 5 0.0000 0.0000 0.0000 0.0000 -1.2090 0.0000
# 6 0.0000 0.0000 0.0000 0.0000 0.0000 17.5394
#
#
#
# Elastic Compliance Matrix: (Units=1/GPa)
#
#
# Indices 1 2 3 4 5 6 
#
# 1 0.040232 -0.022167 0.001600 0.000000 0.000000 0.000000
# 2 -0.022167 0.049384 -0.020108 0.000000 0.000000 0.000000
# 3 0.001600 -0.020108 0.017930 0.000000 0.000000 0.000000
# 4 0.000000 0.000000 0.000000 0.016435 0.000000 0.000000
# 5 0.000000 0.000000 0.000000 0.000000 -0.827108 0.000000
# 6 0.000000 0.000000 0.000000 0.000000 0.000000 0.057014
#
#
# Mechanical properties :
#
#
# Convention : Reuss Voigt Hill
#
# Bulk Modulus (GPa) = 38.17491 53.52579 45.85035
# Shear Modulus (GPa) = -8.99230 22.13159 6.56965
#
# Velocity S-wave (km/s) = -2.38204 3.73697 2.03603
# Velocity P-wave (km/s) = 4.06482 7.23841 5.87015
#
# Compressibility (1/GPa) = 0.02619522
#
# Stress axis : x y z
#
# Youngs Moduli (GPa) = 24.85603 20.24958 55.77210
#
# Poissons Ratio (x) = 0.44887 -0.08923
# Poissons Ratio (y) = 0.55098 1.12148
# Poissons Ratio (z) = -0.03977 0.40718
#
# Static dielectric constant tensor:
#      x y z
#    x 1.513200 0.000000 0.000000 
#    y 0.000000 1.528450 0.000000 
#    z 0.000000 0.000000 1.536180 
# 
# From -- ./inp_files/30810.got.cif
#   From: 2010.05.17/outbox.cif.g08.bks.cpg/sg51_16_cif.got.tgz:30810.got - 2010.06.03 11:52:47.
