data_PCOD9403835
_publ_section_title
;
Structure prediction by ZEFSAII (Michael W. Deem and Ramdas Pophale) SiO2 
 PCOD9403835
Probable space group: P M M A
;
_chemical_formula_sum "Si O2"
_cell_formula_units_Z 48
_cell_length_a 8.936774
_cell_length_b 15.634422
_cell_length_c 16.301537
_cell_angle_alpha 90.000000
_cell_angle_beta 90.000000
_cell_angle_gamma 90.000000
_cell_volume 2277.671877
_symmetry_space_group_name_H-M "P M M A"
_symmetry_group_IT_number 51
_symmetry_cell_setting 'orthorhombic'
loop_
_space_group_symop_operation_xyz
x,y,z
1/2-x,-y,z
1/2+x,-y,-z
-x,y,-z
-x,-y,-z
1/2+x,y,-z
1/2-x,y,z
x,-y,z
loop_
_atom_site_type_symbol
_atom_site_label
_atom_site_fract_x
_atom_site_fract_y
_atom_site_fract_z
Si Si1 0.082480 0.898582 0.750169
Si Si2 0.079972 0.602289 0.260483
Si Si3 0.928411 0.148608 0.582514
Si Si4 0.572682 0.663224 0.420217
Si Si5 0.421732 0.895223 0.084859
Si Si6 0.070458 0.399045 0.081933
O O1 0.250000 0.862741 0.737552
O O2 0.984640 0.888122 0.668638
O O3 0.006024 0.864994 0.833154
O O4 0.096555 0.000000 0.763053
O O5 0.250000 0.634019 0.278216
O O6 0.091071 0.500000 0.251969
O O7 0.029321 0.636692 0.171555
O O8 0.970260 0.620596 0.334746
O O9 0.750000 0.146256 0.576507
O O10 0.000000 0.108384 0.500000
O O11 0.991728 0.244970 0.583994
O O12 0.500000 0.618517 0.500000
O O13 0.750000 0.671729 0.430775
O O14 0.250000 0.866855 0.086429
O O15 0.421521 0.000000 0.085774
O O16 0.500000 0.869590 0.000000
O O17 0.250000 0.395390 0.076780
O O18 0.026578 0.500000 0.082801
O O19 0.000000 0.360224 0.000000
#
# Coordination Sequence:
#
# PCOD9403835 Si02
#       6
#     8   8   8   8   8   8
#     4  10  20  34  53  79 109 138 171 213 258 303
#     4   9  18  33  52  76 106 137 170 210 255 300
#     4  11  22  38  58  77 101 134 172 211 255 309
#     4  11  22  37  56  76 100 132 171 211 255 308
#     4   9  16  27  45  71 103 138 174 211 253 301
#     4   8  14  25  43  68  99 133 166 202 244 291
#
# _framework density 21.074149999999999
#
# number of rings (size 3 to 8) (size 9 to 14) (size 15 to 20)
#    0.000    2.333    0.000    6.000    0.000    4.667 
#    0.000    1.667    0.000    1.000    0.000    4.667 
#    0.000    0.000    0.000    0.000    0.000    0.000 
#
# Total GULP energy -267825.241375 kJ/mol
# GULP energy per Si atom -5579.692529 kJ/mol
# Density = 2.102618 g / cm^3
# Si number density = 21.074150 Si / 1000 Ang^3
#
#
#
# Elastic Constant Matrix: (Units=GPa)
#
#
# Indices 1 2 3 4 5 6 
#
# 1 178.1872 5.5317 104.8896 0.0000 0.0000 0.0000
# 2 5.5317 15.8939 9.9763 0.0000 0.0000 0.0000
# 3 104.8896 9.9763 216.7475 0.0000 0.0000 0.0000
# 4 0.0000 0.0000 0.0000 27.7787 0.0000 0.0000
# 5 0.0000 0.0000 0.0000 0.0000 -24.0507 0.0000
# 6 0.0000 0.0000 0.0000 0.0000 0.0000 13.6589
#
#
#
# Elastic Compliance Matrix: (Units=1/GPa)
#
#
# Indices 1 2 3 4 5 6 
#
# 1 0.007850 -0.000358 -0.003782 0.000000 0.000000 0.000000
# 2 -0.000358 0.064805 -0.002810 0.000000 0.000000 0.000000
# 3 -0.003782 -0.002810 0.006573 0.000000 0.000000 0.000000
# 4 0.000000 0.000000 0.000000 0.035999 0.000000 0.000000
# 5 0.000000 0.000000 0.000000 0.000000 -0.041579 0.000000
# 6 0.000000 0.000000 0.000000 0.000000 0.000000 0.073212
#
#
# Mechanical properties :
#
#
# Convention : Reuss Voigt Hill
#
# Bulk Modulus (GPa) = 15.30723 72.40265 43.85494
# Shear Modulus (GPa) = 27.39190 22.83946 25.11568
#
# Velocity S-wave (km/s) = 3.60917 3.29563 3.45596
# Velocity P-wave (km/s) = 4.96461 6.99373 6.06464
#
# Compressibility (1/GPa) = 0.06532862
#
# Stress axis : x y z
#
# Youngs Moduli (GPa) = 127.39635 15.43087 152.13208
#
# Poissons Ratio (x) = 0.00552 0.57538
# Poissons Ratio (y) = 0.04560 0.42743
# Poissons Ratio (z) = 0.48183 0.04335
#
# Static dielectric constant tensor:
#      x y z
#    x 1.725690 0.000000 0.000000 
#    y 0.000000 1.819460 0.000000 
#    z 0.000000 0.000000 1.813900 
# 
# From -- ./inp_files/21094.got.cif
#   From: 2010.05.17/outbox.cif.g08.bks.cpg/sg51_11_cif.got.tgz:21094.got - 2010.06.03 11:52:47.
