data_PCOD9403068
_publ_section_title
;
Structure prediction by ZEFSAII (Michael W. Deem and Ramdas Pophale) SiO2 
 PCOD9403068
Probable space group: P M M A
;
_chemical_formula_sum "Si O2"
_cell_formula_units_Z 64
_cell_length_a 17.299608
_cell_length_b 14.988894
_cell_length_c 14.838156
_cell_angle_alpha 90.000000
_cell_angle_beta 90.000000
_cell_angle_gamma 90.000000
_cell_volume 3847.563387
_symmetry_space_group_name_H-M "P M M A"
_symmetry_group_IT_number 51
_symmetry_cell_setting 'orthorhombic'
loop_
_space_group_symop_operation_xyz
x,y,z
1/2-x,-y,z
1/2+x,-y,-z
-x,y,-z
-x,-y,-z
1/2+x,y,-z
1/2-x,y,z
x,-y,z
loop_
_atom_site_type_symbol
_atom_site_label
_atom_site_fract_x
_atom_site_fract_y
_atom_site_fract_z
Si Si1 0.343707 0.898310 0.025392
Si Si2 0.665324 0.176000 0.509431
Si Si3 0.498860 0.602509 0.606269
Si Si4 0.663413 0.666670 0.658645
Si Si5 0.340886 0.174711 0.212197
Si Si6 0.656375 0.105075 0.180356
Si Si7 0.585937 0.770973 0.332433
Si Si8 0.052228 0.902959 0.363573
O O1 0.250000 0.896702 0.022429
O O2 0.367268 0.837580 0.109422
O O3 0.367179 0.000000 0.046245
O O4 0.368249 0.877894 0.923477
O O5 0.750000 0.134892 0.513662
O O6 0.663329 0.258586 0.579448
O O7 0.647464 0.212594 0.411240
O O8 0.601473 0.108625 0.545820
O O9 0.500000 0.630230 0.500000
O O10 0.472694 0.500000 0.610103
O O11 0.587198 0.609391 0.641444
O O12 0.443522 0.669004 0.662465
O O13 0.750000 0.625659 0.658708
O O14 0.653192 0.725165 0.749328
O O15 0.250000 0.149868 0.218595
O O16 0.390048 0.113548 0.279658
O O17 0.750000 0.111811 0.186574
O O18 0.617707 0.179029 0.244078
O O19 0.637604 0.000000 0.201312
O O20 0.509865 0.825663 0.360088
O O21 0.016328 0.000000 0.357598
#
# Coordination Sequence:
#
# PCOD9403068 Si02
#       8
#     8   8   8   8   8   8   8   8
#     4   8  14  27  47  72 100 131 171 213 245 282
#     4  10  20  33  49  66  94 130 166 204 243 289
#     4  11  21  36  56  75  98 133 168 203 260 316
#     4   9  17  32  51  75  99 124 161 205 249 302
#     4   9  16  28  49  72 100 133 164 200 248 295
#     4   9  19  34  52  74 101 138 180 211 241 287
#     4  12  20  35  50  70 100 135 166 210 253 296
#     4  11  21  30  45  70 101 134 166 200 245 299
#
# _framework density 16.633904000000001
#
# number of rings (size 3 to 8) (size 9 to 14) (size 15 to 20)
#    0.000    2.125    3.750    3.375    0.000    3.250 
#    0.000    0.625    0.000    3.750    0.000    1.750 
#    0.000    3.000    0.000    0.000    0.000    0.000 
#
# Total GULP energy -356545.841407 kJ/mol
# GULP energy per Si atom -5571.028772 kJ/mol
# Density = 1.659604 g / cm^3
# Si number density = 16.633904 Si / 1000 Ang^3
#
#
#
# Elastic Constant Matrix: (Units=GPa)
#
#
# Indices 1 2 3 4 5 6 
#
# 1 38.2368 11.7037 22.5987 0.0000 0.0000 0.0000
# 2 11.7037 62.7886 32.7526 0.0000 0.0000 0.0000
# 3 22.5987 32.7526 101.9172 0.0000 0.0000 0.0000
# 4 0.0000 0.0000 0.0000 10.7607 0.0000 0.0000
# 5 0.0000 0.0000 0.0000 0.0000 -3.7267 0.0000
# 6 0.0000 0.0000 0.0000 0.0000 0.0000 15.0191
#
#
#
# Elastic Compliance Matrix: (Units=1/GPa)
#
#
# Indices 1 2 3 4 5 6 
#
# 1 0.030443 -0.002587 -0.005919 0.000000 0.000000 0.000000
# 2 -0.002587 0.019354 -0.005646 0.000000 0.000000 0.000000
# 3 -0.005919 -0.005646 0.012939 0.000000 0.000000 0.000000
# 4 0.000000 0.000000 0.000000 0.092931 0.000000 0.000000
# 5 0.000000 0.000000 0.000000 0.000000 -0.268330 0.000000
# 6 0.000000 0.000000 0.000000 0.000000 0.000000 0.066582
#
#
# Mechanical properties :
#
#
# Convention : Reuss Voigt Hill
#
# Bulk Modulus (GPa) = 29.04310 37.45029 33.24669
# Shear Modulus (GPa) = -793.52392 13.46977 -390.02707
#
# Velocity S-wave (km/s) = -21.86522 2.84875 -15.32926
# Velocity P-wave (km/s) = 24.89884 5.77787 17.12554
#
# Compressibility (1/GPa) = 0.03443159
#
# Stress axis : x y z
#
# Youngs Moduli (GPa) = 32.84837 51.66944 77.28724
#
# Poissons Ratio (x) = 0.13367 0.45746
# Poissons Ratio (y) = 0.08498 0.43636
# Poissons Ratio (z) = 0.19443 0.29172
#
# Static dielectric constant tensor:
#      x y z
#    x 1.596970 0.000000 0.000000 
#    y 0.000000 1.549940 0.000000 
#    z 0.000000 0.000000 1.580000 
# 
# From -- ./inp_files/25315.got.cif
#   From: 2010.05.17/outbox.cif.g08.bks.cpg/sg51_13_cif.got.tgz:25315.got - 2010.06.03 11:52:47.
