data_PCOD9403348
_publ_section_title
;
Structure prediction by ZEFSAII (Michael W. Deem and Ramdas Pophale) SiO2 
 PCOD9403348
Probable space group: P M M A
;
_chemical_formula_sum "Si O2"
_cell_formula_units_Z 64
_cell_length_a 19.421330
_cell_length_b 8.689441
_cell_length_c 21.195423
_cell_angle_alpha 90.000000
_cell_angle_beta 90.000000
_cell_angle_gamma 90.000000
_cell_volume 3576.950208
_symmetry_space_group_name_H-M "P M M A"
_symmetry_group_IT_number 51
_symmetry_cell_setting 'orthorhombic'
loop_
_space_group_symop_operation_xyz
x,y,z
1/2-x,-y,z
1/2+x,-y,-z
-x,y,-z
-x,-y,-z
1/2+x,y,-z
1/2-x,y,z
x,-y,z
loop_
_atom_site_type_symbol
_atom_site_label
_atom_site_fract_x
_atom_site_fract_y
_atom_site_fract_z
Si Si1 0.333725 0.179285 0.051695
Si Si2 0.829687 0.685494 0.217712
Si Si3 0.085117 0.817230 0.300262
Si Si4 0.565142 0.313505 0.325538
Si Si5 0.668493 0.815026 0.086014
Si Si6 0.829708 0.686348 0.582053
Si Si7 0.927315 0.687282 0.469680
Si Si8 0.831024 0.317315 0.815510
O O1 0.250000 0.183515 0.048735
O O2 0.353488 0.272818 0.113630
O O3 0.353048 0.000000 0.059533
O O4 0.358869 0.234716 0.982798
O O5 0.750000 0.737241 0.224668
O O6 0.829248 0.500000 0.216340
O O7 0.876535 0.736077 0.276103
O O8 0.858815 0.744166 0.150685
O O9 0.128727 0.754415 0.359416
O O10 0.123855 0.766367 0.236766
O O11 0.009202 0.745853 0.304492
O O12 0.080762 0.000000 0.303447
O O13 0.563687 0.500000 0.325753
O O14 0.579064 0.261702 0.397433
O O15 0.750000 0.776246 0.086344
O O16 0.662706 0.000000 0.088209
O O17 0.750000 0.731510 0.583962
O O18 0.833312 0.500000 0.586241
O O19 0.866603 0.733468 0.516946
O O20 0.928076 0.500000 0.468666
O O21 0.000000 0.736694 0.500000
O O22 0.750000 0.273987 0.808758
O O23 0.836025 0.500000 0.806501
#
# Coordination Sequence:
#
# PCOD9403348 Si02
#       8
#     8   8   8   8   8   8   8   8
#     4   8  14  26  45  71 102 136 174 213 256 305
#     4   9  18  31  50  79 109 135 168 215 266 311
#     4  12  24  36  52  74 104 141 180 218 260 312
#     4  10  20  36  57  77 105 141 176 215 261 314
#     4   8  14  26  46  71 102 140 175 209 253 308
#     4  10  20  35  57  83 107 135 175 219 264 316
#     4   9  16  31  56  79 100 131 171 213 258 308
#     4  10  20  33  51  76 105 137 174 217 265 315
#
# _framework density 17.892339
#
# number of rings (size 3 to 8) (size 9 to 14) (size 15 to 20)
#    0.000    2.500    1.250    2.625    0.000    4.000 
#    0.000    6.250    0.000    0.750    0.000    7.000 
#    0.000    0.000    0.000    0.000    0.000    0.000 
#
# Total GULP energy -356812.563402 kJ/mol
# GULP energy per Si atom -5575.196303 kJ/mol
# Density = 1.785161 g / cm^3
# Si number density = 17.892339 Si / 1000 Ang^3
#
#
#
# Elastic Constant Matrix: (Units=GPa)
#
#
# Indices 1 2 3 4 5 6 
#
# 1 83.4638 17.4344 64.9033 0.0000 0.0000 0.0000
# 2 17.4344 12.3002 23.6732 0.0000 0.0000 0.0000
# 3 64.9033 23.6732 170.8946 0.0000 0.0000 0.0000
# 4 0.0000 0.0000 0.0000 314.1773 0.0000 0.0000
# 5 0.0000 0.0000 0.0000 0.0000 -28.4464 0.0000
# 6 0.0000 0.0000 0.0000 0.0000 0.0000 8.8125
#
#
#
# Elastic Compliance Matrix: (Units=1/GPa)
#
#
# Indices 1 2 3 4 5 6 
#
# 1 0.019642 -0.018385 -0.004913 0.000000 0.000000 0.000000
# 2 -0.018385 0.128063 -0.010757 0.000000 0.000000 0.000000
# 3 -0.004913 -0.010757 0.009208 0.000000 0.000000 0.000000
# 4 0.000000 0.000000 0.000000 0.003183 0.000000 0.000000
# 5 0.000000 0.000000 0.000000 0.000000 -0.035154 0.000000
# 6 0.000000 0.000000 0.000000 0.000000 0.000000 0.113476
#
#
# Mechanical properties :
#
#
# Convention : Reuss Voigt Hill
#
# Bulk Modulus (GPa) = 11.26113 53.18674 32.22393
# Shear Modulus (GPa) = 14.87523 69.61852 42.24688
#
# Velocity S-wave (km/s) = 2.88648 6.24453 4.86446
# Velocity P-wave (km/s) = 4.17331 9.04338 7.04270
#
# Compressibility (1/GPa) = 0.08880107
#
# Stress axis : x y z
#
# Youngs Moduli (GPa) = 50.91103 7.80867 108.60575
#
# Poissons Ratio (x) = 0.14356 0.53358
# Poissons Ratio (y) = 0.93602 1.16832
# Poissons Ratio (z) = 0.25012 0.08400
#
# Static dielectric constant tensor:
#      x y z
#    x 1.593700 0.000000 0.000000 
#    y 0.000000 1.604780 0.000000 
#    z 0.000000 0.000000 1.627920 
# 
# From -- ./inp_files/33957.got.cif
#   From: 2010.05.17/outbox.cif.g08.bks.cpg/sg51_17_cif.got.tgz:33957.got - 2010.06.03 11:52:47.
