data_PCOD9403266
_publ_section_title
;
Structure prediction by ZEFSAII (Michael W. Deem and Ramdas Pophale) SiO2 
 PCOD9403266
Probable space group: P M M A
;
_chemical_formula_sum "Si O2"
_cell_formula_units_Z 48
_cell_length_a 19.119873
_cell_length_b 7.620376
_cell_length_c 15.224936
_cell_angle_alpha 90.000000
_cell_angle_beta 90.000000
_cell_angle_gamma 90.000000
_cell_volume 2218.282635
_symmetry_space_group_name_H-M "P M M A"
_symmetry_group_IT_number 51
_symmetry_cell_setting 'orthorhombic'
loop_
_space_group_symop_operation_xyz
x,y,z
1/2-x,-y,z
1/2+x,-y,-z
-x,y,-z
-x,-y,-z
1/2+x,y,-z
1/2-x,y,z
x,-y,z
loop_
_atom_site_type_symbol
_atom_site_label
_atom_site_fract_x
_atom_site_fract_y
_atom_site_fract_z
Si Si1 0.090808 0.296117 0.681836
Si Si2 0.097952 0.288498 0.062830
Si Si3 0.174124 0.793293 0.231103
Si Si4 0.556485 0.714444 0.124926
Si Si5 0.436022 0.213584 0.372387
Si Si6 0.172355 0.795549 0.516687
O O1 0.109083 0.500000 0.689406
O O2 0.082665 0.222884 0.780596
O O3 0.147281 0.214347 0.616906
O O4 0.014501 0.279833 0.637123
O O5 0.097597 0.500000 0.062910
O O6 0.157529 0.228742 0.128784
O O7 0.023307 0.230864 0.103919
O O8 0.100053 0.232244 0.961350
O O9 0.250000 0.717751 0.253908
O O10 0.109595 0.726007 0.288461
O O11 0.176741 0.000000 0.250762
O O12 0.555816 0.500000 0.127823
O O13 0.390057 0.274712 0.455404
O O14 0.442045 0.000000 0.374438
O O15 0.250000 0.718847 0.504103
O O16 0.177257 0.000000 0.491749
#
# Coordination Sequence:
#
# PCOD9403266 Si02
#       6
#     8   8   8   8   8   8
#     4  11  21  35  57  85 111 136 173 227 276 313
#     4   9  16  32  54  74 100 138 179 213 253 314
#     4  10  20  33  50  77 112 143 174 221 275 318
#     4   8  16  31  53  77 103 135 172 215 260 309
#     4  10  20  36  57  79 105 142 183 219 262 322
#     4  10  22  40  58  76 104 145 186 219 259 319
#
# _framework density 21.638359999999999
#
# number of rings (size 3 to 8) (size 9 to 14) (size 15 to 20)
#    0.000    2.333    1.667    2.500    0.000    5.333 
#    0.000    4.167    0.000    8.000    0.000    0.000 
#    0.000    0.000    0.000    0.000    0.000    0.000 
#
# Total GULP energy -267921.283498 kJ/mol
# GULP energy per Si atom -5581.693406 kJ/mol
# Density = 2.158911 g / cm^3
# Si number density = 21.638360 Si / 1000 Ang^3
#
#
#
# Elastic Constant Matrix: (Units=GPa)
#
#
# Indices 1 2 3 4 5 6 
#
# 1 42.7076 -8.6306 13.0158 0.0000 0.0000 0.0000
# 2 -8.6306 40.7654 -7.1733 0.0000 0.0000 0.0000
# 3 13.0158 -7.1733 123.1906 0.0000 0.0000 0.0000
# 4 0.0000 0.0000 0.0000 20.2342 0.0000 0.0000
# 5 0.0000 0.0000 0.0000 0.0000 -0.9532 0.0000
# 6 0.0000 0.0000 0.0000 0.0000 0.0000 18.9133
#
#
#
# Elastic Compliance Matrix: (Units=1/GPa)
#
#
# Indices 1 2 3 4 5 6 
#
# 1 0.025128 0.004903 -0.002369 0.000000 0.000000 0.000000
# 2 0.004903 0.025741 0.000981 0.000000 0.000000 0.000000
# 3 -0.002369 0.000981 0.008425 0.000000 0.000000 0.000000
# 4 0.000000 0.000000 0.000000 0.049421 0.000000 0.000000
# 5 0.000000 0.000000 0.000000 0.000000 -1.049082 0.000000
# 6 0.000000 0.000000 0.000000 0.000000 0.000000 0.052873
#
#
# Mechanical properties :
#
#
# Convention : Reuss Voigt Hill
#
# Bulk Modulus (GPa) = 15.07770 22.34304 18.71037
# Shear Modulus (GPa) = -5.73122 21.60231 7.93555
#
# Velocity S-wave (km/s) = -1.62923 3.16307 1.91711
# Velocity P-wave (km/s) = 1.85580 4.86704 3.68321
#
# Compressibility (1/GPa) = 0.06632309
#
# Stress axis : x y z
#
# Youngs Moduli (GPa) = 39.79625 38.84817 118.69494
#
# Poissons Ratio (x) = -0.19047 0.28124
# Poissons Ratio (y) = -0.19512 -0.11642
# Poissons Ratio (z) = 0.09429 -0.03810
#
# Static dielectric constant tensor:
#      x y z
#    x 1.761010 0.000000 0.000000 
#    y 0.000000 1.810060 0.000000 
#    z 0.000000 0.000000 1.818510 
# 
# From -- ./inp_files/24738.got.cif
#   From: 2010.05.17/outbox.cif.g08.bks.cpg/sg51_13_cif.got.tgz:24738.got - 2010.06.03 11:52:47.
