data_PCOD9403768
_publ_section_title
;
Structure prediction by ZEFSAII (Michael W. Deem and Ramdas Pophale) SiO2 
 PCOD9403768
Probable space group: P M M A
;
_chemical_formula_sum "Si O2"
_cell_formula_units_Z 48
_cell_length_a 8.761700
_cell_length_b 14.775831
_cell_length_c 19.351299
_cell_angle_alpha 90.000000
_cell_angle_beta 90.000000
_cell_angle_gamma 90.000000
_cell_volume 2505.246231
_symmetry_space_group_name_H-M "P M M A"
_symmetry_group_IT_number 51
_symmetry_cell_setting 'orthorhombic'
loop_
_space_group_symop_operation_xyz
x,y,z
1/2-x,-y,z
1/2+x,-y,-z
-x,y,-z
-x,-y,-z
1/2+x,y,-z
1/2-x,y,z
x,-y,z
loop_
_atom_site_type_symbol
_atom_site_label
_atom_site_fract_x
_atom_site_fract_y
_atom_site_fract_z
Si Si1 0.573031 0.735568 0.310275
Si Si2 0.426301 0.364666 0.928441
Si Si3 0.077291 0.602271 0.212363
Si Si4 0.933233 0.603603 0.576665
Si Si5 0.068352 0.896355 0.222884
Si Si6 0.574399 0.854314 0.073114
O O1 0.750000 0.749172 0.325661
O O2 0.546650 0.664078 0.248680
O O3 0.492871 0.683263 0.373709
O O4 0.502212 0.826958 0.278389
O O5 0.250000 0.392992 0.920584
O O6 0.534213 0.397285 0.867369
O O7 0.427849 0.255133 0.927175
O O8 0.500000 0.393789 0.000000
O O9 0.250000 0.637474 0.223738
O O10 0.073029 0.500000 0.238758
O O11 0.750000 0.606512 0.575411
O O12 0.977617 0.500000 0.598342
O O13 0.000000 0.615990 0.500000
O O14 0.250000 0.882714 0.221139
O O15 0.006723 0.882035 0.144578
O O16 0.035251 0.000000 0.242456
O O17 0.750000 0.884341 0.075084
O O18 0.500000 0.883888 0.000000
#
# Coordination Sequence:
#
# PCOD9403768 Si02
#       6
#     8   8   8   8   8   8
#     4  12  24  39  61  89 122 160 196 240 295 349
#     4  10  20  34  53  76 104 144 189 238 294 351
#     4  11  23  37  55  80 111 150 194 240 290 347
#     4  10  21  39  65  98 134 169 204 242 284 337
#     4  11  24  41  62  87 116 154 200 251 306 363
#     4  10  20  35  57  83 111 148 193 247 309 367
#
# _framework density 19.159794000000002
#
# number of rings (size 3 to 8) (size 9 to 14) (size 15 to 20)
#    0.000    1.333    1.667    4.500    0.000    7.667 
#    0.000    0.000    0.000    0.500    0.000    0.000 
#    0.000    0.000    0.000    0.000    0.000    0.000 
#
# Total GULP energy -268165.138610 kJ/mol
# GULP energy per Si atom -5586.773721 kJ/mol
# Density = 1.911619 g / cm^3
# Si number density = 19.159794 Si / 1000 Ang^3
#
#
#
# Elastic Constant Matrix: (Units=GPa)
#
#
# Indices 1 2 3 4 5 6 
#
# 1 108.3675 55.6573 43.4426 0.0000 0.0000 0.0000
# 2 55.6573 124.8725 57.0221 0.0000 0.0000 0.0000
# 3 43.4426 57.0221 130.6829 0.0000 0.0000 0.0000
# 4 0.0000 0.0000 0.0000 14.4766 0.0000 0.0000
# 5 0.0000 0.0000 0.0000 0.0000 36.5074 0.0000
# 6 0.0000 0.0000 0.0000 0.0000 0.0000 -19.9889
#
#
#
# Elastic Compliance Matrix: (Units=1/GPa)
#
#
# Indices 1 2 3 4 5 6 
#
# 1 0.012429 -0.004562 -0.002141 0.000000 0.000000 0.000000
# 2 -0.004562 0.011675 -0.003578 0.000000 0.000000 0.000000
# 3 -0.002141 -0.003578 0.009925 0.000000 0.000000 0.000000
# 4 0.000000 0.000000 0.000000 0.069077 0.000000 0.000000
# 5 0.000000 0.000000 0.000000 0.000000 0.027392 0.000000
# 6 0.000000 0.000000 0.000000 0.000000 0.000000 -0.050028
#
#
# Mechanical properties :
#
#
# Convention : Reuss Voigt Hill
#
# Bulk Modulus (GPa) = 74.25354 75.12965 74.69160
# Shear Modulus (GPa) = 47.38342 20.05242 33.71792
#
# Velocity S-wave (km/s) = 4.97839 3.23861 4.19958
# Velocity P-wave (km/s) = 8.47849 7.29946 7.91097
#
# Compressibility (1/GPa) = 0.01346737
#
# Stress axis : x y z
#
# Youngs Moduli (GPa) = 80.45478 85.65032 100.75504
#
# Poissons Ratio (x) = 0.39075 0.21574
# Poissons Ratio (y) = 0.36705 0.36049
# Poissons Ratio (z) = 0.17227 0.30644
#
# Static dielectric constant tensor:
#      x y z
#    x 1.654090 0.000000 0.000000 
#    y 0.000000 1.693680 0.000000 
#    z 0.000000 0.000000 1.668340 
# 
# From -- ./inp_files/27560.got.cif
#   From: 2010.05.17/outbox.cif.g08.bks.cpg/sg51_14_cif.got.tgz:27560.got - 2010.06.03 11:52:47.
