data_PCOD9403777
_publ_section_title
;
Structure prediction by ZEFSAII (Michael W. Deem and Ramdas Pophale) SiO2 
 PCOD9403777
Probable space group: P M M A
;
_chemical_formula_sum "Si O2"
_cell_formula_units_Z 48
_cell_length_a 31.152260
_cell_length_b 7.719243
_cell_length_c 9.816700
_cell_angle_alpha 90.000000
_cell_angle_beta 90.000000
_cell_angle_gamma 90.000000
_cell_volume 2360.640157
_symmetry_space_group_name_H-M "P M M A"
_symmetry_group_IT_number 51
_symmetry_cell_setting 'orthorhombic'
loop_
_space_group_symop_operation_xyz
x,y,z
1/2-x,-y,z
1/2+x,-y,-z
-x,y,-z
-x,-y,-z
1/2+x,y,-z
1/2-x,y,z
x,-y,z
loop_
_atom_site_type_symbol
_atom_site_label
_atom_site_fract_x
_atom_site_fract_y
_atom_site_fract_z
Si Si1 0.250000 0.208766 0.331482
Si Si2 0.424949 0.789537 0.139880
Si Si3 0.750000 0.291392 0.350721
Si Si4 0.995544 0.797754 0.650433
Si Si5 0.672590 0.207691 0.853623
Si Si6 0.424927 0.295093 0.829077
Si Si7 0.672537 0.708678 0.164370
O O1 0.250000 0.249485 0.490493
O O2 0.292315 0.274293 0.252661
O O3 0.250000 0.000000 0.318335
O O4 0.458538 0.724195 0.251620
O O5 0.376172 0.728676 0.166640
O O6 0.425200 0.000000 0.140262
O O7 0.436895 0.735033 0.986866
O O8 0.750000 0.500000 0.338090
O O9 0.792381 0.227212 0.271651
O O10 0.040299 0.786953 0.730215
O O11 0.000000 0.719876 0.500000
O O12 0.984012 0.000000 0.632085
O O13 0.670987 0.000000 0.839942
O O14 0.685168 0.247197 0.009450
O O15 0.424965 0.500000 0.802854
O O16 0.376142 0.227584 0.811931
O O17 0.670885 0.500000 0.173018
#
# Coordination Sequence:
#
# PCOD9403777 Si02
#       7
#     4   8   4   8   8   8   8
#     4  10  21  34  50  78 110 134 163 206 252 296
#     4   9  18  34  54  74  99 132 169 207 246 293
#     4  10  21  36  52  72 102 138 169 198 242 300
#     4  10  21  35  51  73 101 135 172 205 243 298
#     4   9  18  33  53  76 101 130 165 207 252 294
#     4  10  20  34  53  77 102 128 164 211 257 296
#     4   9  19  35  54  76 100 129 169 211 247 293
#
# _framework density 20.333466999999999
#
# number of rings (size 3 to 8) (size 9 to 14) (size 15 to 20)
#    0.000    2.500    0.000    1.500    0.000    6.333 
#    0.000    1.667    0.000    0.000    0.000    0.000 
#    0.000    0.000    0.000    0.000    0.000    0.000 
#
# Total GULP energy -267959.111272 kJ/mol
# GULP energy per Si atom -5582.481485 kJ/mol
# Density = 2.028719 g / cm^3
# Si number density = 20.333467 Si / 1000 Ang^3
#
#
#
# Elastic Constant Matrix: (Units=GPa)
#
#
# Indices 1 2 3 4 5 6 
#
# 1 118.7481 -7.8148 113.4145 0.0000 0.0000 0.0000
# 2 -7.8148 28.1808 -14.5603 0.0000 0.0000 0.0000
# 3 113.4145 -14.5603 168.4408 0.0000 0.0000 0.0000
# 4 0.0000 0.0000 0.0000 32.0939 0.0000 0.0000
# 5 0.0000 0.0000 0.0000 0.0000 -8.1318 0.0000
# 6 0.0000 0.0000 0.0000 0.0000 0.0000 8.5421
#
#
#
# Elastic Compliance Matrix: (Units=1/GPa)
#
#
# Indices 1 2 3 4 5 6 
#
# 1 0.023676 -0.001749 -0.016093 0.000000 0.000000 0.000000
# 2 -0.001749 0.037273 0.004400 0.000000 0.000000 0.000000
# 3 -0.016093 0.004400 0.017153 0.000000 0.000000 0.000000
# 4 0.000000 0.000000 0.000000 0.031159 0.000000 0.000000
# 5 0.000000 0.000000 0.000000 0.000000 -0.122973 0.000000
# 6 0.000000 0.000000 0.000000 0.000000 0.000000 0.117068
#
#
# Mechanical properties :
#
#
# Convention : Reuss Voigt Hill
#
# Bulk Modulus (GPa) = 19.52453 55.27205 37.39829
# Shear Modulus (GPa) = 33.94167 21.45617 27.69892
#
# Velocity S-wave (km/s) = 4.09008 3.25193 3.69485
# Velocity P-wave (km/s) = 5.65049 6.42977 6.05268
#
# Compressibility (1/GPa) = 0.05121763
#
# Stress axis : x y z
#
# Youngs Moduli (GPa) = 42.23689 26.82887 58.30000
#
# Poissons Ratio (x) = 0.04693 0.93820
# Poissons Ratio (y) = 0.07388 -0.25650
# Poissons Ratio (z) = 0.67971 -0.11804
#
# Static dielectric constant tensor:
#      x y z
#    x 1.734740 0.000000 0.000000 
#    y 0.000000 1.757940 0.000000 
#    z 0.000000 0.000000 1.679200 
# 
# From -- ./inp_files/12885.got.cif
#   From: 2010.05.17/outbox.cif.g08.bks.cpg/sg51_7_cif.got.tgz:12885.got - 2010.06.03 11:52:47.
