data_PCOD9403617
_publ_section_title
;
Structure prediction by ZEFSAII (Michael W. Deem and Ramdas Pophale) SiO2 
 PCOD9403617
Probable space group: P M M A
;
_chemical_formula_sum "Si O2"
_cell_formula_units_Z 40
_cell_length_a 8.331325
_cell_length_b 27.072789
_cell_length_c 9.417055
_cell_angle_alpha 90.000000
_cell_angle_beta 90.000000
_cell_angle_gamma 90.000000
_cell_volume 2124.037509
_symmetry_space_group_name_H-M "P M M A"
_symmetry_group_IT_number 51
_symmetry_cell_setting 'orthorhombic'
loop_
_space_group_symop_operation_xyz
x,y,z
1/2-x,-y,z
1/2+x,-y,-z
-x,y,-z
-x,-y,-z
1/2+x,y,-z
1/2-x,y,z
x,-y,z
loop_
_atom_site_type_symbol
_atom_site_label
_atom_site_fract_x
_atom_site_fract_y
_atom_site_fract_z
Si Si1 0.057823 0.308743 0.337643
Si Si2 0.944104 0.403857 0.838125
Si Si3 0.556339 0.000000 0.163756
Si Si4 0.556006 0.500000 0.662252
Si Si5 0.557673 0.798417 0.338425
Si Si6 0.555717 0.107271 0.162588
O O1 0.250000 0.308864 0.339651
O O2 0.000754 0.353631 0.239169
O O3 0.000000 0.315365 0.500000
O O4 0.000727 0.255031 0.285865
O O5 0.750000 0.403818 0.837324
O O6 0.998362 0.451189 0.746773
O O7 0.000000 0.406819 0.000000
O O8 0.502564 0.053380 0.222014
O O9 0.750000 0.000000 0.167221
O O10 0.500000 0.000000 0.000000
O O11 0.750000 0.500000 0.662156
O O12 0.500000 0.500000 0.500000
O O13 0.500000 0.803156 0.500000
O O14 0.750000 0.798242 0.336486
O O15 0.497962 0.845284 0.249188
O O16 0.750000 0.107848 0.164595
O O17 0.500000 0.110709 0.000000
#
# Coordination Sequence:
#
# PCOD9403617 Si02
#       6
#     8   8   4   4   8   8
#     4  10  20  35  54  76 100 132 171 209 248 298
#     4  10  22  37  55  80 109 137 170 210 254 299
#     4   8  14  28  47  68  94 124 158 200 245 294
#     4  10  21  38  58  82 108 138 175 212 250 300
#     4  10  20  34  51  73 100 133 168 205 249 298
#     4   9  18  31  50  73  97 126 163 204 249 297
#
# _framework density 18.832060999999999
#
# number of rings (size 3 to 8) (size 9 to 14) (size 15 to 20)
#    0.000    2.400    0.000    3.300    0.000    4.800 
#    0.000    4.500    0.000    0.000    0.000    0.000 
#    0.000    0.000    0.000    0.000    0.000    0.000 
#
# Total GULP energy -223103.907138 kJ/mol
# GULP energy per Si atom -5577.597678 kJ/mol
# Density = 1.878920 g / cm^3
# Si number density = 18.832061 Si / 1000 Ang^3
#
#
#
# Elastic Constant Matrix: (Units=GPa)
#
#
# Indices 1 2 3 4 5 6 
#
# 1 20.7875 25.9658 9.8193 0.0000 0.0000 0.0000
# 2 25.9658 243.1524 107.3187 0.0000 0.0000 0.0000
# 3 9.8193 107.3187 96.4960 0.0000 0.0000 0.0000
# 4 0.0000 0.0000 0.0000 28.2636 0.0000 0.0000
# 5 0.0000 0.0000 0.0000 0.0000 27.2810 0.0000
# 6 0.0000 0.0000 0.0000 0.0000 0.0000 22.7655
#
#
#
# Elastic Compliance Matrix: (Units=1/GPa)
#
#
# Indices 1 2 3 4 5 6 
#
# 1 0.055680 -0.006767 0.001860 0.000000 0.000000 0.000000
# 2 -0.006767 0.008900 -0.009210 0.000000 0.000000 0.000000
# 3 0.001860 -0.009210 0.020417 0.000000 0.000000 0.000000
# 4 0.000000 0.000000 0.000000 0.035381 0.000000 0.000000
# 5 0.000000 0.000000 0.000000 0.000000 0.036656 0.000000
# 6 0.000000 0.000000 0.000000 0.000000 0.000000 0.043926
#
#
# Mechanical properties :
#
#
# Convention : Reuss Voigt Hill
#
# Bulk Modulus (GPa) = 17.61712 71.84927 44.73320
# Shear Modulus (GPa) = 20.15207 30.15084 25.15145
#
# Velocity S-wave (km/s) = 3.27478 4.00564 3.65850
# Velocity P-wave (km/s) = 4.86560 7.72198 6.45380
#
# Compressibility (1/GPa) = 0.05676296
#
# Stress axis : x y z
#
# Youngs Moduli (GPa) = 17.95987 112.35815 48.97985
#
# Poissons Ratio (x) = 0.76030 -0.09109
# Poissons Ratio (y) = 0.12153 0.45109
# Poissons Ratio (z) = -0.03340 1.03479
#
# Static dielectric constant tensor:
#      x y z
#    x 1.656770 0.000000 0.000000 
#    y 0.000000 1.699560 0.000000 
#    z 0.000000 0.000000 1.592160 
# 
# From -- ./inp_files/5564.got.cif
#   From: 2010.05.17/outbox.cif.g08.bks.cpg/sg51_3_cif.got.tgz:5564.got - 2010.06.03 11:52:47.
