data_PCOD9403052
_publ_section_title
;
Structure prediction by ZEFSAII (Michael W. Deem and Ramdas Pophale) SiO2 
 PCOD9403052
Probable space group: P M M A
;
_chemical_formula_sum "Si O2"
_cell_formula_units_Z 40
_cell_length_a 8.923564
_cell_length_b 14.078565
_cell_length_c 19.222864
_cell_angle_alpha 90.000000
_cell_angle_beta 90.000000
_cell_angle_gamma 90.000000
_cell_volume 2414.987162
_symmetry_space_group_name_H-M "P M M A"
_symmetry_group_IT_number 51
_symmetry_cell_setting 'orthorhombic'
loop_
_space_group_symop_operation_xyz
x,y,z
1/2-x,-y,z
1/2+x,-y,-z
-x,y,-z
-x,-y,-z
1/2+x,y,-z
1/2-x,y,z
x,-y,z
loop_
_atom_site_type_symbol
_atom_site_label
_atom_site_fract_x
_atom_site_fract_y
_atom_site_fract_z
Si Si1 0.571019 0.712293 0.072549
Si Si2 0.569432 0.111000 0.573249
Si Si3 0.069859 0.214760 0.286760
Si Si4 0.430482 0.391795 0.785111
Si Si5 0.430283 0.109373 0.144031
O O1 0.750000 0.714783 0.066955
O O2 0.529525 0.644255 0.137198
O O3 0.509494 0.816370 0.093112
O O4 0.500000 0.681474 0.000000
O O5 0.500000 0.142122 0.500000
O O6 0.750000 0.115967 0.569046
O O7 0.519972 0.171554 0.639845
O O8 0.529213 0.000000 0.583903
O O9 0.250000 0.223188 0.288306
O O10 0.033619 0.143883 0.222634
O O11 0.999717 0.315847 0.267602
O O12 0.250000 0.388099 0.780069
O O13 0.479266 0.500000 0.773949
O O14 0.250000 0.116740 0.135638
O O15 0.473599 0.000000 0.133533
#
# Coordination Sequence:
#
# PCOD9403052 Si02
#       5
#     8   8   8   8   8
#     4  10  20  33  48  67  92 120 151 189 232 278
#     4   9  17  29  46  71 103 134 160 187 222 266
#     4   9  17  30  49  72  96 122 155 194 231 270
#     4   9  19  35  52  70  92 118 150 191 239 284
#     4   9  17  30  48  68  91 122 157 190 227 272
#
# _framework density 16.563236
#
# number of rings (size 3 to 8) (size 9 to 14) (size 15 to 20)
#    0.000    2.800    0.000    1.200    0.000    5.600 
#    0.000    0.000    0.000    4.200    0.000    0.000 
#    0.000    0.000    0.000    0.000    0.000    0.000 
#
# Total GULP energy -223030.204190 kJ/mol
# GULP energy per Si atom -5575.755105 kJ/mol
# Density = 1.652554 g / cm^3
# Si number density = 16.563236 Si / 1000 Ang^3
#
#
#
# Elastic Constant Matrix: (Units=GPa)
#
#
# Indices 1 2 3 4 5 6 
#
# 1 11.7439 18.4345 24.8367 0.0000 0.0000 0.0000
# 2 18.4345 84.2538 34.5749 0.0000 0.0000 0.0000
# 3 24.8367 34.5749 111.8361 0.0000 0.0000 0.0000
# 4 0.0000 0.0000 0.0000 10.9970 0.0000 0.0000
# 5 0.0000 0.0000 0.0000 0.0000 27.5798 0.0000
# 6 0.0000 0.0000 0.0000 0.0000 0.0000 23.9559
#
#
#
# Elastic Compliance Matrix: (Units=1/GPa)
#
#
# Indices 1 2 3 4 5 6 
#
# 1 0.214804 -0.031407 -0.037994 0.000000 0.000000 0.000000
# 2 -0.031407 0.018186 0.001353 0.000000 0.000000 0.000000
# 3 -0.037994 0.001353 0.016961 0.000000 0.000000 0.000000
# 4 0.000000 0.000000 0.000000 0.090934 0.000000 0.000000
# 5 0.000000 0.000000 0.000000 0.000000 0.036258 0.000000
# 6 0.000000 0.000000 0.000000 0.000000 0.000000 0.041743
#
#
# Mechanical properties :
#
#
# Convention : Reuss Voigt Hill
#
# Bulk Modulus (GPa) = 8.78321 40.39178 24.58749
# Shear Modulus (GPa) = 8.43263 21.17238 14.80251
#
# Velocity S-wave (km/s) = 2.25881 3.57918 2.99272
# Velocity P-wave (km/s) = 3.48099 6.44360 5.17867
#
# Compressibility (1/GPa) = 0.11385364
#
# Stress axis : x y z
#
# Youngs Moduli (GPa) = 4.65541 54.98867 58.95774
#
# Poissons Ratio (x) = 1.72703 2.24006
# Poissons Ratio (y) = 0.14621 -0.07975
# Poissons Ratio (z) = 0.17688 -0.07438
#
# Static dielectric constant tensor:
#      x y z
#    x 1.555530 0.000000 0.000000 
#    y 0.000000 1.539610 0.000000 
#    z 0.000000 0.000000 1.548770 
# 
# From -- ./inp_files/27017.got.cif
#   From: 2010.05.17/outbox.cif.g08.bks.cpg/sg51_14_cif.got.tgz:27017.got - 2010.06.03 11:52:47.
