data_PCOD9403776
_publ_section_title
;
Structure prediction by ZEFSAII (Michael W. Deem and Ramdas Pophale) SiO2 
 PCOD9403776
Probable space group: P M M A
;
_chemical_formula_sum "Si O2"
_cell_formula_units_Z 56
_cell_length_a 19.482196
_cell_length_b 7.514478
_cell_length_c 18.298270
_cell_angle_alpha 90.000000
_cell_angle_beta 90.000000
_cell_angle_gamma 90.000000
_cell_volume 2678.839889
_symmetry_space_group_name_H-M "P M M A"
_symmetry_group_IT_number 51
_symmetry_cell_setting 'orthorhombic'
loop_
_space_group_symop_operation_xyz
x,y,z
1/2-x,-y,z
1/2+x,-y,-z
-x,y,-z
-x,-y,-z
1/2+x,y,-z
1/2-x,y,z
x,-y,z
loop_
_atom_site_type_symbol
_atom_site_label
_atom_site_fract_x
_atom_site_fract_y
_atom_site_fract_z
Si Si1 0.893701 0.705256 0.633153
Si Si2 0.170382 0.283098 0.065131
Si Si3 0.429397 0.715745 0.775729
Si Si4 0.670695 0.282911 0.096852
Si Si5 0.326507 0.794384 0.513905
Si Si6 0.585883 0.282633 0.795140
Si Si7 0.448886 0.205361 0.611158
O O1 0.872750 0.500000 0.634802
O O2 0.848519 0.792575 0.570610
O O3 0.887825 0.778140 0.715589
O O4 0.974877 0.712962 0.612691
O O5 0.250000 0.232295 0.072383
O O6 0.168132 0.500000 0.065793
O O7 0.127386 0.220946 0.134456
O O8 0.146390 0.227493 0.984163
O O9 0.426743 0.500000 0.771764
O O10 0.375286 0.777320 0.835823
O O11 0.506116 0.766260 0.799848
O O12 0.420310 0.783900 0.693615
O O13 0.750000 0.229856 0.104949
O O14 0.669262 0.500000 0.097370
O O15 0.250000 0.717589 0.523991
O O16 0.390890 0.714485 0.558327
O O17 0.322909 0.000000 0.538347
O O18 0.588664 0.500000 0.793643
O O19 0.460359 0.000000 0.589919
#
# Coordination Sequence:
#
# PCOD9403776 Si02
#       7
#     8   8   8   8   8   8   8
#     4  10  20  34  53  77 102 127 160 202 247 293
#     4   8  13  22  37  59  90 125 155 184 226 281
#     4   9  17  29  45  68  96 120 150 197 243 280
#     4   8  14  24  39  62  92 124 155 189 234 284
#     4  10  22  38  53  72  99 129 163 201 239 286
#     4   8  15  26  40  63  93 121 150 188 233 278
#     4  10  20  35  54  72  94 129 167 199 239 292
#
# _framework density 20.904572000000002
#
# number of rings (size 3 to 8) (size 9 to 14) (size 15 to 20)
#    0.000    3.000    0.000    3.000    0.000    4.857 
#    0.000    4.286    0.000    0.000    0.000    9.000 
#    0.000    5.714    0.000    0.000    0.000    0.000 
#
# Total GULP energy -312384.170550 kJ/mol
# GULP energy per Si atom -5578.288760 kJ/mol
# Density = 2.085699 g / cm^3
# Si number density = 20.904572 Si / 1000 Ang^3
#
#
#
# Elastic Constant Matrix: (Units=GPa)
#
#
# Indices 1 2 3 4 5 6 
#
# 1 37.3306 -6.7788 45.7416 0.0000 0.0000 0.0000
# 2 -6.7788 53.5646 -8.1239 0.0000 0.0000 0.0000
# 3 45.7416 -8.1239 102.0443 0.0000 0.0000 0.0000
# 4 0.0000 0.0000 0.0000 26.7304 0.0000 0.0000
# 5 0.0000 0.0000 0.0000 0.0000 -4.7434 0.0000
# 6 0.0000 0.0000 0.0000 0.0000 0.0000 1.6639
#
#
#
# Elastic Compliance Matrix: (Units=1/GPa)
#
#
# Indices 1 2 3 4 5 6 
#
# 1 0.060093 0.003563 -0.026653 0.000000 0.000000 0.000000
# 2 0.003563 0.019108 -0.000076 0.000000 0.000000 0.000000
# 3 -0.026653 -0.000076 0.021741 0.000000 0.000000 0.000000
# 4 0.000000 0.000000 0.000000 0.037411 0.000000 0.000000
# 5 0.000000 0.000000 0.000000 0.000000 -0.210817 0.000000
# 6 0.000000 0.000000 0.000000 0.000000 0.000000 0.600983
#
#
# Mechanical properties :
#
#
# Convention : Reuss Voigt Hill
#
# Bulk Modulus (GPa) = 18.31173 28.29082 23.30128
# Shear Modulus (GPa) = 8.43092 15.53688 11.98390
#
# Velocity S-wave (km/s) = 2.01042 2.72918 2.39690
# Velocity P-wave (km/s) = 3.76401 4.84705 4.33945
#
# Compressibility (1/GPa) = 0.05460979
#
# Stress axis : x y z
#
# Youngs Moduli (GPa) = 16.64091 52.33298 45.99614
#
# Poissons Ratio (x) = -0.18644 1.22594
# Poissons Ratio (y) = -0.05928 0.00348
# Poissons Ratio (z) = 0.44353 0.00396
#
# Static dielectric constant tensor:
#      x y z
#    x 1.725250 0.000000 0.000000 
#    y 0.000000 1.790560 0.000000 
#    z 0.000000 0.000000 1.738200 
# 
# From -- ./inp_files/30490.got.cif
#   From: 2010.05.17/outbox.cif.g08.bks.cpg/sg51_16_cif.got.tgz:30490.got - 2010.06.03 11:52:47.
