data_PCOD9403207
_publ_section_title
;
Structure prediction by ZEFSAII (Michael W. Deem and Ramdas Pophale) SiO2 
 PCOD9403207
Probable space group: P M M A
;
_chemical_formula_sum "Si O2"
_cell_formula_units_Z 40
_cell_length_a 9.278193
_cell_length_b 7.356312
_cell_length_c 26.594381
_cell_angle_alpha 90.000000
_cell_angle_beta 90.000000
_cell_angle_gamma 90.000000
_cell_volume 1815.153799
_symmetry_space_group_name_H-M "P M M A"
_symmetry_group_IT_number 51
_symmetry_cell_setting 'orthorhombic'
loop_
_space_group_symop_operation_xyz
x,y,z
1/2-x,-y,z
1/2+x,-y,-z
-x,y,-z
-x,-y,-z
1/2+x,y,-z
1/2-x,y,z
x,-y,z
loop_
_atom_site_type_symbol
_atom_site_label
_atom_site_fract_x
_atom_site_fract_y
_atom_site_fract_z
Si Si1 0.083734 0.221769 0.650405
Si Si2 0.086611 0.717139 0.048364
Si Si3 0.586334 0.217323 0.150618
Si Si4 0.416272 0.222088 0.249221
Si Si5 0.083671 0.778159 0.449852
O O1 0.250000 0.279597 0.650328
O O2 0.000507 0.278603 0.700673
O O3 0.999808 0.279301 0.600326
O O4 0.084093 0.000000 0.650321
O O5 0.250000 0.787747 0.051283
O O6 0.096729 0.500000 0.042260
O O7 0.999466 0.748707 0.099419
O O8 0.000000 0.787991 0.000000
O O9 0.750000 0.287267 0.148320
O O10 0.498802 0.283797 0.199149
O O11 0.595436 0.000000 0.156244
O O12 0.250000 0.279518 0.249592
O O13 0.415922 0.000000 0.248991
O O14 0.250000 0.720589 0.449894
O O15 0.000000 0.720814 0.500000
O O16 0.083884 0.000000 0.449842
#
# Coordination Sequence:
#
# PCOD9403207 Si02
#       5
#     8   8   8   8   8
#     4   9  15  22  32  46  66  94 129 170 216 265
#     4  10  21  37  56  76  98 126 159 193 231 277
#     4  10  20  33  50  73  99 126 157 194 235 278
#     4   9  16  26  40  58  81 109 141 179 223 269
#     4   9  15  21  28  39  57  84 122 168 215 261
#
# _framework density 22.036701000000001
#
# number of rings (size 3 to 8) (size 9 to 14) (size 15 to 20)
#    0.000    2.600    0.000    3.000    0.000   10.000 
#    0.000    0.000    0.000    0.000    0.000    0.000 
#    0.000    0.000    0.000    0.000    0.000    1.000 
#
# Total GULP energy -223648.150724 kJ/mol
# GULP energy per Si atom -5591.203768 kJ/mol
# Density = 2.198654 g / cm^3
# Si number density = 22.036701 Si / 1000 Ang^3
#
#
#
# Elastic Constant Matrix: (Units=GPa)
#
#
# Indices 1 2 3 4 5 6 
#
# 1 293.5496 8.6354 182.0525 0.0000 0.0000 0.0000
# 2 8.6354 82.4884 1.8454 0.0000 0.0000 0.0000
# 3 182.0525 1.8454 277.3349 0.0000 0.0000 0.0000
# 4 0.0000 0.0000 0.0000 49.4358 0.0000 0.0000
# 5 0.0000 0.0000 0.0000 0.0000 49.6082 0.0000
# 6 0.0000 0.0000 0.0000 0.0000 0.0000 -12.3229
#
#
#
# Elastic Compliance Matrix: (Units=1/GPa)
#
#
# Indices 1 2 3 4 5 6 
#
# 1 0.005768 -0.000519 -0.003783 0.000000 0.000000 0.000000
# 2 -0.000519 0.012171 0.000260 0.000000 0.000000 0.000000
# 3 -0.003783 0.000260 0.006087 0.000000 0.000000 0.000000
# 4 0.000000 0.000000 0.000000 0.020228 0.000000 0.000000
# 5 0.000000 0.000000 0.000000 0.000000 0.020158 0.000000
# 6 0.000000 0.000000 0.000000 0.000000 0.000000 -0.081150
#
#
# Mechanical properties :
#
#
# Convention : Reuss Voigt Hill
#
# Bulk Modulus (GPa) = 62.72658 115.38217 89.05437
# Shear Modulus (GPa) = -1497.49522 48.06685 -724.71418
#
# Velocity S-wave (km/s) = -26.09638 4.67542 -18.15436
# Velocity P-wave (km/s) = 29.65640 9.03431 19.97352
#
# Compressibility (1/GPa) = 0.01594221
#
# Stress axis : x y z
#
# Youngs Moduli (GPa) = 173.37547 82.15942 164.28032
#
# Poissons Ratio (x) = 0.04266 0.62143
# Poissons Ratio (y) = 0.09001 -0.04268
# Poissons Ratio (z) = 0.65584 -0.02135
#
# Static dielectric constant tensor:
#      x y z
#    x 1.753960 0.000000 0.000000 
#    y 0.000000 1.868380 0.000000 
#    z 0.000000 0.000000 1.733140 
# 
# From -- ./inp_files/31358.got.cif
#   From: 2010.05.17/outbox.cif.g08.bks.cpg/sg51_16_cif.got.tgz:31358.got - 2010.06.03 11:52:47.
