data_PCOD9403329
_publ_section_title
;
Structure prediction by ZEFSAII (Michael W. Deem and Ramdas Pophale) SiO2 
 PCOD9403329
Probable space group: P M M A
;
_chemical_formula_sum "Si O2"
_cell_formula_units_Z 40
_cell_length_a 9.387671
_cell_length_b 7.612513
_cell_length_c 27.187794
_cell_angle_alpha 90.000000
_cell_angle_beta 90.000000
_cell_angle_gamma 90.000000
_cell_volume 1942.942190
_symmetry_space_group_name_H-M "P M M A"
_symmetry_group_IT_number 51
_symmetry_cell_setting 'orthorhombic'
loop_
_space_group_symop_operation_xyz
x,y,z
1/2-x,-y,z
1/2+x,-y,-z
-x,y,-z
-x,-y,-z
1/2+x,y,-z
1/2-x,y,z
x,-y,z
loop_
_atom_site_type_symbol
_atom_site_label
_atom_site_fract_x
_atom_site_fract_y
_atom_site_fract_z
Si Si1 0.911735 0.709593 0.953876
Si Si2 0.411886 0.289148 0.453076
Si Si3 0.416388 0.214571 0.260170
Si Si4 0.588173 0.788556 0.355088
Si Si5 0.585085 0.789032 0.847338
O O1 0.750000 0.781168 0.953760
O O2 0.901717 0.500000 0.959923
O O3 0.978893 0.738567 0.899882
O O4 0.000000 0.779826 0.000000
O O5 0.500000 0.221415 0.500000
O O6 0.250000 0.221235 0.451661
O O7 0.403537 0.500000 0.458105
O O8 0.495693 0.252507 0.403007
O O9 0.250000 0.265663 0.265390
O O10 0.509885 0.276600 0.305813
O O11 0.470855 0.269809 0.205943
O O12 0.417737 0.000000 0.260861
O O13 0.750000 0.722852 0.359667
O O14 0.594645 0.000000 0.351308
O O15 0.750000 0.727182 0.848708
O O16 0.586482 0.000000 0.846229
#
# Coordination Sequence:
#
# PCOD9403329 Si02
#       5
#     8   8   8   8   8
#     4   9  17  29  44  62  86 116 148 184 228 276
#     4  10  21  37  56  76  99 130 166 203 245 290
#     4   8  14  27  47  68  91 121 155 192 235 279
#     4  10  20  33  51  76 104 133 164 198 238 286
#     4   8  14  26  45  66  87 115 152 190 227 270
#
# _framework density 20.587333999999998
#
# number of rings (size 3 to 8) (size 9 to 14) (size 15 to 20)
#    0.000    3.000    0.000    2.400    0.000    3.200 
#    0.000    2.000    0.000    4.800    0.000    0.000 
#    0.000    0.000    0.000    0.000    0.000    0.000 
#
# Total GULP energy -222994.530242 kJ/mol
# GULP energy per Si atom -5574.863256 kJ/mol
# Density = 2.054048 g / cm^3
# Si number density = 20.587334 Si / 1000 Ang^3
#
#
#
# Elastic Constant Matrix: (Units=GPa)
#
#
# Indices 1 2 3 4 5 6 
#
# 1 125.2695 6.2916 110.2718 0.0000 0.0000 0.0000
# 2 6.2916 40.1981 1.9084 0.0000 0.0000 0.0000
# 3 110.2718 1.9084 251.7534 0.0000 0.0000 0.0000
# 4 0.0000 0.0000 0.0000 31.5740 0.0000 0.0000
# 5 0.0000 0.0000 0.0000 0.0000 36.6555 0.0000
# 6 0.0000 0.0000 0.0000 0.0000 0.0000 6.0377
#
#
#
# Elastic Compliance Matrix: (Units=1/GPa)
#
#
# Indices 1 2 3 4 5 6 
#
# 1 0.013119 -0.001781 -0.005733 0.000000 0.000000 0.000000
# 2 -0.001781 0.025128 0.000590 0.000000 0.000000 0.000000
# 3 -0.005733 0.000590 0.006479 0.000000 0.000000 0.000000
# 4 0.000000 0.000000 0.000000 0.031672 0.000000 0.000000
# 5 0.000000 0.000000 0.000000 0.000000 0.027281 0.000000
# 6 0.000000 0.000000 0.000000 0.000000 0.000000 0.165626
#
#
# Mechanical properties :
#
#
# Convention : Reuss Voigt Hill
#
# Bulk Modulus (GPa) = 32.38694 72.68497 52.53596
# Shear Modulus (GPa) = 17.03904 34.77004 25.90454
#
# Velocity S-wave (km/s) = 2.88001 4.11409 3.55107
# Velocity P-wave (km/s) = 5.17927 7.61249 6.51056
#
# Compressibility (1/GPa) = 0.03087665
#
# Stress axis : x y z
#
# Youngs Moduli (GPa) = 76.22807 39.79693 154.35332
#
# Poissons Ratio (x) = 0.07088 0.88485
# Poissons Ratio (y) = 0.13577 -0.09102
# Poissons Ratio (z) = 0.43699 -0.02347
#
# Static dielectric constant tensor:
#      x y z
#    x 1.722110 0.000000 0.000000 
#    y 0.000000 1.777320 0.000000 
#    z 0.000000 0.000000 1.748150 
# 
# From -- ./inp_files/31369.got.cif
#   From: 2010.05.17/outbox.cif.g08.bks.cpg/sg51_16_cif.got.tgz:31369.got - 2010.06.03 11:52:47.
