data_PCOD9403781
_publ_section_title
;
Structure prediction by ZEFSAII (Michael W. Deem and Ramdas Pophale) SiO2 
 PCOD9403781
Probable space group: P M M A
;
_chemical_formula_sum "Si O2"
_cell_formula_units_Z 48
_cell_length_a 8.383035
_cell_length_b 31.884666
_cell_length_c 9.578119
_cell_angle_alpha 90.000000
_cell_angle_beta 90.000000
_cell_angle_gamma 90.000000
_cell_volume 2560.138024
_symmetry_space_group_name_H-M "P M M A"
_symmetry_group_IT_number 51
_symmetry_cell_setting 'orthorhombic'
loop_
_space_group_symop_operation_xyz
x,y,z
1/2-x,-y,z
1/2+x,-y,-z
-x,y,-z
-x,-y,-z
1/2+x,y,-z
1/2-x,y,z
x,-y,z
loop_
_atom_site_type_symbol
_atom_site_label
_atom_site_fract_x
_atom_site_fract_y
_atom_site_fract_z
Si Si1 0.557275 0.452309 0.155930
Si Si2 0.441162 0.215847 0.658956
Si Si3 0.942718 0.046512 0.841521
Si Si4 0.942836 0.374900 0.341681
Si Si5 0.441348 0.124600 0.341878
Si Si6 0.057167 0.704957 0.841147
O O1 0.750000 0.452167 0.155211
O O2 0.503706 0.500000 0.186619
O O3 0.502677 0.417853 0.267134
O O4 0.500000 0.441413 0.000000
O O5 0.500000 0.222421 0.500000
O O6 0.250000 0.215764 0.655780
O O7 0.499167 0.170104 0.707340
O O8 0.496374 0.253113 0.760037
O O9 0.750000 0.047100 0.840160
O O10 0.999608 0.085446 0.749453
O O11 0.994043 0.000000 0.791788
O O12 0.000000 0.051154 0.000000
O O13 0.750000 0.374850 0.342385
O O14 0.995931 0.335549 0.247521
O O15 0.000000 0.371438 0.500000
O O16 0.500000 0.119615 0.500000
O O17 0.250000 0.125067 0.340861
O O18 0.250000 0.704932 0.841905
O O19 0.000000 0.703492 0.000000
#
# Coordination Sequence:
#
# PCOD9403781 Si02
#       6
#     8   8   8   8   8   8
#     4   9  18  33  53  77 105 136 171 212 256 303
#     4  10  20  35  54  76 102 132 168 207 250 300
#     4   9  19  35  53  74 101 133 169 208 250 297
#     4  10  21  36  53  76 105 136 172 212 255 303
#     4  10  20  34  53  77 104 134 168 206 250 299
#     4  10  22  37  54  77 103 133 170 211 253 301
#
# _framework density 18.748989999999999
#
# number of rings (size 3 to 8) (size 9 to 14) (size 15 to 20)
#    0.000    2.333    0.000    3.000    0.000    5.333 
#    0.000    3.333    0.000    0.000    0.000    0.000 
#    0.000    0.000    0.000    0.000    0.000    0.000 
#
# Total GULP energy -267906.557398 kJ/mol
# GULP energy per Si atom -5581.386612 kJ/mol
# Density = 1.870632 g / cm^3
# Si number density = 18.748990 Si / 1000 Ang^3
#
#
#
# Elastic Constant Matrix: (Units=GPa)
#
#
# Indices 1 2 3 4 5 6 
#
# 1 17.0564 25.2340 14.5640 0.0000 0.0000 0.0000
# 2 25.2340 190.6500 124.3510 0.0000 0.0000 0.0000
# 3 14.5640 124.3510 132.8897 0.0000 0.0000 0.0000
# 4 0.0000 0.0000 0.0000 44.0800 0.0000 0.0000
# 5 0.0000 0.0000 0.0000 0.0000 31.7924 0.0000
# 6 0.0000 0.0000 0.0000 0.0000 0.0000 101.1766
#
#
#
# Elastic Compliance Matrix: (Units=1/GPa)
#
#
# Indices 1 2 3 4 5 6 
#
# 1 0.073275 -0.011447 0.002681 0.000000 0.000000 0.000000
# 2 -0.011447 0.015249 -0.013015 0.000000 0.000000 0.000000
# 3 0.002681 -0.013015 0.019410 0.000000 0.000000 0.000000
# 4 0.000000 0.000000 0.000000 0.022686 0.000000 0.000000
# 5 0.000000 0.000000 0.000000 0.000000 0.031454 0.000000
# 6 0.000000 0.000000 0.000000 0.000000 0.000000 0.009884
#
#
# Mechanical properties :
#
#
# Convention : Reuss Voigt Hill
#
# Bulk Modulus (GPa) = 15.53459 74.32159 44.92809
# Shear Modulus (GPa) = 21.09900 47.17294 34.13597
#
# Velocity S-wave (km/s) = 3.35825 5.02144 4.27158
# Velocity P-wave (km/s) = 4.83122 8.56424 6.95294
#
# Compressibility (1/GPa) = 0.06437249
#
# Stress axis : x y z
#
# Youngs Moduli (GPa) = 13.64713 65.57671 51.52028
#
# Poissons Ratio (x) = 0.75069 -0.13814
# Poissons Ratio (y) = 0.15623 0.67053
# Poissons Ratio (z) = -0.03659 0.85347
#
# Static dielectric constant tensor:
#      x y z
#    x 1.652770 0.000000 0.000000 
#    y 0.000000 1.672440 0.000000 
#    z 0.000000 0.000000 1.599480 
# 
# From -- ./inp_files/6057.got.cif
#   From: 2010.05.17/outbox.cif.g08.bks.cpg/sg51_4_cif.got.tgz:6057.got - 2010.06.03 11:52:47.
