data_PCOD9403157
_publ_section_title
;
Structure prediction by ZEFSAII (Michael W. Deem and Ramdas Pophale) SiO2 
 PCOD9403157
Probable space group: P M M A
;
_chemical_formula_sum "Si O2"
_cell_formula_units_Z 64
_cell_length_a 28.796221
_cell_length_b 8.922906
_cell_length_c 15.836090
_cell_angle_alpha 90.000000
_cell_angle_beta 90.000000
_cell_angle_gamma 90.000000
_cell_volume 4069.019556
_symmetry_space_group_name_H-M "P M M A"
_symmetry_group_IT_number 51
_symmetry_cell_setting 'orthorhombic'
loop_
_space_group_symop_operation_xyz
x,y,z
1/2-x,-y,z
1/2+x,-y,-z
-x,y,-z
-x,-y,-z
1/2+x,y,-z
1/2-x,y,z
x,-y,z
loop_
_atom_site_type_symbol
_atom_site_label
_atom_site_fract_x
_atom_site_fract_y
_atom_site_fract_z
Si Si1 0.396120 0.821049 0.333860
Si Si2 0.197431 0.177101 0.423977
Si Si3 0.055504 0.677503 0.496147
Si Si4 0.196582 0.321492 0.606735
Si Si5 0.943719 0.827339 0.005857
Si Si6 0.104019 0.821059 0.660281
Si Si7 0.940710 0.678452 0.829710
Si Si8 0.551180 0.678496 0.181983
O O1 0.342462 0.789639 0.356936
O O2 0.425410 0.751481 0.410872
O O3 0.412265 0.749528 0.246632
O O4 0.402858 0.000000 0.331572
O O5 0.250000 0.203041 0.393717
O O6 0.190344 0.270994 0.509281
O O7 0.193266 0.000000 0.446263
O O8 0.066081 0.500000 0.496724
O O9 0.079366 0.754133 0.576795
O O10 0.000000 0.695358 0.500000
O O11 0.250000 0.284043 0.629683
O O12 0.190591 0.500000 0.613545
O O13 0.156937 0.237606 0.658762
O O14 0.931921 0.739436 0.091345
O O15 0.928683 0.000000 0.010474
O O16 0.927490 0.749220 0.919839
O O17 0.000000 0.826013 0.000000
O O18 0.077038 0.759928 0.741766
O O19 0.102742 0.000000 0.657141
O O20 0.934826 0.500000 0.832366
O O21 0.995684 0.708189 0.813762
O O22 0.557853 0.500000 0.187819
#
# Coordination Sequence:
#
# PCOD9403157 Si02
#       8
#     8   8   8   8   8   8   8   8
#     4  11  21  32  49  73  98 130 167 206 249 295
#     4   9  18  33  51  71  96 126 162 206 255 300
#     4  11  23  36  48  65  96 136 172 206 245 292
#     4  10  20  34  53  74  96 126 165 209 254 299
#     4   9  17  31  51  74  99 127 163 208 251 293
#     4  12  23  34  50  73 100 133 169 207 250 297
#     4  10  20  33  50  72 101 136 169 205 247 294
#     4  10  20  34  51  72 100 134 170 206 247 295
#
# _framework density 15.728604000000001
#
# number of rings (size 3 to 8) (size 9 to 14) (size 15 to 20)
#    0.000    1.750    1.250    4.125    0.000    8.250 
#    0.000    0.000    0.000    0.000    0.000    0.875 
#    0.000    5.000    0.000    0.000    0.000    0.000 
#
# Total GULP energy -357321.676589 kJ/mol
# GULP energy per Si atom -5583.151197 kJ/mol
# Density = 1.569281 g / cm^3
# Si number density = 15.728604 Si / 1000 Ang^3
#
#
#
# Elastic Constant Matrix: (Units=GPa)
#
#
# Indices 1 2 3 4 5 6 
#
# 1 58.0190 41.2581 20.6637 0.0000 0.0000 0.0000
# 2 41.2581 78.3181 29.3704 0.0000 0.0000 0.0000
# 3 20.6637 29.3704 72.6208 0.0000 0.0000 0.0000
# 4 0.0000 0.0000 0.0000 32.7958 0.0000 0.0000
# 5 0.0000 0.0000 0.0000 0.0000 7.9900 0.0000
# 6 0.0000 0.0000 0.0000 0.0000 0.0000 20.5436
#
#
#
# Elastic Compliance Matrix: (Units=1/GPa)
#
#
# Indices 1 2 3 4 5 6 
#
# 1 0.027897 -0.013814 -0.002351 0.000000 0.000000 0.000000
# 2 -0.013814 0.021892 -0.004923 0.000000 0.000000 0.000000
# 3 -0.002351 -0.004923 0.016430 0.000000 0.000000 0.000000
# 4 0.000000 0.000000 0.000000 0.030492 0.000000 0.000000
# 5 0.000000 0.000000 0.000000 0.000000 0.125157 0.000000
# 6 0.000000 0.000000 0.000000 0.000000 0.000000 0.048677
#
#
# Mechanical properties :
#
#
# Convention : Reuss Voigt Hill
#
# Bulk Modulus (GPa) = 41.59342 43.50470 42.54906
# Shear Modulus (GPa) = 15.58920 20.11026 17.84973
#
# Velocity S-wave (km/s) = 3.15165 3.57960 3.37242
# Velocity P-wave (km/s) = 6.30442 6.69361 6.50193
#
# Compressibility (1/GPa) = 0.02404226
#
# Stress axis : x y z
#
# Youngs Moduli (GPa) = 35.84671 45.67852 60.86379
#
# Poissons Ratio (x) = 0.63102 0.14307
# Poissons Ratio (y) = 0.49520 0.29964
# Poissons Ratio (z) = 0.08427 0.22488
#
# Static dielectric constant tensor:
#      x y z
#    x 1.526690 0.000000 0.000000 
#    y 0.000000 1.525560 0.000000 
#    z 0.000000 0.000000 1.493280 
# 
# From -- ./inp_files/26657.got.cif
#   From: 2010.05.17/outbox.cif.g08.bks.cpg/sg51_14_cif.got.tgz:26657.got - 2010.06.03 11:52:47.
