data_PCOD9403775
_publ_section_title
;
Structure prediction by ZEFSAII (Michael W. Deem and Ramdas Pophale) SiO2 
 PCOD9403775
Probable space group: P M M A
;
_chemical_formula_sum "Si O2"
_cell_formula_units_Z 56
_cell_length_a 7.778619
_cell_length_b 19.338600
_cell_length_c 19.740379
_cell_angle_alpha 90.000000
_cell_angle_beta 90.000000
_cell_angle_gamma 90.000000
_cell_volume 2969.497864
_symmetry_space_group_name_H-M "P M M A"
_symmetry_group_IT_number 51
_symmetry_cell_setting 'orthorhombic'
loop_
_space_group_symop_operation_xyz
x,y,z
1/2-x,-y,z
1/2+x,-y,-z
-x,y,-z
-x,-y,-z
1/2+x,y,-z
1/2-x,y,z
x,-y,z
loop_
_atom_site_type_symbol
_atom_site_label
_atom_site_fract_x
_atom_site_fract_y
_atom_site_fract_z
Si Si1 0.954532 0.714615 0.922375
Si Si2 0.454026 0.208553 0.792234
Si Si3 0.954259 0.424189 0.852219
Si Si4 0.456195 0.152969 0.574698
Si Si5 0.543530 0.687981 0.425261
Si Si6 0.458557 0.651001 0.719472
Si Si7 0.460893 0.921946 0.710654
O O1 0.750000 0.711997 0.916274
O O2 0.025329 0.640661 0.895062
O O3 0.015352 0.773118 0.870231
O O4 0.000000 0.726058 0.000000
O O5 0.250000 0.207699 0.780500
O O6 0.518658 0.274514 0.749060
O O7 0.519566 0.135652 0.764606
O O8 0.750000 0.426593 0.864901
O O9 0.026485 0.500000 0.867990
O O10 0.980143 0.405321 0.773318
O O11 0.500000 0.126356 0.500000
O O12 0.250000 0.156577 0.579998
O O13 0.521146 0.232354 0.579559
O O14 0.515616 0.106291 0.636908
O O15 0.500000 0.661113 0.500000
O O16 0.750000 0.690991 0.421339
O O17 0.484720 0.646984 0.358577
O O18 0.250000 0.649762 0.721280
O O19 0.250000 0.923361 0.711244
O O20 0.519304 0.000000 0.722978
#
# Coordination Sequence:
#
# PCOD9403775 Si02
#       7
#     8   8   8   8   8   8   8
#     4  10  20  34  53  77 101 126 153 182 221 269
#     4   9  16  30  50  70  94 123 158 198 235 275
#     4   9  19  34  50  72 102 129 151 180 222 272
#     4   9  16  27  41  61  91 126 161 199 241 284
#     4   9  16  26  41  63  90 120 157 202 244 279
#     4   9  16  28  47  68  91 122 161 200 235 274
#     4   9  16  27  46  69  93 126 165 201 240 285
#
# _framework density 18.858408000000001
#
# number of rings (size 3 to 8) (size 9 to 14) (size 15 to 20)
#    0.000    2.857    1.429    0.429    0.000    2.000 
#    0.000    0.714    0.000    2.143    0.000    0.000 
#    0.000    0.000    0.000    0.000    0.000    0.000 
#
# Total GULP energy -312120.258079 kJ/mol
# GULP energy per Si atom -5573.576037 kJ/mol
# Density = 1.881549 g / cm^3
# Si number density = 18.858408 Si / 1000 Ang^3
#
#
#
# Elastic Constant Matrix: (Units=GPa)
#
#
# Indices 1 2 3 4 5 6 
#
# 1 18.1171 -1.0056 -14.4955 0.0000 0.0000 0.0000
# 2 -1.0056 65.7320 38.2761 0.0000 0.0000 0.0000
# 3 -14.4955 38.2761 120.0886 0.0000 0.0000 0.0000
# 4 0.0000 0.0000 0.0000 15.3588 0.0000 0.0000
# 5 0.0000 0.0000 0.0000 0.0000 21.6041 0.0000
# 6 0.0000 0.0000 0.0000 0.0000 0.0000 9.5625
#
#
#
# Elastic Compliance Matrix: (Units=1/GPa)
#
#
# Indices 1 2 3 4 5 6 
#
# 1 0.062022 -0.004188 0.008821 0.000000 0.000000 0.000000
# 2 -0.004188 0.018963 -0.006550 0.000000 0.000000 0.000000
# 3 0.008821 -0.006550 0.011480 0.000000 0.000000 0.000000
# 4 0.000000 0.000000 0.000000 0.065109 0.000000 0.000000
# 5 0.000000 0.000000 0.000000 0.000000 0.046288 0.000000
# 6 0.000000 0.000000 0.000000 0.000000 0.000000 0.104576
#
#
# Mechanical properties :
#
#
# Convention : Reuss Voigt Hill
#
# Bulk Modulus (GPa) = 11.28258 27.72085 19.50172
# Shear Modulus (GPa) = 14.62785 21.38257 18.00521
#
# Velocity S-wave (km/s) = 2.78810 3.37092 3.09327
# Velocity P-wave (km/s) = 4.04481 5.46646 4.80846
#
# Compressibility (1/GPa) = 0.08863219
#
# Stress axis : x y z
#
# Youngs Moduli (GPa) = 16.12332 52.73395 87.11132
#
# Poissons Ratio (x) = 0.22084 -0.76843
# Poissons Ratio (y) = 0.06752 0.57055
# Poissons Ratio (z) = -0.14223 0.34539
#
# Static dielectric constant tensor:
#      x y z
#    x 1.697290 0.000000 0.000000 
#    y 0.000000 1.656810 0.000000 
#    z 0.000000 0.000000 1.636940 
# 
# From -- ./inp_files/28210.got.cif
#   From: 2010.05.17/outbox.cif.g08.bks.cpg/sg51_15_cif.got.tgz:28210.got - 2010.06.03 11:52:47.
