data_PCOD9403234
_publ_section_title
;
Structure prediction by ZEFSAII (Michael W. Deem and Ramdas Pophale) SiO2 
 PCOD9403234
Probable space group: P M M A
;
_chemical_formula_sum "Si O2"
_cell_formula_units_Z 64
_cell_length_a 8.965241
_cell_length_b 14.542756
_cell_length_c 28.828839
_cell_angle_alpha 90.000000
_cell_angle_beta 90.000000
_cell_angle_gamma 90.000000
_cell_volume 3758.684205
_symmetry_space_group_name_H-M "P M M A"
_symmetry_group_IT_number 51
_symmetry_cell_setting 'orthorhombic'
loop_
_space_group_symop_operation_xyz
x,y,z
1/2-x,-y,z
1/2+x,-y,-z
-x,y,-z
-x,-y,-z
1/2+x,y,-z
1/2-x,y,z
x,-y,z
loop_
_atom_site_type_symbol
_atom_site_label
_atom_site_fract_x
_atom_site_fract_y
_atom_site_fract_z
Si Si1 0.923724 0.389726 0.717093
Si Si2 0.072567 0.719571 0.633535
Si Si3 0.571983 0.893066 0.950222
Si Si4 0.571797 0.394143 0.184378
Si Si5 0.924163 0.110264 0.782619
Si Si6 0.073183 0.785165 0.866419
Si Si7 0.428082 0.607364 0.449641
Si Si8 0.929005 0.107321 0.675281
O O1 0.750000 0.362989 0.713426
O O2 0.934263 0.500000 0.710443
O O3 0.017051 0.338492 0.677993
O O4 0.985653 0.369893 0.768364
O O5 0.250000 0.717581 0.630181
O O6 0.999459 0.672811 0.588669
O O7 0.013069 0.822428 0.642250
O O8 0.750000 0.885940 0.953267
O O9 0.510464 0.828412 0.909964
O O10 0.534729 0.000000 0.939113
O O11 0.500000 0.871805 0.000000
O O12 0.750000 0.387924 0.193409
O O13 0.537284 0.500000 0.172549
O O14 0.535809 0.320939 0.144655
O O15 0.750000 0.135623 0.789693
O O16 0.964146 0.130621 0.729179
O O17 0.024502 0.160142 0.820234
O O18 0.934421 0.000000 0.788269
O O19 0.250000 0.793543 0.873416
O O20 0.500000 0.623241 0.500000
O O21 0.250000 0.620014 0.451617
O O22 0.456507 0.500000 0.437207
O O23 0.750000 0.116943 0.670232
O O24 0.965876 0.000000 0.667813
#
# Coordination Sequence:
#
# PCOD9403234 Si02
#       8
#     8   8   8   8   8   8   8   8
#     4  10  20  33  50  74 104 138 177 219 260 304
#     4  12  23  33  51  78 107 140 176 213 256 309
#     4  10  21  37  56  77 102 130 159 197 247 300
#     4   9  19  35  51  70 101 138 173 211 255 300
#     4   9  18  32  49  71 101 136 171 207 250 299
#     4  11  21  31  49  76 102 132 169 206 247 297
#     4  10  21  38  59  82 108 136 168 209 257 309
#     4   9  19  36  55  74 101 139 180 221 262 302
#
# _framework density 17.027235999999998
#
# number of rings (size 3 to 8) (size 9 to 14) (size 15 to 20)
#    0.000    2.000    0.000    4.875    0.000    9.250 
#    0.000    1.250    0.000    0.750    0.000    0.000 
#    0.000    0.000    0.000    0.000    0.000    0.000 
#
# Total GULP energy -357501.876946 kJ/mol
# GULP energy per Si atom -5585.966827 kJ/mol
# Density = 1.698848 g / cm^3
# Si number density = 17.027236 Si / 1000 Ang^3
#
#
#
# Elastic Constant Matrix: (Units=GPa)
#
#
# Indices 1 2 3 4 5 6 
#
# 1 80.1749 60.5974 66.1757 0.0000 0.0000 0.0000
# 2 60.5974 93.8988 84.7166 0.0000 0.0000 0.0000
# 3 66.1757 84.7166 111.1516 0.0000 0.0000 0.0000
# 4 0.0000 0.0000 0.0000 32.1028 0.0000 0.0000
# 5 0.0000 0.0000 0.0000 0.0000 31.3721 0.0000
# 6 0.0000 0.0000 0.0000 0.0000 0.0000 24.9693
#
#
#
# Elastic Compliance Matrix: (Units=1/GPa)
#
#
# Indices 1 2 3 4 5 6 
#
# 1 0.026841 -0.009298 -0.008894 0.000000 0.000000 0.000000
# 2 -0.009298 0.037315 -0.022905 0.000000 0.000000 0.000000
# 3 -0.008894 -0.022905 0.031749 0.000000 0.000000 0.000000
# 4 0.000000 0.000000 0.000000 0.031150 0.000000 0.000000
# 5 0.000000 0.000000 0.000000 0.000000 0.031875 0.000000
# 6 0.000000 0.000000 0.000000 0.000000 0.000000 0.040049
#
#
# Mechanical properties :
#
#
# Convention : Reuss Voigt Hill
#
# Bulk Modulus (GPa) = 72.92625 78.68940 75.80782
# Shear Modulus (GPa) = 17.49818 22.60455 20.05136
#
# Velocity S-wave (km/s) = 3.20919 3.64751 3.43535
# Velocity P-wave (km/s) = 7.52689 8.00333 7.76876
#
# Compressibility (1/GPa) = 0.01371248
#
# Stress axis : x y z
#
# Youngs Moduli (GPa) = 37.25672 26.79854 31.49674
#
# Poissons Ratio (x) = 0.24917 0.28012
# Poissons Ratio (y) = 0.34641 0.72144
# Poissons Ratio (z) = 0.33134 0.61383
#
# Static dielectric constant tensor:
#      x y z
#    x 1.568890 0.000000 0.000000 
#    y 0.000000 1.592660 0.000000 
#    z 0.000000 0.000000 1.540300 
# 
# From -- ./inp_files/34886.got.cif
#   From: 2010.05.17/outbox.cif.g08.bks.cpg/sg51_18_cif.got.tgz:34886.got - 2010.06.03 11:52:47.
