data_PCOD9403664
_publ_section_title
;
Structure prediction by ZEFSAII (Michael W. Deem and Ramdas Pophale) SiO2 
 PCOD9403664
Probable space group: P M M A
;
_chemical_formula_sum "Si O2"
_cell_formula_units_Z 48
_cell_length_a 14.146657
_cell_length_b 10.002594
_cell_length_c 17.974029
_cell_angle_alpha 90.000000
_cell_angle_beta 90.000000
_cell_angle_gamma 90.000000
_cell_volume 2543.383814
_symmetry_space_group_name_H-M "P M M A"
_symmetry_group_IT_number 51
_symmetry_cell_setting 'orthorhombic'
loop_
_space_group_symop_operation_xyz
x,y,z
1/2-x,-y,z
1/2+x,-y,-z
-x,y,-z
-x,-y,-z
1/2+x,y,-z
1/2-x,y,z
x,-y,z
loop_
_atom_site_type_symbol
_atom_site_label
_atom_site_fract_x
_atom_site_fract_y
_atom_site_fract_z
Si Si1 0.359032 0.351730 0.499483
Si Si2 0.352468 0.341387 0.832458
Si Si3 0.431705 0.152786 0.380616
Si Si4 0.461204 0.338056 0.081535
Si Si5 0.750000 0.662330 0.864622
Si Si6 0.750000 0.851906 0.724730
Si Si7 0.585411 0.650963 0.331353
O O1 0.250000 0.344776 0.477190
O O2 0.395238 0.500000 0.478763
O O3 0.412021 0.237092 0.455076
O O4 0.364016 0.341284 0.588637
O O5 0.250000 0.286900 0.859440
O O6 0.351498 0.500000 0.851125
O O7 0.453659 0.290844 0.863538
O O8 0.355041 0.331429 0.743123
O O9 0.339372 0.155037 0.329441
O O10 0.509425 0.233128 0.335121
O O11 0.457538 0.000000 0.396774
O O12 0.458729 0.500000 0.086153
O O13 0.351636 0.298290 0.097594
O O14 0.500000 0.301824 0.000000
O O15 0.750000 0.500000 0.858549
O O16 0.750000 0.735040 0.784938
O O17 0.750000 0.000000 0.761221
O O18 0.544140 0.500000 0.326314
#
# Coordination Sequence:
#
# PCOD9403664 Si02
#       7
#     8   8   8   8   4   4   8
#     4  10  20  34  52  74 101 137 181 231 281 327
#     4   9  17  30  50  75 106 146 184 220 269 327
#     4  11  22  36  52  73 103 140 181 225 279 337
#     4   9  18  30  49  81 119 150 177 218 273 329
#     4  10  20  34  56  86 115 146 186 228 273 328
#     4  10  22  38  54  74 105 142 180 226 275 326
#     4  10  20  34  52  76 104 135 179 228 272 325
#
# _framework density 18.872494
#
# number of rings (size 3 to 8) (size 9 to 14) (size 15 to 20)
#    0.000    2.167    0.833    2.500    1.167    7.333 
#    0.000    0.000    0.000    2.000    0.000    0.000 
#    0.000    0.000    0.000    0.000    0.000    0.000 
#
# Total GULP energy -267354.319148 kJ/mol
# GULP energy per Si atom -5569.881649 kJ/mol
# Density = 1.882954 g / cm^3
# Si number density = 18.872494 Si / 1000 Ang^3
#
#
#
# Elastic Constant Matrix: (Units=GPa)
#
#
# Indices 1 2 3 4 5 6 
#
# 1 150.2593 46.2740 40.9342 0.0000 0.0000 0.0000
# 2 46.2740 79.1362 26.0033 0.0000 0.0000 0.0000
# 3 40.9342 26.0033 81.4440 0.0000 0.0000 0.0000
# 4 0.0000 0.0000 0.0000 -15.4657 0.0000 0.0000
# 5 0.0000 0.0000 0.0000 0.0000 12.9329 0.0000
# 6 0.0000 0.0000 0.0000 0.0000 0.0000 23.7567
#
#
#
# Elastic Compliance Matrix: (Units=1/GPa)
#
#
# Indices 1 2 3 4 5 6 
#
# 1 0.008763 -0.004108 -0.003093 0.000000 0.000000 0.000000
# 2 -0.004108 0.016043 -0.003058 0.000000 0.000000 0.000000
# 3 -0.003093 -0.003058 0.014809 0.000000 0.000000 0.000000
# 4 0.000000 0.000000 0.000000 -0.064659 0.000000 0.000000
# 5 0.000000 0.000000 0.000000 0.000000 0.077322 0.000000
# 6 0.000000 0.000000 0.000000 0.000000 0.000000 0.042093
#
#
# Mechanical properties :
#
#
# Convention : Reuss Voigt Hill
#
# Bulk Modulus (GPa) = 52.35946 59.69583 56.02765
# Shear Modulus (GPa) = 41.23599 17.41999 29.32799
#
# Velocity S-wave (km/s) = 4.67945 3.04145 3.94637
# Velocity P-wave (km/s) = 7.54986 6.63579 7.10753
#
# Compressibility (1/GPa) = 0.01909874
#
# Stress axis : x y z
#
# Youngs Moduli (GPa) = 114.12036 62.33219 67.52644
#
# Poissons Ratio (x) = 0.25604 0.20884
# Poissons Ratio (y) = 0.46877 0.20647
# Poissons Ratio (z) = 0.35294 0.19059
#
# Static dielectric constant tensor:
#      x y z
#    x 1.705350 0.000000 0.000000 
#    y 0.000000 1.626250 0.000000 
#    z 0.000000 0.000000 1.657210 
# 
# From -- ./inp_files/29648.got.cif
#   From: 2010.05.17/outbox.cif.g08.bks.cpg/sg51_15_cif.got.tgz:29648.got - 2010.06.03 11:52:47.
