data_PCOD9403514
_publ_section_title
;
Structure prediction by ZEFSAII (Michael W. Deem and Ramdas Pophale) SiO2 
 PCOD9403514
Probable space group: P M M A
;
_chemical_formula_sum "Si O2"
_cell_formula_units_Z 64
_cell_length_a 33.208302
_cell_length_b 7.430310
_cell_length_c 10.848551
_cell_angle_alpha 90.000000
_cell_angle_beta 90.000000
_cell_angle_gamma 90.000000
_cell_volume 2676.858028
_symmetry_space_group_name_H-M "P M M A"
_symmetry_group_IT_number 51
_symmetry_cell_setting 'orthorhombic'
loop_
_space_group_symop_operation_xyz
x,y,z
1/2-x,-y,z
1/2+x,-y,-z
-x,y,-z
-x,-y,-z
1/2+x,y,-z
1/2-x,y,z
x,-y,z
loop_
_atom_site_type_symbol
_atom_site_label
_atom_site_fract_x
_atom_site_fract_y
_atom_site_fract_z
Si Si1 0.594839 0.206818 0.260319
Si Si2 0.018333 0.286740 0.866920
Si Si3 0.296908 0.719072 0.425005
Si Si4 0.705778 0.718990 0.034457
Si Si5 0.045897 0.782230 0.503657
Si Si6 0.350143 0.278904 0.188127
Si Si7 0.437290 0.706020 0.240021
Si Si8 0.816208 0.702789 0.298543
O O1 0.563178 0.213436 0.149000
O O2 0.567559 0.274955 0.372580
O O3 0.636815 0.305637 0.261977
O O4 0.605609 0.000000 0.282934
O O5 0.022855 0.500000 0.847463
O O6 0.982034 0.214306 0.780502
O O7 0.000000 0.253361 0.000000
O O8 0.250000 0.769017 0.405191
O O9 0.298838 0.500000 0.424009
O O10 0.325890 0.777092 0.312101
O O11 0.310147 0.779089 0.563481
O O12 0.750000 0.762134 0.985249
O O13 0.702561 0.500000 0.041210
O O14 0.672830 0.777875 0.935696
O O15 0.702221 0.787208 0.174776
O O16 0.069037 0.709992 0.385877
O O17 0.000000 0.719305 0.500000
O O18 0.045985 0.000000 0.499253
O O19 0.351034 0.500000 0.190521
O O20 0.396486 0.215954 0.185097
O O21 0.440347 0.500000 0.194281
O O22 0.799518 0.500000 0.307468
#
# Coordination Sequence:
#
# PCOD9403514 Si02
#       8
#     8   8   8   8   8   8   8   8
#     4  11  23  38  56  78 107 143 185 225 270 324
#     4  10  22  37  55  78 109 147 184 224 271 319
#     4   9  16  28  48  76 109 141 173 215 269 326
#     4   9  17  30  51  79 109 142 176 214 268 329
#     4  10  20  36  54  73 102 139 179 224 270 314
#     4   9  17  28  46  75 111 142 172 216 267 323
#     4  10  20  33  53  81 109 140 179 222 269 320
#     4  10  20  33  54  81 110 139 177 227 272 319
#
# _framework density 23.908628
#
# number of rings (size 3 to 8) (size 9 to 14) (size 15 to 20)
#    0.000    2.250    1.250    1.875    1.750    5.500 
#    0.000    0.000    0.000    1.500    0.000    0.000 
#    0.000    3.000    0.000    0.000    0.000    0.000 
#
# Total GULP energy -357386.533743 kJ/mol
# GULP energy per Si atom -5584.164590 kJ/mol
# Density = 2.385421 g / cm^3
# Si number density = 23.908628 Si / 1000 Ang^3
#
#
#
# Elastic Constant Matrix: (Units=GPa)
#
#
# Indices 1 2 3 4 5 6 
#
# 1 115.0081 1.6639 1.2649 0.0000 0.0000 0.0000
# 2 1.6639 65.3852 4.1679 0.0000 0.0000 0.0000
# 3 1.2649 4.1679 74.4967 0.0000 0.0000 0.0000
# 4 0.0000 0.0000 0.0000 -146.5098 0.0000 0.0000
# 5 0.0000 0.0000 0.0000 0.0000 39.6643 0.0000
# 6 0.0000 0.0000 0.0000 0.0000 0.0000 -10.1593
#
#
#
# Elastic Compliance Matrix: (Units=1/GPa)
#
#
# Indices 1 2 3 4 5 6 
#
# 1 0.008700 -0.000213 -0.000136 0.000000 0.000000 0.000000
# 2 -0.000213 0.015354 -0.000855 0.000000 0.000000 0.000000
# 3 -0.000136 -0.000855 0.013474 0.000000 0.000000 0.000000
# 4 0.000000 0.000000 0.000000 -0.006825 0.000000 0.000000
# 5 0.000000 0.000000 0.000000 0.000000 0.025212 0.000000
# 6 0.000000 0.000000 0.000000 0.000000 0.000000 -0.098432
#
#
# Mechanical properties :
#
#
# Convention : Reuss Voigt Hill
#
# Bulk Modulus (GPa) = 28.47445 29.89817 29.18631
# Shear Modulus (GPa) = -176.02962 -6.88141 -91.45552
#
# Velocity S-wave (km/s) = -8.58987 -1.69837 -6.19154
# Velocity P-wave (km/s) = 9.29761 2.94727 6.23535
#
# Compressibility (1/GPa) = 0.03511920
#
# Stress axis : x y z
#
# Youngs Moduli (GPa) = 114.94762 65.12994 74.21938
#
# Poissons Ratio (x) = 0.01386 0.01008
# Poissons Ratio (y) = 0.02445 0.06349
# Poissons Ratio (z) = 0.01561 0.05571
#
# Static dielectric constant tensor:
#      x y z
#    x 2.009290 0.000000 0.000000 
#    y 0.000000 1.951250 0.000000 
#    z 0.000000 0.000000 1.932530 
# 
# From -- ./inp_files/19652.got.cif
#   From: 2010.05.17/outbox.cif.g08.bks.cpg/sg51_10_cif.got.tgz:19652.got - 2010.06.03 11:52:47.
