data_PCOD9403146
_publ_section_title
;
Structure prediction by ZEFSAII (Michael W. Deem and Ramdas Pophale) SiO2 
 PCOD9403146
Probable space group: P M M A
;
_chemical_formula_sum "Si O2"
_cell_formula_units_Z 48
_cell_length_a 19.329954
_cell_length_b 7.587451
_cell_length_c 16.493800
_cell_angle_alpha 90.000000
_cell_angle_beta 90.000000
_cell_angle_gamma 90.000000
_cell_volume 2419.064477
_symmetry_space_group_name_H-M "P M M A"
_symmetry_group_IT_number 51
_symmetry_cell_setting 'orthorhombic'
loop_
_space_group_symop_operation_xyz
x,y,z
1/2-x,-y,z
1/2+x,-y,-z
-x,y,-z
-x,-y,-z
1/2+x,y,-z
1/2-x,y,z
x,-y,z
loop_
_atom_site_type_symbol
_atom_site_label
_atom_site_fract_x
_atom_site_fract_y
_atom_site_fract_z
Si Si1 0.671038 0.212248 0.511425
Si Si2 0.171932 0.289157 0.673710
Si Si3 0.958942 0.796647 0.924596
Si Si4 0.459313 0.706065 0.766294
Si Si5 0.671577 0.784460 0.829755
Si Si6 0.091146 0.213462 0.332028
O O1 0.750000 0.275659 0.524553
O O2 0.651268 0.257231 0.419652
O O3 0.620187 0.275551 0.581905
O O4 0.672684 0.000000 0.517134
O O5 0.250000 0.219507 0.684919
O O6 0.174507 0.500000 0.684499
O O7 0.113399 0.221081 0.734321
O O8 0.885598 0.720860 0.894370
O O9 0.007561 0.793714 0.845282
O O10 0.944340 0.000000 0.946871
O O11 0.000000 0.715213 0.000000
O O12 0.451477 0.500000 0.785995
O O13 0.515827 0.722880 0.694760
O O14 0.750000 0.726497 0.843307
O O15 0.643439 0.735103 0.740625
O O16 0.671065 0.000000 0.831554
O O17 0.088452 0.000000 0.332892
#
# Coordination Sequence:
#
# PCOD9403146 Si02
#       6
#     8   8   8   8   8   8
#     4   9  17  29  47  71  96 125 163 201 234 270
#     4   9  19  35  50  64  89 127 165 198 233 272
#     4   9  18  33  52  73  97 122 149 187 236 286
#     4  10  20  33  50  70  91 120 158 194 231 280
#     4   8  13  24  45  69  92 121 153 182 218 271
#     4   9  17  29  46  69  97 125 153 191 237 280
#
# _framework density 19.842379999999999
#
# number of rings (size 3 to 8) (size 9 to 14) (size 15 to 20)
#    0.000    3.000    0.000    2.000    0.000    5.000 
#    0.000    4.167    0.000   13.000    0.000    0.000 
#    0.000    0.000    0.000    0.000    0.000    0.000 
#
# Total GULP energy -267637.575164 kJ/mol
# GULP energy per Si atom -5575.782816 kJ/mol
# Density = 1.979722 g / cm^3
# Si number density = 19.842380 Si / 1000 Ang^3
#
#
#
# Elastic Constant Matrix: (Units=GPa)
#
#
# Indices 1 2 3 4 5 6 
#
# 1 139.7210 -2.1495 71.2408 0.0000 0.0000 0.0000
# 2 -2.1495 44.5566 -7.6192 0.0000 0.0000 0.0000
# 3 71.2408 -7.6192 62.3660 0.0000 0.0000 0.0000
# 4 0.0000 0.0000 0.0000 21.6887 0.0000 0.0000
# 5 0.0000 0.0000 0.0000 0.0000 28.3153 0.0000
# 6 0.0000 0.0000 0.0000 0.0000 0.0000 12.2049
#
#
#
# Elastic Compliance Matrix: (Units=1/GPa)
#
#
# Indices 1 2 3 4 5 6 
#
# 1 0.017434 -0.002619 -0.020235 0.000000 0.000000 0.000000
# 2 -0.002619 0.023316 0.005840 0.000000 0.000000 0.000000
# 3 -0.020235 0.005840 0.039863 0.000000 0.000000 0.000000
# 4 0.000000 0.000000 0.000000 0.046107 0.000000 0.000000
# 5 0.000000 0.000000 0.000000 0.000000 0.035317 0.000000
# 6 0.000000 0.000000 0.000000 0.000000 0.000000 0.081935
#
#
# Mechanical properties :
#
#
# Convention : Reuss Voigt Hill
#
# Bulk Modulus (GPa) = 21.46635 41.06532 31.26583
# Shear Modulus (GPa) = 17.03417 24.78653 20.91035
#
# Velocity S-wave (km/s) = 2.93315 3.53820 3.24979
# Velocity P-wave (km/s) = 4.72367 6.11821 5.46560
#
# Compressibility (1/GPa) = 0.04658454
#
# Stress axis : x y z
#
# Youngs Moduli (GPa) = 57.35780 42.88956 25.08604
#
# Poissons Ratio (x) = 0.11234 0.50763
# Poissons Ratio (y) = 0.15023 -0.14651
# Poissons Ratio (z) = 1.16066 -0.25049
#
# Static dielectric constant tensor:
#      x y z
#    x 1.708050 0.000000 0.000000 
#    y 0.000000 1.773380 0.000000 
#    z 0.000000 0.000000 1.671740 
# 
# From -- ./inp_files/25050.got.cif
#   From: 2010.05.17/outbox.cif.g08.bks.cpg/sg51_13_cif.got.tgz:25050.got - 2010.06.03 11:52:47.
