data_PCOD9403620
_publ_section_title
;
Structure prediction by ZEFSAII (Michael W. Deem and Ramdas Pophale) SiO2 
 PCOD9403620
Probable space group: P M M A
;
_chemical_formula_sum "Si O2"
_cell_formula_units_Z 56
_cell_length_a 20.239918
_cell_length_b 9.091660
_cell_length_c 17.636554
_cell_angle_alpha 90.000000
_cell_angle_beta 90.000000
_cell_angle_gamma 90.000000
_cell_volume 3245.380835
_symmetry_space_group_name_H-M "P M M A"
_symmetry_group_IT_number 51
_symmetry_cell_setting 'orthorhombic'
loop_
_space_group_symop_operation_xyz
x,y,z
1/2-x,-y,z
1/2+x,-y,-z
-x,y,-z
-x,-y,-z
1/2+x,y,-z
1/2-x,y,z
x,-y,z
loop_
_atom_site_type_symbol
_atom_site_label
_atom_site_fract_x
_atom_site_fract_y
_atom_site_fract_z
Si Si1 0.324950 0.823272 0.821345
Si Si2 0.173662 0.676302 0.376758
Si Si3 0.951035 0.676298 0.887604
Si Si4 0.325699 0.323296 0.554561
Si Si5 0.936859 0.176349 0.725963
Si Si6 0.084688 0.177282 0.679778
Si Si7 0.401810 0.324365 0.950854
O O1 0.250000 0.780507 0.802534
O O2 0.374822 0.776273 0.754905
O O3 0.347769 0.755959 0.900703
O O4 0.328075 0.000000 0.826040
O O5 0.250000 0.712348 0.358247
O O6 0.165953 0.500000 0.368243
O O7 0.163521 0.711110 0.465816
O O8 0.121821 0.758994 0.324477
O O9 0.945272 0.500000 0.876815
O O10 0.934359 0.759280 0.810783
O O11 0.026675 0.706469 0.912779
O O12 0.907243 0.718162 0.960869
O O13 0.250000 0.279028 0.574154
O O14 0.329534 0.500000 0.562582
O O15 0.378779 0.247438 0.608235
O O16 0.008185 0.218533 0.690367
O O17 0.933746 0.000000 0.728535
O O18 0.088412 0.000000 0.674343
O O19 0.392260 0.500000 0.947851
#
# Coordination Sequence:
#
# PCOD9403620 Si02
#       7
#     8   8   8   8   8   8   8
#     4  10  20  34  51  74 110 151 184 217 264 320
#     4   9  20  40  61  79 104 139 177 222 278 328
#     4   9  18  34  55  78 105 137 174 218 269 318
#     4   9  19  36  57  80 105 139 185 227 264 315
#     4  11  22  35  55  84 112 140 179 223 265 318
#     4  10  21  35  51  77 113 148 179 215 267 321
#     4   9  18  33  54  78 102 134 179 224 263 312
#
# _framework density 17.255293000000002
#
# number of rings (size 3 to 8) (size 9 to 14) (size 15 to 20)
#    0.000    2.429    1.429    2.571    0.000    4.857 
#    0.000    6.429    0.000    0.857    0.000    0.000 
#    0.000    0.000    0.000    0.000    0.000    0.000 
#
# Total GULP energy -312411.487711 kJ/mol
# GULP energy per Si atom -5578.776566 kJ/mol
# Density = 1.721602 g / cm^3
# Si number density = 17.255293 Si / 1000 Ang^3
#
#
#
# Elastic Constant Matrix: (Units=GPa)
#
#
# Indices 1 2 3 4 5 6 
#
# 1 125.9552 48.8815 93.3875 0.0000 0.0000 0.0000
# 2 48.8815 26.1674 51.2135 0.0000 0.0000 0.0000
# 3 93.3875 51.2135 133.7221 0.0000 0.0000 0.0000
# 4 0.0000 0.0000 0.0000 101.6601 0.0000 0.0000
# 5 0.0000 0.0000 0.0000 0.0000 26.7673 0.0000
# 6 0.0000 0.0000 0.0000 0.0000 0.0000 27.3351
#
#
#
# Elastic Compliance Matrix: (Units=1/GPa)
#
#
# Indices 1 2 3 4 5 6 
#
# 1 0.028996 -0.058029 0.001975 0.000000 0.000000 0.000000
# 2 -0.058029 0.268726 -0.062392 0.000000 0.000000 0.000000
# 3 0.001975 -0.062392 0.029994 0.000000 0.000000 0.000000
# 4 0.000000 0.000000 0.000000 0.009837 0.000000 0.000000
# 5 0.000000 0.000000 0.000000 0.000000 0.037359 0.000000
# 6 0.000000 0.000000 0.000000 0.000000 0.000000 0.036583
#
#
# Mechanical properties :
#
#
# Convention : Reuss Voigt Hill
#
# Bulk Modulus (GPa) = 11.01045 74.75661 42.88353
# Shear Modulus (GPa) = 7.36743 37.30999 22.33871
#
# Velocity S-wave (km/s) = 2.06856 4.65503 3.60196
# Velocity P-wave (km/s) = 3.47851 8.50355 6.49655
#
# Compressibility (1/GPa) = 0.09082281
#
# Stress axis : x y z
#
# Youngs Moduli (GPa) = 34.48796 3.72126 33.33964
#
# Poissons Ratio (x) = 0.21594 -0.06583
# Poissons Ratio (y) = 2.00131 2.08013
# Poissons Ratio (z) = -0.06810 0.23218
#
# Static dielectric constant tensor:
#      x y z
#    x 1.576680 0.000000 0.000000 
#    y 0.000000 1.572490 0.000000 
#    z 0.000000 0.000000 1.567440 
# 
# From -- ./inp_files/25616.got.cif
#   From: 2010.05.17/outbox.cif.g08.bks.cpg/sg51_13_cif.got.tgz:25616.got - 2010.06.03 11:52:47.
