data_PCOD9403562
_publ_section_title
;
Structure prediction by ZEFSAII (Michael W. Deem and Ramdas Pophale) SiO2 
 PCOD9403562
Probable space group: P M M A
;
_chemical_formula_sum "Si O2"
_cell_formula_units_Z 64
_cell_length_a 25.925646
_cell_length_b 7.798257
_cell_length_c 14.986274
_cell_angle_alpha 90.000000
_cell_angle_beta 90.000000
_cell_angle_gamma 90.000000
_cell_volume 3029.847704
_symmetry_space_group_name_H-M "P M M A"
_symmetry_group_IT_number 51
_symmetry_cell_setting 'orthorhombic'
loop_
_space_group_symop_operation_xyz
x,y,z
1/2-x,-y,z
1/2+x,-y,-z
-x,y,-z
-x,-y,-z
1/2+x,y,-z
1/2-x,y,z
x,-y,z
loop_
_atom_site_type_symbol
_atom_site_label
_atom_site_fract_x
_atom_site_fract_y
_atom_site_fract_z
Si Si1 0.191231 0.705269 0.782464
Si Si2 0.809354 0.796804 0.418492
Si Si3 0.372243 0.695690 0.411860
Si Si4 0.308093 0.207013 0.241426
Si Si5 0.485920 0.803501 0.405143
Si Si6 0.600764 0.209927 0.886584
Si Si7 0.495108 0.789280 0.789171
Si Si8 0.900732 0.204283 0.089716
O O1 0.250000 0.767705 0.796596
O O2 0.191919 0.500000 0.782176
O O3 0.174716 0.764623 0.683642
O O4 0.152157 0.765120 0.857916
O O5 0.750000 0.733052 0.427971
O O6 0.847113 0.717555 0.491115
O O7 0.808969 0.000000 0.434526
O O8 0.387860 0.500000 0.398225
O O9 0.330159 0.744558 0.338010
O O10 0.423979 0.804114 0.398898
O O11 0.250000 0.270716 0.228568
O O12 0.348852 0.267412 0.167437
O O13 0.306924 0.000000 0.237129
O O14 0.500000 0.720887 0.500000
O O15 0.507329 0.728259 0.313085
O O16 0.505549 0.000000 0.408584
O O17 0.549197 0.260935 0.833970
O O18 0.601461 0.000000 0.887241
O O19 0.599860 0.270599 0.988675
O O20 0.447802 0.729621 0.849923
O O21 0.494709 0.000000 0.786682
O O22 0.908671 0.000000 0.082676
#
# Coordination Sequence:
#
# PCOD9403562 Si02
#       8
#     8   8   8   8   8   8   8   8
#     4  10  22  40  58  81 118 158 190 230 290 349
#     4  10  21  38  61  85 109 144 191 237 279 334
#     4  12  24  37  56  84 119 154 188 233 292 355
#     4  10  20  36  59  84 112 154 204 249 294 347
#     4  10  21  37  59  85 114 152 195 240 289 344
#     4   9  17  33  57  86 118 148 189 247 299 342
#     4   9  17  33  57  86 116 147 188 242 297 345
#     4  10  20  33  59  92 114 145 195 244 292 350
#
# _framework density 21.123173000000001
#
# number of rings (size 3 to 8) (size 9 to 14) (size 15 to 20)
#    0.000    2.000    1.250    2.625    1.750    5.500 
#    0.000    2.500    0.000    0.750    0.000    0.000 
#    0.000    0.000    0.000    0.000    0.000    0.000 
#
# Total GULP energy -357610.962833 kJ/mol
# GULP energy per Si atom -5587.671294 kJ/mol
# Density = 2.107510 g / cm^3
# Si number density = 21.123173 Si / 1000 Ang^3
#
#
#
# Elastic Constant Matrix: (Units=GPa)
#
#
# Indices 1 2 3 4 5 6 
#
# 1 103.1018 -3.3159 80.4284 0.0000 0.0000 0.0000
# 2 -3.3159 32.1735 0.0596 0.0000 0.0000 0.0000
# 3 80.4284 0.0596 186.6311 0.0000 0.0000 0.0000
# 4 0.0000 0.0000 0.0000 30.2173 0.0000 0.0000
# 5 0.0000 0.0000 0.0000 0.0000 632.0595 0.0000
# 6 0.0000 0.0000 0.0000 0.0000 0.0000 -8.3178
#
#
#
# Elastic Compliance Matrix: (Units=1/GPa)
#
#
# Indices 1 2 3 4 5 6 
#
# 1 0.014686 0.001525 -0.006329 0.000000 0.000000 0.000000
# 2 0.001525 0.031240 -0.000667 0.000000 0.000000 0.000000
# 3 -0.006329 -0.000667 0.008086 0.000000 0.000000 0.000000
# 4 0.000000 0.000000 0.000000 0.033094 0.000000 0.000000
# 5 0.000000 0.000000 0.000000 0.000000 0.001582 0.000000
# 6 0.000000 0.000000 0.000000 0.000000 0.000000 -0.120225
#
#
# Mechanical properties :
#
#
# Convention : Reuss Voigt Hill
#
# Bulk Modulus (GPa) = 23.21856 52.91672 38.06764
# Shear Modulus (GPa) = -801.43756 147.10743 -327.16507
#
# Velocity S-wave (km/s) = -19.49962 8.35427 -12.45876
# Velocity P-wave (km/s) = 22.27026 10.87034 13.74409
#
# Compressibility (1/GPa) = 0.04306899
#
# Stress axis : x y z
#
# Youngs Moduli (GPa) = 68.09432 32.01028 123.67164
#
# Poissons Ratio (x) = -0.04882 0.78274
# Poissons Ratio (y) = -0.10386 0.08252
# Poissons Ratio (z) = 0.43098 0.02136
#
# Static dielectric constant tensor:
#      x y z
#    x 1.731110 0.000000 0.000000 
#    y 0.000000 1.775540 0.000000 
#    z 0.000000 0.000000 1.739420 
# 
# From -- ./inp_files/26284.got.cif
#   From: 2010.05.17/outbox.cif.g08.bks.cpg/sg51_14_cif.got.tgz:26284.got - 2010.06.03 11:52:47.
