data_PCOD9403488
_publ_section_title
;
Structure prediction by ZEFSAII (Michael W. Deem and Ramdas Pophale) SiO2 
 PCOD9403488
Probable space group: P M M A
;
_chemical_formula_sum "Si O2"
_cell_formula_units_Z 64
_cell_length_a 17.633785
_cell_length_b 15.931454
_cell_length_c 12.137027
_cell_angle_alpha 90.000000
_cell_angle_beta 90.000000
_cell_angle_gamma 90.000000
_cell_volume 3409.677261
_symmetry_space_group_name_H-M "P M M A"
_symmetry_group_IT_number 51
_symmetry_cell_setting 'orthorhombic'
loop_
_space_group_symop_operation_xyz
x,y,z
1/2-x,-y,z
1/2+x,-y,-z
-x,y,-z
-x,-y,-z
1/2+x,y,-z
1/2-x,y,z
x,-y,z
loop_
_atom_site_type_symbol
_atom_site_label
_atom_site_fract_x
_atom_site_fract_y
_atom_site_fract_z
Si Si1 0.336193 0.600216 0.771812
Si Si2 0.563114 0.668328 0.425720
Si Si3 0.573160 0.229072 0.920133
Si Si4 0.164439 0.200424 0.475467
Si Si5 0.908665 0.595037 0.990546
Si Si6 0.124241 0.095335 0.685770
Si Si7 0.529147 0.173808 0.676506
Si Si8 0.160026 0.903610 0.934794
O O1 0.250000 0.635005 0.760328
O O2 0.330477 0.500000 0.766669
O O3 0.394061 0.626715 0.676231
O O4 0.371960 0.618702 0.891469
O O5 0.500000 0.620865 0.500000
O O6 0.629433 0.707700 0.501273
O O7 0.514965 0.746656 0.376779
O O8 0.606227 0.323931 0.914462
O O9 0.549712 0.197024 0.800637
O O10 0.500000 0.233446 0.000000
O O11 0.626800 0.161410 0.978396
O O12 0.250000 0.202591 0.434327
O O13 0.161106 0.152313 0.592176
O O14 0.104625 0.157512 0.393228
O O15 0.882298 0.500000 0.959898
O O16 0.000000 0.588941 0.000000
O O17 0.141116 0.124732 0.809988
O O18 0.033601 0.101635 0.671160
O O19 0.151116 0.000000 0.676342
O O20 0.250000 0.906359 0.945325
O O21 0.130705 0.000000 0.947955
#
# Coordination Sequence:
#
# PCOD9403488 Si02
#       8
#     8   8   8   8   8   8   8   8
#     4  10  20  33  52  82 114 140 178 238 294 338
#     4   9  18  34  54  77 105 143 188 226 273 340
#     4  11  20  35  58  81 110 150 191 228 286 348
#     4  10  21  35  54  78 109 144 181 231 286 334
#     4   9  19  34  53  80 114 148 187 235 287 347
#     4  10  20  37  58  80 108 143 186 236 284 336
#     4  10  21  36  54  82 110 142 189 234 271 342
#     4  10  22  37  54  82 114 144 187 236 281 337
#
# _framework density 18.770104
#
# number of rings (size 3 to 8) (size 9 to 14) (size 15 to 20)
#    0.000    2.125    1.250    3.375    1.750    3.750 
#    0.000    0.000    0.000    0.750    0.000    0.000 
#    0.000    0.000    0.000    0.000    0.000    0.000 
#
# Total GULP energy -356757.729636 kJ/mol
# GULP energy per Si atom -5574.339526 kJ/mol
# Density = 1.872738 g / cm^3
# Si number density = 18.770104 Si / 1000 Ang^3
#
#
#
# Elastic Constant Matrix: (Units=GPa)
#
#
# Indices 1 2 3 4 5 6 
#
# 1 113.1222 16.6185 30.6926 0.0000 0.0000 0.0000
# 2 16.6185 41.0482 12.8792 0.0000 0.0000 0.0000
# 3 30.6926 12.8792 61.5341 0.0000 0.0000 0.0000
# 4 0.0000 0.0000 0.0000 115.1594 0.0000 0.0000
# 5 0.0000 0.0000 0.0000 0.0000 23.5629 0.0000
# 6 0.0000 0.0000 0.0000 0.0000 0.0000 -7.2659
#
#
#
# Elastic Compliance Matrix: (Units=1/GPa)
#
#
# Indices 1 2 3 4 5 6 
#
# 1 0.010515 -0.002795 -0.004660 0.000000 0.000000 0.000000
# 2 -0.002795 0.026817 -0.004219 0.000000 0.000000 0.000000
# 3 -0.004660 -0.004219 0.019458 0.000000 0.000000 0.000000
# 4 0.000000 0.000000 0.000000 0.008684 0.000000 0.000000
# 5 0.000000 0.000000 0.000000 0.000000 0.042440 0.000000
# 6 0.000000 0.000000 0.000000 0.000000 0.000000 -0.137629
#
#
# Mechanical properties :
#
#
# Convention : Reuss Voigt Hill
#
# Bulk Modulus (GPa) = 29.90140 37.34279 33.62210
# Shear Modulus (GPa) = 1046.31934 36.65890 541.48912
#
# Velocity S-wave (km/s) = 23.63577 4.42412 17.00327
# Velocity P-wave (km/s) = 27.58316 6.78492 20.08564
#
# Compressibility (1/GPa) = 0.03344325
#
# Stress axis : x y z
#
# Youngs Moduli (GPa) = 95.10332 37.29004 51.39175
#
# Poissons Ratio (x) = 0.10422 0.23947
# Poissons Ratio (y) = 0.26581 0.21681
# Poissons Ratio (z) = 0.44316 0.15732
#
# Static dielectric constant tensor:
#      x y z
#    x 1.677460 0.000000 0.000000 
#    y 0.000000 1.684180 0.000000 
#    z 0.000000 0.000000 1.638600 
# 
# From -- ./inp_files/16859.got.cif
#   From: 2010.05.17/outbox.cif.g08.bks.cpg/sg51_9_cif.got.tgz:16859.got - 2010.06.03 11:52:47.
