data_PCOD9403819
_publ_section_title
;
Structure prediction by ZEFSAII (Michael W. Deem and Ramdas Pophale) SiO2 
 PCOD9403819
Probable space group: P M M A
;
_chemical_formula_sum "Si O2"
_cell_formula_units_Z 64
_cell_length_a 15.448932
_cell_length_b 9.062541
_cell_length_c 23.609940
_cell_angle_alpha 90.000000
_cell_angle_beta 90.000000
_cell_angle_gamma 90.000000
_cell_volume 3305.546945
_symmetry_space_group_name_H-M "P M M A"
_symmetry_group_IT_number 51
_symmetry_cell_setting 'orthorhombic'
loop_
_space_group_symop_operation_xyz
x,y,z
1/2-x,-y,z
1/2+x,-y,-z
-x,y,-z
-x,-y,-z
1/2+x,y,-z
1/2-x,y,z
x,-y,z
loop_
_atom_site_type_symbol
_atom_site_label
_atom_site_fract_x
_atom_site_fract_y
_atom_site_fract_z
Si Si1 0.149930 0.165134 0.523375
Si Si2 0.485305 0.176449 0.862812
Si Si3 0.400993 0.333411 0.415588
Si Si4 0.847048 0.175752 0.694946
Si Si5 0.017611 0.677330 0.745421
Si Si6 0.149790 0.676058 0.083430
Si Si7 0.350353 0.826103 0.962681
Si Si8 0.902429 0.333195 0.370520
O O1 0.250000 0.161543 0.505912
O O2 0.104415 0.271315 0.478608
O O3 0.145471 0.225418 0.587029
O O4 0.113621 0.000000 0.520567
O O5 0.456474 0.251805 0.804618
O O6 0.579072 0.241119 0.879034
O O7 0.417979 0.209940 0.913404
O O8 0.489932 0.000000 0.856542
O O9 0.366055 0.500000 0.412968
O O10 0.354045 0.229019 0.370227
O O11 0.499997 0.338215 0.395234
O O12 0.750000 0.209759 0.715868
O O13 0.923506 0.258653 0.727998
O O14 0.860496 0.000000 0.698145
O O15 0.012089 0.500000 0.748430
O O16 0.083913 0.713692 0.694376
O O17 0.250000 0.711465 0.098005
O O18 0.138525 0.500000 0.087626
O O19 0.135872 0.730192 0.018859
O O20 0.250000 0.806964 0.944614
O O21 0.361871 0.000000 0.977385
O O22 0.866938 0.500000 0.372697
#
# Coordination Sequence:
#
# PCOD9403819 Si02
#       8
#     8   8   8   8   8   8   8   8
#     4  11  23  35  50  77 107 133 167 212 261 314
#     4  11  22  36  58  85 113 149 189 229 275 325
#     4  10  20  34  54  79 105 134 170 211 258 317
#     4  10  20  34  53  78 108 140 175 217 265 320
#     4  10  22  39  57  77 104 139 181 226 267 315
#     4  10  21  36  56  85 120 155 188 225 272 324
#     4   9  19  37  59  84 115 149 186 229 278 331
#     4   9  20  38  56  74  98 132 173 214 261 315
#
# _framework density 19.361395000000002
#
# number of rings (size 3 to 8) (size 9 to 14) (size 15 to 20)
#    0.000    2.000    0.000    4.125    0.000   11.750 
#    0.000    0.625    0.000    2.250    0.000    0.000 
#    0.000    0.000    0.000    0.000    0.000    0.000 
#
# Total GULP energy -357410.918513 kJ/mol
# GULP energy per Si atom -5584.545602 kJ/mol
# Density = 1.931733 g / cm^3
# Si number density = 19.361395 Si / 1000 Ang^3
#
#
#
# Elastic Constant Matrix: (Units=GPa)
#
#
# Indices 1 2 3 4 5 6 
#
# 1 26.2564 8.9425 6.9738 0.0000 0.0000 0.0000
# 2 8.9425 53.0248 20.1869 0.0000 0.0000 0.0000
# 3 6.9738 20.1869 74.3015 0.0000 0.0000 0.0000
# 4 0.0000 0.0000 0.0000 28.8556 0.0000 0.0000
# 5 0.0000 0.0000 0.0000 0.0000 11.9223 0.0000
# 6 0.0000 0.0000 0.0000 0.0000 0.0000 23.8318
#
#
#
# Elastic Compliance Matrix: (Units=1/GPa)
#
#
# Indices 1 2 3 4 5 6 
#
# 1 0.040722 -0.006037 -0.002182 0.000000 0.000000 0.000000
# 2 -0.006037 0.021930 -0.005391 0.000000 0.000000 0.000000
# 3 -0.002182 -0.005391 0.015128 0.000000 0.000000 0.000000
# 4 0.000000 0.000000 0.000000 0.034655 0.000000 0.000000
# 5 0.000000 0.000000 0.000000 0.000000 0.083877 0.000000
# 6 0.000000 0.000000 0.000000 0.000000 0.000000 0.041961
#
#
# Mechanical properties :
#
#
# Convention : Reuss Voigt Hill
#
# Bulk Modulus (GPa) = 19.77885 25.08767 22.43326
# Shear Modulus (GPa) = 17.70878 20.75390 19.23134
#
# Velocity S-wave (km/s) = 3.02759 3.27757 3.15506
# Velocity P-wave (km/s) = 4.73915 5.22580 4.98841
#
# Compressibility (1/GPa) = 0.05055907
#
# Stress axis : x y z
#
# Youngs Moduli (GPa) = 24.55700 45.60008 66.10137
#
# Poissons Ratio (x) = 0.27528 0.14423
# Poissons Ratio (y) = 0.14825 0.35638
# Poissons Ratio (z) = 0.05358 0.24585
#
# Static dielectric constant tensor:
#      x y z
#    x 1.685900 0.000000 0.000000 
#    y 0.000000 1.662360 0.000000 
#    z 0.000000 0.000000 1.671200 
# 
# From -- ./inp_files/35641.got.cif
#   From: 2010.05.17/outbox.cif.g08.bks.cpg/sg51_18_cif.got.tgz:35641.got - 2010.06.03 11:52:47.
