data_PCOD9403800
_publ_section_title
;
Structure prediction by ZEFSAII (Michael W. Deem and Ramdas Pophale) SiO2 
 PCOD9403800
Probable space group: P M M A
;
_chemical_formula_sum "Si O2"
_cell_formula_units_Z 48
_cell_length_a 8.613494
_cell_length_b 19.114943
_cell_length_c 15.102335
_cell_angle_alpha 90.000000
_cell_angle_beta 90.000000
_cell_angle_gamma 90.000000
_cell_volume 2486.545797
_symmetry_space_group_name_H-M "P M M A"
_symmetry_group_IT_number 51
_symmetry_cell_setting 'orthorhombic'
loop_
_space_group_symop_operation_xyz
x,y,z
1/2-x,-y,z
1/2+x,-y,-z
-x,y,-z
-x,-y,-z
1/2+x,y,-z
1/2-x,y,z
x,-y,z
loop_
_atom_site_type_symbol
_atom_site_label
_atom_site_fract_x
_atom_site_fract_y
_atom_site_fract_z
Si Si1 0.064213 0.581367 0.902000
Si Si2 0.072118 0.213874 0.909711
Si Si3 0.064463 0.230244 0.596188
Si Si4 0.063489 0.922010 0.669859
Si Si5 0.567690 0.693625 0.765029
Si Si6 0.428123 0.079441 0.134162
O O1 0.250000 0.587207 0.905082
O O2 0.021924 0.500000 0.886736
O O3 0.002369 0.629425 0.822076
O O4 0.000000 0.599911 0.000000
O O5 0.250000 0.234621 0.899270
O O6 0.971827 0.241114 0.828462
O O7 0.051573 0.130847 0.909220
O O8 0.000000 0.241571 0.000000
O O9 0.250000 0.233050 0.596452
O O10 0.020564 0.148928 0.618028
O O11 0.000000 0.248294 0.500000
O O12 0.003752 0.283531 0.671231
O O13 0.250000 0.917783 0.687969
O O14 0.969670 0.920503 0.761582
O O15 0.036297 0.000000 0.629312
O O16 0.750000 0.683324 0.755470
O O17 0.250000 0.103229 0.119825
O O18 0.441383 0.000000 0.103410
#
# Coordination Sequence:
#
# PCOD9403800 Si02
#       6
#     8   8   8   8   8   8
#     4  10  21  39  65  98 134 168 202 239 283 342
#     4  12  24  38  56  80 111 150 195 242 292 353
#     4  11  23  39  60  87 119 157 203 254 305 365
#     4   9  18  34  56  80 109 149 195 247 307 365
#     4  12  24  40  62  88 122 159 197 244 296 352
#     4  10  20  34  53  77 106 143 189 240 295 354
#
# _framework density 19.303887
#
# number of rings (size 3 to 8) (size 9 to 14) (size 15 to 20)
#    0.000    1.333    1.667    5.000    0.000    3.333 
#    0.000    0.000    0.000    0.500    0.000    0.000 
#    0.000    0.000    0.000    0.000    0.000    0.000 
#
# Total GULP energy -268071.317355 kJ/mol
# GULP energy per Si atom -5584.819112 kJ/mol
# Density = 1.925995 g / cm^3
# Si number density = 19.303887 Si / 1000 Ang^3
#
#
#
# Elastic Constant Matrix: (Units=GPa)
#
#
# Indices 1 2 3 4 5 6 
#
# 1 67.9905 38.0591 39.5907 0.0000 0.0000 0.0000
# 2 38.0591 122.0730 54.1231 0.0000 0.0000 0.0000
# 3 39.5907 54.1231 142.3158 0.0000 0.0000 0.0000
# 4 0.0000 0.0000 0.0000 45.8498 0.0000 0.0000
# 5 0.0000 0.0000 0.0000 0.0000 30.2222 0.0000
# 6 0.0000 0.0000 0.0000 0.0000 0.0000 25.5575
#
#
#
# Elastic Compliance Matrix: (Units=1/GPa)
#
#
# Indices 1 2 3 4 5 6 
#
# 1 0.019319 -0.004379 -0.003709 0.000000 0.000000 0.000000
# 2 -0.004379 0.010846 -0.002907 0.000000 0.000000 0.000000
# 3 -0.003709 -0.002907 0.009164 0.000000 0.000000 0.000000
# 4 0.000000 0.000000 0.000000 0.021810 0.000000 0.000000
# 5 0.000000 0.000000 0.000000 0.000000 0.033088 0.000000
# 6 0.000000 0.000000 0.000000 0.000000 0.000000 0.039128
#
#
# Mechanical properties :
#
#
# Convention : Reuss Voigt Hill
#
# Bulk Modulus (GPa) = 57.67094 66.21391 61.94242
# Shear Modulus (GPa) = 31.03227 33.69966 32.36597
#
# Velocity S-wave (km/s) = 4.01380 4.18274 4.09914
# Velocity P-wave (km/s) = 7.17084 7.59621 7.38659
#
# Compressibility (1/GPa) = 0.01733976
#
# Stress axis : x y z
#
# Youngs Moduli (GPa) = 51.76320 92.20318 109.12486
#
# Poissons Ratio (x) = 0.40372 0.40475
# Poissons Ratio (y) = 0.22665 0.31718
# Poissons Ratio (z) = 0.19199 0.26799
#
# Static dielectric constant tensor:
#      x y z
#    x 1.648900 0.000000 0.000000 
#    y 0.000000 1.724910 0.000000 
#    z 0.000000 0.000000 1.652040 
# 
# From -- ./inp_files/21101.got.cif
#   From: 2010.05.17/outbox.cif.g08.bks.cpg/sg51_11_cif.got.tgz:21101.got - 2010.06.03 11:52:47.
