data_PCOD9403013
_publ_section_title
;
Structure prediction by ZEFSAII (Michael W. Deem and Ramdas Pophale) SiO2 
 PCOD9403013
Probable space group: P M M A
;
_chemical_formula_sum "Si O2"
_cell_formula_units_Z 48
_cell_length_a 8.716307
_cell_length_b 21.043477
_cell_length_c 14.437998
_cell_angle_alpha 90.000000
_cell_angle_beta 90.000000
_cell_angle_gamma 90.000000
_cell_volume 2648.237891
_symmetry_space_group_name_H-M "P M M A"
_symmetry_group_IT_number 51
_symmetry_cell_setting 'orthorhombic'
loop_
_space_group_symop_operation_xyz
x,y,z
1/2-x,-y,z
1/2+x,-y,-z
-x,y,-z
-x,-y,-z
1/2+x,y,-z
1/2-x,y,z
x,-y,z
loop_
_atom_site_type_symbol
_atom_site_label
_atom_site_fract_x
_atom_site_fract_y
_atom_site_fract_z
Si Si1 0.934296 0.120800 0.788305
Si Si2 0.064935 0.249090 0.103664
Si Si3 0.933574 0.924987 0.399330
Si Si4 0.064618 0.625405 0.215300
Si Si5 0.433570 0.000000 0.896796
Si Si6 0.066456 0.574027 0.600226
Si Si7 0.934866 0.500000 0.897331
O O1 0.750000 0.115502 0.789258
O O2 0.978567 0.185902 0.839704
O O3 0.993773 0.115281 0.683427
O O4 0.006467 0.061991 0.843629
O O5 0.250000 0.250351 0.097472
O O6 0.015949 0.311541 0.160609
O O7 0.000000 0.248569 0.000000
O O8 0.750000 0.918811 0.399107
O O9 0.000000 0.908349 0.500000
O O10 0.970331 0.000000 0.382919
O O11 0.250000 0.625653 0.221507
O O12 0.016759 0.563183 0.157255
O O13 0.997323 0.617119 0.317489
O O14 0.250000 0.000000 0.898502
O O15 0.500000 0.000000 0.000000
O O16 0.250000 0.576597 0.597888
O O17 0.020304 0.500000 0.617935
O O18 0.000000 0.591508 0.500000
O O19 0.750000 0.500000 0.901511
O O20 0.000000 0.500000 0.000000
#
# Coordination Sequence:
#
# PCOD9403013 Si02
#       7
#     8   8   8   8   4   8   4
#     4  11  22  38  59  85 116 152 191 237 287 341
#     4  10  23  40  59  83 115 155 195 235 285 341
#     4  10  20  35  58  88 119 151 187 233 285 340
#     4  10  20  37  57  82 114 150 190 234 284 338
#     4  12  24  38  57  84 113 146 190 242 290 340
#     4  10  20  34  56  86 116 148 187 234 287 342
#     4  10  20  32  53  80 109 144 183 234 284 328
#
# _framework density 18.125259
#
# number of rings (size 3 to 8) (size 9 to 14) (size 15 to 20)
#    0.000    1.667    1.667    3.250    0.000    5.333 
#    0.000    0.833    0.000    0.000    0.000    0.000 
#    0.000    0.000    0.000    0.000    0.000    0.000 
#
# Total GULP energy -268208.244088 kJ/mol
# GULP energy per Si atom -5587.671752 kJ/mol
# Density = 1.808401 g / cm^3
# Si number density = 18.125259 Si / 1000 Ang^3
#
#
#
# Elastic Constant Matrix: (Units=GPa)
#
#
# Indices 1 2 3 4 5 6 
#
# 1 47.2788 46.7908 52.8661 0.0000 0.0000 0.0000
# 2 46.7908 152.9116 102.9863 0.0000 0.0000 0.0000
# 3 52.8661 102.9863 201.8334 0.0000 0.0000 0.0000
# 4 0.0000 0.0000 0.0000 33.0936 0.0000 0.0000
# 5 0.0000 0.0000 0.0000 0.0000 40.8160 0.0000
# 6 0.0000 0.0000 0.0000 0.0000 0.0000 6.9095
#
#
#
# Elastic Compliance Matrix: (Units=1/GPa)
#
#
# Indices 1 2 3 4 5 6 
#
# 1 0.033876 -0.006689 -0.005460 0.000000 0.000000 0.000000
# 2 -0.006689 0.011284 -0.004006 0.000000 0.000000 0.000000
# 3 -0.005460 -0.004006 0.008429 0.000000 0.000000 0.000000
# 4 0.000000 0.000000 0.000000 0.030217 0.000000 0.000000
# 5 0.000000 0.000000 0.000000 0.000000 0.024500 0.000000
# 6 0.000000 0.000000 0.000000 0.000000 0.000000 0.144727
#
#
# Mechanical properties :
#
#
# Convention : Reuss Voigt Hill
#
# Bulk Modulus (GPa) = 46.99291 89.70113 68.34702
# Shear Modulus (GPa) = 17.09768 29.45587 23.27677
#
# Velocity S-wave (km/s) = 3.07466 4.03566 3.58749
# Velocity P-wave (km/s) = 6.21191 8.44467 7.41283
#
# Compressibility (1/GPa) = 0.02127981
#
# Stress axis : x y z
#
# Youngs Moduli (GPa) = 29.51926 88.61723 118.63960
#
# Poissons Ratio (x) = 0.59272 0.64781
# Poissons Ratio (y) = 0.19744 0.47527
# Poissons Ratio (z) = 0.16118 0.35500
#
# Static dielectric constant tensor:
#      x y z
#    x 1.606450 0.000000 0.000000 
#    y 0.000000 1.612490 0.000000 
#    z 0.000000 0.000000 1.621260 
# 
# From -- ./inp_files/21164.got.cif
#   From: 2010.05.17/outbox.cif.g08.bks.cpg/sg51_11_cif.got.tgz:21164.got - 2010.06.03 11:52:47.
