data_PCOD9403116
_publ_section_title
;
Structure prediction by ZEFSAII (Michael W. Deem and Ramdas Pophale) SiO2 
 PCOD9403116
Probable space group: P M M A
;
_chemical_formula_sum "Si O2"
_cell_formula_units_Z 56
_cell_length_a 20.647473
_cell_length_b 7.744579
_cell_length_c 15.993458
_cell_angle_alpha 90.000000
_cell_angle_beta 90.000000
_cell_angle_gamma 90.000000
_cell_volume 2557.449668
_symmetry_space_group_name_H-M "P M M A"
_symmetry_group_IT_number 51
_symmetry_cell_setting 'orthorhombic'
loop_
_space_group_symop_operation_xyz
x,y,z
1/2-x,-y,z
1/2+x,-y,-z
-x,y,-z
-x,-y,-z
1/2+x,y,-z
1/2-x,y,z
x,-y,z
loop_
_atom_site_type_symbol
_atom_site_label
_atom_site_fract_x
_atom_site_fract_y
_atom_site_fract_z
Si Si1 0.583305 0.300900 0.349121
Si Si2 0.821679 0.199532 0.493454
Si Si3 0.322636 0.707898 0.992701
Si Si4 0.046986 0.289026 0.073922
Si Si5 0.321321 0.698954 0.320254
Si Si6 0.041555 0.287458 0.260539
Si Si7 0.824508 0.206091 0.199816
O O1 0.574477 0.500000 0.372086
O O2 0.623770 0.220599 0.424268
O O3 0.513204 0.227026 0.324980
O O4 0.626677 0.288481 0.265411
O O5 0.750000 0.245059 0.458477
O O6 0.830767 0.300560 0.579519
O O7 0.820088 0.000000 0.518569
O O8 0.250000 0.774170 0.009932
O O9 0.320417 0.500000 0.998688
O O10 0.339498 0.751794 0.896611
O O11 0.379933 0.767779 0.052857
O O12 0.046651 0.500000 0.073018
O O13 0.025014 0.236284 0.165914
O O14 0.000000 0.230700 0.000000
O O15 0.250000 0.776069 0.303371
O O16 0.318682 0.500000 0.291270
O O17 0.386253 0.774663 0.281244
O O18 0.041231 0.500000 0.263897
O O19 0.750000 0.262612 0.214567
O O20 0.827141 0.000000 0.211510
#
# Coordination Sequence:
#
# PCOD9403116 Si02
#       7
#     8   8   8   8   8   8   8
#     4  11  21  33  52  77 106 138 174 214 254 305
#     4  10  21  37  56  78 106 138 170 208 257 309
#     4   9  17  29  48  74  99 127 169 216 258 305
#     4   9  16  28  48  73 102 134 167 206 254 303
#     4   9  18  35  58  80 103 134 174 216 256 304
#     4   9  19  33  51  79 109 137 171 215 265 306
#     4  10  20  33  49  71 103 140 174 213 263 313
#
# _framework density 21.896813999999999
#
# number of rings (size 3 to 8) (size 9 to 14) (size 15 to 20)
#    0.000    2.429    0.000    2.571    0.000    6.857 
#    0.000    7.143    0.000    5.571    0.000    4.000 
#    0.000    0.000    0.000    0.000    0.000    0.000 
#
# Total GULP energy -312685.725197 kJ/mol
# GULP energy per Si atom -5583.673664 kJ/mol
# Density = 2.184698 g / cm^3
# Si number density = 21.896814 Si / 1000 Ang^3
#
#
#
# Elastic Constant Matrix: (Units=GPa)
#
#
# Indices 1 2 3 4 5 6 
#
# 1 110.3700 3.1549 38.1937 0.0000 0.0000 0.0000
# 2 3.1549 37.3600 -3.9934 0.0000 0.0000 0.0000
# 3 38.1937 -3.9934 42.1535 0.0000 0.0000 0.0000
# 4 0.0000 0.0000 0.0000 -66.3703 0.0000 0.0000
# 5 0.0000 0.0000 0.0000 0.0000 39.4766 0.0000
# 6 0.0000 0.0000 0.0000 0.0000 0.0000 -4.6776
#
#
#
# Elastic Compliance Matrix: (Units=1/GPa)
#
#
# Indices 1 2 3 4 5 6 
#
# 1 0.013419 -0.002458 -0.012391 0.000000 0.000000 0.000000
# 2 -0.002458 0.027490 0.004831 0.000000 0.000000 0.000000
# 3 -0.012391 0.004831 0.035407 0.000000 0.000000 0.000000
# 4 0.000000 0.000000 0.000000 -0.015067 0.000000 0.000000
# 5 0.000000 0.000000 0.000000 0.000000 0.025331 0.000000
# 6 0.000000 0.000000 0.000000 0.000000 0.000000 -0.213786
#
#
# Mechanical properties :
#
#
# Convention : Reuss Voigt Hill
#
# Bulk Modulus (GPa) = 17.76778 29.39932 23.58355
# Shear Modulus (GPa) = -56.55508 3.85430 -26.35039
#
# Velocity S-wave (km/s) = -5.08764 1.32817 -3.47275
# Velocity P-wave (km/s) = 5.13616 3.97586 2.29920
#
# Compressibility (1/GPa) = 0.05628166
#
# Stress axis : x y z
#
# Youngs Moduli (GPa) = 74.52364 36.37621 28.24265
#
# Poissons Ratio (x) = 0.08940 0.34995
# Poissons Ratio (y) = 0.18315 -0.13644
# Poissons Ratio (z) = 0.92341 -0.17574
#
# Static dielectric constant tensor:
#      x y z
#    x 1.824020 0.000000 0.000000 
#    y 0.000000 1.813260 0.000000 
#    z 0.000000 0.000000 1.746830 
# 
# From -- ./inp_files/25624.got.cif
#   From: 2010.05.17/outbox.cif.g08.bks.cpg/sg51_13_cif.got.tgz:25624.got - 2010.06.03 11:52:47.
