data_PCOD9403521
_publ_section_title
;
Structure prediction by ZEFSAII (Michael W. Deem and Ramdas Pophale) SiO2 
 PCOD9403521
Probable space group: P M M A
;
_chemical_formula_sum "Si O2"
_cell_formula_units_Z 64
_cell_length_a 29.527438
_cell_length_b 7.522062
_cell_length_c 13.024118
_cell_angle_alpha 90.000000
_cell_angle_beta 90.000000
_cell_angle_gamma 90.000000
_cell_volume 2892.750633
_symmetry_space_group_name_H-M "P M M A"
_symmetry_group_IT_number 51
_symmetry_cell_setting 'orthorhombic'
loop_
_space_group_symop_operation_xyz
x,y,z
1/2-x,-y,z
1/2+x,-y,-z
-x,y,-z
-x,-y,-z
1/2+x,y,-z
1/2-x,y,z
x,-y,z
loop_
_atom_site_type_symbol
_atom_site_label
_atom_site_fract_x
_atom_site_fract_y
_atom_site_fract_z
Si Si1 0.198202 0.714063 0.905982
Si Si2 0.378179 0.710123 0.319890
Si Si3 0.699119 0.784605 0.516716
Si Si4 0.050815 0.785091 0.973459
Si Si5 0.554279 0.784695 0.262452
Si Si6 0.361009 0.704902 0.095071
Si Si7 0.151627 0.787638 0.687978
Si Si8 0.027224 0.705615 0.403580
O O1 0.250000 0.778141 0.901959
O O2 0.199142 0.500000 0.912972
O O3 0.172314 0.754533 0.800147
O O4 0.171378 0.782816 0.006278
O O5 0.387135 0.500000 0.302482
O O6 0.337470 0.729780 0.399333
O O7 0.364116 0.785558 0.208708
O O8 0.424777 0.784596 0.368415
O O9 0.750000 0.723119 0.538859
O O10 0.682578 0.721133 0.404680
O O11 0.699873 0.000000 0.515126
O O12 0.060157 0.734800 0.856134
O O13 0.053205 0.000000 0.981150
O O14 0.088696 0.709930 0.048053
O O15 0.000000 0.730259 0.000000
O O16 0.599837 0.722838 0.319442
O O17 0.508333 0.713151 0.310579
O O18 0.551634 0.000000 0.267212
O O19 0.346154 0.500000 0.107645
O O20 0.149162 0.000000 0.677139
O O21 0.036485 0.500000 0.432073
O O22 0.000000 0.787236 0.500000
#
# Coordination Sequence:
#
# PCOD9403521 Si02
#       8
#     8   8   8   8   8   8   8   8
#     4  10  21  36  55  81 111 144 186 235 286 337
#     4  10  22  39  58  82 113 151 194 234 282 343
#     4  10  22  39  59  84 111 142 184 236 292 344
#     4  10  20  34  53  80 113 147 186 232 278 330
#     4  10  20  33  53  82 112 146 188 228 278 339
#     4  10  21  37  56  80 111 148 190 233 278 336
#     4  10  20  37  59  84 115 147 185 234 285 343
#     4  10  21  36  54  80 113 149 191 237 283 334
#
# _framework density 22.124271
#
# number of rings (size 3 to 8) (size 9 to 14) (size 15 to 20)
#    0.000    2.000    1.250    1.875    0.000    4.500 
#    0.000    1.250    0.000    0.000    0.000    0.000 
#    0.000    0.000    0.000    0.000    0.000    0.000 
#
# Total GULP energy -357631.501180 kJ/mol
# GULP energy per Si atom -5587.992206 kJ/mol
# Density = 2.207391 g / cm^3
# Si number density = 22.124271 Si / 1000 Ang^3
#
#
#
# Elastic Constant Matrix: (Units=GPa)
#
#
# Indices 1 2 3 4 5 6 
#
# 1 172.7412 -9.7296 71.4710 0.0000 0.0000 0.0000
# 2 -9.7296 51.7549 -5.9607 0.0000 0.0000 0.0000
# 3 71.4710 -5.9607 155.9661 0.0000 0.0000 0.0000
# 4 0.0000 0.0000 0.0000 -9.8949 0.0000 0.0000
# 5 0.0000 0.0000 0.0000 0.0000 38.2055 0.0000
# 6 0.0000 0.0000 0.0000 0.0000 0.0000 20.8306
#
#
#
# Elastic Compliance Matrix: (Units=1/GPa)
#
#
# Indices 1 2 3 4 5 6 
#
# 1 0.007192 0.000977 -0.003258 0.000000 0.000000 0.000000
# 2 0.000977 0.019540 0.000299 0.000000 0.000000 0.000000
# 3 -0.003258 0.000299 0.007916 0.000000 0.000000 0.000000
# 4 0.000000 0.000000 0.000000 -0.101063 0.000000 0.000000
# 5 0.000000 0.000000 0.000000 0.000000 0.026174 0.000000
# 6 0.000000 0.000000 0.000000 0.000000 0.000000 0.048006
#
#
# Mechanical properties :
#
#
# Convention : Reuss Voigt Hill
#
# Bulk Modulus (GPa) = 32.59091 54.66927 43.63009
# Shear Modulus (GPa) = 227.69344 31.47367 129.58356
#
# Velocity S-wave (km/s) = 10.15574 3.77581 7.66146
# Velocity P-wave (km/s) = 12.34024 6.61610 9.90087
#
# Compressibility (1/GPa) = 0.03068340
#
# Stress axis : x y z
#
# Youngs Moduli (GPa) = 139.03942 51.17722 126.32211
#
# Poissons Ratio (x) = -0.04999 0.41162
# Poissons Ratio (y) = -0.13582 -0.03779
# Poissons Ratio (z) = 0.45306 -0.01531
#
# Static dielectric constant tensor:
#      x y z
#    x 1.783050 0.000000 0.000000 
#    y 0.000000 0.749790 0.000000 
#    z 0.000000 0.000000 1.793430 
# 
# From -- ./inp_files/19449.got.cif
#   From: 2010.05.17/outbox.cif.g08.bks.cpg/sg51_10_cif.got.tgz:19449.got - 2010.06.03 11:52:47.
