data_PCOD9403709
_publ_section_title
;
Structure prediction by ZEFSAII (Michael W. Deem and Ramdas Pophale) SiO2 
 PCOD9403709
Probable space group: P M M A
;
_chemical_formula_sum "Si O2"
_cell_formula_units_Z 48
_cell_length_a 17.753298
_cell_length_b 7.624412
_cell_length_c 15.925548
_cell_angle_alpha 90.000000
_cell_angle_beta 90.000000
_cell_angle_gamma 90.000000
_cell_volume 2155.657625
_symmetry_space_group_name_H-M "P M M A"
_symmetry_group_IT_number 51
_symmetry_cell_setting 'orthorhombic'
loop_
_space_group_symop_operation_xyz
x,y,z
1/2-x,-y,z
1/2+x,-y,-z
-x,y,-z
-x,-y,-z
1/2+x,y,-z
1/2-x,y,z
x,-y,z
loop_
_atom_site_type_symbol
_atom_site_label
_atom_site_fract_x
_atom_site_fract_y
_atom_site_fract_z
Si Si1 0.946829 0.195947 0.734867
Si Si2 0.250000 0.799903 0.502254
Si Si3 0.250000 0.800219 0.701276
Si Si4 0.334672 0.712204 0.944590
Si Si5 0.903361 0.299596 0.223574
Si Si6 0.579584 0.784772 0.548554
Si Si7 0.553466 0.205232 0.924783
O O1 0.037097 0.189291 0.725606
O O2 0.921706 0.274384 0.646524
O O3 0.941577 0.275919 0.829329
O O4 0.913854 0.000000 0.740232
O O5 0.250000 0.804604 0.602162
O O6 0.335430 0.729684 0.481558
O O7 0.250000 0.000000 0.467655
O O8 0.323196 0.705839 0.734123
O O9 0.250000 0.000000 0.733142
O O10 0.250000 0.770367 0.927476
O O11 0.335456 0.500000 0.942604
O O12 0.389749 0.771709 0.870057
O O13 0.365102 0.776084 0.032863
O O14 0.929197 0.500000 0.220072
O O15 0.500000 0.731895 0.500000
O O16 0.578001 0.000000 0.545867
O O17 0.533575 0.000000 0.916757
O O18 0.500000 0.282727 0.000000
#
# Coordination Sequence:
#
# PCOD9403709 Si02
#       7
#     8   4   4   8   8   8   8
#     4  10  20  35  55  81 110 144 184 227 280 332
#     4   9  18  33  55  84 111 142 186 235 291 344
#     4  11  21  33  55  84 111 140 178 229 291 342
#     4  10  21  37  53  73 105 145 186 225 269 327
#     4  11  21  34  53  80 113 145 183 227 275 336
#     4   9  17  32  55  82 113 144 184 238 283 336
#     4  10  20  34  52  79 112 141 177 227 278 328
#
# _framework density 22.266987
#
# number of rings (size 3 to 8) (size 9 to 14) (size 15 to 20)
#    0.000    2.000    2.500    1.750    0.000    4.667 
#    1.500    0.000    0.000    5.500    0.000    0.000 
#    0.000    0.000    0.000    0.000    0.000    0.000 
#
# Total GULP energy -267294.256914 kJ/mol
# GULP energy per Si atom -5568.630352 kJ/mol
# Density = 2.221631 g / cm^3
# Si number density = 22.266987 Si / 1000 Ang^3
#
#
#
# Elastic Constant Matrix: (Units=GPa)
#
#
# Indices 1 2 3 4 5 6 
#
# 1 105.1213 11.6211 45.3429 0.0000 0.0000 0.0000
# 2 11.6211 61.5966 10.4462 0.0000 0.0000 0.0000
# 3 45.3429 10.4462 145.1523 0.0000 0.0000 0.0000
# 4 0.0000 0.0000 0.0000 2.3621 0.0000 0.0000
# 5 0.0000 0.0000 0.0000 0.0000 30.9227 0.0000
# 6 0.0000 0.0000 0.0000 0.0000 0.0000 15.7190
#
#
#
# Elastic Compliance Matrix: (Units=1/GPa)
#
#
# Indices 1 2 3 4 5 6 
#
# 1 0.011135 -0.001530 -0.003368 0.000000 0.000000 0.000000
# 2 -0.001530 0.016645 -0.000720 0.000000 0.000000 0.000000
# 3 -0.003368 -0.000720 0.007993 0.000000 0.000000 0.000000
# 4 0.000000 0.000000 0.000000 0.423350 0.000000 0.000000
# 5 0.000000 0.000000 0.000000 0.000000 0.032339 0.000000
# 6 0.000000 0.000000 0.000000 0.000000 0.000000 0.063617
#
#
# Mechanical properties :
#
#
# Convention : Reuss Voigt Hill
#
# Bulk Modulus (GPa) = 40.75361 49.63228 45.19295
# Shear Modulus (GPa) = 8.70332 26.09811 17.40071
#
# Velocity S-wave (km/s) = 1.97917 3.42724 2.79849
# Velocity P-wave (km/s) = 4.85436 6.16436 5.54816
#
# Compressibility (1/GPa) = 0.02453770
#
# Stress axis : x y z
#
# Youngs Moduli (GPa) = 89.80895 60.07678 125.10462
#
# Poissons Ratio (x) = 0.09189 0.42138
# Poissons Ratio (y) = 0.13736 0.09009
# Poissons Ratio (z) = 0.30250 0.04326
#
# Static dielectric constant tensor:
#      x y z
#    x 1.866380 0.000000 0.000000 
#    y 0.000000 1.888790 0.000000 
#    z 0.000000 0.000000 1.851580 
# 
# From -- ./inp_files/24885.got.cif
#   From: 2010.05.17/outbox.cif.g08.bks.cpg/sg51_13_cif.got.tgz:24885.got - 2010.06.03 11:52:47.
