data_PCOD9403412
_publ_section_title
;
Structure prediction by ZEFSAII (Michael W. Deem and Ramdas Pophale) SiO2 
 PCOD9403412
Probable space group: P M M A
;
_chemical_formula_sum "Si O2"
_cell_formula_units_Z 36
_cell_length_a 8.730925
_cell_length_b 16.326195
_cell_length_c 13.784926
_cell_angle_alpha 90.000000
_cell_angle_beta 90.000000
_cell_angle_gamma 90.000000
_cell_volume 1964.941730
_symmetry_space_group_name_H-M "P M M A"
_symmetry_group_IT_number 51
_symmetry_cell_setting 'orthorhombic'
loop_
_space_group_symop_operation_xyz
x,y,z
1/2-x,-y,z
1/2+x,-y,-z
-x,y,-z
-x,-y,-z
1/2+x,y,-z
1/2-x,y,z
x,-y,z
loop_
_atom_site_type_symbol
_atom_site_label
_atom_site_fract_x
_atom_site_fract_y
_atom_site_fract_z
Si Si1 0.567104 0.500000 0.891862
Si Si2 0.067307 0.165179 0.894733
Si Si3 0.933488 0.662426 0.204349
Si Si4 0.434543 0.090516 0.297684
Si Si5 0.434085 0.741007 0.395258
O O1 0.750000 0.500000 0.895660
O O2 0.507571 0.419101 0.837779
O O3 0.500000 0.500000 0.000000
O O4 0.250000 0.156415 0.896090
O O5 0.030431 0.259049 0.863806
O O6 0.998555 0.109821 0.809172
O O7 0.000000 0.146826 0.000000
O O8 0.750000 0.654201 0.208526
O O9 0.999016 0.684671 0.309986
O O10 0.250000 0.091889 0.292866
O O11 0.481421 0.165820 0.366375
O O12 0.483859 0.000000 0.329904
O O13 0.500000 0.720011 0.500000
O O14 0.250000 0.736329 0.395381
#
# Coordination Sequence:
#
# PCOD9403412 Si02
#       5
#     4   8   8   8   8
#     4  12  24  38  59  88 119 150 182 218 264 316
#     4  10  20  33  52  76 104 141 181 221 268 322
#     4  10  21  38  58  82 111 143 182 226 271 320
#     4   9  19  35  53  75 105 140 180 226 272 320
#     4  10  20  36  58  82 109 143 182 224 273 326
#
# _framework density 18.321154
#
# number of rings (size 3 to 8) (size 9 to 14) (size 15 to 20)
#    0.000    2.000    0.000    3.667    0.000    6.667 
#    0.000    0.556    0.000    0.000    0.000    0.000 
#    0.000    0.000    0.000    0.000    0.000    0.000 
#
# Total GULP energy -201094.073071 kJ/mol
# GULP energy per Si atom -5585.946474 kJ/mol
# Density = 1.827945 g / cm^3
# Si number density = 18.321154 Si / 1000 Ang^3
#
#
#
# Elastic Constant Matrix: (Units=GPa)
#
#
# Indices 1 2 3 4 5 6 
#
# 1 52.9420 33.4765 25.9700 0.0000 0.0000 0.0000
# 2 33.4765 104.2046 32.2790 0.0000 0.0000 0.0000
# 3 25.9700 32.2790 108.9419 0.0000 0.0000 0.0000
# 4 0.0000 0.0000 0.0000 6.1808 0.0000 0.0000
# 5 0.0000 0.0000 0.0000 0.0000 28.9035 0.0000
# 6 0.0000 0.0000 0.0000 0.0000 0.0000 23.5795
#
#
#
# Elastic Compliance Matrix: (Units=1/GPa)
#
#
# Indices 1 2 3 4 5 6 
#
# 1 0.025171 -0.006857 -0.003969 0.000000 0.000000 0.000000
# 2 -0.006857 0.012434 -0.002050 0.000000 0.000000 0.000000
# 3 -0.003969 -0.002050 0.010733 0.000000 0.000000 0.000000
# 4 0.000000 0.000000 0.000000 0.161790 0.000000 0.000000
# 5 0.000000 0.000000 0.000000 0.000000 0.034598 0.000000
# 6 0.000000 0.000000 0.000000 0.000000 0.000000 0.042410
#
#
# Mechanical properties :
#
#
# Convention : Reuss Voigt Hill
#
# Bulk Modulus (GPa) = 44.27255 49.94881 47.11068
# Shear Modulus (GPa) = 15.60472 23.35696 19.48084
#
# Velocity S-wave (km/s) = 2.92161 3.57440 3.26436
# Velocity P-wave (km/s) = 5.96643 6.66012 6.32279
#
# Compressibility (1/GPa) = 0.02258736
#
# Stress axis : x y z
#
# Youngs Moduli (GPa) = 39.72778 80.42273 93.17435
#
# Poissons Ratio (x) = 0.55147 0.36978
# Poissons Ratio (y) = 0.27242 0.19097
# Poissons Ratio (z) = 0.15767 0.16483
#
# Static dielectric constant tensor:
#      x y z
#    x 1.605660 0.000000 0.000000 
#    y 0.000000 1.634990 0.000000 
#    z 0.000000 0.000000 1.589510 
# 
# From -- ./inp_files/20317.got.cif
#   From: 2010.05.17/outbox.cif.g08.bks.cpg/sg51_11_cif.got.tgz:20317.got - 2010.06.03 11:52:47.
