data_PCOD9403278
_publ_section_title
;
Structure prediction by ZEFSAII (Michael W. Deem and Ramdas Pophale) SiO2 
 PCOD9403278
Probable space group: P M M A
;
_chemical_formula_sum "Si O2"
_cell_formula_units_Z 48
_cell_length_a 10.329820
_cell_length_b 30.282822
_cell_length_c 8.614134
_cell_angle_alpha 90.000000
_cell_angle_beta 90.000000
_cell_angle_gamma 90.000000
_cell_volume 2694.639806
_symmetry_space_group_name_H-M "P M M A"
_symmetry_group_IT_number 51
_symmetry_cell_setting 'orthorhombic'
loop_
_space_group_symop_operation_xyz
x,y,z
1/2-x,-y,z
1/2+x,-y,-z
-x,y,-z
-x,-y,-z
1/2+x,y,-z
1/2-x,y,z
x,-y,z
loop_
_atom_site_type_symbol
_atom_site_label
_atom_site_fract_x
_atom_site_fract_y
_atom_site_fract_z
Si Si1 0.250000 0.551857 0.696570
Si Si2 0.496076 0.394765 0.310423
Si Si3 0.899879 0.051157 0.861510
Si Si4 0.899568 0.867695 0.637636
Si Si5 0.903976 0.699115 0.646296
Si Si6 0.396815 0.784622 0.135677
Si Si7 0.250000 0.449939 0.317113
O O1 0.250000 0.500000 0.745647
O O2 0.374636 0.580682 0.743265
O O3 0.250000 0.550367 0.506739
O O4 0.500000 0.394232 0.500000
O O5 0.462731 0.344318 0.269713
O O6 0.376311 0.424727 0.263069
O O7 0.750000 0.056508 0.913824
O O8 0.920868 0.085874 0.724569
O O9 0.916114 0.000000 0.812953
O O10 0.000000 0.059829 0.000000
O O11 0.750000 0.866121 0.583127
O O12 0.915869 0.828324 0.761107
O O13 0.000000 0.862077 0.500000
O O14 0.750000 0.690845 0.604781
O O15 0.907579 0.741901 0.754246
O O16 0.000000 0.706507 0.500000
O O17 0.250000 0.785913 0.073048
O O18 0.500000 0.782729 0.000000
O O19 0.250000 0.500000 0.265610
#
# Coordination Sequence:
#
# PCOD9403278 Si02
#       7
#     4   8   8   8   8   8   4
#     4   9  16  24  36  58  91 129 165 199 238 293
#     4   9  16  25  38  60  91 126 162 199 243 296
#     4   9  18  33  53  79 111 148 189 230 270 314
#     4  10  21  36  55  80 111 143 179 223 270 320
#     4  10  20  33  51  74 102 132 168 210 255 310
#     4  10  22  39  56  78 104 133 173 218 264 316
#     4   9  14  22  36  56  87 127 161 193 238 293
#
# _framework density 17.813141000000002
#
# number of rings (size 3 to 8) (size 9 to 14) (size 15 to 20)
#    0.000    2.500    0.833    1.500    3.500    4.333 
#    0.000    0.000    0.000    0.000    0.000    0.000 
#    0.000    4.000    0.000    0.000    0.000    0.000 
#
# Total GULP energy -267552.349313 kJ/mol
# GULP energy per Si atom -5574.007277 kJ/mol
# Density = 1.777260 g / cm^3
# Si number density = 17.813141 Si / 1000 Ang^3
#
#
#
# Elastic Constant Matrix: (Units=GPa)
#
#
# Indices 1 2 3 4 5 6 
#
# 1 161.2159 70.0236 60.4955 0.0000 0.0000 0.0000
# 2 70.0236 101.7044 33.8711 0.0000 0.0000 0.0000
# 3 60.4955 33.8711 39.7008 0.0000 0.0000 0.0000
# 4 0.0000 0.0000 0.0000 -46.2206 0.0000 0.0000
# 5 0.0000 0.0000 0.0000 0.0000 25.0799 0.0000
# 6 0.0000 0.0000 0.0000 0.0000 0.0000 31.7868
#
#
#
# Elastic Compliance Matrix: (Units=1/GPa)
#
#
# Indices 1 2 3 4 5 6 
#
# 1 0.015533 -0.003928 -0.020318 0.000000 0.000000 0.000000
# 2 -0.003928 0.014728 -0.006580 0.000000 0.000000 0.000000
# 3 -0.020318 -0.006580 0.061763 0.000000 0.000000 0.000000
# 4 0.000000 0.000000 0.000000 -0.021635 0.000000 0.000000
# 5 0.000000 0.000000 0.000000 0.000000 0.039873 0.000000
# 6 0.000000 0.000000 0.000000 0.000000 0.000000 0.031460
#
#
# Mechanical properties :
#
#
# Convention : Reuss Voigt Hill
#
# Bulk Modulus (GPa) = 32.92526 70.15572 51.54049
# Shear Modulus (GPa) = 23.41946 11.34461 17.38204
#
# Velocity S-wave (km/s) = 3.62985 2.52636 3.12717
# Velocity P-wave (km/s) = 6.00763 6.92674 6.48349
#
# Compressibility (1/GPa) = 0.03037182
#
# Stress axis : x y z
#
# Youngs Moduli (GPa) = 64.37784 67.89676 16.19097
#
# Poissons Ratio (x) = 0.26670 0.32897
# Poissons Ratio (y) = 0.25288 0.10654
# Poissons Ratio (z) = 1.30804 0.44676
#
# Static dielectric constant tensor:
#      x y z
#    x 1.640000 0.000000 0.000000 
#    y 0.000000 1.611320 0.000000 
#    z 0.000000 0.000000 1.576100 
# 
# From -- ./inp_files/6286.got.cif
#   From: 2010.05.17/outbox.cif.g08.bks.cpg/sg51_4_cif.got.tgz:6286.got - 2010.06.03 11:52:47.
