data_PCOD9403000
_publ_section_title
;
Structure prediction by ZEFSAII (Michael W. Deem and Ramdas Pophale) SiO2 
 PCOD9403000
Probable space group: P M M A
;
_chemical_formula_sum "Si O2"
_cell_formula_units_Z 64
_cell_length_a 15.578718
_cell_length_b 23.466645
_cell_length_c 9.314256
_cell_angle_alpha 90.000000
_cell_angle_beta 90.000000
_cell_angle_gamma 90.000000
_cell_volume 3405.107989
_symmetry_space_group_name_H-M "P M M A"
_symmetry_group_IT_number 51
_symmetry_cell_setting 'orthorhombic'
loop_
_space_group_symop_operation_xyz
x,y,z
1/2-x,-y,z
1/2+x,-y,-z
-x,y,-z
-x,-y,-z
1/2+x,y,-z
1/2-x,y,z
x,-y,z
loop_
_atom_site_type_symbol
_atom_site_label
_atom_site_fract_x
_atom_site_fract_y
_atom_site_fract_z
Si Si1 0.344611 0.435506 0.633077
Si Si2 0.493143 0.567049 0.165272
Si Si3 0.150539 0.236399 0.302595
Si Si4 0.350018 0.117534 0.437460
Si Si5 0.846749 0.101859 0.222065
Si Si6 0.584472 0.642984 0.599342
Si Si7 0.403859 0.825377 0.026653
Si Si8 0.541403 0.936783 0.797057
O O1 0.250000 0.433848 0.697101
O O2 0.359885 0.500000 0.574780
O O3 0.415868 0.426173 0.753902
O O4 0.350805 0.389728 0.506272
O O5 0.470190 0.500000 0.169797
O O6 0.429508 0.604473 0.260322
O O7 0.500000 0.584569 0.000000
O O8 0.250000 0.244652 0.335017
O O9 0.121209 0.180728 0.390783
O O10 0.104548 0.293637 0.349609
O O11 0.140460 0.217414 0.136787
O O12 0.250000 0.108871 0.387895
O O13 0.349075 0.113522 0.608238
O O14 0.415413 0.074730 0.358605
O O15 0.750000 0.077790 0.191038
O O16 0.937682 0.069126 0.198955
O O17 0.857521 0.157705 0.120966
O O18 0.500000 0.643903 0.500000
O O19 0.417738 0.886370 0.107504
O O20 0.500000 0.803496 0.000000
O O21 0.564718 0.000000 0.846425
#
# Coordination Sequence:
#
# PCOD9403000 Si02
#       8
#     8   8   8   8   8   8   8   8
#     4   9  17  32  54  78 105 138 177 220 263 307
#     4   9  18  34  54  76 107 144 178 214 260 315
#     4  10  20  36  55  75 103 136 171 212 259 309
#     4   9  20  37  56  77 101 134 174 215 259 307
#     4  10  20  35  55  79 105 133 170 213 258 308
#     4  10  20  32  52  80 107 138 177 218 260 310
#     4   9  20  36  56  76 101 138 176 213 255 307
#     4  10  21  37  55  77 106 138 170 207 258 318
#
# _framework density 18.795293000000001
#
# number of rings (size 3 to 8) (size 9 to 14) (size 15 to 20)
#    0.000    2.500    0.000    1.500    0.000    9.250 
#    0.000    3.750    0.000    3.000    0.000    0.000 
#    0.000    0.000    0.000    0.000    0.000    0.000 
#
# Total GULP energy -356517.560327 kJ/mol
# GULP energy per Si atom -5570.586880 kJ/mol
# Density = 1.875251 g / cm^3
# Si number density = 18.795293 Si / 1000 Ang^3
#
#
#
# Elastic Constant Matrix: (Units=GPa)
#
#
# Indices 1 2 3 4 5 6 
#
# 1 59.3278 20.3162 10.8828 0.0000 0.0000 0.0000
# 2 20.3162 63.8352 25.5548 0.0000 0.0000 0.0000
# 3 10.8828 25.5548 83.3231 0.0000 0.0000 0.0000
# 4 0.0000 0.0000 0.0000 11.7566 0.0000 0.0000
# 5 0.0000 0.0000 0.0000 0.0000 15.3617 0.0000
# 6 0.0000 0.0000 0.0000 0.0000 0.0000 3028.9433
#
#
#
# Elastic Compliance Matrix: (Units=1/GPa)
#
#
# Indices 1 2 3 4 5 6 
#
# 1 0.018954 -0.005747 -0.000713 0.000000 0.000000 0.000000
# 2 -0.005747 0.019600 -0.005261 0.000000 0.000000 0.000000
# 3 -0.000713 -0.005261 0.013708 0.000000 0.000000 0.000000
# 4 0.000000 0.000000 0.000000 0.085059 0.000000 0.000000
# 5 0.000000 0.000000 0.000000 0.000000 0.065097 0.000000
# 6 0.000000 0.000000 0.000000 0.000000 0.000000 0.000330
#
#
# Mechanical properties :
#
#
# Convention : Reuss Voigt Hill
#
# Bulk Modulus (GPa) = 34.69663 35.55484 35.12573
# Shear Modulus (GPa) = 21.20469 621.19447 321.19958
#
# Velocity S-wave (km/s) = 3.36250 18.19953 13.08681
# Velocity P-wave (km/s) = 5.79444 21.46132 15.71884
#
# Compressibility (1/GPa) = 0.02882125
#
# Stress axis : x y z
#
# Youngs Moduli (GPa) = 52.75858 51.01951 72.94985
#
# Poissons Ratio (x) = 0.29321 0.05202
# Poissons Ratio (y) = 0.30320 0.38377
# Poissons Ratio (z) = 0.03762 0.26840
#
# Static dielectric constant tensor:
#      x y z
#    x 1.681240 0.000000 0.000000 
#    y 0.000000 1.649130 0.000000 
#    z 0.000000 0.000000 1.660720 
# 
# From -- ./inp_files/8741.got.cif
#   From: 2010.05.17/outbox.cif.g08.bks.cpg/sg51_5_cif.got.tgz:8741.got - 2010.06.03 11:52:47.
