data_PCOD9403636
_publ_section_title
;
Structure prediction by ZEFSAII (Michael W. Deem and Ramdas Pophale) SiO2 
 PCOD9403636
Probable space group: P M M A
;
_chemical_formula_sum "Si O2"
_cell_formula_units_Z 48
_cell_length_a 21.997321
_cell_length_b 8.741541
_cell_length_c 15.539425
_cell_angle_alpha 90.000000
_cell_angle_beta 90.000000
_cell_angle_gamma 90.000000
_cell_volume 2988.083545
_symmetry_space_group_name_H-M "P M M A"
_symmetry_group_IT_number 51
_symmetry_cell_setting 'orthorhombic'
loop_
_space_group_symop_operation_xyz
x,y,z
1/2-x,-y,z
1/2+x,-y,-z
-x,y,-z
-x,-y,-z
1/2+x,y,-z
1/2-x,y,z
x,-y,z
loop_
_atom_site_type_symbol
_atom_site_label
_atom_site_fract_x
_atom_site_fract_y
_atom_site_fract_z
Si Si1 0.179298 0.316028 0.686108
Si Si2 0.955557 0.682378 0.617192
Si Si3 0.084075 0.817695 0.556416
Si Si4 0.539217 0.180616 0.797717
Si Si5 0.071006 0.676940 0.029183
Si Si6 0.407324 0.315386 0.843134
O O1 0.250000 0.274507 0.687562
O O2 0.174580 0.500000 0.674390
O O3 0.142031 0.234538 0.610679
O O4 0.145577 0.279484 0.775962
O O5 0.955135 0.500000 0.610195
O O6 0.915923 0.756121 0.541099
O O7 0.937560 0.735847 0.712204
O O8 0.024179 0.742710 0.599759
O O9 0.077222 0.000000 0.557159
O O10 0.575195 0.226244 0.884263
O O11 0.469835 0.237204 0.813067
O O12 0.539642 0.000000 0.784745
O O13 0.085675 0.500000 0.048209
O O14 0.105369 0.727585 0.942473
O O15 0.000000 0.681539 0.000000
O O16 0.417396 0.500000 0.842607
#
# Coordination Sequence:
#
# PCOD9403636 Si02
#       6
#     8   8   8   8   8   8
#     4  10  20  34  52  72  96 132 172 203 236 285
#     4  11  20  32  50  69  95 130 162 197 245 302
#     4  11  21  33  48  71  98 125 160 204 250 294
#     4  11  19  27  43  70  98 125 155 196 242 292
#     4   8  15  27  42  62  90 126 159 189 230 282
#     4   9  17  30  46  64  93 129 163 198 235 282
#
# _framework density 16.063808999999999
#
# number of rings (size 3 to 8) (size 9 to 14) (size 15 to 20)
#    0.000    2.000    1.667    6.500    0.000    3.333 
#    0.000    0.000    0.000    0.000    0.000    1.167 
#    0.000    6.667    0.000    0.000    0.000    0.000 
#
# Total GULP energy -267731.960346 kJ/mol
# GULP energy per Si atom -5577.749174 kJ/mol
# Density = 1.602725 g / cm^3
# Si number density = 16.063809 Si / 1000 Ang^3
#
#
#
# Elastic Constant Matrix: (Units=GPa)
#
#
# Indices 1 2 3 4 5 6 
#
# 1 59.8385 30.1375 46.0015 0.0000 0.0000 0.0000
# 2 30.1375 81.6111 50.4247 0.0000 0.0000 0.0000
# 3 46.0015 50.4247 140.2584 0.0000 0.0000 0.0000
# 4 0.0000 0.0000 0.0000 -1.3005 0.0000 0.0000
# 5 0.0000 0.0000 0.0000 0.0000 14.4447 0.0000
# 6 0.0000 0.0000 0.0000 0.0000 0.0000 -6.8663
#
#
#
# Elastic Compliance Matrix: (Units=1/GPa)
#
#
# Indices 1 2 3 4 5 6 
#
# 1 0.023902 -0.005120 -0.005998 0.000000 0.000000 0.000000
# 2 -0.005120 0.016849 -0.004378 0.000000 0.000000 0.000000
# 3 -0.005998 -0.004378 0.010671 0.000000 0.000000 0.000000
# 4 0.000000 0.000000 0.000000 -0.768959 0.000000 0.000000
# 5 0.000000 0.000000 0.000000 0.000000 0.069229 0.000000
# 6 0.000000 0.000000 0.000000 0.000000 0.000000 -0.145640
#
#
# Mechanical properties :
#
#
# Convention : Reuss Voigt Hill
#
# Bulk Modulus (GPa) = 48.95171 59.42616 54.18893
# Shear Modulus (GPa) = -6.61250 11.59855 2.49302
#
# Velocity S-wave (km/s) = -2.03109 2.68998 1.24712
# Velocity P-wave (km/s) = 5.00390 6.83536 5.99004
#
# Compressibility (1/GPa) = 0.02042830
#
# Stress axis : x y z
#
# Youngs Moduli (GPa) = 41.83778 59.35009 93.71138
#
# Poissons Ratio (x) = 0.30389 0.56212
# Poissons Ratio (y) = 0.21422 0.41028
# Poissons Ratio (z) = 0.25096 0.25984
#
# Static dielectric constant tensor:
#      x y z
#    x 1.503500 0.000000 0.000000 
#    y 0.000000 1.534640 0.000000 
#    z 0.000000 0.000000 1.577700 
# 
# From -- ./inp_files/26026.got.cif
#   From: 2010.05.17/outbox.cif.g08.bks.cpg/sg51_14_cif.got.tgz:26026.got - 2010.06.03 11:52:47.
