data_PCOD9403064
_publ_section_title
;
Structure prediction by ZEFSAII (Michael W. Deem and Ramdas Pophale) SiO2 
 PCOD9403064
Probable space group: P M M A
;
_chemical_formula_sum "Si O2"
_cell_formula_units_Z 64
_cell_length_a 19.714862
_cell_length_b 9.761127
_cell_length_c 20.302668
_cell_angle_alpha 90.000000
_cell_angle_beta 90.000000
_cell_angle_gamma 90.000000
_cell_volume 3907.030645
_symmetry_space_group_name_H-M "P M M A"
_symmetry_group_IT_number 51
_symmetry_cell_setting 'orthorhombic'
loop_
_space_group_symop_operation_xyz
x,y,z
1/2-x,-y,z
1/2+x,-y,-z
-x,y,-z
-x,-y,-z
1/2+x,y,-z
1/2-x,y,z
x,-y,z
loop_
_atom_site_type_symbol
_atom_site_label
_atom_site_fract_x
_atom_site_fract_y
_atom_site_fract_z
Si Si1 0.549496 0.661965 0.099503
Si Si2 0.329810 0.162960 0.658129
Si Si3 0.588418 0.836717 0.722588
Si Si4 0.832314 0.656130 0.465491
Si Si5 0.062494 0.163287 0.769332
Si Si6 0.102175 0.338809 0.041425
Si Si7 0.830515 0.664467 0.615506
Si Si8 0.671869 0.839438 0.853561
O O1 0.558542 0.500000 0.113305
O O2 0.563733 0.752217 0.163205
O O3 0.471845 0.680055 0.075076
O O4 0.594487 0.697855 0.035428
O O5 0.250000 0.192844 0.669543
O O6 0.353129 0.244244 0.593194
O O7 0.375670 0.198255 0.720850
O O8 0.336136 0.000000 0.646849
O O9 0.508660 0.809745 0.732058
O O10 0.624306 0.748774 0.666270
O O11 0.624467 0.802625 0.792015
O O12 0.597907 0.000000 0.710885
O O13 0.750000 0.654404 0.465573
O O14 0.855201 0.500000 0.453608
O O15 0.850896 0.696885 0.539928
O O16 0.064501 0.000000 0.783399
O O17 0.118367 0.500000 0.045464
O O18 0.153589 0.249067 0.083048
O O19 0.750000 0.695744 0.623879
O O20 0.837820 0.500000 0.624139
O O21 0.750000 0.820355 0.834342
O O22 0.660812 0.000000 0.867959
#
# Coordination Sequence:
#
# PCOD9403064 Si02
#       8
#     8   8   8   8   8   8   8   8
#     4   9  18  33  53  75  98 125 162 206 246 291
#     4   9  18  33  53  76  99 124 160 206 253 302
#     4  10  20  33  48  70 101 136 171 205 244 293
#     4   8  15  30  51  73  97 126 163 205 247 296
#     4  10  20  34  52  75 102 133 166 203 249 300
#     4   9  18  33  52  74  98 126 164 207 248 290
#     4   9  18  32  50  73 100 131 169 210 248 289
#     4  10  20  33  49  72 103 136 170 208 247 290
#
# _framework density 16.380727
#
# number of rings (size 3 to 8) (size 9 to 14) (size 15 to 20)
#    0.000    2.750    1.250    1.875    0.000    3.500 
#    0.000    3.750    0.000    6.000    0.000    0.000 
#    0.000    0.000    0.000    0.000    0.000    0.000 
#
# Total GULP energy -356667.064400 kJ/mol
# GULP energy per Si atom -5572.922881 kJ/mol
# Density = 1.634344 g / cm^3
# Si number density = 16.380727 Si / 1000 Ang^3
#
#
#
# Elastic Constant Matrix: (Units=GPa)
#
#
# Indices 1 2 3 4 5 6 
#
# 1 57.4725 37.7856 55.9034 0.0000 0.0000 0.0000
# 2 37.7856 47.1327 74.9951 0.0000 0.0000 0.0000
# 3 55.9034 74.9951 145.7196 0.0000 0.0000 0.0000
# 4 0.0000 0.0000 0.0000 68.2208 0.0000 0.0000
# 5 0.0000 0.0000 0.0000 0.0000 25.3063 0.0000
# 6 0.0000 0.0000 0.0000 0.0000 0.0000 22.0133
#
#
#
# Elastic Compliance Matrix: (Units=1/GPa)
#
#
# Indices 1 2 3 4 5 6 
#
# 1 0.037727 -0.039842 0.006031 0.000000 0.000000 0.000000
# 2 -0.039842 0.159223 -0.066660 0.000000 0.000000 0.000000
# 3 0.006031 -0.066660 0.038855 0.000000 0.000000 0.000000
# 4 0.000000 0.000000 0.000000 0.014658 0.000000 0.000000
# 5 0.000000 0.000000 0.000000 0.000000 0.039516 0.000000
# 6 0.000000 0.000000 0.000000 0.000000 0.000000 0.045427
#
#
# Mechanical properties :
#
#
# Convention : Reuss Voigt Hill
#
# Bulk Modulus (GPa) = 28.68246 65.29923 46.99084
# Shear Modulus (GPa) = 9.12460 28.55079 18.83770
#
# Velocity S-wave (km/s) = 2.36271 4.17939 3.39483
# Velocity P-wave (km/s) = 4.99911 7.95234 6.64195
#
# Compressibility (1/GPa) = 0.03486452
#
# Stress axis : x y z
#
# Youngs Moduli (GPa) = 26.50593 6.28051 25.73649
#
# Poissons Ratio (x) = 0.25023 -0.15522
# Poissons Ratio (y) = 1.05605 1.71559
# Poissons Ratio (z) = -0.15986 0.41866
#
# Static dielectric constant tensor:
#      x y z
#    x 1.547500 0.000000 0.000000 
#    y 0.000000 1.542530 0.000000 
#    z 0.000000 0.000000 1.531070 
# 
# From -- ./inp_files/30532.got.cif
#   From: 2010.05.17/outbox.cif.g08.bks.cpg/sg51_16_cif.got.tgz:30532.got - 2010.06.03 11:52:47.
