data_PCOD9403999
_publ_section_title
;
Structure prediction by ZEFSAII (Michael W. Deem and Ramdas Pophale) SiO2 
 PCOD9403999
Probable space group: P M M A
;
_chemical_formula_sum "Si O2"
_cell_formula_units_Z 40
_cell_length_a 18.774281
_cell_length_b 8.853406
_cell_length_c 13.290610
_cell_angle_alpha 90.000000
_cell_angle_beta 90.000000
_cell_angle_gamma 90.000000
_cell_volume 2209.116445
_symmetry_space_group_name_H-M "P M M A"
_symmetry_group_IT_number 51
_symmetry_cell_setting 'orthorhombic'
loop_
_space_group_symop_operation_xyz
x,y,z
1/2-x,-y,z
1/2+x,-y,-z
-x,y,-z
-x,-y,-z
1/2+x,y,-z
1/2-x,y,z
x,-y,z
loop_
_atom_site_type_symbol
_atom_site_label
_atom_site_fract_x
_atom_site_fract_y
_atom_site_fract_z
Si Si1 0.335801 0.825633 0.721215
Si Si2 0.834523 0.681629 0.710209
Si Si3 0.080464 0.320463 0.900305
Si Si4 0.423334 0.180338 0.109342
Si Si5 0.663407 0.674414 0.485142
O O1 0.250000 0.813336 0.725042
O O2 0.370173 0.723993 0.807213
O O3 0.359198 0.772407 0.610072
O O4 0.355373 0.000000 0.738081
O O5 0.750000 0.711756 0.718894
O O6 0.844039 0.500000 0.719275
O O7 0.876998 0.766276 0.796510
O O8 0.858577 0.724722 0.596913
O O9 0.075241 0.500000 0.911776
O O10 0.002271 0.250658 0.881591
O O11 0.106940 0.246777 0.004649
O O12 0.427640 0.000000 0.103435
O O13 0.750000 0.675344 0.486965
O O14 0.641497 0.500000 0.470499
#
# Coordination Sequence:
#
# PCOD9403999 Si02
#       5
#     8   8   8   8   8
#     4  10  20  34  54  81 111 139 171 215 264 311
#     4   9  18  34  56  81 109 141 178 216 254 305
#     4  11  22  38  58  76 101 139 180 217 259 315
#     4  11  22  37  56  78 107 138 172 217 268 317
#     4   8  15  30  52  77 106 140 175 211 254 305
#
# _framework density 18.106786
#
# number of rings (size 3 to 8) (size 9 to 14) (size 15 to 20)
#    0.000    2.200    0.000    6.600    0.000    3.200 
#    0.000    3.000    0.000    6.000    0.000    0.000 
#    0.000    0.000    0.000    0.000    0.000    0.000 
#
# Total GULP energy -223227.200831 kJ/mol
# GULP energy per Si atom -5580.680021 kJ/mol
# Density = 1.806557 g / cm^3
# Si number density = 18.106786 Si / 1000 Ang^3
#
#
#
# Elastic Constant Matrix: (Units=GPa)
#
#
# Indices 1 2 3 4 5 6 
#
# 1 16.1831 30.0616 33.9955 0.0000 0.0000 0.0000
# 2 30.0616 122.2746 70.6368 0.0000 0.0000 0.0000
# 3 33.9955 70.6368 143.4979 0.0000 0.0000 0.0000
# 4 0.0000 0.0000 0.0000 -75.3822 0.0000 0.0000
# 5 0.0000 0.0000 0.0000 0.0000 134.2932 0.0000
# 6 0.0000 0.0000 0.0000 0.0000 0.0000 23.0342
#
#
#
# Elastic Compliance Matrix: (Units=1/GPa)
#
#
# Indices 1 2 3 4 5 6 
#
# 1 0.163947 -0.024970 -0.026548 0.000000 0.000000 0.000000
# 2 -0.024970 0.015231 -0.001582 0.000000 0.000000 0.000000
# 3 -0.026548 -0.001582 0.014037 0.000000 0.000000 0.000000
# 4 0.000000 0.000000 0.000000 -0.013266 0.000000 0.000000
# 5 0.000000 0.000000 0.000000 0.000000 0.007446 0.000000
# 6 0.000000 0.000000 0.000000 0.000000 0.000000 0.043414
#
#
# Mechanical properties :
#
#
# Convention : Reuss Voigt Hill
#
# Bulk Modulus (GPa) = 11.49241 61.26037 36.37639
# Shear Modulus (GPa) = 13.66065 26.20648 19.93356
#
# Velocity S-wave (km/s) = 2.74970 3.80851 3.32156
# Velocity P-wave (km/s) = 4.05487 7.29698 5.90287
#
# Compressibility (1/GPa) = 0.08701398
#
# Stress axis : x y z
#
# Youngs Moduli (GPa) = 6.09954 65.65475 71.24057
#
# Poissons Ratio (x) = 1.63940 1.89132
# Poissons Ratio (y) = 0.15231 0.11270
# Poissons Ratio (z) = 0.16193 0.10387
#
# Static dielectric constant tensor:
#      x y z
#    x 1.604610 0.000000 0.000000 
#    y 0.000000 1.605730 0.000000 
#    z 0.000000 0.000000 1.625840 
# 
# From -- ./inp_files/17894.got.cif
#   From: 2010.05.17/outbox.cif.g08.bks.cpg/sg51_9_cif.got.tgz:17894.got - 2010.06.03 11:52:47.
