data_PCOD9403786
_publ_section_title
;
Structure prediction by ZEFSAII (Michael W. Deem and Ramdas Pophale) SiO2 
 PCOD9403786
Probable space group: P M M A
;
_chemical_formula_sum "Si O2"
_cell_formula_units_Z 48
_cell_length_a 31.166698
_cell_length_b 8.729479
_cell_length_c 10.180271
_cell_angle_alpha 90.000000
_cell_angle_beta 90.000000
_cell_angle_gamma 90.000000
_cell_volume 2769.736514
_symmetry_space_group_name_H-M "P M M A"
_symmetry_group_IT_number 51
_symmetry_cell_setting 'orthorhombic'
loop_
_space_group_symop_operation_xyz
x,y,z
1/2-x,-y,z
1/2+x,-y,-z
-x,y,-z
-x,-y,-z
1/2+x,y,-z
1/2-x,y,z
x,-y,z
loop_
_atom_site_type_symbol
_atom_site_label
_atom_site_fract_x
_atom_site_fract_y
_atom_site_fract_z
Si Si1 0.037219 0.184723 0.401346
Si Si2 0.537992 0.184942 0.902518
Si Si3 0.299485 0.816605 0.898501
Si Si4 0.369840 0.684741 0.400548
Si Si5 0.368739 0.683536 0.097447
Si Si6 0.799250 0.315049 0.389011
O O1 0.028553 0.227716 0.249257
O O2 0.083684 0.250255 0.437760
O O3 0.000000 0.236679 0.500000
O O4 0.039166 0.000000 0.406915
O O5 0.583980 0.255340 0.938621
O O6 0.541392 0.000000 0.908420
O O7 0.500000 0.232827 0.000000
O O8 0.250000 0.771664 0.927706
O O9 0.309523 0.754957 0.752829
O O10 0.301928 0.000000 0.898677
O O11 0.332530 0.749627 0.002931
O O12 0.371787 0.500000 0.403635
O O13 0.361038 0.730299 0.249495
O O14 0.332766 0.734901 0.500125
O O15 0.368477 0.500000 0.090607
O O16 0.750000 0.273405 0.422009
O O17 0.801185 0.500000 0.379214
#
# Coordination Sequence:
#
# PCOD9403786 Si02
#       6
#     8   8   8   8   8   8
#     4   9  18  32  49  70  97 130 167 205 247 295
#     4   9  18  33  51  71  99 134 170 209 251 295
#     4  10  21  36  53  75 103 134 170 211 253 300
#     4   9  19  34  52  76 103 132 167 206 249 297
#     4  10  20  34  53  77 105 136 170 209 253 302
#     4   9  18  34  54  75 101 132 166 205 249 298
#
# _framework density 17.330166999999999
#
# number of rings (size 3 to 8) (size 9 to 14) (size 15 to 20)
#    0.000    2.667    0.000    1.000    0.000    5.000 
#    0.000    3.333    0.000    2.000    0.000    0.000 
#    0.000    0.000    0.000    0.000    0.000    0.000 
#
# Total GULP energy -267728.417829 kJ/mol
# GULP energy per Si atom -5577.675371 kJ/mol
# Density = 1.729072 g / cm^3
# Si number density = 17.330167 Si / 1000 Ang^3
#
#
#
# Elastic Constant Matrix: (Units=GPa)
#
#
# Indices 1 2 3 4 5 6 
#
# 1 172.3953 40.1271 133.9641 0.0000 0.0000 0.0000
# 2 40.1271 16.7141 34.4384 0.0000 0.0000 0.0000
# 3 133.9641 34.4384 124.3574 0.0000 0.0000 0.0000
# 4 0.0000 0.0000 0.0000 18.2512 0.0000 0.0000
# 5 0.0000 0.0000 0.0000 0.0000 44.5975 0.0000
# 6 0.0000 0.0000 0.0000 0.0000 0.0000 -17.0339
#
#
#
# Elastic Compliance Matrix: (Units=1/GPa)
#
#
# Indices 1 2 3 4 5 6 
#
# 1 0.037307 -0.015742 -0.035830 0.000000 0.000000 0.000000
# 2 -0.015742 0.145976 -0.023468 0.000000 0.000000 0.000000
# 3 -0.035830 -0.023468 0.053138 0.000000 0.000000 0.000000
# 4 0.000000 0.000000 0.000000 0.054791 0.000000 0.000000
# 5 0.000000 0.000000 0.000000 0.000000 0.022423 0.000000
# 6 0.000000 0.000000 0.000000 0.000000 0.000000 -0.058706
#
#
# Mechanical properties :
#
#
# Convention : Reuss Voigt Hill
#
# Bulk Modulus (GPa) = 11.58170 81.16956 46.37563
# Shear Modulus (GPa) = 11.52637 16.15875 13.84256
#
# Velocity S-wave (km/s) = 2.58176 3.05684 2.82929
# Velocity P-wave (km/s) = 3.94776 7.70700 6.12302
#
# Compressibility (1/GPa) = 0.08634311
#
# Stress axis : x y z
#
# Youngs Moduli (GPa) = 26.80456 6.85043 18.81896
#
# Poissons Ratio (x) = 0.10784 0.67428
# Poissons Ratio (y) = 0.42195 0.44164
# Poissons Ratio (z) = 0.96040 0.16076
#
# Static dielectric constant tensor:
#      x y z
#    x 1.562510 0.000000 0.000000 
#    y 0.000000 1.582380 0.000000 
#    z 0.000000 0.000000 1.575820 
# 
# From -- ./inp_files/12729.got.cif
#   From: 2010.05.17/outbox.cif.g08.bks.cpg/sg51_7_cif.got.tgz:12729.got - 2010.06.03 11:52:47.
