data_PCOD9403473
_publ_section_title
;
Structure prediction by ZEFSAII (Michael W. Deem and Ramdas Pophale) SiO2 
 PCOD9403473
Probable space group: P M M A
;
_chemical_formula_sum "Si O2"
_cell_formula_units_Z 38
_cell_length_a 16.682511
_cell_length_b 8.380567
_cell_length_c 11.250940
_cell_angle_alpha 90.000000
_cell_angle_beta 90.000000
_cell_angle_gamma 90.000000
_cell_volume 1572.981558
_symmetry_space_group_name_H-M "P M M A"
_symmetry_group_IT_number 51
_symmetry_cell_setting 'orthorhombic'
loop_
_space_group_symop_operation_xyz
x,y,z
1/2-x,-y,z
1/2+x,-y,-z
-x,y,-z
-x,-y,-z
1/2+x,y,-z
1/2-x,y,z
x,-y,z
loop_
_atom_site_type_symbol
_atom_site_label
_atom_site_fract_x
_atom_site_fract_y
_atom_site_fract_z
Si Si1 0.911567 0.000000 0.440411
Si Si2 0.097039 0.681080 0.934627
Si Si3 0.908991 0.681251 0.549931
Si Si4 0.425441 0.000000 0.840264
Si Si5 0.250000 0.333241 0.760790
Si Si6 0.250000 0.000000 0.789506
Si Si7 0.340683 0.308636 0.198127
O O1 0.872984 0.167230 0.481113
O O2 0.926256 0.000000 0.300867
O O3 0.000000 0.000000 0.500000
O O4 0.063325 0.500000 0.929572
O O5 0.172729 0.668034 0.846149
O O6 0.044942 0.829596 0.887019
O O7 0.126972 0.725035 0.066462
O O8 0.875954 0.500000 0.533874
O O9 0.897650 0.725811 0.689114
O O10 0.000000 0.670900 0.500000
O O11 0.329564 0.000000 0.869291
O O12 0.250000 0.500000 0.691891
O O13 0.250000 0.157020 0.709701
O O14 0.250000 0.243429 0.214899
O O15 0.334219 0.500000 0.198138
#
# Coordination Sequence:
#
# PCOD9403473 Si02
#       7
#     4   8   8   4   4   2   8
#     4  10  22  41  59  75 103 151 204 244 275 323
#     4   9  16  28  49  79 116 144 170 217 285 350
#     4   9  19  37  60  81 107 152 203 245 286 332
#     4  10  20  33  52  81 112 147 182 222 272 343
#     4   8  12  22  40  63  99 145 165 184 251 332
#     4   8  16  28  42  68 108 134 162 208 252 314
#     4   9  16  30  56  88 119 149 187 236 289 351
#
# _framework density 24.157943
#
# number of rings (size 3 to 8) (size 9 to 14) (size 15 to 20)
#    0.000    2.947    1.053    0.000    0.000    1.684 
#    1.895    1.053    0.000   10.105    0.000   19.158 
#    0.000    0.000    0.000    0.000    0.000    0.000 
#
# Total GULP energy -211725.073251 kJ/mol
# GULP energy per Si atom -5571.712454 kJ/mol
# Density = 2.410296 g / cm^3
# Si number density = 24.157943 Si / 1000 Ang^3
#
#
#
# Elastic Constant Matrix: (Units=GPa)
#
#
# Indices 1 2 3 4 5 6 
#
# 1 29.2306 17.1128 0.7309 0.0000 0.0000 0.0000
# 2 17.1128 236.5138 74.0275 0.0000 0.0000 0.0000
# 3 0.7309 74.0275 159.8031 0.0000 0.0000 0.0000
# 4 0.0000 0.0000 0.0000 26.1199 0.0000 0.0000
# 5 0.0000 0.0000 0.0000 0.0000 15.8268 0.0000
# 6 0.0000 0.0000 0.0000 0.0000 0.0000 18.8508
#
#
#
# Elastic Compliance Matrix: (Units=1/GPa)
#
#
# Indices 1 2 3 4 5 6 
#
# 1 0.035925 -0.002980 0.001216 0.000000 0.000000 0.000000
# 2 -0.002980 0.005192 -0.002392 0.000000 0.000000 0.000000
# 3 0.001216 -0.002392 0.007360 0.000000 0.000000 0.000000
# 4 0.000000 0.000000 0.000000 0.038285 0.000000 0.000000
# 5 0.000000 0.000000 0.000000 0.000000 0.063184 0.000000
# 6 0.000000 0.000000 0.000000 0.000000 0.000000 0.053048
#
#
# Mechanical properties :
#
#
# Convention : Reuss Voigt Hill
#
# Bulk Modulus (GPa) = 24.89647 67.69889 46.29768
# Shear Modulus (GPa) = 22.25246 34.40458 28.32852
#
# Velocity S-wave (km/s) = 3.03829 3.77789 3.42809
# Velocity P-wave (km/s) = 4.75777 6.86398 5.90553
#
# Compressibility (1/GPa) = 0.04016633
#
# Stress axis : x y z
#
# Youngs Moduli (GPa) = 27.83579 192.59393 135.86859
#
# Poissons Ratio (x) = 0.57393 -0.16524
# Poissons Ratio (y) = 0.08295 0.32495
# Poissons Ratio (z) = -0.03385 0.46062
#
# Static dielectric constant tensor:
#      x y z
#    x 1.809260 0.000000 0.000000 
#    y 0.000000 2.037780 0.000000 
#    z 0.000000 0.000000 1.931920 
# 
# From -- ./inp_files/11499.got.cif
#   From: 2010.05.17/outbox.cif.g08.bks.cpg/sg51_6_cif.got.tgz:11499.got - 2010.06.03 11:52:47.
