data_PCOD9403758
_publ_section_title
;
Structure prediction by ZEFSAII (Michael W. Deem and Ramdas Pophale) SiO2 
 PCOD9403758
Probable space group: P M M A
;
_chemical_formula_sum "Si O2"
_cell_formula_units_Z 48
_cell_length_a 33.304177
_cell_length_b 7.453816
_cell_length_c 7.977757
_cell_angle_alpha 90.000000
_cell_angle_beta 90.000000
_cell_angle_gamma 90.000000
_cell_volume 1980.423985
_symmetry_space_group_name_H-M "P M M A"
_symmetry_group_IT_number 51
_symmetry_cell_setting 'orthorhombic'
loop_
_space_group_symop_operation_xyz
x,y,z
1/2-x,-y,z
1/2+x,-y,-z
-x,y,-z
-x,-y,-z
1/2+x,y,-z
1/2-x,y,z
x,-y,z
loop_
_atom_site_type_symbol
_atom_site_label
_atom_site_fract_x
_atom_site_fract_y
_atom_site_fract_z
Si Si1 0.794162 0.780974 0.905974
Si Si2 0.679661 0.199917 0.556927
Si Si3 0.146804 0.781373 0.800243
Si Si4 0.903127 0.701181 0.691485
Si Si5 0.936745 0.787337 0.344089
Si Si6 0.981585 0.284474 0.830140
O O1 0.750000 0.735945 0.974710
O O2 0.829327 0.722702 0.033637
O O3 0.796662 0.000000 0.896976
O O4 0.796562 0.715609 0.712692
O O5 0.669714 0.277929 0.372526
O O6 0.636150 0.190963 0.646488
O O7 0.696068 0.000000 0.526337
O O8 0.099626 0.730635 0.781932
O O9 0.147929 0.000000 0.798460
O O10 0.891447 0.500000 0.743956
O O11 0.927057 0.691761 0.516960
O O12 0.936719 0.786418 0.808181
O O13 0.982611 0.752995 0.297634
O O14 0.931923 0.000000 0.369160
O O15 0.976804 0.500000 0.837606
O O16 0.000000 0.214423 0.000000
#
# Coordination Sequence:
#
# PCOD9403758 Si02
#       6
#     8   8   8   8   8   8
#     4   9  17  29  49  77 106 135 165 206 263 316
#     4   9  18  32  52  77 105 134 173 218 258 307
#     4   8  16  30  46  71 104 133 164 208 256 306
#     4  10  20  35  54  73  99 138 176 212 262 311
#     4  10  20  34  53  76 102 135 176 220 266 309
#     4  10  22  36  49  72 105 138 176 218 259 313
#
# _framework density 24.237234000000001
#
# number of rings (size 3 to 8) (size 9 to 14) (size 15 to 20)
#    0.000    2.667    0.000    2.500    2.333    4.333 
#    0.000    3.333    0.000    0.500    0.000    0.000 
#    0.000    0.000    0.000    0.000    0.000    0.000 
#
# Total GULP energy -267674.759238 kJ/mol
# GULP energy per Si atom -5576.557484 kJ/mol
# Density = 2.418207 g / cm^3
# Si number density = 24.237234 Si / 1000 Ang^3
#
#
#
# Elastic Constant Matrix: (Units=GPa)
#
#
# Indices 1 2 3 4 5 6 
#
# 1 46.0643 -4.7746 7.3521 0.0000 0.0000 0.0000
# 2 -4.7746 81.4945 -7.2471 0.0000 0.0000 0.0000
# 3 7.3521 -7.2471 71.3564 0.0000 0.0000 0.0000
# 4 0.0000 0.0000 0.0000 -4.3989 0.0000 0.0000
# 5 0.0000 0.0000 0.0000 0.0000 42.9142 0.0000
# 6 0.0000 0.0000 0.0000 0.0000 0.0000 0.0144
#
#
#
# Elastic Compliance Matrix: (Units=1/GPa)
#
#
# Indices 1 2 3 4 5 6 
#
# 1 0.022170 0.001106 -0.002172 0.000000 0.000000 0.000000
# 2 0.001106 0.012438 0.001149 0.000000 0.000000 0.000000
# 3 -0.002172 0.001149 0.014355 0.000000 0.000000 0.000000
# 4 0.000000 0.000000 0.000000 -0.227330 0.000000 0.000000
# 5 0.000000 0.000000 0.000000 0.000000 0.023302 0.000000
# 6 0.000000 0.000000 0.000000 0.000000 0.000000 69.473391
#
#
# Mechanical properties :
#
#
# Convention : Reuss Voigt Hill
#
# Bulk Modulus (GPa) = 20.35474 21.06401 20.70938
# Shear Modulus (GPa) = 0.07211 21.27826 10.67519
#
# Velocity S-wave (km/s) = 0.17268 2.96618 2.10096
# Velocity P-wave (km/s) = 2.90794 4.52113 3.80110
#
# Compressibility (1/GPa) = 0.04912860
#
# Stress axis : x y z
#
# Youngs Moduli (GPa) = 45.10584 80.40040 69.66378
#
# Poissons Ratio (x) = -0.08890 0.15131
# Poissons Ratio (y) = -0.04988 -0.08006
# Poissons Ratio (z) = 0.09797 -0.09240
#
# Static dielectric constant tensor:
#      x y z
#    x 2.049630 0.000000 0.000000 
#    y 0.000000 2.044780 0.000000 
#    z 0.000000 0.000000 1.985700 
# 
# From -- ./inp_files/12783.got.cif
#   From: 2010.05.17/outbox.cif.g08.bks.cpg/sg51_7_cif.got.tgz:12783.got - 2010.06.03 11:52:47.
