data_PCOD9403571
_publ_section_title
;
Structure prediction by ZEFSAII (Michael W. Deem and Ramdas Pophale) SiO2 
 PCOD9403571
Probable space group: P M M A
;
_chemical_formula_sum "Si O2"
_cell_formula_units_Z 64
_cell_length_a 8.899567
_cell_length_b 14.551859
_cell_length_c 32.050328
_cell_angle_alpha 90.000000
_cell_angle_beta 90.000000
_cell_angle_gamma 90.000000
_cell_volume 4150.685553
_symmetry_space_group_name_H-M "P M M A"
_symmetry_group_IT_number 51
_symmetry_cell_setting 'orthorhombic'
loop_
_space_group_symop_operation_xyz
x,y,z
1/2-x,-y,z
1/2+x,-y,-z
-x,y,-z
-x,-y,-z
1/2+x,y,-z
1/2-x,y,z
x,-y,z
loop_
_atom_site_type_symbol
_atom_site_label
_atom_site_fract_x
_atom_site_fract_y
_atom_site_fract_z
Si Si1 0.569616 0.891980 0.206843
Si Si2 0.429344 0.108356 0.044823
Si Si3 0.076448 0.888173 0.457448
Si Si4 0.929374 0.605590 0.842659
Si Si5 0.928904 0.394474 0.249318
Si Si6 0.566554 0.106184 0.633960
Si Si7 0.930488 0.217425 0.715739
Si Si8 0.069897 0.216640 0.878231
O O1 0.750000 0.883401 0.212442
O O2 0.488452 0.842762 0.245289
O O3 0.530827 0.841681 0.163473
O O4 0.532389 0.000000 0.204987
O O5 0.250000 0.120601 0.043659
O O6 0.501136 0.167219 0.081680
O O7 0.460753 0.000000 0.052304
O O8 0.500000 0.132134 0.000000
O O9 0.250000 0.860879 0.459134
O O10 0.013660 0.861653 0.411921
O O11 0.000000 0.856266 0.500000
O O12 0.071109 0.000000 0.457285
O O13 0.750000 0.618515 0.840633
O O14 0.959426 0.500000 0.855433
O O15 0.998690 0.617599 0.796470
O O16 0.003456 0.681926 0.871713
O O17 0.750000 0.380440 0.245976
O O18 0.956561 0.500000 0.262280
O O19 0.000758 0.318390 0.278868
O O20 0.750000 0.105699 0.632379
O O21 0.521815 0.168724 0.672711
O O22 0.520305 0.000000 0.640631
O O23 0.750000 0.221702 0.716907
O O24 0.250000 0.219814 0.881279
#
# Coordination Sequence:
#
# PCOD9403571 Si02
#       8
#     8   8   8   8   8   8   8   8
#     4  10  21  34  46  65  97 134 166 196 232 275
#     4  10  21  37  57  80 106 135 168 205 244 286
#     4   8  13  23  39  57  80 111 150 193 232 271
#     4  10  20  34  53  77 101 125 160 204 244 284
#     4  10  20  34  50  67  91 124 159 196 242 290
#     4   8  15  27  41  60  89 125 158 189 231 281
#     4  11  20  30  47  68  92 124 162 199 236 281
#     4  11  21  34  54  77 103 134 166 199 241 289
#
# _framework density 15.419138999999999
#
# number of rings (size 3 to 8) (size 9 to 14) (size 15 to 20)
#    0.000    2.250    1.250    3.375    0.000    4.000 
#    0.000    1.250    0.000    3.375    0.000    0.000 
#    0.000    0.500    0.000    1.125    0.000    2.000 
#
# Total GULP energy -356946.869949 kJ/mol
# GULP energy per Si atom -5577.294843 kJ/mol
# Density = 1.538404 g / cm^3
# Si number density = 15.419139 Si / 1000 Ang^3
#
#
#
# Elastic Constant Matrix: (Units=GPa)
#
#
# Indices 1 2 3 4 5 6 
#
# 1 51.2503 48.7845 56.5050 0.0000 0.0000 0.0000
# 2 48.7845 102.1046 79.4763 0.0000 0.0000 0.0000
# 3 56.5050 79.4763 150.3113 0.0000 0.0000 0.0000
# 4 0.0000 0.0000 0.0000 8.4190 0.0000 0.0000
# 5 0.0000 0.0000 0.0000 0.0000 23.4225 0.0000
# 6 0.0000 0.0000 0.0000 0.0000 0.0000 24.1451
#
#
#
# Elastic Compliance Matrix: (Units=1/GPa)
#
#
# Indices 1 2 3 4 5 6 
#
# 1 0.041565 -0.013080 -0.008709 0.000000 0.000000 0.000000
# 2 -0.013080 0.020760 -0.006060 0.000000 0.000000 0.000000
# 3 -0.008709 -0.006060 0.013131 0.000000 0.000000 0.000000
# 4 0.000000 0.000000 0.000000 0.118779 0.000000 0.000000
# 5 0.000000 0.000000 0.000000 0.000000 0.042694 0.000000
# 6 0.000000 0.000000 0.000000 0.000000 0.000000 0.041416
#
#
# Mechanical properties :
#
#
# Convention : Reuss Voigt Hill
#
# Bulk Modulus (GPa) = 50.61253 74.79975 62.70614
# Shear Modulus (GPa) = 14.67872 19.12402 16.90137
#
# Velocity S-wave (km/s) = 3.08877 3.52558 3.31438
# Velocity P-wave (km/s) = 6.75399 8.07398 7.44331
#
# Compressibility (1/GPa) = 0.01975795
#
# Stress axis : x y z
#
# Youngs Moduli (GPa) = 24.05871 48.16870 76.15721
#
# Poissons Ratio (x) = 0.63007 0.66324
# Poissons Ratio (y) = 0.31470 0.46149
# Poissons Ratio (z) = 0.20952 0.29189
#
# Static dielectric constant tensor:
#      x y z
#    x 1.517070 0.000000 0.000000 
#    y 0.000000 1.506550 0.000000 
#    z 0.000000 0.000000 1.503670 
# 
# From -- ./inp_files/37574.got.cif
#   From: 2010.05.17/outbox.cif.g08.bks.cpg/sg51_19_cif.got.tgz:37574.got - 2010.06.03 11:52:47.
