data_PCOD9403809
_publ_section_title
;
Structure prediction by ZEFSAII (Michael W. Deem and Ramdas Pophale) SiO2 
 PCOD9403809
Probable space group: P M M A
;
_chemical_formula_sum "Si O2"
_cell_formula_units_Z 40
_cell_length_a 8.856139
_cell_length_b 10.147580
_cell_length_c 25.294181
_cell_angle_alpha 90.000000
_cell_angle_beta 90.000000
_cell_angle_gamma 90.000000
_cell_volume 2273.147044
_symmetry_space_group_name_H-M "P M M A"
_symmetry_group_IT_number 51
_symmetry_cell_setting 'orthorhombic'
loop_
_space_group_symop_operation_xyz
x,y,z
1/2-x,-y,z
1/2+x,-y,-z
-x,y,-z
-x,-y,-z
1/2+x,y,-z
1/2-x,y,z
x,-y,z
loop_
_atom_site_type_symbol
_atom_site_label
_atom_site_fract_x
_atom_site_fract_y
_atom_site_fract_z
Si Si1 0.922856 0.160282 0.553814
Si Si2 0.065666 0.847580 0.329604
Si Si3 0.930903 0.000000 0.058739
Si Si4 0.431534 0.738202 0.876621
Si Si5 0.432709 0.344428 0.234072
Si Si6 0.430151 0.500000 0.057881
O O1 0.750000 0.204630 0.552616
O O2 0.988502 0.192900 0.611596
O O3 0.000000 0.206389 0.500000
O O4 0.923283 0.000000 0.552797
O O5 0.250000 0.849455 0.331895
O O6 0.023035 0.742862 0.284933
O O7 0.019733 0.000000 0.318561
O O8 0.971749 0.873453 0.093851
O O9 0.750000 0.000000 0.052149
O O10 0.000000 0.000000 0.000000
O O11 0.250000 0.724393 0.876615
O O12 0.493057 0.720600 0.817484
O O13 0.508613 0.624841 0.910707
O O14 0.250000 0.338781 0.229082
O O15 0.473494 0.500000 0.237876
O O16 0.250000 0.500000 0.055643
O O17 0.500000 0.500000 0.000000
#
# Coordination Sequence:
#
# PCOD9403809 Si02
#       6
#     8   8   4   8   8   4
#     4   8  13  23  41  65  94 127 165 211 262 315
#     4   8  15  28  47  72 101 135 174 217 267 317
#     4  10  24  42  60  84 112 142 175 212 263 322
#     4  11  23  40  59  82 113 146 178 219 269 319
#     4  10  20  34  53  78 105 136 181 224 261 314
#     4  12  24  40  62  88 112 140 181 222 263 316
#
# _framework density 17.59675
#
# number of rings (size 3 to 8) (size 9 to 14) (size 15 to 20)
#    0.000    2.400    1.000    3.300    1.400    3.200 
#    0.000    1.000    0.000    1.800    0.000    0.000 
#    0.000    0.000    0.000    0.000    0.000    0.000 
#
# Total GULP energy -222964.843446 kJ/mol
# GULP energy per Si atom -5574.121086 kJ/mol
# Density = 1.755670 g / cm^3
# Si number density = 17.596750 Si / 1000 Ang^3
#
#
#
# Elastic Constant Matrix: (Units=GPa)
#
#
# Indices 1 2 3 4 5 6 
#
# 1 37.4968 42.8894 53.8894 0.0000 0.0000 0.0000
# 2 42.8894 131.0623 97.4009 0.0000 0.0000 0.0000
# 3 53.8894 97.4009 215.2222 0.0000 0.0000 0.0000
# 4 0.0000 0.0000 0.0000 30.1610 0.0000 0.0000
# 5 0.0000 0.0000 0.0000 0.0000 31.1658 0.0000
# 6 0.0000 0.0000 0.0000 0.0000 0.0000 29.5352
#
#
#
# Elastic Compliance Matrix: (Units=1/GPa)
#
#
# Indices 1 2 3 4 5 6 
#
# 1 0.049830 -0.010599 -0.007680 0.000000 0.000000 0.000000
# 2 -0.010599 0.013751 -0.003569 0.000000 0.000000 0.000000
# 3 -0.007680 -0.003569 0.008185 0.000000 0.000000 0.000000
# 4 0.000000 0.000000 0.000000 0.033155 0.000000 0.000000
# 5 0.000000 0.000000 0.000000 0.000000 0.032086 0.000000
# 6 0.000000 0.000000 0.000000 0.000000 0.000000 0.033858
#
#
# Mechanical properties :
#
#
# Convention : Reuss Voigt Hill
#
# Bulk Modulus (GPa) = 35.62673 85.79341 60.71007
# Shear Modulus (GPa) = 22.32956 30.81253 26.57104
#
# Velocity S-wave (km/s) = 3.56611 4.18908 3.89008
# Velocity P-wave (km/s) = 6.10298 8.50052 7.39950
#
# Compressibility (1/GPa) = 0.02806881
#
# Stress axis : x y z
#
# Youngs Moduli (GPa) = 20.06823 72.72231 122.17861
#
# Poissons Ratio (x) = 0.77077 0.93837
# Poissons Ratio (y) = 0.21270 0.43609
# Poissons Ratio (z) = 0.15413 0.25957
#
# Static dielectric constant tensor:
#      x y z
#    x 1.599530 0.000000 0.000000 
#    y 0.000000 1.536820 0.000000 
#    z 0.000000 0.000000 1.601210 
# 
# From -- ./inp_files/36093.got.cif
#   From: 2010.05.17/outbox.cif.g08.bks.cpg/sg51_19_cif.got.tgz:36093.got - 2010.06.03 11:52:47.
