data_PCOD9403008
_publ_section_title
;
Structure prediction by ZEFSAII (Michael W. Deem and Ramdas Pophale) SiO2 
 PCOD9403008
Probable space group: P M M A
;
_chemical_formula_sum "Si O2"
_cell_formula_units_Z 48
_cell_length_a 10.459389
_cell_length_b 29.080152
_cell_length_c 8.543868
_cell_angle_alpha 90.000000
_cell_angle_beta 90.000000
_cell_angle_gamma 90.000000
_cell_volume 2598.708205
_symmetry_space_group_name_H-M "P M M A"
_symmetry_group_IT_number 51
_symmetry_cell_setting 'orthorhombic'
loop_
_space_group_symop_operation_xyz
x,y,z
1/2-x,-y,z
1/2+x,-y,-z
-x,y,-z
-x,-y,-z
1/2+x,y,-z
1/2-x,y,z
x,-y,z
loop_
_atom_site_type_symbol
_atom_site_label
_atom_site_fract_x
_atom_site_fract_y
_atom_site_fract_z
Si Si1 0.505384 0.053148 0.187846
Si Si2 0.750000 0.891261 0.303405
Si Si3 0.750000 0.215590 0.304978
Si Si4 0.400286 0.638349 0.358301
Si Si5 0.250000 0.900978 0.321253
Si Si6 0.105841 0.448201 0.132346
Si Si7 0.250000 0.794957 0.313804
Si Si8 0.990591 0.735561 0.691157
O O1 0.624189 0.083641 0.241466
O O2 0.375441 0.073194 0.260166
O O3 0.522339 0.000000 0.236727
O O4 0.500000 0.054282 0.000000
O O5 0.750000 0.837626 0.254722
O O6 0.750000 0.897016 0.491019
O O7 0.750000 0.210850 0.495835
O O8 0.625137 0.243972 0.255098
O O9 0.500000 0.633009 0.500000
O O10 0.250000 0.646417 0.404457
O O11 0.405239 0.592264 0.257096
O O12 0.450252 0.683709 0.267257
O O13 0.250000 0.847965 0.267040
O O14 0.250000 0.445569 0.065520
O O15 0.091444 0.500000 0.199511
O O16 0.000000 0.442584 0.000000
O O17 0.122681 0.769378 0.259594
O O18 0.000000 0.735406 0.500000
#
# Coordination Sequence:
#
# PCOD9403008 Si02
#       8
#     8   4   4   8   4   8   4   8
#     4  11  24  41  59  81 115 156 189 223 284 354
#     4  11  22  38  61  90 114 141 189 246 282 325
#     4   9  18  30  50  79 109 135 176 223 276 321
#     4  10  20  32  52  83 114 144 182 230 277 325
#     4  11  22  36  61  90 112 143 191 242 282 325
#     4   9  19  37  57  77 105 146 191 233 282 339
#     4   9  16  30  50  77 107 139 170 221 274 321
#     4   9  16  28  47  74 108 140 172 216 269 330
#
# _framework density 18.470714999999998
#
# number of rings (size 3 to 8) (size 9 to 14) (size 15 to 20)
#    0.000    2.167    0.833    2.500    3.500    7.000 
#    0.000    0.000    0.000    6.000    0.000    0.000 
#    0.000    0.000    0.000    0.000    0.000    0.000 
#
# Total GULP energy -267756.912513 kJ/mol
# GULP energy per Si atom -5578.269011 kJ/mol
# Density = 1.842867 g / cm^3
# Si number density = 18.470715 Si / 1000 Ang^3
#
#
#
# Elastic Constant Matrix: (Units=GPa)
#
#
# Indices 1 2 3 4 5 6 
#
# 1 194.2995 103.9593 32.1102 0.0000 0.0000 0.0000
# 2 103.9593 167.6070 34.1536 0.0000 0.0000 0.0000
# 3 32.1102 34.1536 22.8748 0.0000 0.0000 0.0000
# 4 0.0000 0.0000 0.0000 287.3036 0.0000 0.0000
# 5 0.0000 0.0000 0.0000 0.0000 22.7243 0.0000
# 6 0.0000 0.0000 0.0000 0.0000 0.0000 37.2552
#
#
#
# Elastic Compliance Matrix: (Units=1/GPa)
#
#
# Indices 1 2 3 4 5 6 
#
# 1 0.008175 -0.003927 -0.005613 0.000000 0.000000 0.000000
# 2 -0.003927 0.010462 -0.010107 0.000000 0.000000 0.000000
# 3 -0.005613 -0.010107 0.066686 0.000000 0.000000 0.000000
# 4 0.000000 0.000000 0.000000 0.003481 0.000000 0.000000
# 5 0.000000 0.000000 0.000000 0.000000 0.044006 0.000000
# 6 0.000000 0.000000 0.000000 0.000000 0.000000 0.026842
#
#
# Mechanical properties :
#
#
# Convention : Reuss Voigt Hill
#
# Bulk Modulus (GPa) = 21.72551 80.58082 51.15317
# Shear Modulus (GPa) = 23.33292 83.76049 53.54670
#
# Velocity S-wave (km/s) = 3.55806 6.74138 5.39008
# Velocity P-wave (km/s) = 5.35420 10.21351 8.15424
#
# Compressibility (1/GPa) = 0.04602883
#
# Stress axis : x y z
#
# Youngs Moduli (GPa) = 122.31691 95.58562 14.99560
#
# Poissons Ratio (x) = 0.37538 0.08417
# Poissons Ratio (y) = 0.48036 0.15157
# Poissons Ratio (z) = 0.68653 0.96613
#
# Static dielectric constant tensor:
#      x y z
#    x 1.617120 0.000000 0.000000 
#    y 0.000000 1.640620 0.000000 
#    z 0.000000 0.000000 1.617520 
# 
# From -- ./inp_files/6311.got.cif
#   From: 2010.05.17/outbox.cif.g08.bks.cpg/sg51_4_cif.got.tgz:6311.got - 2010.06.03 11:52:47.
