data_PCOD9403596
_publ_section_title
;
Structure prediction by ZEFSAII (Michael W. Deem and Ramdas Pophale) SiO2 
 PCOD9403596
Probable space group: P M M A
;
_chemical_formula_sum "Si O2"
_cell_formula_units_Z 52
_cell_length_a 12.003357
_cell_length_b 8.458171
_cell_length_c 29.664656
_cell_angle_alpha 90.000000
_cell_angle_beta 90.000000
_cell_angle_gamma 90.000000
_cell_volume 3011.747098
_symmetry_space_group_name_H-M "P M M A"
_symmetry_group_IT_number 51
_symmetry_cell_setting 'orthorhombic'
loop_
_space_group_symop_operation_xyz
x,y,z
1/2-x,-y,z
1/2+x,-y,-z
-x,y,-z
-x,-y,-z
1/2+x,y,-z
1/2-x,y,z
x,-y,z
loop_
_atom_site_type_symbol
_atom_site_label
_atom_site_fract_x
_atom_site_fract_y
_atom_site_fract_z
Si Si1 0.889344 0.000000 0.967162
Si Si2 0.621665 0.688637 0.805919
Si Si3 0.750000 0.176410 0.668834
Si Si4 0.984623 0.187200 0.550742
Si Si5 0.750000 0.680446 0.577683
Si Si6 0.484114 0.818693 0.280871
Si Si7 0.383747 0.319253 0.091060
Si Si8 0.876545 0.688519 0.364003
O O1 0.905762 0.165529 0.939702
O O2 0.750000 0.000000 0.979782
O O3 0.000000 0.000000 0.000000
O O4 0.750000 0.750870 0.800125
O O5 0.628688 0.500000 0.800648
O O6 0.535652 0.750452 0.768801
O O7 0.583700 0.718185 0.857213
O O8 0.750000 0.310522 0.631619
O O9 0.860466 0.187960 0.697908
O O10 0.750000 0.000000 0.647215
O O11 0.858777 0.228728 0.562468
O O12 0.000000 0.250784 0.500000
O O13 0.059498 0.253840 0.591271
O O14 0.003559 0.000000 0.549898
O O15 0.750000 0.500000 0.561919
O O16 0.562476 0.736645 0.317690
O O17 0.519587 0.000000 0.277595
O O18 0.250000 0.332624 0.092190
O O19 0.424441 0.500000 0.078943
O O20 0.750000 0.749382 0.364313
O O21 0.874938 0.500000 0.365880
#
# Coordination Sequence:
#
# PCOD9403596 Si02
#       8
#     4   8   4   8   4   8   8   8
#     4  10  20  34  56  84 116 158 204 254 303 356
#     4   9  17  29  49  79 115 149 183 228 283 338
#     4  10  20  34  50  80 116 142 168 208 262 320
#     4  11  25  43  63  85 109 139 174 216 268 327
#     4  12  24  38  62  86 112 140 168 216 268 316
#     4  11  21  33  54  82 112 144 178 218 268 331
#     4   8  16  31  50  79 117 154 192 240 297 352
#     4  11  25  43  60  79 106 142 184 228 272 326
#
# _framework density 17.265725
#
# number of rings (size 3 to 8) (size 9 to 14) (size 15 to 20)
#    0.000    1.846    2.308    3.000    2.154    3.385 
#    0.000    0.000    0.000    0.923    0.000    2.154 
#    0.000    0.000    0.000    0.000    0.000    0.000 
#
# Total GULP energy -289518.648776 kJ/mol
# GULP energy per Si atom -5567.666323 kJ/mol
# Density = 1.722643 g / cm^3
# Si number density = 17.265725 Si / 1000 Ang^3
#
#
#
# Elastic Constant Matrix: (Units=GPa)
#
#
# Indices 1 2 3 4 5 6 
#
# 1 96.0569 30.8006 53.6851 0.0000 0.0000 0.0000
# 2 30.8006 67.8481 60.5338 0.0000 0.0000 0.0000
# 3 53.6851 60.5338 116.7024 0.0000 0.0000 0.0000
# 4 0.0000 0.0000 0.0000 49.2243 0.0000 0.0000
# 5 0.0000 0.0000 0.0000 0.0000 53.3694 0.0000
# 6 0.0000 0.0000 0.0000 0.0000 0.0000 30.9946
#
#
#
# Elastic Compliance Matrix: (Units=1/GPa)
#
#
# Indices 1 2 3 4 5 6 
#
# 1 0.014060 -0.001140 -0.005877 0.000000 0.000000 0.000000
# 2 -0.001140 0.027528 -0.013755 0.000000 0.000000 0.000000
# 3 -0.005877 -0.013755 0.018407 0.000000 0.000000 0.000000
# 4 0.000000 0.000000 0.000000 0.020315 0.000000 0.000000
# 5 0.000000 0.000000 0.000000 0.000000 0.018737 0.000000
# 6 0.000000 0.000000 0.000000 0.000000 0.000000 0.032264
#
#
# Mechanical properties :
#
#
# Convention : Reuss Voigt Hill
#
# Bulk Modulus (GPa) = 54.19165 63.40514 58.79839
# Shear Modulus (GPa) = 27.93226 35.75686 31.84456
#
# Velocity S-wave (km/s) = 4.02654 4.55573 4.29928
# Velocity P-wave (km/s) = 7.28507 8.02968 7.66642
#
# Compressibility (1/GPa) = 0.01845303
#
# Stress axis : x y z
#
# Youngs Moduli (GPa) = 71.12145 36.32680 54.32764
#
# Poissons Ratio (x) = 0.04140 0.31928
# Poissons Ratio (y) = 0.08105 0.74725
# Poissons Ratio (z) = 0.41798 0.49966
#
# Static dielectric constant tensor:
#      x y z
#    x 1.571290 0.000000 0.000000 
#    y 0.000000 1.610620 0.000000 
#    z 0.000000 0.000000 1.635860 
# 
# From -- ./inp_files/36591.got.cif
#   From: 2010.05.17/outbox.cif.g08.bks.cpg/sg51_19_cif.got.tgz:36591.got - 2010.06.03 11:52:47.
