data_PCOD9403711
_publ_section_title
;
Structure prediction by ZEFSAII (Michael W. Deem and Ramdas Pophale) SiO2 
 PCOD9403711
Probable space group: P M M A
;
_chemical_formula_sum "Si O2"
_cell_formula_units_Z 64
_cell_length_a 8.742331
_cell_length_b 25.065508
_cell_length_c 15.708813
_cell_angle_alpha 90.000000
_cell_angle_beta 90.000000
_cell_angle_gamma 90.000000
_cell_volume 3442.287393
_symmetry_space_group_name_H-M "P M M A"
_symmetry_group_IT_number 51
_symmetry_cell_setting 'orthorhombic'
loop_
_space_group_symop_operation_xyz
x,y,z
1/2-x,-y,z
1/2+x,-y,-z
-x,y,-z
-x,-y,-z
1/2+x,y,-z
1/2-x,y,z
x,-y,z
loop_
_atom_site_type_symbol
_atom_site_label
_atom_site_fract_x
_atom_site_fract_y
_atom_site_fract_z
Si Si1 0.567156 0.561276 0.774379
Si Si2 0.567413 0.402692 0.586109
Si Si3 0.931734 0.358559 0.088683
Si Si4 0.567160 0.265844 0.813774
Si Si5 0.932857 0.143971 0.776505
Si Si6 0.932124 0.289459 0.367905
Si Si7 0.933682 0.825104 0.587408
Si Si8 0.932675 0.061755 0.091195
O O1 0.750000 0.571802 0.781286
O O2 0.538841 0.500000 0.798306
O O3 0.525118 0.569695 0.675323
O O4 0.480258 0.601720 0.835686
O O5 0.500000 0.427251 0.500000
O O6 0.750000 0.401975 0.580045
O O7 0.504552 0.342460 0.593437
O O8 0.750000 0.353650 0.084317
O O9 0.008159 0.301253 0.108885
O O10 0.000000 0.378910 0.000000
O O11 0.750000 0.272431 0.802387
O O12 0.534802 0.202713 0.815552
O O13 0.480157 0.288101 0.731016
O O14 0.750000 0.136468 0.779226
O O15 0.978072 0.146570 0.676537
O O16 0.011084 0.098985 0.832633
O O17 0.750000 0.289573 0.378311
O O18 0.002650 0.235105 0.404843
O O19 0.750000 0.823296 0.583809
O O20 0.000000 0.848695 0.500000
O O21 0.750000 0.063448 0.086241
O O22 0.980654 0.000000 0.104422
O O23 0.000000 0.079298 0.000000
#
# Coordination Sequence:
#
# PCOD9403711 Si02
#       8
#     8   8   8   8   8   8   8   8
#     4  10  23  44  66  85 111 148 188 237 292 343
#     4  11  22  36  57  83 115 149 187 233 282 339
#     4  12  25  41  64  90 116 150 189 233 287 346
#     4  10  20  37  58  84 119 153 188 232 284 342
#     4   9  20  36  57  85 118 156 194 237 289 340
#     4  11  20  32  53  81 113 150 191 231 280 337
#     4  10  20  34  52  79 116 156 197 240 287 337
#     4  10  21  37  59  86 116 152 195 243 292 342
#
# _framework density 18.592288
#
# number of rings (size 3 to 8) (size 9 to 14) (size 15 to 20)
#    0.000    1.625    1.250    4.875    0.000    5.500 
#    0.000    0.000    0.000    0.375    0.000    0.000 
#    0.000    0.000    0.000    0.000    0.000    0.000 
#
# Total GULP energy -357535.325416 kJ/mol
# GULP energy per Si atom -5586.489460 kJ/mol
# Density = 1.854997 g / cm^3
# Si number density = 18.592288 Si / 1000 Ang^3
#
#
#
# Elastic Constant Matrix: (Units=GPa)
#
#
# Indices 1 2 3 4 5 6 
#
# 1 66.1417 30.4675 46.9439 0.0000 0.0000 0.0000
# 2 30.4675 64.9174 50.1449 0.0000 0.0000 0.0000
# 3 46.9439 50.1449 122.1711 0.0000 0.0000 0.0000
# 4 0.0000 0.0000 0.0000 -1.9112 0.0000 0.0000
# 5 0.0000 0.0000 0.0000 0.0000 36.0019 0.0000
# 6 0.0000 0.0000 0.0000 0.0000 0.0000 14.6599
#
#
#
# Elastic Compliance Matrix: (Units=1/GPa)
#
#
# Indices 1 2 3 4 5 6 
#
# 1 0.022087 -0.005579 -0.006197 0.000000 0.000000 0.000000
# 2 -0.005579 0.023965 -0.007692 0.000000 0.000000 0.000000
# 3 -0.006197 -0.007692 0.013724 0.000000 0.000000 0.000000
# 4 0.000000 0.000000 0.000000 -0.523238 0.000000 0.000000
# 5 0.000000 0.000000 0.000000 0.000000 0.027776 0.000000
# 6 0.000000 0.000000 0.000000 0.000000 0.000000 0.068213
#
#
# Mechanical properties :
#
#
# Convention : Reuss Voigt Hill
#
# Bulk Modulus (GPa) = 47.98858 56.48252 52.23555
# Shear Modulus (GPa) = -15.54782 18.12839 1.29029
#
# Velocity S-wave (km/s) = -2.89494 3.12596 0.83396
# Velocity P-wave (km/s) = 3.83312 6.59351 5.39292
#
# Compressibility (1/GPa) = 0.02083829
#
# Stress axis : x y z
#
# Youngs Moduli (GPa) = 45.27452 41.72808 72.86650
#
# Poissons Ratio (x) = 0.23282 0.45155
# Poissons Ratio (y) = 0.25261 0.56052
# Poissons Ratio (z) = 0.28056 0.32099
#
# Static dielectric constant tensor:
#      x y z
#    x 1.610350 0.000000 0.000000 
#    y 0.000000 1.622060 0.000000 
#    z 0.000000 0.000000 1.697930 
# 
# From -- ./inp_files/22409.got.cif
#   From: 2010.05.17/outbox.cif.g08.bks.cpg/sg51_12_cif.got.tgz:22409.got - 2010.06.03 11:52:47.
