data_PCOD9403071
_publ_section_title
;
Structure prediction by ZEFSAII (Michael W. Deem and Ramdas Pophale) SiO2 
 PCOD9403071
Probable space group: P M M A
;
_chemical_formula_sum "Si O2"
_cell_formula_units_Z 48
_cell_length_a 18.883897
_cell_length_b 7.498497
_cell_length_c 16.942037
_cell_angle_alpha 90.000000
_cell_angle_beta 90.000000
_cell_angle_gamma 90.000000
_cell_volume 2399.006755
_symmetry_space_group_name_H-M "P M M A"
_symmetry_group_IT_number 51
_symmetry_cell_setting 'orthorhombic'
loop_
_space_group_symop_operation_xyz
x,y,z
1/2-x,-y,z
1/2+x,-y,-z
-x,y,-z
-x,-y,-z
1/2+x,y,-z
1/2-x,y,z
x,-y,z
loop_
_atom_site_type_symbol
_atom_site_label
_atom_site_fract_x
_atom_site_fract_y
_atom_site_fract_z
Si Si1 0.671091 0.708320 0.846680
Si Si2 0.920114 0.206176 0.996480
Si Si3 0.599478 0.284950 0.171749
Si Si4 0.044767 0.282220 0.255289
Si Si5 0.027446 0.282224 0.584790
Si Si6 0.328963 0.717601 0.667262
O O1 0.750000 0.785403 0.850765
O O2 0.678144 0.500000 0.827060
O O3 0.617791 0.784494 0.781119
O O4 0.630335 0.715282 0.929962
O O5 0.887326 0.220307 0.083680
O O6 0.927980 0.000000 0.974558
O O7 0.000000 0.284773 0.000000
O O8 0.601220 0.500000 0.169379
O O9 0.520568 0.229626 0.198836
O O10 0.650695 0.228815 0.243132
O O11 0.045218 0.500000 0.254748
O O12 0.024133 0.227962 0.343589
O O13 0.028087 0.500000 0.583647
O O14 0.106706 0.226258 0.610373
O O15 0.000000 0.221590 0.500000
O O16 0.250000 0.776577 0.646110
O O17 0.329307 0.500000 0.666588
#
# Coordination Sequence:
#
# PCOD9403071 Si02
#       6
#     8   8   8   8   8   8
#     4  10  20  33  49  67  89 123 165 201 233 272
#     4  11  22  33  47  69  96 124 155 194 240 286
#     4   9  16  28  48  66  85 121 160 191 227 273
#     4   8  14  26  43  62  85 116 154 191 223 266
#     4   8  13  22  38  61  90 123 151 177 224 282
#     4   8  14  24  39  62  89 115 150 193 229 268
#
# _framework density 20.008281
#
# number of rings (size 3 to 8) (size 9 to 14) (size 15 to 20)
#    0.000    3.000    1.667    2.500    0.000    1.667 
#    0.000    2.500    0.000    5.000    0.000    0.000 
#    0.000   16.667    0.000    1.333    0.000    0.667 
#
# Total GULP energy -267691.468938 kJ/mol
# GULP energy per Si atom -5576.905603 kJ/mol
# Density = 1.996274 g / cm^3
# Si number density = 20.008281 Si / 1000 Ang^3
#
#
#
# Elastic Constant Matrix: (Units=GPa)
#
#
# Indices 1 2 3 4 5 6 
#
# 1 177.5965 6.1407 96.4489 0.0000 0.0000 0.0000
# 2 6.1407 52.2382 -4.4319 0.0000 0.0000 0.0000
# 3 96.4489 -4.4319 158.5429 0.0000 0.0000 0.0000
# 4 0.0000 0.0000 0.0000 -46.0569 0.0000 0.0000
# 5 0.0000 0.0000 0.0000 0.0000 18.4084 0.0000
# 6 0.0000 0.0000 0.0000 0.0000 0.0000 -3.4275
#
#
#
# Elastic Compliance Matrix: (Units=1/GPa)
#
#
# Indices 1 2 3 4 5 6 
#
# 1 0.008516 -0.001444 -0.005221 0.000000 0.000000 0.000000
# 2 -0.001444 0.019433 0.001422 0.000000 0.000000 0.000000
# 3 -0.005221 0.001422 0.009523 0.000000 0.000000 0.000000
# 4 0.000000 0.000000 0.000000 -0.021712 0.000000 0.000000
# 5 0.000000 0.000000 0.000000 0.000000 0.054323 0.000000
# 6 0.000000 0.000000 0.000000 0.000000 0.000000 -0.291761
#
#
# Mechanical properties :
#
#
# Convention : Reuss Voigt Hill
#
# Bulk Modulus (GPa) = 37.05608 64.96587 51.01098
# Shear Modulus (GPa) = -24.72858 13.13280 -5.79789
#
# Velocity S-wave (km/s) = -3.51938 2.56475 -1.70412
# Velocity P-wave (km/s) = 1.43035 6.42733 4.65599
#
# Compressibility (1/GPa) = 0.02698612
#
# Stress axis : x y z
#
# Youngs Moduli (GPa) = 117.42381 51.45768 105.00407
#
# Poissons Ratio (x) = 0.07431 0.54824
# Poissons Ratio (y) = 0.16957 -0.14929
# Poissons Ratio (z) = 0.61309 -0.07316
#
# Static dielectric constant tensor:
#      x y z
#    x 1.720900 0.000000 0.000000 
#    y 0.000000 1.745350 0.000000 
#    z 0.000000 0.000000 1.674900 
# 
# From -- ./inp_files/30034.got.cif
#   From: 2010.05.17/outbox.cif.g08.bks.cpg/sg51_16_cif.got.tgz:30034.got - 2010.06.03 11:52:47.
