data_PCOD9403223
_publ_section_title
;
Structure prediction by ZEFSAII (Michael W. Deem and Ramdas Pophale) SiO2 
 PCOD9403223
Probable space group: P M M A
;
_chemical_formula_sum "Si O2"
_cell_formula_units_Z 48
_cell_length_a 9.100725
_cell_length_b 9.242422
_cell_length_c 32.113787
_cell_angle_alpha 90.000000
_cell_angle_beta 90.000000
_cell_angle_gamma 90.000000
_cell_volume 2701.178647
_symmetry_space_group_name_H-M "P M M A"
_symmetry_group_IT_number 51
_symmetry_cell_setting 'orthorhombic'
loop_
_space_group_symop_operation_xyz
x,y,z
1/2-x,-y,z
1/2+x,-y,-z
-x,y,-z
-x,-y,-z
1/2+x,y,-z
1/2-x,y,z
x,-y,z
loop_
_atom_site_type_symbol
_atom_site_label
_atom_site_fract_x
_atom_site_fract_y
_atom_site_fract_z
Si Si1 0.080154 0.676237 0.541553
Si Si2 0.572387 0.329647 0.366391
Si Si3 0.426393 0.170853 0.121067
Si Si4 0.071121 0.666474 0.205390
Si Si5 0.426868 0.169728 0.289335
Si Si6 0.075537 0.671941 0.956291
O O1 0.250000 0.718609 0.539032
O O2 0.075155 0.500000 0.541548
O O3 0.022607 0.718767 0.587247
O O4 0.000000 0.727453 0.500000
O O5 0.750000 0.318471 0.365454
O O6 0.535987 0.500000 0.361294
O O7 0.501323 0.239064 0.329633
O O8 0.250000 0.190753 0.116650
O O9 0.473734 0.249901 0.163641
O O10 0.505933 0.240658 0.081663
O O11 0.455001 0.000000 0.123882
O O12 0.250000 0.666962 0.205551
O O13 0.022389 0.500000 0.204910
O O14 0.024754 0.747360 0.247460
O O15 0.250000 0.185006 0.292711
O O16 0.460464 0.000000 0.285907
O O17 0.250000 0.695469 0.958809
O O18 0.049600 0.500000 0.949747
O O19 0.000000 0.712092 0.000000
#
# Coordination Sequence:
#
# PCOD9403223 Si02
#       6
#     8   8   8   8   8   8
#     4   8  14  25  42  66  95 124 156 198 247 296
#     4   9  18  32  49  71 100 132 166 205 250 301
#     4  10  20  34  54  80 109 140 172 208 254 306
#     4   9  17  31  53  78 103 133 169 209 253 300
#     4  10  20  33  50  74 103 133 168 210 252 297
#     4  10  21  37  57  80 106 138 177 219 260 302
#
# _framework density 17.770019999999999
#
# number of rings (size 3 to 8) (size 9 to 14) (size 15 to 20)
#    0.000    2.667    0.000    3.000    0.000    6.333 
#    0.000    2.500    0.000    5.500    0.000    0.000 
#    0.000    0.000    0.000    0.000    0.000    0.000 
#
# Total GULP energy -267697.686455 kJ/mol
# GULP energy per Si atom -5577.035134 kJ/mol
# Density = 1.772957 g / cm^3
# Si number density = 17.770020 Si / 1000 Ang^3
#
#
#
# Elastic Constant Matrix: (Units=GPa)
#
#
# Indices 1 2 3 4 5 6 
#
# 1 28.1260 47.0399 61.2956 0.0000 0.0000 0.0000
# 2 47.0399 102.8162 106.2137 0.0000 0.0000 0.0000
# 3 61.2956 106.2137 224.7644 0.0000 0.0000 0.0000
# 4 0.0000 0.0000 0.0000 -12.2274 0.0000 0.0000
# 5 0.0000 0.0000 0.0000 0.0000 34.0643 0.0000
# 6 0.0000 0.0000 0.0000 0.0000 0.0000 21.0703
#
#
#
# Elastic Compliance Matrix: (Units=1/GPa)
#
#
# Indices 1 2 3 4 5 6 
#
# 1 0.192223 -0.066021 -0.021223 0.000000 0.000000 0.000000
# 2 -0.066021 0.041678 -0.001691 0.000000 0.000000 0.000000
# 3 -0.021223 -0.001691 0.011036 0.000000 0.000000 0.000000
# 4 0.000000 0.000000 0.000000 -0.081784 0.000000 0.000000
# 5 0.000000 0.000000 0.000000 0.000000 0.029356 0.000000
# 6 0.000000 0.000000 0.000000 0.000000 0.000000 0.047460
#
#
# Mechanical properties :
#
#
# Convention : Reuss Voigt Hill
#
# Bulk Modulus (GPa) = 14.91011 87.20056 51.05534
# Shear Modulus (GPa) = 11.35862 17.99194 14.67528
#
# Velocity S-wave (km/s) = 2.53099 3.18541 2.87687
# Velocity P-wave (km/s) = 4.11704 7.91880 6.31100
#
# Compressibility (1/GPa) = 0.06706859
#
# Stress axis : x y z
#
# Youngs Moduli (GPa) = 5.20228 23.99348 90.61488
#
# Poissons Ratio (x) = 1.58407 1.92311
# Poissons Ratio (y) = 0.34346 0.15319
# Poissons Ratio (z) = 0.11041 0.04056
#
# Static dielectric constant tensor:
#      x y z
#    x 1.597010 0.000000 0.000000 
#    y 0.000000 1.590100 0.000000 
#    z 0.000000 0.000000 1.593650 
# 
# From -- ./inp_files/36914.got.cif
#   From: 2010.05.17/outbox.cif.g08.bks.cpg/sg51_19_cif.got.tgz:36914.got - 2010.06.03 11:52:47.
