data_PCOD9403045
_publ_section_title
;
Structure prediction by ZEFSAII (Michael W. Deem and Ramdas Pophale) SiO2 
 PCOD9403045
Probable space group: P M M A
;
_chemical_formula_sum "Si O2"
_cell_formula_units_Z 56
_cell_length_a 25.631925
_cell_length_b 9.105543
_cell_length_c 15.619752
_cell_angle_alpha 90.000000
_cell_angle_beta 90.000000
_cell_angle_gamma 90.000000
_cell_volume 3645.534457
_symmetry_space_group_name_H-M "P M M A"
_symmetry_group_IT_number 51
_symmetry_cell_setting 'orthorhombic'
loop_
_space_group_symop_operation_xyz
x,y,z
1/2-x,-y,z
1/2+x,-y,-z
-x,y,-z
-x,-y,-z
1/2+x,y,-z
1/2-x,y,z
x,-y,z
loop_
_atom_site_type_symbol
_atom_site_label
_atom_site_fract_x
_atom_site_fract_y
_atom_site_fract_z
Si Si1 0.812512 0.172855 0.714591
Si Si2 0.686502 0.830352 0.060705
Si Si3 0.107939 0.177758 0.604500
Si Si4 0.112559 0.325221 0.418743
Si Si5 0.686542 0.332012 0.889683
Si Si6 0.190092 0.821087 0.749216
Si Si7 0.991981 0.832508 0.603100
O O1 0.750000 0.191537 0.705981
O O2 0.842582 0.260741 0.641531
O O3 0.828104 0.235189 0.807674
O O4 0.824093 0.000000 0.708452
O O5 0.750000 0.830983 0.060611
O O6 0.672210 0.775014 0.155579
O O7 0.669994 0.000000 0.050601
O O8 0.668821 0.736024 0.979813
O O9 0.116813 0.255057 0.513499
O O10 0.151072 0.221636 0.673893
O O11 0.049093 0.211423 0.636458
O O12 0.109876 0.000000 0.592135
O O13 0.114720 0.500000 0.423634
O O14 0.056764 0.271968 0.381037
O O15 0.750000 0.331733 0.892061
O O16 0.669498 0.500000 0.879230
O O17 0.250000 0.773303 0.734596
O O18 0.190845 0.000000 0.751573
O O19 0.000000 0.834787 0.500000
O O20 0.979813 0.000000 0.629642
#
# Coordination Sequence:
#
# PCOD9403045 Si02
#       7
#     8   8   8   8   8   8   8
#     4  10  20  33  48  65  87 117 150 180 214 263
#     4   8  13  23  40  61  85 114 147 179 210 249
#     4   9  17  30  47  66  89 119 155 191 223 256
#     4  11  21  31  45  65  90 117 146 184 227 269
#     4   9  16  26  41  62  88 115 143 178 217 254
#     4   8  14  25  43  67  92 118 150 184 215 253
#     4   8  15  29  47  64  83 110 149 193 227 258
#
# _framework density 15.361259
#
# number of rings (size 3 to 8) (size 9 to 14) (size 15 to 20)
#    0.000    3.000    0.000    3.857    0.000    5.714 
#    0.000    2.143    0.000    0.857    0.000    1.000 
#    0.000    8.000    0.000    0.000    0.000    0.000 
#
# Total GULP energy -311775.785514 kJ/mol
# GULP energy per Si atom -5567.424741 kJ/mol
# Density = 1.532630 g / cm^3
# Si number density = 15.361259 Si / 1000 Ang^3
#
#
#
# Elastic Constant Matrix: (Units=GPa)
#
#
# Indices 1 2 3 4 5 6 
#
# 1 46.8617 38.3290 42.1918 0.0000 0.0000 0.0000
# 2 38.3290 77.8261 51.6483 0.0000 0.0000 0.0000
# 3 42.1918 51.6483 96.0264 0.0000 0.0000 0.0000
# 4 0.0000 0.0000 0.0000 3.0887 0.0000 0.0000
# 5 0.0000 0.0000 0.0000 0.0000 -1.8778 0.0000
# 6 0.0000 0.0000 0.0000 0.0000 0.0000 11.6294
#
#
#
# Elastic Compliance Matrix: (Units=1/GPa)
#
#
# Indices 1 2 3 4 5 6 
#
# 1 0.042665 -0.013330 -0.011577 0.000000 0.000000 0.000000
# 2 -0.013330 0.024146 -0.007130 0.000000 0.000000 0.000000
# 3 -0.011577 -0.007130 0.019335 0.000000 0.000000 0.000000
# 4 0.000000 0.000000 0.000000 0.323766 0.000000 0.000000
# 5 0.000000 0.000000 0.000000 0.000000 -0.532528 0.000000
# 6 0.000000 0.000000 0.000000 0.000000 0.000000 0.085989
#
#
# Mechanical properties :
#
#
# Convention : Reuss Voigt Hill
#
# Bulk Modulus (GPa) = 45.30384 53.89470 49.59927
# Shear Modulus (GPa) = 143.66585 8.47106 76.06846
#
# Velocity S-wave (km/s) = 9.68131 2.35086 7.04466
# Velocity P-wave (km/s) = 12.43088 6.52148 9.92614
#
# Compressibility (1/GPa) = 0.02207318
#
# Stress axis : x y z
#
# Youngs Moduli (GPa) = 23.43854 41.41509 51.71880
#
# Poissons Ratio (x) = 0.55204 0.59873
# Poissons Ratio (y) = 0.31243 0.36877
# Poissons Ratio (z) = 0.27134 0.29530
#
# Static dielectric constant tensor:
#      x y z
#    x 1.513550 0.000000 0.000000 
#    y 0.000000 1.512660 0.000000 
#    z 0.000000 0.000000 1.508290 
# 
# From -- ./inp_files/26552.got.cif
#   From: 2010.05.17/outbox.cif.g08.bks.cpg/sg51_14_cif.got.tgz:26552.got - 2010.06.03 11:52:47.
