data_PCOD9403802
_publ_section_title
;
Structure prediction by ZEFSAII (Michael W. Deem and Ramdas Pophale) SiO2 
 PCOD9403802
Probable space group: P M M A
;
_chemical_formula_sum "Si O2"
_cell_formula_units_Z 48
_cell_length_a 9.822906
_cell_length_b 29.578684
_cell_length_c 8.993054
_cell_angle_alpha 90.000000
_cell_angle_beta 90.000000
_cell_angle_gamma 90.000000
_cell_volume 2612.919542
_symmetry_space_group_name_H-M "P M M A"
_symmetry_group_IT_number 51
_symmetry_cell_setting 'orthorhombic'
loop_
_space_group_symop_operation_xyz
x,y,z
1/2-x,-y,z
1/2+x,-y,-z
-x,y,-z
-x,-y,-z
1/2+x,y,-z
1/2-x,y,z
x,-y,z
loop_
_atom_site_type_symbol
_atom_site_label
_atom_site_fract_x
_atom_site_fract_y
_atom_site_fract_z
Si Si1 0.250000 0.552631 0.690419
Si Si2 0.496928 0.387431 0.318620
Si Si3 0.089030 0.054359 0.853405
Si Si4 0.912761 0.884175 0.645646
Si Si5 0.913566 0.710425 0.651047
Si Si6 0.405671 0.797206 0.142187
Si Si7 0.250000 0.448897 0.327251
O O1 0.250000 0.500000 0.740446
O O2 0.374691 0.584377 0.733836
O O3 0.250000 0.549946 0.508692
O O4 0.500000 0.385356 0.500000
O O5 0.469612 0.335823 0.275057
O O6 0.375997 0.420087 0.276130
O O7 0.250000 0.069121 0.859375
O O8 0.999975 0.075617 0.721013
O O9 0.091434 0.000000 0.841763
O O10 0.000000 0.066163 0.000000
O O11 0.750000 0.894059 0.619765
O O12 0.918758 0.841734 0.756966
O O13 0.000000 0.872145 0.500000
O O14 0.750000 0.705031 0.620604
O O15 0.933011 0.753348 0.756572
O O16 0.000000 0.717170 0.500000
O O17 0.250000 0.794254 0.090940
O O18 0.500000 0.799551 0.000000
O O19 0.250000 0.500000 0.275183
#
# Coordination Sequence:
#
# PCOD9403802 Si02
#       7
#     4   8   8   8   8   8   4
#     4   9  16  24  36  58  93 133 171 209 252 311
#     4   9  16  25  39  61  94 131 169 210 257 314
#     4  10  21  38  61  89 123 163 205 247 291 339
#     4  11  23  39  61  88 120 155 195 241 291 346
#     4  10  20  34  53  77 107 139 177 221 270 328
#     4  10  23  41  59  83 111 143 184 230 281 337
#     4   9  14  22  36  58  89 131 169 203 252 311
#
# _framework density 18.370255
#
# number of rings (size 3 to 8) (size 9 to 14) (size 15 to 20)
#    0.000    2.167    0.833    2.500    3.500    6.667 
#    0.000    0.000    0.000    0.000    0.000    0.000 
#    0.000    4.000    0.000    0.000    0.000    0.000 
#
# Total GULP energy -267418.898264 kJ/mol
# GULP energy per Si atom -5571.227047 kJ/mol
# Density = 1.832844 g / cm^3
# Si number density = 18.370255 Si / 1000 Ang^3
#
#
#
# Elastic Constant Matrix: (Units=GPa)
#
#
# Indices 1 2 3 4 5 6 
#
# 1 180.3191 53.5207 57.6212 0.0000 0.0000 0.0000
# 2 53.5207 63.2485 24.9929 0.0000 0.0000 0.0000
# 3 57.6212 24.9929 58.2173 0.0000 0.0000 0.0000
# 4 0.0000 0.0000 0.0000 -11.9182 0.0000 0.0000
# 5 0.0000 0.0000 0.0000 0.0000 23.8957 0.0000
# 6 0.0000 0.0000 0.0000 0.0000 0.0000 -92.9354
#
#
#
# Elastic Compliance Matrix: (Units=1/GPa)
#
#
# Indices 1 2 3 4 5 6 
#
# 1 0.009301 -0.005098 -0.007018 0.000000 0.000000 0.000000
# 2 -0.005098 0.021835 -0.004328 0.000000 0.000000 0.000000
# 3 -0.007018 -0.004328 0.025981 0.000000 0.000000 0.000000
# 4 0.000000 0.000000 0.000000 -0.083905 0.000000 0.000000
# 5 0.000000 0.000000 0.000000 0.000000 0.041848 0.000000
# 6 0.000000 0.000000 0.000000 0.000000 0.000000 -0.010760
#
#
# Mechanical properties :
#
#
# Convention : Reuss Voigt Hill
#
# Bulk Modulus (GPa) = 41.27142 63.78383 52.52763
# Shear Modulus (GPa) = 110.46533 -5.14822 52.65855
#
# Velocity S-wave (km/s) = 7.76294 -1.67588 5.35979
# Velocity P-wave (km/s) = 10.14230 5.57242 8.18285
#
# Compressibility (1/GPa) = 0.02422984
#
# Stress axis : x y z
#
# Youngs Moduli (GPa) = 107.51255 45.79893 38.48988
#
# Poissons Ratio (x) = 0.23347 0.27011
# Poissons Ratio (y) = 0.54806 0.16659
# Poissons Ratio (z) = 0.75448 0.19823
#
# Static dielectric constant tensor:
#      x y z
#    x 1.750540 0.000000 0.000000 
#    y 0.000000 1.625810 0.000000 
#    z 0.000000 0.000000 1.631000 
# 
# From -- ./inp_files/6287.got.cif
#   From: 2010.05.17/outbox.cif.g08.bks.cpg/sg51_4_cif.got.tgz:6287.got - 2010.06.03 11:52:47.
