data_PCOD9403759
_publ_section_title
;
Structure prediction by ZEFSAII (Michael W. Deem and Ramdas Pophale) SiO2 
 PCOD9403759
Probable space group: P M M A
;
_chemical_formula_sum "Si O2"
_cell_formula_units_Z 44
_cell_length_a 9.009306
_cell_length_b 18.001040
_cell_length_c 14.808205
_cell_angle_alpha 90.000000
_cell_angle_beta 90.000000
_cell_angle_gamma 90.000000
_cell_volume 2401.548451
_symmetry_space_group_name_H-M "P M M A"
_symmetry_group_IT_number 51
_symmetry_cell_setting 'orthorhombic'
loop_
_space_group_symop_operation_xyz
x,y,z
1/2-x,-y,z
1/2+x,-y,-z
-x,y,-z
-x,-y,-z
1/2+x,y,-z
1/2-x,y,z
x,-y,z
loop_
_atom_site_type_symbol
_atom_site_label
_atom_site_fract_x
_atom_site_fract_y
_atom_site_fract_z
Si Si1 0.070757 0.353058 0.213202
Si Si2 0.571875 0.224670 0.097020
Si Si3 0.572349 0.500000 0.901760
Si Si4 0.430947 0.084710 0.789236
Si Si5 0.079817 0.090580 0.590632
Si Si6 0.928202 0.587242 0.593571
O O1 0.250000 0.343344 0.209153
O O2 0.033557 0.426798 0.155460
O O3 0.028362 0.367845 0.317107
O O4 0.988719 0.284446 0.167921
O O5 0.750000 0.228919 0.090900
O O6 0.528400 0.143414 0.134715
O O7 0.500000 0.238792 0.000000
O O8 0.750000 0.500000 0.912520
O O9 0.500000 0.500000 0.000000
O O10 0.250000 0.083268 0.784041
O O11 0.483383 0.110106 0.689300
O O12 0.479780 0.000000 0.806040
O O13 0.250000 0.114990 0.586559
O O14 0.000000 0.116384 0.500000
O O15 0.078725 0.000000 0.589851
O O16 0.750000 0.590404 0.586169
O O17 0.968267 0.500000 0.606700
O O18 0.000000 0.612815 0.500000
#
# Coordination Sequence:
#
# PCOD9403759 Si02
#       6
#     8   8   4   8   8   8
#     4  10  20  37  57  78 109 144 178 218 265 315
#     4  11  23  38  56  78 105 138 178 225 278 330
#     4  10  20  34  53  76 102 136 177 218 259 308
#     4   8  16  33  55  76 101 137 178 218 265 324
#     4   8  13  24  45  72  99 127 160 200 248 301
#     4   9  17  32  55  82 111 144 180 219 262 309
#
# _framework density 18.321512999999999
#
# number of rings (size 3 to 8) (size 9 to 14) (size 15 to 20)
#    0.000    2.727    0.909    2.182    0.000    3.273 
#    0.000    2.727    0.000    8.182    0.000    0.000 
#    0.000    0.000    0.000    0.000    0.000    0.000 
#
# Total GULP energy -245306.286858 kJ/mol
# GULP energy per Si atom -5575.142883 kJ/mol
# Density = 1.827981 g / cm^3
# Si number density = 18.321513 Si / 1000 Ang^3
#
#
#
# Elastic Constant Matrix: (Units=GPa)
#
#
# Indices 1 2 3 4 5 6 
#
# 1 26.1290 27.4091 44.4181 0.0000 0.0000 0.0000
# 2 27.4091 78.7262 60.7125 0.0000 0.0000 0.0000
# 3 44.4181 60.7125 170.1883 0.0000 0.0000 0.0000
# 4 0.0000 0.0000 0.0000 29.4389 0.0000 0.0000
# 5 0.0000 0.0000 0.0000 0.0000 29.6964 0.0000
# 6 0.0000 0.0000 0.0000 0.0000 0.0000 16.6687
#
#
#
# Elastic Compliance Matrix: (Units=1/GPa)
#
#
# Indices 1 2 3 4 5 6 
#
# 1 0.082014 -0.016618 -0.015477 0.000000 0.000000 0.000000
# 2 -0.016618 0.020890 -0.003115 0.000000 0.000000 0.000000
# 3 -0.015477 -0.003115 0.011026 0.000000 0.000000 0.000000
# 4 0.000000 0.000000 0.000000 0.033969 0.000000 0.000000
# 5 0.000000 0.000000 0.000000 0.000000 0.033674 0.000000
# 6 0.000000 0.000000 0.000000 0.000000 0.000000 0.059993
#
#
# Mechanical properties :
#
#
# Convention : Reuss Voigt Hill
#
# Bulk Modulus (GPa) = 22.98297 60.01365 41.49831
# Shear Modulus (GPa) = 15.31440 24.66104 19.98772
#
# Velocity S-wave (km/s) = 2.89428 3.67279 3.30653
# Velocity P-wave (km/s) = 4.87243 7.12831 6.10546
#
# Compressibility (1/GPa) = 0.04351048
#
# Stress axis : x y z
#
# Youngs Moduli (GPa) = 12.19305 47.86904 90.69094
#
# Poissons Ratio (x) = 0.79550 1.40360
# Poissons Ratio (y) = 0.20263 0.28251
# Poissons Ratio (z) = 0.18871 0.14912
#
# Static dielectric constant tensor:
#      x y z
#    x 1.619690 0.000000 0.000000 
#    y 0.000000 1.632710 0.000000 
#    z 0.000000 0.000000 1.633440 
# 
# From -- ./inp_files/20963.got.cif
#   From: 2010.05.17/outbox.cif.g08.bks.cpg/sg51_11_cif.got.tgz:20963.got - 2010.06.03 11:52:47.
