data_PCOD9403707
_publ_section_title
;
Structure prediction by ZEFSAII (Michael W. Deem and Ramdas Pophale) SiO2 
 PCOD9403707
Probable space group: P M M A
;
_chemical_formula_sum "Si O2"
_cell_formula_units_Z 64
_cell_length_a 8.543331
_cell_length_b 28.541652
_cell_length_c 13.582182
_cell_angle_alpha 90.000000
_cell_angle_beta 90.000000
_cell_angle_gamma 90.000000
_cell_volume 3311.889857
_symmetry_space_group_name_H-M "P M M A"
_symmetry_group_IT_number 51
_symmetry_cell_setting 'orthorhombic'
loop_
_space_group_symop_operation_xyz
x,y,z
1/2-x,-y,z
1/2+x,-y,-z
-x,y,-z
-x,-y,-z
1/2+x,y,-z
1/2-x,y,z
x,-y,z
loop_
_atom_site_type_symbol
_atom_site_label
_atom_site_fract_x
_atom_site_fract_y
_atom_site_fract_z
Si Si1 0.064086 0.555954 0.108614
Si Si2 0.427846 0.056710 0.397471
Si Si3 0.062973 0.702184 0.390870
Si Si4 0.568521 0.221291 0.239809
Si Si5 0.065544 0.945506 0.813950
Si Si6 0.932888 0.854379 0.893616
Si Si7 0.435534 0.632284 0.756820
Si Si8 0.569550 0.293138 0.898482
O O1 0.250000 0.565667 0.112091
O O2 0.041040 0.500000 0.115457
O O3 0.978422 0.581421 0.200133
O O4 0.000000 0.570561 0.000000
O O5 0.500000 0.074356 0.500000
O O6 0.250000 0.073670 0.383992
O O7 0.528892 0.065824 0.300528
O O8 0.421277 0.000000 0.405470
O O9 0.750000 0.696949 0.611163
O O10 0.017023 0.747220 0.322722
O O11 0.981599 0.654554 0.348598
O O12 0.000000 0.710620 0.500000
O O13 0.750000 0.218240 0.265301
O O14 0.504678 0.171707 0.202110
O O15 0.538825 0.251933 0.141878
O O16 0.250000 0.939965 0.832640
O O17 0.970343 0.909131 0.879116
O O18 0.022675 0.000000 0.829975
O O19 0.750000 0.845223 0.893955
O O20 0.000000 0.839443 0.000000
O O21 0.250000 0.640550 0.771613
O O22 0.545153 0.664669 0.824368
O O23 0.750000 0.278788 0.903335
O O24 0.500000 0.309339 0.000000
#
# Coordination Sequence:
#
# PCOD9403707 Si02
#       8
#     8   8   8   8   8   8   8   8
#     4  10  20  34  52  77 113 158 205 253 305 359
#     4   9  16  28  49  77 107 139 174 215 264 315
#     4  11  22  40  64  91 120 152 190 233 286 344
#     4  11  22  39  60  85 114 145 182 224 275 334
#     4  10  21  38  59  84 114 149 191 238 285 334
#     4  12  25  42  62  85 114 150 189 230 279 335
#     4  11  21  34  53  80 112 149 194 242 292 345
#     4  11  20  32  50  76 109 144 182 226 277 334
#
# _framework density 19.324314000000001
#
# number of rings (size 3 to 8) (size 9 to 14) (size 15 to 20)
#    0.000    1.375    0.000    9.000    0.000    3.250 
#    0.000    0.625    0.000    0.375    0.000    0.000 
#    0.000    0.000    0.000    0.000    0.000    0.000 
#
# Total GULP energy -357067.178175 kJ/mol
# GULP energy per Si atom -5579.174659 kJ/mol
# Density = 1.928033 g / cm^3
# Si number density = 19.324314 Si / 1000 Ang^3
#
#
#
# Elastic Constant Matrix: (Units=GPa)
#
#
# Indices 1 2 3 4 5 6 
#
# 1 106.4621 28.3839 30.0768 0.0000 0.0000 0.0000
# 2 28.3839 70.4152 24.9350 0.0000 0.0000 0.0000
# 3 30.0768 24.9350 80.9942 0.0000 0.0000 0.0000
# 4 0.0000 0.0000 0.0000 21.3279 0.0000 0.0000
# 5 0.0000 0.0000 0.0000 0.0000 30.6641 0.0000
# 6 0.0000 0.0000 0.0000 0.0000 0.0000 504.6613
#
#
#
# Elastic Compliance Matrix: (Units=1/GPa)
#
#
# Indices 1 2 3 4 5 6 
#
# 1 0.011178 -0.003407 -0.003102 0.000000 0.000000 0.000000
# 2 -0.003407 0.016978 -0.003962 0.000000 0.000000 0.000000
# 3 -0.003102 -0.003962 0.014718 0.000000 0.000000 0.000000
# 4 0.000000 0.000000 0.000000 0.046887 0.000000 0.000000
# 5 0.000000 0.000000 0.000000 0.000000 0.032611 0.000000
# 6 0.000000 0.000000 0.000000 0.000000 0.000000 0.001982
#
#
# Mechanical properties :
#
#
# Convention : Reuss Voigt Hill
#
# Bulk Modulus (GPa) = 45.59493 47.18476 46.38985
# Shear Modulus (GPa) = 32.76425 122.96239 77.86332
#
# Velocity S-wave (km/s) = 4.12210 7.98555 6.35456
# Velocity P-wave (km/s) = 6.80452 10.46402 8.82602
#
# Compressibility (1/GPa) = 0.02193226
#
# Stress axis : x y z
#
# Youngs Moduli (GPa) = 89.46363 58.90060 67.94396
#
# Poissons Ratio (x) = 0.20069 0.21075
# Poissons Ratio (y) = 0.30483 0.26916
# Poissons Ratio (z) = 0.27750 0.23334
#
# Static dielectric constant tensor:
#      x y z
#    x 1.654020 0.000000 0.000000 
#    y 0.000000 1.747310 0.000000 
#    z 0.000000 0.000000 1.642440 
# 
# From -- ./inp_files/14822.got.cif
#   From: 2010.05.17/outbox.cif.g08.bks.cpg/sg51_8_cif.got.tgz:14822.got - 2010.06.03 11:52:47.
