data_PCOD9403303
_publ_section_title
;
Structure prediction by ZEFSAII (Michael W. Deem and Ramdas Pophale) SiO2 
 PCOD9403303
Probable space group: P M M A
;
_chemical_formula_sum "Si O2"
_cell_formula_units_Z 64
_cell_length_a 18.198239
_cell_length_b 7.985900
_cell_length_c 23.939913
_cell_angle_alpha 90.000000
_cell_angle_beta 90.000000
_cell_angle_gamma 90.000000
_cell_volume 3479.171201
_symmetry_space_group_name_H-M "P M M A"
_symmetry_group_IT_number 51
_symmetry_cell_setting 'orthorhombic'
loop_
_space_group_symop_operation_xyz
x,y,z
1/2-x,-y,z
1/2+x,-y,-z
-x,y,-z
-x,-y,-z
1/2+x,y,-z
1/2-x,y,z
x,-y,z
loop_
_atom_site_type_symbol
_atom_site_label
_atom_site_fract_x
_atom_site_fract_y
_atom_site_fract_z
Si Si1 0.943936 0.302893 0.868851
Si Si2 0.925704 0.192127 0.537505
Si Si3 0.333850 0.794377 0.564697
Si Si4 0.976306 0.199885 0.367508
Si Si5 0.021593 0.302911 0.758914
Si Si6 0.331806 0.201638 0.819030
Si Si7 0.667465 0.800515 0.956798
Si Si8 0.588825 0.798307 0.067509
O O1 0.932563 0.500000 0.862756
O O2 0.873170 0.228194 0.898548
O O3 0.969728 0.233246 0.808667
O O4 0.012303 0.273941 0.910788
O O5 0.863698 0.263159 0.496249
O O6 0.000000 0.186644 0.500000
O O7 0.956551 0.269963 0.594732
O O8 0.902702 0.000000 0.549011
O O9 0.250000 0.741699 0.575845
O O10 0.396765 0.740803 0.609052
O O11 0.334020 0.000000 0.564426
O O12 0.986526 0.229471 0.302378
O O13 0.976355 0.000000 0.377400
O O14 0.008084 0.500000 0.754966
O O15 0.104379 0.274800 0.780811
O O16 0.250000 0.260735 0.805836
O O17 0.352643 0.237440 0.883397
O O18 0.333814 0.000000 0.812773
O O19 0.750000 0.732170 0.957973
O O20 0.671985 0.000000 0.965786
O O21 0.618472 0.735175 0.008380
O O22 0.578902 0.000000 0.064567
#
# Coordination Sequence:
#
# PCOD9403303 Si02
#       8
#     8   8   8   8   8   8   8   8
#     4  10  21  35  49  67  93 126 163 197 229 273
#     4   7  11  21  38  61  88 115 141 172 213 257
#     4   8  13  22  40  68  97 118 139 175 222 268
#     4   9  16  27  45  67  88 115 153 189 220 262
#     4  10  21  34  46  63  90 125 162 197 232 267
#     4   9  17  30  48  68  91 121 155 188 224 273
#     4  10  20  33  51  75  98 118 145 188 243 295
#     4   9  17  31  51  73  96 121 149 185 233 286
#
# _framework density 18.395185000000001
#
# number of rings (size 3 to 8) (size 9 to 14) (size 15 to 20)
#    0.000    3.000    0.000    3.000    0.000    6.000 
#    0.000    1.250    0.000    6.375    0.000    1.750 
#    0.000    0.000    0.000    0.000    0.000    0.000 
#
# Total GULP energy -356490.347388 kJ/mol
# GULP energy per Si atom -5570.161678 kJ/mol
# Density = 1.835332 g / cm^3
# Si number density = 18.395185 Si / 1000 Ang^3
#
#
#
# Elastic Constant Matrix: (Units=GPa)
#
#
# Indices 1 2 3 4 5 6 
#
# 1 34.8407 0.8391 37.0558 0.0000 0.0000 0.0000
# 2 0.8391 9.9601 3.0902 0.0000 0.0000 0.0000
# 3 37.0558 3.0902 126.9181 0.0000 0.0000 0.0000
# 4 0.0000 0.0000 0.0000 -13.1382 0.0000 0.0000
# 5 0.0000 0.0000 0.0000 0.0000 7.5184 0.0000
# 6 0.0000 0.0000 0.0000 0.0000 0.0000 33.4742
#
#
#
# Elastic Compliance Matrix: (Units=1/GPa)
#
#
# Indices 1 2 3 4 5 6 
#
# 1 0.041630 0.000266 -0.012161 0.000000 0.000000 0.000000
# 2 0.000266 0.101167 -0.002541 0.000000 0.000000 0.000000
# 3 -0.012161 -0.002541 0.011492 0.000000 0.000000 0.000000
# 4 0.000000 0.000000 0.000000 -0.076114 0.000000 0.000000
# 5 0.000000 0.000000 0.000000 0.000000 0.133006 0.000000
# 6 0.000000 0.000000 0.000000 0.000000 0.000000 0.029874
#
#
# Mechanical properties :
#
#
# Convention : Reuss Voigt Hill
#
# Bulk Modulus (GPa) = 7.97345 28.18768 18.08056
# Shear Modulus (GPa) = 16.03945 14.28648 15.16297
#
# Velocity S-wave (km/s) = 2.95606 2.78985 2.87416
# Velocity P-wave (km/s) = 3.99938 5.07291 4.56779
#
# Compressibility (1/GPa) = 0.12541628
#
# Stress axis : x y z
#
# Youngs Moduli (GPa) = 24.02132 9.88467 87.02056
#
# Poissons Ratio (x) = -0.00263 1.05825
# Poissons Ratio (y) = -0.00639 0.22111
# Poissons Ratio (z) = 0.29212 0.02512
#
# Static dielectric constant tensor:
#      x y z
#    x 1.631640 0.000000 0.000000 
#    y 0.000000 1.666910 0.000000 
#    z 0.000000 0.000000 1.654630 
# 
# From -- ./inp_files/35912.got.cif
#   From: 2010.05.17/outbox.cif.g08.bks.cpg/sg51_18_cif.got.tgz:35912.got - 2010.06.03 11:52:47.
