data_PCOD9403685
_publ_section_title
;
Structure prediction by ZEFSAII (Michael W. Deem and Ramdas Pophale) SiO2 
 PCOD9403685
Probable space group: P M M A
;
_chemical_formula_sum "Si O2"
_cell_formula_units_Z 56
_cell_length_a 8.841931
_cell_length_b 14.574684
_cell_length_c 26.360118
_cell_angle_alpha 90.000000
_cell_angle_beta 90.000000
_cell_angle_gamma 90.000000
_cell_volume 3396.984920
_symmetry_space_group_name_H-M "P M M A"
_symmetry_group_IT_number 51
_symmetry_cell_setting 'orthorhombic'
loop_
_space_group_symop_operation_xyz
x,y,z
1/2-x,-y,z
1/2+x,-y,-z
-x,y,-z
-x,-y,-z
1/2+x,y,-z
1/2-x,y,z
x,-y,z
loop_
_atom_site_type_symbol
_atom_site_label
_atom_site_fract_x
_atom_site_fract_y
_atom_site_fract_z
Si Si1 0.568695 0.216444 0.851476
Si Si2 0.568068 0.892410 0.748538
Si Si3 0.569220 0.107752 0.054695
Si Si4 0.567896 0.106419 0.446137
Si Si5 0.069626 0.394867 0.304278
Si Si6 0.569307 0.605268 0.192015
Si Si7 0.568465 0.216774 0.346284
O O1 0.750000 0.218704 0.854700
O O2 0.527181 0.158020 0.801045
O O3 0.500662 0.167773 0.900596
O O4 0.503869 0.318129 0.843359
O O5 0.750000 0.884900 0.742721
O O6 0.490239 0.842616 0.701287
O O7 0.528645 0.000000 0.750471
O O8 0.750000 0.117862 0.053372
O O9 0.533944 0.000000 0.063948
O O10 0.500000 0.131982 0.000000
O O11 0.500000 0.135738 0.500000
O O12 0.750000 0.108970 0.449290
O O13 0.521002 0.167927 0.398528
O O14 0.522860 0.000000 0.437448
O O15 0.250000 0.382514 0.300633
O O16 0.038785 0.500000 0.319939
O O17 0.998768 0.382101 0.248366
O O18 0.999197 0.318083 0.340088
O O19 0.750000 0.617014 0.194165
O O20 0.536837 0.500000 0.176684
O O21 0.750000 0.220477 0.344651
#
# Coordination Sequence:
#
# PCOD9403685 Si02
#       7
#     8   8   8   8   8   8   8
#     4  11  21  34  54  79 109 143 179 218 262 315
#     4  10  21  34  48  72 107 144 177 209 254 312
#     4  10  21  37  57  80 107 142 184 226 267 312
#     4   9  19  35  53  75 102 135 175 216 258 307
#     4  10  20  34  52  75 104 138 176 215 258 313
#     4  10  20  34  53  78 107 139 177 219 263 313
#     4  11  21  33  52  77 106 137 172 216 265 315
#
# _framework density 16.485206999999999
#
# number of rings (size 3 to 8) (size 9 to 14) (size 15 to 20)
#    0.000    1.857    1.429    3.000    0.000    5.714 
#    0.000    1.429    0.000    0.857    0.000    0.000 
#    0.000    0.000    0.000    0.000    0.000    0.000 
#
# Total GULP energy -312711.779059 kJ/mol
# GULP energy per Si atom -5584.138912 kJ/mol
# Density = 1.644769 g / cm^3
# Si number density = 16.485207 Si / 1000 Ang^3
#
#
#
# Elastic Constant Matrix: (Units=GPa)
#
#
# Indices 1 2 3 4 5 6 
#
# 1 53.3098 58.2024 57.4990 0.0000 0.0000 0.0000
# 2 58.2024 133.2026 96.2855 0.0000 0.0000 0.0000
# 3 57.4990 96.2855 148.7556 0.0000 0.0000 0.0000
# 4 0.0000 0.0000 0.0000 22.4048 0.0000 0.0000
# 5 0.0000 0.0000 0.0000 0.0000 29.9567 0.0000
# 6 0.0000 0.0000 0.0000 0.0000 0.0000 29.0521
#
#
#
# Elastic Compliance Matrix: (Units=1/GPa)
#
#
# Indices 1 2 3 4 5 6 
#
# 1 0.040206 -0.011904 -0.007836 0.000000 0.000000 0.000000
# 2 -0.011904 0.017633 -0.006812 0.000000 0.000000 0.000000
# 3 -0.007836 -0.006812 0.014161 0.000000 0.000000 0.000000
# 4 0.000000 0.000000 0.000000 0.044633 0.000000 0.000000
# 5 0.000000 0.000000 0.000000 0.000000 0.033382 0.000000
# 6 0.000000 0.000000 0.000000 0.000000 0.000000 0.034421
#
#
# Mechanical properties :
#
#
# Convention : Reuss Voigt Hill
#
# Bulk Modulus (GPa) = 52.92125 84.36021 68.64073
# Shear Modulus (GPa) = 20.50542 24.50145 22.50344
#
# Velocity S-wave (km/s) = 3.53068 3.85940 3.69869
# Velocity P-wave (km/s) = 6.98519 8.43471 7.74394
#
# Compressibility (1/GPa) = 0.01889600
#
# Stress axis : x y z
#
# Youngs Moduli (GPa) = 24.87163 56.71290 70.61828
#
# Poissons Ratio (x) = 0.67509 0.55338
# Poissons Ratio (y) = 0.29606 0.48105
# Poissons Ratio (z) = 0.19490 0.38633
#
# Static dielectric constant tensor:
#      x y z
#    x 1.548150 0.000000 0.000000 
#    y 0.000000 1.557540 0.000000 
#    z 0.000000 0.000000 1.518190 
# 
# From -- ./inp_files/31980.got.cif
#   From: 2010.05.17/outbox.cif.g08.bks.cpg/sg51_16_cif.got.tgz:31980.got - 2010.06.03 11:52:47.
