data_PCOD9403747
_publ_section_title
;
Structure prediction by ZEFSAII (Michael W. Deem and Ramdas Pophale) SiO2 
 PCOD9403747
Probable space group: P M M A
;
_chemical_formula_sum "Si O2"
_cell_formula_units_Z 64
_cell_length_a 14.321076
_cell_length_b 9.019954
_cell_length_c 26.176809
_cell_angle_alpha 90.000000
_cell_angle_beta 90.000000
_cell_angle_gamma 90.000000
_cell_volume 3381.400997
_symmetry_space_group_name_H-M "P M M A"
_symmetry_group_IT_number 51
_symmetry_cell_setting 'orthorhombic'
loop_
_space_group_symop_operation_xyz
x,y,z
1/2-x,-y,z
1/2+x,-y,-z
-x,y,-z
-x,-y,-z
1/2+x,y,-z
1/2-x,y,z
x,-y,z
loop_
_atom_site_type_symbol
_atom_site_label
_atom_site_fract_x
_atom_site_fract_y
_atom_site_fract_z
Si Si1 0.359685 0.824265 0.875529
Si Si2 0.360995 0.325137 0.183766
Si Si3 0.360440 0.821069 0.474697
Si Si4 0.140894 0.322349 0.678386
Si Si5 0.642457 0.161931 0.917548
Si Si6 0.605946 0.334211 0.017911
Si Si7 0.962749 0.678618 0.428190
Si Si8 0.467983 0.822811 0.772000
O O1 0.250000 0.799725 0.866266
O O2 0.386729 0.735953 0.926394
O O3 0.415664 0.781903 0.824863
O O4 0.373173 0.000000 0.884691
O O5 0.250000 0.298201 0.191402
O O6 0.376139 0.500000 0.187263
O O7 0.391555 0.270289 0.126939
O O8 0.427505 0.240513 0.223040
O O9 0.250000 0.788150 0.466766
O O10 0.397628 0.751057 0.527916
O O11 0.434081 0.749955 0.434581
O O12 0.370993 0.000000 0.475572
O O13 0.250000 0.278155 0.674638
O O14 0.138430 0.500000 0.686196
O O15 0.085410 0.291172 0.626060
O O16 0.089278 0.243712 0.725103
O O17 0.750000 0.143021 0.903599
O O18 0.595582 0.000000 0.916124
O O19 0.644479 0.228114 0.973943
O O20 0.646074 0.500000 0.017080
O O21 0.500000 0.345913 0.000000
O O22 0.967923 0.500000 0.435522
O O23 0.470244 0.000000 0.768634
#
# Coordination Sequence:
#
# PCOD9403747 Si02
#       8
#     8   8   8   8   8   8   8   8
#     4  10  22  39  56  77 107 141 178 222 274 332
#     4  10  21  38  60  84 111 143 180 226 280 339
#     4  10  20  34  55  86 125 165 202 243 293 346
#     4  10  22  40  61  86 117 153 195 242 289 338
#     4  10  20  34  53  76 101 130 166 210 262 323
#     4  11  23  35  49  73 103 135 173 217 267 326
#     4  10  20  35  58  87 119 158 204 249 291 340
#     4  11  23  39  61  86 112 145 187 235 286 341
#
# _framework density 18.927064999999999
#
# number of rings (size 3 to 8) (size 9 to 14) (size 15 to 20)
#    0.000    1.750    0.000    4.875    0.000   10.500 
#    0.000    0.625    0.000    0.750    0.000    0.000 
#    0.000    0.000    0.000    0.000    0.000    0.000 
#
# Total GULP energy -357193.282080 kJ/mol
# GULP energy per Si atom -5581.145032 kJ/mol
# Density = 1.888399 g / cm^3
# Si number density = 18.927065 Si / 1000 Ang^3
#
#
#
# Elastic Constant Matrix: (Units=GPa)
#
#
# Indices 1 2 3 4 5 6 
#
# 1 142.2637 68.4019 79.6374 0.0000 0.0000 0.0000
# 2 68.4019 85.1554 60.6611 0.0000 0.0000 0.0000
# 3 79.6374 60.6611 121.3642 0.0000 0.0000 0.0000
# 4 0.0000 0.0000 0.0000 68.0260 0.0000 0.0000
# 5 0.0000 0.0000 0.0000 0.0000 29.8992 0.0000
# 6 0.0000 0.0000 0.0000 0.0000 0.0000 53.0693
#
#
#
# Elastic Compliance Matrix: (Units=1/GPa)
#
#
# Indices 1 2 3 4 5 6 
#
# 1 0.013317 -0.006945 -0.005267 0.000000 0.000000 0.000000
# 2 -0.006945 0.021858 -0.006368 0.000000 0.000000 0.000000
# 3 -0.005267 -0.006368 0.014879 0.000000 0.000000 0.000000
# 4 0.000000 0.000000 0.000000 0.014700 0.000000 0.000000
# 5 0.000000 0.000000 0.000000 0.000000 0.033446 0.000000
# 6 0.000000 0.000000 0.000000 0.000000 0.000000 0.018843
#
#
# Mechanical properties :
#
#
# Convention : Reuss Voigt Hill
#
# Bulk Modulus (GPa) = 77.55786 85.13157 81.34471
# Shear Modulus (GPa) = 31.54552 39.53776 35.54164
#
# Velocity S-wave (km/s) = 4.08694 4.57547 4.33808
# Velocity P-wave (km/s) = 7.95845 8.54339 8.25610
#
# Compressibility (1/GPa) = 0.01289360
#
# Stress axis : x y z
#
# Youngs Moduli (GPa) = 75.09321 45.74948 67.20948
#
# Poissons Ratio (x) = 0.31772 0.35400
# Poissons Ratio (y) = 0.52151 0.42801
# Poissons Ratio (z) = 0.39552 0.29134
#
# Static dielectric constant tensor:
#      x y z
#    x 1.674970 0.000000 0.000000 
#    y 0.000000 1.662190 0.000000 
#    z 0.000000 0.000000 1.640930 
# 
# From -- ./inp_files/35772.got.cif
#   From: 2010.05.17/outbox.cif.g08.bks.cpg/sg51_18_cif.got.tgz:35772.got - 2010.06.03 11:52:47.
