data_PCOD9403446
_publ_section_title
;
Structure prediction by ZEFSAII (Michael W. Deem and Ramdas Pophale) SiO2 
 PCOD9403446
Probable space group: P M M A
;
_chemical_formula_sum "Si O2"
_cell_formula_units_Z 48
_cell_length_a 14.477743
_cell_length_b 8.944391
_cell_length_c 18.518624
_cell_angle_alpha 90.000000
_cell_angle_beta 90.000000
_cell_angle_gamma 90.000000
_cell_volume 2398.061700
_symmetry_space_group_name_H-M "P M M A"
_symmetry_group_IT_number 51
_symmetry_cell_setting 'orthorhombic'
loop_
_space_group_symop_operation_xyz
x,y,z
1/2-x,-y,z
1/2+x,-y,-z
-x,y,-z
-x,-y,-z
1/2+x,y,-z
1/2-x,y,z
x,-y,z
loop_
_atom_site_type_symbol
_atom_site_label
_atom_site_fract_x
_atom_site_fract_y
_atom_site_fract_z
Si Si1 0.543840 0.820919 0.171490
Si Si2 0.648851 0.322321 0.874821
Si Si3 0.041325 0.677807 0.680455
Si Si4 0.644532 0.679260 0.608518
Si Si5 0.108473 0.829375 0.979961
Si Si6 0.860937 0.826879 0.454824
O O1 0.440389 0.758473 0.157928
O O2 0.576356 0.758132 0.247766
O O3 0.607821 0.777522 0.103026
O O4 0.540375 0.000000 0.171624
O O5 0.750000 0.280714 0.844282
O O6 0.637278 0.500000 0.866700
O O7 0.649685 0.276869 0.959402
O O8 0.050349 0.500000 0.687663
O O9 0.093048 0.734569 0.609267
O O10 0.932867 0.714419 0.667484
O O11 0.750000 0.720800 0.627491
O O12 0.642312 0.500000 0.597121
O O13 0.618420 0.758327 0.533367
O O14 0.143891 0.000000 0.985688
O O15 0.000000 0.836907 0.000000
O O16 0.750000 0.820307 0.446907
O O17 0.889876 0.000000 0.451480
#
# Coordination Sequence:
#
# PCOD9403446 Si02
#       6
#     8   8   8   8   8   8
#     4  10  21  36  53  75 105 140 176 216 264 318
#     4  10  20  33  52  79 107 135 171 215 261 313
#     4  11  22  35  55  82 111 146 183 222 274 330
#     4   9  19  36  56  79 109 143 179 221 270 325
#     4   8  16  32  52  72  95 127 167 207 249 300
#     4  10  21  37  57  80 106 139 182 230 275 322
#
# _framework density 20.016164
#
# number of rings (size 3 to 8) (size 9 to 14) (size 15 to 20)
#    0.000    2.333    0.000    3.500    0.000   10.000 
#    0.000    2.500    0.000    1.000    0.000    0.000 
#    0.000    0.000    0.000    0.000    0.000    0.000 
#
# Total GULP energy -267940.024957 kJ/mol
# GULP energy per Si atom -5582.083853 kJ/mol
# Density = 1.997061 g / cm^3
# Si number density = 20.016164 Si / 1000 Ang^3
#
#
#
# Elastic Constant Matrix: (Units=GPa)
#
#
# Indices 1 2 3 4 5 6 
#
# 1 24.2830 3.7656 -6.6587 0.0000 0.0000 0.0000
# 2 3.7656 32.1074 10.5964 0.0000 0.0000 0.0000
# 3 -6.6587 10.5964 73.9644 0.0000 0.0000 0.0000
# 4 0.0000 0.0000 0.0000 31.0975 0.0000 0.0000
# 5 0.0000 0.0000 0.0000 0.0000 8.6378 0.0000
# 6 0.0000 0.0000 0.0000 0.0000 0.0000 36.6620
#
#
#
# Elastic Compliance Matrix: (Units=1/GPa)
#
#
# Indices 1 2 3 4 5 6 
#
# 1 0.043563 -0.006721 0.004885 0.000000 0.000000 0.000000
# 2 -0.006721 0.033728 -0.005437 0.000000 0.000000 0.000000
# 3 0.004885 -0.005437 0.014739 0.000000 0.000000 0.000000
# 4 0.000000 0.000000 0.000000 0.032157 0.000000 0.000000
# 5 0.000000 0.000000 0.000000 0.000000 0.115771 0.000000
# 6 0.000000 0.000000 0.000000 0.000000 0.000000 0.027276
#
#
# Mechanical properties :
#
#
# Convention : Reuss Voigt Hill
#
# Bulk Modulus (GPa) = 12.90618 16.19573 14.55096
# Shear Modulus (GPa) = 16.25446 23.45623 19.85534
#
# Velocity S-wave (km/s) = 2.85277 3.42696 3.15297
# Velocity P-wave (km/s) = 4.16088 4.87521 4.53214
#
# Compressibility (1/GPa) = 0.07748225
#
# Stress axis : x y z
#
# Youngs Moduli (GPa) = 22.95538 29.64886 67.84862
#
# Poissons Ratio (x) = 0.19928 -0.33142
# Poissons Ratio (y) = 0.15429 0.36890
# Poissons Ratio (z) = -0.11213 0.16120
#
# Static dielectric constant tensor:
#      x y z
#    x 1.742380 0.000000 0.000000 
#    y 0.000000 1.663600 0.000000 
#    z 0.000000 0.000000 1.702900 
# 
# From -- ./inp_files/29428.got.cif
#   From: 2010.05.17/outbox.cif.g08.bks.cpg/sg51_15_cif.got.tgz:29428.got - 2010.06.03 11:52:47.
