data_PCOD9403371
_publ_section_title
;
Structure prediction by ZEFSAII (Michael W. Deem and Ramdas Pophale) SiO2 
 PCOD9403371
Probable space group: P M M A
;
_chemical_formula_sum "Si O2"
_cell_formula_units_Z 48
_cell_length_a 9.364646
_cell_length_b 7.773584
_cell_length_c 31.962706
_cell_angle_alpha 90.000000
_cell_angle_beta 90.000000
_cell_angle_gamma 90.000000
_cell_volume 2326.784708
_symmetry_space_group_name_H-M "P M M A"
_symmetry_group_IT_number 51
_symmetry_cell_setting 'orthorhombic'
loop_
_space_group_symop_operation_xyz
x,y,z
1/2-x,-y,z
1/2+x,-y,-z
-x,y,-z
-x,-y,-z
1/2+x,y,-z
1/2-x,y,z
x,-y,z
loop_
_atom_site_type_symbol
_atom_site_label
_atom_site_fract_x
_atom_site_fract_y
_atom_site_fract_z
Si Si1 0.086722 0.795391 0.367984
Si Si2 0.086716 0.207270 0.876595
Si Si3 0.587490 0.292771 0.793307
Si Si4 0.412545 0.292882 0.460180
Si Si5 0.915001 0.210482 0.958489
Si Si6 0.411276 0.705152 0.713686
O O1 0.250000 0.726110 0.364542
O O2 0.029893 0.750195 0.414158
O O3 0.989255 0.733003 0.330282
O O4 0.094189 0.000000 0.365103
O O5 0.250000 0.271317 0.876097
O O6 0.003342 0.251398 0.834368
O O7 0.998500 0.268285 0.917021
O O8 0.092826 0.000000 0.879472
O O9 0.750000 0.227525 0.796237
O O10 0.595247 0.500000 0.790134
O O11 0.506769 0.226470 0.751947
O O12 0.500000 0.228160 0.500000
O O13 0.250000 0.227424 0.461767
O O14 0.408320 0.500000 0.462996
O O15 0.750000 0.265942 0.958775
O O16 0.914076 0.000000 0.958271
O O17 0.000000 0.263865 0.000000
O O18 0.250000 0.775138 0.713949
O O19 0.401269 0.500000 0.719836
#
# Coordination Sequence:
#
# PCOD9403371 Si02
#       6
#     8   8   8   8   8   8
#     4  10  21  36  54  78 108 141 175 212 258 310
#     4  10  20  33  51  77 107 138 173 214 260 309
#     4  10  21  37  57  79 103 135 174 214 259 312
#     4   9  18  33  53  76 103 137 177 218 257 301
#     4   9  16  27  45  70 101 136 174 216 260 307
#     4  10  21  37  57  79 102 132 172 215 258 307
#
# _framework density 20.629325000000001
#
# number of rings (size 3 to 8) (size 9 to 14) (size 15 to 20)
#    0.000    2.333    0.000    2.500    0.000    7.667 
#    0.000    1.667    0.000    0.500    0.000    0.000 
#    0.000    0.000    0.000    0.000    0.000    0.000 
#
# Total GULP energy -268082.467406 kJ/mol
# GULP energy per Si atom -5585.051404 kJ/mol
# Density = 2.058237 g / cm^3
# Si number density = 20.629325 Si / 1000 Ang^3
#
#
#
# Elastic Constant Matrix: (Units=GPa)
#
#
# Indices 1 2 3 4 5 6 
#
# 1 194.8935 7.3602 135.5995 0.0000 0.0000 0.0000
# 2 7.3602 27.2078 -3.1139 0.0000 0.0000 0.0000
# 3 135.5995 -3.1139 225.4140 0.0000 0.0000 0.0000
# 4 0.0000 0.0000 0.0000 24.1121 0.0000 0.0000
# 5 0.0000 0.0000 0.0000 0.0000 42.3975 0.0000
# 6 0.0000 0.0000 0.0000 0.0000 0.0000 12.1055
#
#
#
# Elastic Compliance Matrix: (Units=1/GPa)
#
#
# Indices 1 2 3 4 5 6 
#
# 1 0.009076 -0.003085 -0.005502 0.000000 0.000000 0.000000
# 2 -0.003085 0.037861 0.002379 0.000000 0.000000 0.000000
# 3 -0.005502 0.002379 0.007779 0.000000 0.000000 0.000000
# 4 0.000000 0.000000 0.000000 0.041473 0.000000 0.000000
# 5 0.000000 0.000000 0.000000 0.000000 0.023586 0.000000
# 6 0.000000 0.000000 0.000000 0.000000 0.000000 0.082607
#
#
# Mechanical properties :
#
#
# Convention : Reuss Voigt Hill
#
# Bulk Modulus (GPa) = 23.64117 80.80077 52.22097
# Shear Modulus (GPa) = 21.84377 36.23432 29.03905
#
# Velocity S-wave (km/s) = 3.25756 4.19555 3.75595
# Velocity P-wave (km/s) = 5.06298 7.91979 6.64669
#
# Compressibility (1/GPa) = 0.04229908
#
# Stress axis : x y z
#
# Youngs Moduli (GPa) = 110.18414 26.41243 128.55087
#
# Poissons Ratio (x) = 0.08148 0.70731
# Poissons Ratio (y) = 0.33990 -0.30579
# Poissons Ratio (z) = 0.60625 -0.06283
#
# Static dielectric constant tensor:
#      x y z
#    x 1.730320 0.000000 0.000000 
#    y 0.000000 1.770250 0.000000 
#    z 0.000000 0.000000 1.695120 
# 
# From -- ./inp_files/36908.got.cif
#   From: 2010.05.17/outbox.cif.g08.bks.cpg/sg51_19_cif.got.tgz:36908.got - 2010.06.03 11:52:47.
