data_PCOD9403459
_publ_section_title
;
Structure prediction by ZEFSAII (Michael W. Deem and Ramdas Pophale) SiO2 
 PCOD9403459
Probable space group: P M M A
;
_chemical_formula_sum "Si O2"
_cell_formula_units_Z 36
_cell_length_a 8.062601
_cell_length_b 14.050063
_cell_length_c 14.300695
_cell_angle_alpha 90.000000
_cell_angle_beta 90.000000
_cell_angle_gamma 90.000000
_cell_volume 1619.983473
_symmetry_space_group_name_H-M "P M M A"
_symmetry_group_IT_number 51
_symmetry_cell_setting 'orthorhombic'
loop_
_space_group_symop_operation_xyz
x,y,z
1/2-x,-y,z
1/2+x,-y,-z
-x,y,-z
-x,-y,-z
1/2+x,y,-z
1/2-x,y,z
x,-y,z
loop_
_atom_site_type_symbol
_atom_site_label
_atom_site_fract_x
_atom_site_fract_y
_atom_site_fract_z
Si Si1 0.950441 0.500000 0.892729
Si Si2 0.557476 0.104914 0.802265
Si Si3 0.550874 0.307503 0.795070
Si Si4 0.434246 0.113316 0.598194
Si Si5 0.947904 0.391718 0.394705
O O1 0.750000 0.500000 0.883838
O O2 0.013252 0.597140 0.844924
O O3 0.000000 0.500000 0.000000
O O4 0.750000 0.100965 0.830487
O O5 0.484377 0.206454 0.834288
O O6 0.547406 0.117403 0.689674
O O7 0.482830 0.000000 0.824057
O O8 0.750000 0.304327 0.806367
O O9 0.514452 0.323179 0.685457
O O10 0.500000 0.152553 0.500000
O O11 0.250000 0.151878 0.618920
O O12 0.416356 0.000000 0.583485
O O13 0.750000 0.392671 0.389917
O O14 0.009804 0.500000 0.375702
O O15 0.000000 0.368451 0.500000
#
# Coordination Sequence:
#
# PCOD9403459 Si02
#       5
#     4   8   8   8   8
#     4  10  22  40  63  88 111 136 171 218 276 332
#     4   9  18  32  50  73 101 136 177 217 261 313
#     4  10  20  36  58  82 111 145 181 226 273 320
#     4   9  16  26  41  62  92 133 180 226 266 303
#     4  10  20  33  52  79 112 150 189 229 274 325
#
# _framework density 22.222449999999998
#
# number of rings (size 3 to 8) (size 9 to 14) (size 15 to 20)
#    0.000    2.444    1.111    1.333    0.000    6.222 
#    0.000    0.000    0.000    0.667    0.000    0.000 
#    0.000    0.000    0.000    0.000    0.000    0.000 
#
# Total GULP energy -200759.799088 kJ/mol
# GULP energy per Si atom -5576.661086 kJ/mol
# Density = 2.217187 g / cm^3
# Si number density = 22.222450 Si / 1000 Ang^3
#
#
#
# Elastic Constant Matrix: (Units=GPa)
#
#
# Indices 1 2 3 4 5 6 
#
# 1 25.2163 5.7295 -11.3455 0.0000 0.0000 0.0000
# 2 5.7295 238.4148 34.0829 0.0000 0.0000 0.0000
# 3 -11.3455 34.0829 36.9176 0.0000 0.0000 0.0000
# 4 0.0000 0.0000 0.0000 41.3624 0.0000 0.0000
# 5 0.0000 0.0000 0.0000 0.0000 18.6497 0.0000
# 6 0.0000 0.0000 0.0000 0.0000 0.0000 7.1527
#
#
#
# Elastic Compliance Matrix: (Units=1/GPa)
#
#
# Indices 1 2 3 4 5 6 
#
# 1 0.048874 -0.003827 0.018553 0.000000 0.000000 0.000000
# 2 -0.003827 0.005132 -0.005914 0.000000 0.000000 0.000000
# 3 0.018553 -0.005914 0.038249 0.000000 0.000000 0.000000
# 4 0.000000 0.000000 0.000000 0.024177 0.000000 0.000000
# 5 0.000000 0.000000 0.000000 0.000000 0.053620 0.000000
# 6 0.000000 0.000000 0.000000 0.000000 0.000000 0.139808
#
#
# Mechanical properties :
#
#
# Convention : Reuss Voigt Hill
#
# Bulk Modulus (GPa) = 9.10093 39.72027 24.41060
# Shear Modulus (GPa) = 15.20404 31.57176 23.38790
#
# Velocity S-wave (km/s) = 2.61851 3.77333 3.24766
# Velocity P-wave (km/s) = 3.63956 6.07427 5.00715
#
# Compressibility (1/GPa) = 0.10987888
#
# Stress axis : x y z
#
# Youngs Moduli (GPa) = 20.46086 194.86564 26.14471
#
# Poissons Ratio (x) = 0.74570 -0.48506
# Poissons Ratio (y) = 0.07830 0.15461
# Poissons Ratio (z) = -0.37961 1.15239
#
# Static dielectric constant tensor:
#      x y z
#    x 1.810630 0.000000 0.000000 
#    y 0.000000 1.962110 0.000000 
#    z 0.000000 0.000000 1.764530 
# 
# From -- ./inp_files/20366.got.cif
#   From: 2010.05.17/outbox.cif.g08.bks.cpg/sg51_11_cif.got.tgz:20366.got - 2010.06.03 11:52:47.
