data_PCOD9403871
_publ_section_title
;
Structure prediction by ZEFSAII (Michael W. Deem and Ramdas Pophale) SiO2 
 PCOD9403871
Probable space group: P M M A
;
_chemical_formula_sum "Si O2"
_cell_formula_units_Z 40
_cell_length_a 9.270938
_cell_length_b 10.150335
_cell_length_c 24.850148
_cell_angle_alpha 90.000000
_cell_angle_beta 90.000000
_cell_angle_gamma 90.000000
_cell_volume 2338.476620
_symmetry_space_group_name_H-M "P M M A"
_symmetry_group_IT_number 51
_symmetry_cell_setting 'orthorhombic'
loop_
_space_group_symop_operation_xyz
x,y,z
1/2-x,-y,z
1/2+x,-y,-z
-x,y,-z
-x,-y,-z
1/2+x,y,-z
1/2-x,y,z
x,-y,z
loop_
_atom_site_type_symbol
_atom_site_label
_atom_site_fract_x
_atom_site_fract_y
_atom_site_fract_z
Si Si1 0.415279 0.339978 0.947051
Si Si2 0.577053 0.345807 0.836665
Si Si3 0.576231 0.500000 0.441836
Si Si4 0.079264 0.000000 0.556035
Si Si5 0.422698 0.247839 0.630083
Si Si6 0.923732 0.155214 0.737433
O O1 0.250000 0.294330 0.946663
O O2 0.412699 0.500000 0.949725
O O3 0.497427 0.308657 0.891867
O O4 0.500000 0.293425 0.000000
O O5 0.750000 0.340375 0.844754
O O6 0.541860 0.500000 0.823565
O O7 0.539003 0.243832 0.789428
O O8 0.750000 0.500000 0.450381
O O9 0.500000 0.500000 0.500000
O O10 0.538197 0.375336 0.404745
O O11 0.043315 0.874184 0.591586
O O12 0.000000 0.000000 0.500000
O O13 0.250000 0.000000 0.546170
O O14 0.250000 0.251259 0.640090
O O15 0.503863 0.222841 0.685737
O O16 0.750000 0.158450 0.731787
O O17 0.966045 0.000000 0.741623
#
# Coordination Sequence:
#
# PCOD9403871 Si02
#       6
#     8   8   4   4   8   8
#     4   9  16  27  46  74 106 138 172 211 257 306
#     4   9  18  32  50  74 104 136 171 213 258 304
#     4  10  22  38  56  80 108 136 167 208 259 312
#     4  10  20  34  54  76 100 130 167 208 251 300
#     4  10  21  37  54  76 105 136 169 209 258 309
#     4  10  21  36  54  77 104 137 177 217 259 307
#
# _framework density 17.105153000000001
#
# number of rings (size 3 to 8) (size 9 to 14) (size 15 to 20)
#    0.000    2.400    1.000    1.200    1.400    4.800 
#    0.000    0.000    0.000    0.600    0.000    0.000 
#    0.000    0.000    0.000    0.000    0.000    0.000 
#
# Total GULP energy -223023.835356 kJ/mol
# GULP energy per Si atom -5575.595884 kJ/mol
# Density = 1.706622 g / cm^3
# Si number density = 17.105153 Si / 1000 Ang^3
#
#
#
# Elastic Constant Matrix: (Units=GPa)
#
#
# Indices 1 2 3 4 5 6 
#
# 1 46.6718 43.6513 81.0598 0.0000 0.0000 0.0000
# 2 43.6513 126.3180 91.7923 0.0000 0.0000 0.0000
# 3 81.0598 91.7923 204.3424 0.0000 0.0000 0.0000
# 4 0.0000 0.0000 0.0000 39.3561 0.0000 0.0000
# 5 0.0000 0.0000 0.0000 0.0000 40.0687 0.0000
# 6 0.0000 0.0000 0.0000 0.0000 0.0000 41.5906
#
#
#
# Elastic Compliance Matrix: (Units=1/GPa)
#
#
# Indices 1 2 3 4 5 6 
#
# 1 0.071939 -0.006120 -0.025788 0.000000 0.000000 0.000000
# 2 -0.006120 0.012274 -0.003086 0.000000 0.000000 0.000000
# 3 -0.025788 -0.003086 0.016510 0.000000 0.000000 0.000000
# 4 0.000000 0.000000 0.000000 0.025409 0.000000 0.000000
# 5 0.000000 0.000000 0.000000 0.000000 0.024957 0.000000
# 6 0.000000 0.000000 0.000000 0.000000 0.000000 0.024044
#
#
# Mechanical properties :
#
#
# Convention : Reuss Voigt Hill
#
# Bulk Modulus (GPa) = 32.53661 90.03766 61.28714
# Shear Modulus (GPa) = 19.57986 34.92501 27.25244
#
# Velocity S-wave (km/s) = 3.38698 4.52351 3.99586
# Velocity P-wave (km/s) = 5.86160 8.94622 7.56284
#
# Compressibility (1/GPa) = 0.03073461
#
# Stress axis : x y z
#
# Youngs Moduli (GPa) = 13.90071 81.47468 60.57108
#
# Poissons Ratio (x) = 0.49864 1.56200
# Poissons Ratio (y) = 0.08508 0.18690
# Poissons Ratio (z) = 0.35847 0.25140
#
# Static dielectric constant tensor:
#      x y z
#    x 1.578080 0.000000 0.000000 
#    y 0.000000 1.561210 0.000000 
#    z 0.000000 0.000000 1.545660 
# 
# From -- ./inp_files/36088.got.cif
#   From: 2010.05.17/outbox.cif.g08.bks.cpg/sg51_19_cif.got.tgz:36088.got - 2010.06.03 11:52:47.
