data_PCOD9403006
_publ_section_title
;
Structure prediction by ZEFSAII (Michael W. Deem and Ramdas Pophale) SiO2 
 PCOD9403006
Probable space group: P M M A
;
_chemical_formula_sum "Si O2"
_cell_formula_units_Z 56
_cell_length_a 19.324174
_cell_length_b 14.836183
_cell_length_c 10.130554
_cell_angle_alpha 90.000000
_cell_angle_beta 90.000000
_cell_angle_gamma 90.000000
_cell_volume 2904.399256
_symmetry_space_group_name_H-M "P M M A"
_symmetry_group_IT_number 51
_symmetry_cell_setting 'orthorhombic'
loop_
_space_group_symop_operation_xyz
x,y,z
1/2-x,-y,z
1/2+x,-y,-z
-x,y,-z
-x,-y,-z
1/2+x,y,-z
1/2-x,y,z
x,-y,z
loop_
_atom_site_type_symbol
_atom_site_label
_atom_site_fract_x
_atom_site_fract_y
_atom_site_fract_z
Si Si1 0.829681 0.841233 0.969793
Si Si2 0.666708 0.601022 0.604052
Si Si3 0.671262 0.368052 0.901605
Si Si4 0.417827 0.231384 0.495294
Si Si5 0.073359 0.201990 0.786546
Si Si6 0.941307 0.598636 0.111902
Si Si7 0.568851 0.897484 0.750161
O O1 0.750000 0.870000 0.986572
O O2 0.829524 0.739915 0.910744
O O3 0.873526 0.896496 0.863841
O O4 0.871730 0.832255 0.106281
O O5 0.750000 0.616542 0.601895
O O6 0.653835 0.500000 0.553131
O O7 0.643846 0.604761 0.757934
O O8 0.626707 0.679393 0.529211
O O9 0.750000 0.398655 0.909962
O O10 0.628203 0.401903 0.025067
O O11 0.500000 0.252733 0.500000
O O12 0.401360 0.188662 0.637169
O O13 0.407602 0.161864 0.375149
O O14 0.060095 0.309795 0.804278
O O15 0.000621 0.150687 0.803927
O O16 0.950144 0.500000 0.177331
O O17 0.000000 0.608660 0.000000
O O18 0.553375 0.000000 0.710710
#
# Coordination Sequence:
#
# PCOD9403006 Si02
#       7
#     8   8   8   8   8   8   8
#     4  10  20  37  63  92 119 150 193 245 298 357
#     4  10  20  35  58  86 118 159 202 242 288 344
#     4   9  17  33  56  82 115 153 196 242 284 337
#     4  10  23  39  59  88 121 161 203 248 293 353
#     4  10  22  39  59  87 124 158 196 240 302 357
#     4  10  20  32  52  82 120 159 195 238 289 345
#     4  11  23  42  66  88 114 154 201 250 305 366
#
# _framework density 19.281095000000001
#
# number of rings (size 3 to 8) (size 9 to 14) (size 15 to 20)
#    0.000    2.000    1.429    2.571    2.000    6.286 
#    0.000    0.000    0.000    0.000    0.000    4.000 
#    0.000    0.000    0.000    0.000    0.000    0.000 
#
# Total GULP energy -312571.742897 kJ/mol
# GULP energy per Si atom -5581.638266 kJ/mol
# Density = 1.923721 g / cm^3
# Si number density = 19.281095 Si / 1000 Ang^3
#
#
#
# Elastic Constant Matrix: (Units=GPa)
#
#
# Indices 1 2 3 4 5 6 
#
# 1 75.5807 47.2174 55.4089 0.0000 0.0000 0.0000
# 2 47.2174 102.3058 31.4972 0.0000 0.0000 0.0000
# 3 55.4089 31.4972 99.1960 0.0000 0.0000 0.0000
# 4 0.0000 0.0000 0.0000 -10.0849 0.0000 0.0000
# 5 0.0000 0.0000 0.0000 0.0000 22.1704 0.0000
# 6 0.0000 0.0000 0.0000 0.0000 0.0000 -7.6735
#
#
#
# Elastic Compliance Matrix: (Units=1/GPa)
#
#
# Indices 1 2 3 4 5 6 
#
# 1 0.028471 -0.009137 -0.013002 0.000000 0.000000 0.000000
# 2 -0.009137 0.013766 0.000733 0.000000 0.000000 0.000000
# 3 -0.013002 0.000733 0.017111 0.000000 0.000000 0.000000
# 4 0.000000 0.000000 0.000000 -0.099158 0.000000 0.000000
# 5 0.000000 0.000000 0.000000 0.000000 0.045105 0.000000
# 6 0.000000 0.000000 0.000000 0.000000 0.000000 -0.130319
#
#
# Mechanical properties :
#
#
# Convention : Reuss Voigt Hill
#
# Bulk Modulus (GPa) = 60.47703 60.59216 60.53459
# Shear Modulus (GPa) = -65.19051 10.41301 -27.38875
#
# Velocity S-wave (km/s) = -5.82099 2.32645 -3.77304
# Velocity P-wave (km/s) = 3.70737 6.22177 3.53311
#
# Compressibility (1/GPa) = 0.01653520
#
# Stress axis : x y z
#
# Youngs Moduli (GPa) = 35.12315 72.64178 58.44166
#
# Poissons Ratio (x) = 0.66376 0.75987
# Poissons Ratio (y) = 0.32093 -0.04283
# Poissons Ratio (z) = 0.45668 -0.05324
#
# Static dielectric constant tensor:
#      x y z
#    x 1.711350 0.000000 0.000000 
#    y 0.000000 1.691220 0.000000 
#    z 0.000000 0.000000 1.660650 
# 
# From -- ./inp_files/11041.got.cif
#   From: 2010.05.17/outbox.cif.g08.bks.cpg/sg51_6_cif.got.tgz:11041.got - 2010.06.03 11:52:47.
