data_PCOD9403601
_publ_section_title
;
Structure prediction by ZEFSAII (Michael W. Deem and Ramdas Pophale) SiO2 
 PCOD9403601
Probable space group: P M M A
;
_chemical_formula_sum "Si O2"
_cell_formula_units_Z 48
_cell_length_a 14.253352
_cell_length_b 8.475169
_cell_length_c 21.577478
_cell_angle_alpha 90.000000
_cell_angle_beta 90.000000
_cell_angle_gamma 90.000000
_cell_volume 2606.550000
_symmetry_space_group_name_H-M "P M M A"
_symmetry_group_IT_number 51
_symmetry_cell_setting 'orthorhombic'
loop_
_space_group_symop_operation_xyz
x,y,z
1/2-x,-y,z
1/2+x,-y,-z
-x,y,-z
-x,-y,-z
1/2+x,y,-z
1/2-x,y,z
x,-y,z
loop_
_atom_site_type_symbol
_atom_site_label
_atom_site_fract_x
_atom_site_fract_y
_atom_site_fract_z
Si Si1 0.857210 0.190481 0.400702
Si Si2 0.544849 0.192399 0.905019
Si Si3 0.857532 0.190142 0.779177
Si Si4 0.463647 0.684601 0.340308
Si Si5 0.644299 0.807606 0.032759
Si Si6 0.862991 0.816252 0.540440
O O1 0.750000 0.241876 0.389754
O O2 0.885983 0.239287 0.470782
O O3 0.931748 0.251905 0.351918
O O4 0.857683 0.000000 0.401019
O O5 0.587796 0.247631 0.840350
O O6 0.438455 0.243034 0.920620
O O7 0.544119 0.000000 0.903915
O O8 0.609592 0.236913 0.963715
O O9 0.750000 0.247706 0.778076
O O10 0.911325 0.234864 0.716847
O O11 0.854217 0.000000 0.782789
O O12 0.465782 0.500000 0.329301
O O13 0.408245 0.722210 0.403739
O O14 0.750000 0.752664 0.045425
O O15 0.645724 0.000000 0.034094
O O16 0.750000 0.812105 0.545059
O O17 0.892530 0.000000 0.546402
#
# Coordination Sequence:
#
# PCOD9403601 Si02
#       6
#     8   8   8   8   8   8
#     4   9  19  37  59  78  96 124 164 207 250 299
#     4   8  14  24  40  65  95 126 160 199 247 301
#     4  10  20  34  51  69  94 132 174 210 245 293
#     4  12  24  34  48  73 104 135 166 204 251 299
#     4   8  12  20  38  66  98 124 149 194 255 306
#     4   9  18  34  56  79 101 127 162 205 251 298
#
# _framework density 18.415146
#
# number of rings (size 3 to 8) (size 9 to 14) (size 15 to 20)
#    0.000    2.667    0.000    5.000    0.000    7.667 
#    0.000    2.500    0.000    3.000    0.000    2.333 
#    0.000    1.333    0.000    0.000    0.000    0.000 
#
# Total GULP energy -267761.359124 kJ/mol
# GULP energy per Si atom -5578.361648 kJ/mol
# Density = 1.837323 g / cm^3
# Si number density = 18.415146 Si / 1000 Ang^3
#
#
#
# Elastic Constant Matrix: (Units=GPa)
#
#
# Indices 1 2 3 4 5 6 
#
# 1 155.3444 12.5515 92.9791 0.0000 0.0000 0.0000
# 2 12.5515 6.0344 10.6038 0.0000 0.0000 0.0000
# 3 92.9791 10.6038 114.3085 0.0000 0.0000 0.0000
# 4 0.0000 0.0000 0.0000 -14.8337 0.0000 0.0000
# 5 0.0000 0.0000 0.0000 0.0000 25.0335 0.0000
# 6 0.0000 0.0000 0.0000 0.0000 0.0000 -106.6465
#
#
#
# Elastic Compliance Matrix: (Units=1/GPa)
#
#
# Indices 1 2 3 4 5 6 
#
# 1 0.013044 -0.010140 -0.009670 0.000000 0.000000 0.000000
# 2 -0.010140 0.205872 -0.010849 0.000000 0.000000 0.000000
# 3 -0.009670 -0.010849 0.017620 0.000000 0.000000 0.000000
# 4 0.000000 0.000000 0.000000 -0.067414 0.000000 0.000000
# 5 0.000000 0.000000 0.000000 0.000000 0.039947 0.000000
# 6 0.000000 0.000000 0.000000 0.000000 0.000000 -0.009377
#
#
# Mechanical properties :
#
#
# Convention : Reuss Voigt Hill
#
# Bulk Modulus (GPa) = 5.70718 56.43957 31.07337
# Shear Modulus (GPa) = 15.65353 -8.65248 3.50053
#
# Velocity S-wave (km/s) = 2.91870 -2.16997 1.38023
# Velocity P-wave (km/s) = 3.80320 4.94334 4.41027
#
# Compressibility (1/GPa) = 0.17521796
#
# Stress axis : x y z
#
# Youngs Moduli (GPa) = 76.66239 4.85738 56.75379
#
# Poissons Ratio (x) = 0.04926 0.54878
# Poissons Ratio (y) = 0.77738 0.61574
# Poissons Ratio (z) = 0.74129 0.05270
#
# Static dielectric constant tensor:
#      x y z
#    x 1.660390 0.000000 0.000000 
#    y 0.000000 1.618260 0.000000 
#    z 0.000000 0.000000 1.609710 
# 
# From -- ./inp_files/29401.got.cif
#   From: 2010.05.17/outbox.cif.g08.bks.cpg/sg51_15_cif.got.tgz:29401.got - 2010.06.03 11:52:47.
