data_PCOD9403881
_publ_section_title
;
Structure prediction by ZEFSAII (Michael W. Deem and Ramdas Pophale) SiO2 
 PCOD9403881
Probable space group: P M M A
;
_chemical_formula_sum "Si O2"
_cell_formula_units_Z 48
_cell_length_a 14.609189
_cell_length_b 8.269138
_cell_length_c 21.910099
_cell_angle_alpha 90.000000
_cell_angle_beta 90.000000
_cell_angle_gamma 90.000000
_cell_volume 2646.858272
_symmetry_space_group_name_H-M "P M M A"
_symmetry_group_IT_number 51
_symmetry_cell_setting 'orthorhombic'
loop_
_space_group_symop_operation_xyz
x,y,z
1/2-x,-y,z
1/2+x,-y,-z
-x,y,-z
-x,-y,-z
1/2+x,y,-z
1/2-x,y,z
x,-y,z
loop_
_atom_site_type_symbol
_atom_site_label
_atom_site_fract_x
_atom_site_fract_y
_atom_site_fract_z
Si Si1 0.496705 0.695431 0.069614
Si Si2 0.003334 0.804535 0.735270
Si Si3 0.854174 0.195340 0.833384
Si Si4 0.145090 0.692854 0.505046
Si Si5 0.008544 0.807191 0.403908
Si Si6 0.645791 0.695270 0.167597
O O1 0.498321 0.500000 0.068781
O O2 0.406492 0.749474 0.105816
O O3 0.582940 0.750800 0.110737
O O4 0.500000 0.753181 0.000000
O O5 0.997197 0.748141 0.665625
O O6 0.093265 0.747684 0.771244
O O7 0.916913 0.750610 0.776386
O O8 0.003760 0.000000 0.734718
O O9 0.750000 0.253436 0.830135
O O10 0.853086 0.000000 0.832564
O O11 0.250000 0.749875 0.504800
O O12 0.144504 0.500000 0.512936
O O13 0.083748 0.767673 0.558856
O O14 0.091972 0.733422 0.442539
O O15 0.020918 0.000000 0.403462
O O16 0.750000 0.753832 0.164694
O O17 0.647275 0.500000 0.166025
#
# Coordination Sequence:
#
# PCOD9403881 Si02
#       6
#     8   8   8   8   8   8
#     4   9  18  32  50  72  98 128 162 202 245 287
#     4   9  19  34  51  73  99 127 161 201 244 288
#     4   9  18  33  51  71  98 130 162 198 241 289
#     4  10  21  36  53  74 102 134 165 200 244 293
#     4  10  20  34  54  77 100 129 165 206 247 288
#     4   9  18  32  49  70  97 129 164 201 242 289
#
# _framework density 18.134706999999999
#
# number of rings (size 3 to 8) (size 9 to 14) (size 15 to 20)
#    0.000    2.667    0.000    2.000    0.000    5.667 
#    0.000    6.667    0.000    0.000    0.000    0.000 
#    0.000    0.000    0.000    0.000    0.000    0.000 
#
# Total GULP energy -267714.341146 kJ/mol
# GULP energy per Si atom -5577.382107 kJ/mol
# Density = 1.809343 g / cm^3
# Si number density = 18.134707 Si / 1000 Ang^3
#
#
#
# Elastic Constant Matrix: (Units=GPa)
#
#
# Indices 1 2 3 4 5 6 
#
# 1 150.7704 -2.6505 58.6187 0.0000 0.0000 0.0000
# 2 -2.6505 4.9533 -2.4978 0.0000 0.0000 0.0000
# 3 58.6187 -2.4978 151.4441 0.0000 0.0000 0.0000
# 4 0.0000 0.0000 0.0000 15.8930 0.0000 0.0000
# 5 0.0000 0.0000 0.0000 0.0000 5.7943 0.0000
# 6 0.0000 0.0000 0.0000 0.0000 0.0000 9.9241
#
#
#
# Elastic Compliance Matrix: (Units=1/GPa)
#
#
# Indices 1 2 3 4 5 6 
#
# 1 0.007843 0.002688 -0.002991 0.000000 0.000000 0.000000
# 2 0.002688 0.204498 0.002332 0.000000 0.000000 0.000000
# 3 -0.002991 0.002332 0.007799 0.000000 0.000000 0.000000
# 4 0.000000 0.000000 0.000000 0.062921 0.000000 0.000000
# 5 0.000000 0.000000 0.000000 0.000000 0.172583 0.000000
# 6 0.000000 0.000000 0.000000 0.000000 0.000000 0.100765
#
#
# Mechanical properties :
#
#
# Convention : Reuss Voigt Hill
#
# Bulk Modulus (GPa) = 4.46032 46.01206 25.23619
# Shear Modulus (GPa) = 7.97342 23.23545 15.60444
#
# Velocity S-wave (km/s) = 2.09912 3.58337 2.93657
# Velocity P-wave (km/s) = 2.88790 6.52289 5.04421
#
# Compressibility (1/GPa) = 0.22419897
#
# Stress axis : x y z
#
# Youngs Moduli (GPa) = 127.50410 4.89002 128.21469
#
# Poissons Ratio (x) = -0.01315 0.38354
# Poissons Ratio (y) = -0.34277 -0.29904
# Poissons Ratio (z) = 0.38141 -0.01141
#
# Static dielectric constant tensor:
#      x y z
#    x 1.609840 0.000000 0.000000 
#    y 0.000000 1.635080 0.000000 
#    z 0.000000 0.000000 1.608670 
# 
# From -- ./inp_files/33201.got.cif
#   From: 2010.05.17/outbox.cif.g08.bks.cpg/sg51_17_cif.got.tgz:33201.got - 2010.06.03 11:52:47.
