data_PCOD9403222
_publ_section_title
;
Structure prediction by ZEFSAII (Michael W. Deem and Ramdas Pophale) SiO2 
 PCOD9403222
Probable space group: P M M A
;
_chemical_formula_sum "Si O2"
_cell_formula_units_Z 48
_cell_length_a 9.282290
_cell_length_b 7.483524
_cell_length_c 31.844442
_cell_angle_alpha 90.000000
_cell_angle_beta 90.000000
_cell_angle_gamma 90.000000
_cell_volume 2212.049961
_symmetry_space_group_name_H-M "P M M A"
_symmetry_group_IT_number 51
_symmetry_cell_setting 'orthorhombic'
loop_
_space_group_symop_operation_xyz
x,y,z
1/2-x,-y,z
1/2+x,-y,-z
-x,y,-z
-x,-y,-z
1/2+x,y,-z
1/2-x,y,z
x,-y,z
loop_
_atom_site_type_symbol
_atom_site_label
_atom_site_fract_x
_atom_site_fract_y
_atom_site_fract_z
Si Si1 0.586213 0.285769 0.374427
Si Si2 0.083825 0.781500 0.958058
Si Si3 0.083750 0.281194 0.291884
Si Si4 0.913707 0.785944 0.875705
Si Si5 0.086292 0.285925 0.790604
Si Si6 0.086455 0.214068 0.459511
O O1 0.750000 0.217214 0.376136
O O2 0.594525 0.500000 0.370368
O O3 0.499423 0.221303 0.333660
O O4 0.500277 0.248472 0.416963
O O5 0.250000 0.724508 0.958248
O O6 0.000668 0.720474 0.916365
O O7 0.084316 0.000000 0.957781
O O8 0.000000 0.726291 0.000000
O O9 0.250000 0.224792 0.291867
O O10 0.083926 0.500000 0.291875
O O11 0.000460 0.221103 0.250139
O O12 0.750000 0.717062 0.873812
O O13 0.999951 0.750306 0.833131
O O14 0.904984 0.000000 0.880113
O O15 0.250000 0.217025 0.792466
O O16 0.094962 0.500000 0.786344
O O17 0.250000 0.283248 0.457396
O O18 0.000000 0.283284 0.500000
O O19 0.095673 0.000000 0.464116
#
# Coordination Sequence:
#
# PCOD9403222 Si02
#       6
#     8   8   8   8   8   8
#     4  10  20  34  54  80 107 134 167 209 254 298
#     4   9  16  27  45  69  97 129 165 205 249 298
#     4   9  17  31  52  76 102 133 168 207 251 298
#     4  10  20  33  50  74 103 133 167 209 254 298
#     4  10  20  34  53  76 102 134 171 208 249 302
#     4  10  21  37  56  77 103 137 174 210 251 301
#
# _framework density 21.69933
#
# number of rings (size 3 to 8) (size 9 to 14) (size 15 to 20)
#    0.000    2.333    0.000    3.000    0.000    8.333 
#    0.000    0.833    0.000    5.500    0.000    0.000 
#    0.000    0.000    0.000    0.000    0.000    0.000 
#
# Total GULP energy -268341.298800 kJ/mol
# GULP energy per Si atom -5590.443725 kJ/mol
# Density = 2.164994 g / cm^3
# Si number density = 21.699330 Si / 1000 Ang^3
#
#
#
# Elastic Constant Matrix: (Units=GPa)
#
#
# Indices 1 2 3 4 5 6 
#
# 1 287.1571 8.7645 173.3194 0.0000 0.0000 0.0000
# 2 8.7645 61.4856 -1.1179 0.0000 0.0000 0.0000
# 3 173.3194 -1.1179 265.3845 0.0000 0.0000 0.0000
# 4 0.0000 0.0000 0.0000 21.6378 0.0000 0.0000
# 5 0.0000 0.0000 0.0000 0.0000 48.0382 0.0000
# 6 0.0000 0.0000 0.0000 0.0000 0.0000 11.8605
#
#
#
# Elastic Compliance Matrix: (Units=1/GPa)
#
#
# Indices 1 2 3 4 5 6 
#
# 1 0.005797 -0.000895 -0.003790 0.000000 0.000000 0.000000
# 2 -0.000895 0.016403 0.000654 0.000000 0.000000 0.000000
# 3 -0.003790 0.000654 0.006246 0.000000 0.000000 0.000000
# 4 0.000000 0.000000 0.000000 0.046215 0.000000 0.000000
# 5 0.000000 0.000000 0.000000 0.000000 0.020817 0.000000
# 6 0.000000 0.000000 0.000000 0.000000 0.000000 0.084313
#
#
# Mechanical properties :
#
#
# Convention : Reuss Voigt Hill
#
# Bulk Modulus (GPa) = 49.05810 108.43991 78.74900
# Shear Modulus (GPa) = 25.68720 45.17805 35.43262
#
# Velocity S-wave (km/s) = 3.44434 4.56785 4.04529
# Velocity P-wave (km/s) = 6.20284 8.82625 7.62817
#
# Compressibility (1/GPa) = 0.02038399
#
# Stress axis : x y z
#
# Youngs Moduli (GPa) = 172.49806 60.96266 160.10337
#
# Poissons Ratio (x) = 0.05458 0.60676
# Poissons Ratio (y) = 0.15443 -0.10467
# Poissons Ratio (z) = 0.65374 -0.03986
#
# Static dielectric constant tensor:
#      x y z
#    x 1.759660 0.000000 0.000000 
#    y 0.000000 1.861230 0.000000 
#    z 0.000000 0.000000 1.721750 
# 
# From -- ./inp_files/34519.got.cif
#   From: 2010.05.17/outbox.cif.g08.bks.cpg/sg51_18_cif.got.tgz:34519.got - 2010.06.03 11:52:47.
