data_PCOD9403666
_publ_section_title
;
Structure prediction by ZEFSAII (Michael W. Deem and Ramdas Pophale) SiO2 
 PCOD9403666
Probable space group: P M M A
;
_chemical_formula_sum "Si O2"
_cell_formula_units_Z 44
_cell_length_a 9.610605
_cell_length_b 7.744572
_cell_length_c 31.182848
_cell_angle_alpha 90.000000
_cell_angle_beta 90.000000
_cell_angle_gamma 90.000000
_cell_volume 2320.940075
_symmetry_space_group_name_H-M "P M M A"
_symmetry_group_IT_number 51
_symmetry_cell_setting 'orthorhombic'
loop_
_space_group_symop_operation_xyz
x,y,z
1/2-x,-y,z
1/2+x,-y,-z
-x,y,-z
-x,-y,-z
1/2+x,y,-z
1/2-x,y,z
x,-y,z
loop_
_atom_site_type_symbol
_atom_site_label
_atom_site_fract_x
_atom_site_fract_y
_atom_site_fract_z
Si Si1 0.581536 0.500000 0.455562
Si Si2 0.591503 0.208026 0.784361
Si Si3 0.909588 0.789029 0.295336
Si Si4 0.407151 0.205342 0.961050
Si Si5 0.419137 0.802229 0.609628
Si Si6 0.090888 0.294799 0.119893
O O1 0.750000 0.500000 0.461744
O O2 0.500000 0.500000 0.500000
O O3 0.543659 0.668022 0.427221
O O4 0.750000 0.272317 0.780952
O O5 0.499507 0.271254 0.744832
O O6 0.541010 0.253005 0.832018
O O7 0.594400 0.000000 0.781655
O O8 0.750000 0.731379 0.291026
O O9 0.964093 0.742894 0.342738
O O10 0.908163 0.000000 0.295112
O O11 0.250000 0.276116 0.959968
O O12 0.489055 0.229127 0.916756
O O13 0.395331 0.000000 0.968213
O O14 0.500000 0.277697 0.000000
O O15 0.250000 0.805552 0.611724
O O16 0.465167 0.000000 0.601922
O O17 0.250000 0.225848 0.115258
O O18 0.097680 0.500000 0.115682
#
# Coordination Sequence:
#
# PCOD9403666 Si02
#       6
#     4   8   8   8   8   8
#     4  10  20  34  52  74 102 134 172 214 259 312
#     4   9  17  30  49  72  99 132 167 205 251 298
#     4   8  14  27  48  71  94 123 162 204 245 294
#     4  10  21  37  58  81 101 125 163 210 257 305
#     4   8  15  30  51  73  99 133 171 212 258 308
#     4  10  21  36  52  72 103 140 173 204 245 300
#
# _framework density 18.957834999999999
#
# number of rings (size 3 to 8) (size 9 to 14) (size 15 to 20)
#    0.000    2.909    0.000    2.182    0.000    3.636 
#    1.636    2.727    0.000    1.091    0.000    0.000 
#    0.000    0.000    0.000    0.000    0.000    0.000 
#
# Total GULP energy -245332.002757 kJ/mol
# GULP energy per Si atom -5575.727335 kJ/mol
# Density = 1.891469 g / cm^3
# Si number density = 18.957835 Si / 1000 Ang^3
#
#
#
# Elastic Constant Matrix: (Units=GPa)
#
#
# Indices 1 2 3 4 5 6 
#
# 1 77.7171 22.9414 94.4503 0.0000 0.0000 0.0000
# 2 22.9414 48.6270 35.8138 0.0000 0.0000 0.0000
# 3 94.4503 35.8138 204.0517 0.0000 0.0000 0.0000
# 4 0.0000 0.0000 0.0000 67.6957 0.0000 0.0000
# 5 0.0000 0.0000 0.0000 0.0000 35.5494 0.0000
# 6 0.0000 0.0000 0.0000 0.0000 0.0000 9.3738
#
#
#
# Elastic Compliance Matrix: (Units=1/GPa)
#
#
# Indices 1 2 3 4 5 6 
#
# 1 0.030265 -0.004549 -0.013210 0.000000 0.000000 0.000000
# 2 -0.004549 0.024301 -0.002160 0.000000 0.000000 0.000000
# 3 -0.013210 -0.002160 0.011394 0.000000 0.000000 0.000000
# 4 0.000000 0.000000 0.000000 0.014772 0.000000 0.000000
# 5 0.000000 0.000000 0.000000 0.000000 0.028130 0.000000
# 6 0.000000 0.000000 0.000000 0.000000 0.000000 0.106680
#
#
# Mechanical properties :
#
#
# Convention : Reuss Voigt Hill
#
# Bulk Modulus (GPa) = 38.28086 70.75630 54.51858
# Shear Modulus (GPa) = 18.93313 34.33648 26.63480
#
# Velocity S-wave (km/s) = 3.16364 4.26044 3.75233
# Velocity P-wave (km/s) = 5.79494 7.84894 6.89881
#
# Compressibility (1/GPa) = 0.02612271
#
# Stress axis : x y z
#
# Youngs Moduli (GPa) = 33.04198 41.14995 87.76193
#
# Poissons Ratio (x) = 0.18719 1.15936
# Poissons Ratio (y) = 0.15030 0.18953
# Poissons Ratio (z) = 0.43649 0.08887
#
# Static dielectric constant tensor:
#      x y z
#    x 1.656740 0.000000 0.000000 
#    y 0.000000 1.689300 0.000000 
#    z 0.000000 0.000000 1.642680 
# 
# From -- ./inp_files/36808.got.cif
#   From: 2010.05.17/outbox.cif.g08.bks.cpg/sg51_19_cif.got.tgz:36808.got - 2010.06.03 11:52:47.
