data_PCOD9403605
_publ_section_title
;
Structure prediction by ZEFSAII (Michael W. Deem and Ramdas Pophale) SiO2 
 PCOD9403605
Probable space group: P M M A
;
_chemical_formula_sum "Si O2"
_cell_formula_units_Z 64
_cell_length_a 23.458352
_cell_length_b 9.488016
_cell_length_c 18.318065
_cell_angle_alpha 90.000000
_cell_angle_beta 90.000000
_cell_angle_gamma 90.000000
_cell_volume 4077.110695
_symmetry_space_group_name_H-M "P M M A"
_symmetry_group_IT_number 51
_symmetry_cell_setting 'orthorhombic'
loop_
_space_group_symop_operation_xyz
x,y,z
1/2-x,-y,z
1/2+x,-y,-z
-x,y,-z
-x,-y,-z
1/2+x,y,-z
1/2-x,y,z
x,-y,z
loop_
_atom_site_type_symbol
_atom_site_label
_atom_site_fract_x
_atom_site_fract_y
_atom_site_fract_z
Si Si1 0.180606 0.661599 0.579826
Si Si2 0.680665 0.162128 0.559778
Si Si3 0.683043 0.832641 0.275979
Si Si4 0.182221 0.664550 0.992709
Si Si5 0.182990 0.169737 0.275491
Si Si6 0.997481 0.667316 0.086944
Si Si7 0.113378 0.831452 0.870899
Si Si8 0.623983 0.667011 0.853988
O O1 0.250000 0.662299 0.578027
O O2 0.161802 0.500000 0.582389
O O3 0.161145 0.739827 0.506276
O O4 0.164863 0.746151 0.652749
O O5 0.750000 0.161516 0.559131
O O6 0.664907 0.207843 0.641717
O O7 0.662702 0.000000 0.548241
O O8 0.750000 0.801312 0.260651
O O9 0.645061 0.800944 0.205466
O O10 0.679377 0.000000 0.291233
O O11 0.250000 0.677575 0.986240
O O12 0.166288 0.500000 0.979161
O O13 0.150703 0.763669 0.935521
O O14 0.162174 0.698046 0.074655
O O15 0.250000 0.207254 0.266253
O O16 0.145826 0.244723 0.214336
O O17 0.179143 0.000000 0.269957
O O18 0.985145 0.500000 0.094201
O O19 0.058880 0.695245 0.122698
O O20 0.948122 0.759098 0.123158
O O21 0.000000 0.697403 0.000000
O O22 0.109523 0.000000 0.879055
O O23 0.629369 0.500000 0.838667
#
# Coordination Sequence:
#
# PCOD9403605 Si02
#       8
#     8   8   8   8   8   8   8   8
#     4   9  16  25  41  68  97 125 161 200 232 270
#     4   8  14  26  43  63  93 133 165 187 226 285
#     4   9  18  32  47  66  98 134 160 189 237 294
#     4  10  20  34  51  70  96 131 165 195 238 297
#     4   9  18  31  47  71 103 134 162 196 240 290
#     4  10  20  38  57  69  90 125 166 209 250 295
#     4  11  22  34  51  74  98 124 162 208 250 290
#     4  10  20  34  52  71  92 125 166 205 244 287
#
# _framework density 15.697392000000001
#
# number of rings (size 3 to 8) (size 9 to 14) (size 15 to 20)
#    0.000    2.500    1.250    2.250    0.000    5.750 
#    0.000    2.500    0.000    0.000    0.000    0.875 
#    0.000    7.000    0.000    0.000    0.000    0.000 
#
# Total GULP energy -356838.182845 kJ/mol
# GULP energy per Si atom -5575.596607 kJ/mol
# Density = 1.566166 g / cm^3
# Si number density = 15.697392 Si / 1000 Ang^3
#
#
#
# Elastic Constant Matrix: (Units=GPa)
#
#
# Indices 1 2 3 4 5 6 
#
# 1 47.1893 33.6576 38.7437 0.0000 0.0000 0.0000
# 2 33.6576 63.4566 74.0235 0.0000 0.0000 0.0000
# 3 38.7437 74.0235 130.8782 0.0000 0.0000 0.0000
# 4 0.0000 0.0000 0.0000 156.8975 0.0000 0.0000
# 5 0.0000 0.0000 0.0000 0.0000 1.2627 0.0000
# 6 0.0000 0.0000 0.0000 0.0000 0.0000 21.8511
#
#
#
# Elastic Compliance Matrix: (Units=1/GPa)
#
#
# Indices 1 2 3 4 5 6 
#
# 1 0.034093 -0.018546 0.000397 0.000000 0.000000 0.000000
# 2 -0.018546 0.056408 -0.026413 0.000000 0.000000 0.000000
# 3 0.000397 -0.026413 0.022462 0.000000 0.000000 0.000000
# 4 0.000000 0.000000 0.000000 0.006374 0.000000 0.000000
# 5 0.000000 0.000000 0.000000 0.000000 0.791936 0.000000
# 6 0.000000 0.000000 0.000000 0.000000 0.000000 0.045764
#
#
# Mechanical properties :
#
#
# Convention : Reuss Voigt Hill
#
# Bulk Modulus (GPa) = 41.95000 59.37485 50.66243
# Shear Modulus (GPa) = 4.74334 42.34221 23.54278
#
# Velocity S-wave (km/s) = 1.74020 5.19929 3.87691
# Velocity P-wave (km/s) = 5.55157 8.59943 7.23775
#
# Compressibility (1/GPa) = 0.02383790
#
# Stress axis : x y z
#
# Youngs Moduli (GPa) = 29.33117 17.72810 44.51907
#
# Poissons Ratio (x) = 0.32879 -0.01768
# Poissons Ratio (y) = 0.54399 1.17590
# Poissons Ratio (z) = -0.01165 0.46826
#
# Static dielectric constant tensor:
#      x y z
#    x 1.503960 0.000000 0.000000 
#    y 0.000000 1.523080 0.000000 
#    z 0.000000 0.000000 1.510320 
# 
# From -- ./inp_files/30835.got.cif
#   From: 2010.05.17/outbox.cif.g08.bks.cpg/sg51_16_cif.got.tgz:30835.got - 2010.06.03 11:52:47.
