data_PCOD9403388
_publ_section_title
;
Structure prediction by ZEFSAII (Michael W. Deem and Ramdas Pophale) SiO2 
 PCOD9403388
Probable space group: P M M A
;
_chemical_formula_sum "Si O2"
_cell_formula_units_Z 64
_cell_length_a 19.558741
_cell_length_b 17.188281
_cell_length_c 9.917827
_cell_angle_alpha 90.000000
_cell_angle_beta 90.000000
_cell_angle_gamma 90.000000
_cell_volume 3334.186351
_symmetry_space_group_name_H-M "P M M A"
_symmetry_group_IT_number 51
_symmetry_cell_setting 'orthorhombic'
loop_
_space_group_symop_operation_xyz
x,y,z
1/2-x,-y,z
1/2+x,-y,-z
-x,y,-z
-x,-y,-z
1/2+x,y,-z
1/2-x,y,z
x,-y,z
loop_
_atom_site_type_symbol
_atom_site_label
_atom_site_fract_x
_atom_site_fract_y
_atom_site_fract_z
Si Si1 0.667739 0.694843 0.529636
Si Si2 0.171821 0.331394 0.185439
Si Si3 0.670274 0.587776 0.282800
Si Si4 0.424915 0.357915 0.947104
Si Si5 0.934445 0.172276 0.094058
Si Si6 0.832151 0.875742 0.569586
Si Si7 0.449204 0.087832 0.618863
Si Si8 0.671736 0.144557 0.870181
O O1 0.750000 0.691597 0.540382
O O2 0.642264 0.655295 0.666079
O O3 0.650115 0.649986 0.395703
O O4 0.651261 0.785427 0.536723
O O5 0.250000 0.358185 0.174743
O O6 0.172340 0.237580 0.161800
O O7 0.124599 0.366272 0.073741
O O8 0.750000 0.604281 0.238668
O O9 0.670934 0.500000 0.337303
O O10 0.613332 0.595181 0.168745
O O11 0.425911 0.266263 0.902629
O O12 0.500000 0.378893 0.000000
O O13 0.943767 0.137707 0.243925
O O14 0.872706 0.135862 0.004932
O O15 0.000000 0.157386 0.000000
O O16 0.750000 0.887032 0.560364
O O17 0.876351 0.917415 0.456859
O O18 0.852009 0.891718 0.726443
O O19 0.500000 0.118199 0.500000
O O20 0.472263 0.000000 0.653862
O O21 0.750000 0.120070 0.892660
#
# Coordination Sequence:
#
# PCOD9403388 Si02
#       8
#     8   8   8   8   8   8   8   8
#     4   8  15  30  54  80 100 127 171 218 259 297
#     4   8  14  28  51  76 101 127 163 212 258 304
#     4  10  20  34  52  75 106 142 175 207 249 305
#     4  10  20  33  51  78 105 133 171 216 262 304
#     4  10  20  35  55  77 101 133 177 222 263 310
#     4   9  17  33  57  80 103 132 169 215 264 313
#     4  11  24  38  52  74 106 142 176 213 260 313
#     4   8  15  29  52  80 104 128 162 211 267 312
#
# _framework density 19.195087999999998
#
# number of rings (size 3 to 8) (size 9 to 14) (size 15 to 20)
#    0.000    2.750    0.000    3.375    0.000    2.750 
#    0.000    1.875    0.000    3.750    0.000    0.000 
#    0.000    0.000    0.000    0.000    0.000    0.000 
#
# Total GULP energy -356456.014781 kJ/mol
# GULP energy per Si atom -5569.625231 kJ/mol
# Density = 1.915140 g / cm^3
# Si number density = 19.195088 Si / 1000 Ang^3
#
#
#
# Elastic Constant Matrix: (Units=GPa)
#
#
# Indices 1 2 3 4 5 6 
#
# 1 70.5864 18.2353 51.9830 0.0000 0.0000 0.0000
# 2 18.2353 29.6532 35.8645 0.0000 0.0000 0.0000
# 3 51.9830 35.8645 123.2831 0.0000 0.0000 0.0000
# 4 0.0000 0.0000 0.0000 -12.0574 0.0000 0.0000
# 5 0.0000 0.0000 0.0000 0.0000 24.7573 0.0000
# 6 0.0000 0.0000 0.0000 0.0000 0.0000 12.2471
#
#
#
# Elastic Compliance Matrix: (Units=1/GPa)
#
#
# Indices 1 2 3 4 5 6 
#
# 1 0.020763 -0.003363 -0.007776 0.000000 0.000000 0.000000
# 2 -0.003363 0.052574 -0.013877 0.000000 0.000000 0.000000
# 3 -0.007776 -0.013877 0.015427 0.000000 0.000000 0.000000
# 4 0.000000 0.000000 0.000000 -0.082937 0.000000 0.000000
# 5 0.000000 0.000000 0.000000 0.000000 0.040392 0.000000
# 6 0.000000 0.000000 0.000000 0.000000 0.000000 0.081652
#
#
# Mechanical properties :
#
#
# Convention : Reuss Voigt Hill
#
# Bulk Modulus (GPa) = 25.81788 48.40979 37.11384
# Shear Modulus (GPa) = 26.20346 12.81873 19.51109
#
# Velocity S-wave (km/s) = 3.69875 2.58701 3.19166
# Velocity P-wave (km/s) = 5.63209 5.84792 5.74102
#
# Compressibility (1/GPa) = 0.03873285
#
# Stress axis : x y z
#
# Youngs Moduli (GPa) = 48.16336 19.02065 64.82029
#
# Poissons Ratio (x) = 0.06396 0.50407
# Poissons Ratio (y) = 0.16196 0.89949
# Poissons Ratio (z) = 0.37454 0.26394
#
# Static dielectric constant tensor:
#      x y z
#    x 1.653680 0.000000 0.000000 
#    y 0.000000 1.700560 0.000000 
#    z 0.000000 0.000000 1.685500 
# 
# From -- ./inp_files/10052.got.cif
#   From: 2010.05.17/outbox.cif.g08.bks.cpg/sg51_6_cif.got.tgz:10052.got - 2010.06.03 11:52:47.
