data_PCOD9403069
_publ_section_title
;
Structure prediction by ZEFSAII (Michael W. Deem and Ramdas Pophale) SiO2 
 PCOD9403069
Probable space group: P M M A
;
_chemical_formula_sum "Si O2"
_cell_formula_units_Z 64
_cell_length_a 9.175678
_cell_length_b 18.586671
_cell_length_c 27.078673
_cell_angle_alpha 90.000000
_cell_angle_beta 90.000000
_cell_angle_gamma 90.000000
_cell_volume 4618.140632
_symmetry_space_group_name_H-M "P M M A"
_symmetry_group_IT_number 51
_symmetry_cell_setting 'orthorhombic'
loop_
_space_group_symop_operation_xyz
x,y,z
1/2-x,-y,z
1/2+x,-y,-z
-x,y,-z
-x,-y,-z
1/2+x,y,-z
1/2-x,y,z
x,-y,z
loop_
_atom_site_type_symbol
_atom_site_label
_atom_site_fract_x
_atom_site_fract_y
_atom_site_fract_z
Si Si1 0.926173 0.352782 0.949121
Si Si2 0.916253 0.792883 0.900742
Si Si3 0.578489 0.415412 0.147438
Si Si4 0.917751 0.704740 0.797101
Si Si5 0.582020 0.912398 0.549508
Si Si6 0.424931 0.917817 0.850768
Si Si7 0.575490 0.084575 0.349968
Si Si8 0.925262 0.833838 0.249773
O O1 0.750000 0.359451 0.949655
O O2 0.962944 0.268302 0.939372
O O3 0.993634 0.395916 0.903075
O O4 0.000000 0.376302 0.000000
O O5 0.750000 0.813847 0.911390
O O6 0.917418 0.749265 0.848803
O O7 0.011695 0.863081 0.891211
O O8 0.750000 0.397447 0.141815
O O9 0.565157 0.500000 0.157300
O O10 0.507526 0.366732 0.190169
O O11 0.750000 0.689682 0.784327
O O12 0.995459 0.758214 0.759046
O O13 0.500000 0.888127 0.500000
O O14 0.750000 0.890203 0.548905
O O15 0.503307 0.890699 0.600136
O O16 0.578298 0.000000 0.548991
O O17 0.250000 0.917350 0.853908
O O18 0.462888 0.885999 0.796516
O O19 0.475921 0.000000 0.855811
O O20 0.750000 0.089741 0.356673
O O21 0.535071 0.128969 0.301301
O O22 0.541559 0.000000 0.341959
O O23 0.750000 0.824050 0.248460
#
# Coordination Sequence:
#
# PCOD9403069 Si02
#       8
#     8   8   8   8   8   8   8   8
#     4  10  20  33  49  67  86 107 131 158 190 229
#     4   8  16  29  42  58  78 101 128 156 189 229
#     4  10  20  33  49  68  88 109 133 159 187 223
#     4   9  17  29  44  61  82 107 134 162 192 230
#     4   9  16  25  36  49  67  95 133 176 219 260
#     4   9  16  25  39  59  79 100 128 161 197 236
#     4   9  16  25  37  54  77 105 138 177 218 254
#     4   9  16  26  40  57  80 108 135 165 202 243
#
# _framework density 13.858392
#
# number of rings (size 3 to 8) (size 9 to 14) (size 15 to 20)
#    0.000    2.875    0.000    2.625    0.000    8.500 
#    0.000    0.000    0.000    2.625    0.000    0.000 
#    0.000    0.000    0.000    0.000    0.000    0.625 
#
# Total GULP energy -356423.588376 kJ/mol
# GULP energy per Si atom -5569.118568 kJ/mol
# Density = 1.382685 g / cm^3
# Si number density = 13.858392 Si / 1000 Ang^3
#
#
#
# Elastic Constant Matrix: (Units=GPa)
#
#
# Indices 1 2 3 4 5 6 
#
# 1 57.7519 41.0556 28.8719 0.0000 0.0000 0.0000
# 2 41.0556 70.0078 22.7216 0.0000 0.0000 0.0000
# 3 28.8719 22.7216 49.7692 0.0000 0.0000 0.0000
# 4 0.0000 0.0000 0.0000 11.3521 0.0000 0.0000
# 5 0.0000 0.0000 0.0000 0.0000 20.0282 0.0000
# 6 0.0000 0.0000 0.0000 0.0000 0.0000 17.9408
#
#
#
# Elastic Compliance Matrix: (Units=1/GPa)
#
#
# Indices 1 2 3 4 5 6 
#
# 1 0.035748 -0.016709 -0.013109 0.000000 0.000000 0.000000
# 2 -0.016709 0.024579 -0.001528 0.000000 0.000000 0.000000
# 3 -0.013109 -0.001528 0.028395 0.000000 0.000000 0.000000
# 4 0.000000 0.000000 0.000000 0.088090 0.000000 0.000000
# 5 0.000000 0.000000 0.000000 0.000000 0.049930 0.000000
# 6 0.000000 0.000000 0.000000 0.000000 0.000000 0.055739
#
#
# Mechanical properties :
#
#
# Convention : Reuss Voigt Hill
#
# Bulk Modulus (GPa) = 38.41898 40.31412 39.36655
# Shear Modulus (GPa) = 14.13027 15.52286 14.82657
#
# Velocity S-wave (km/s) = 3.19661 3.35043 3.27442
# Velocity P-wave (km/s) = 6.43484 6.64232 6.53940
#
# Compressibility (1/GPa) = 0.02602880
#
# Stress axis : x y z
#
# Youngs Moduli (GPa) = 27.97370 40.68495 35.21712
#
# Poissons Ratio (x) = 0.67982 0.46168
# Poissons Ratio (y) = 0.46742 0.05381
# Poissons Ratio (z) = 0.36672 0.06217
#
# Static dielectric constant tensor:
#      x y z
#    x 1.468360 0.000000 0.000000 
#    y 0.000000 1.446680 0.000000 
#    z 0.000000 0.000000 1.440490 
# 
# From -- ./inp_files/35117.got.cif
#   From: 2010.05.17/outbox.cif.g08.bks.cpg/sg51_18_cif.got.tgz:35117.got - 2010.06.03 11:52:47.
