data_PCOD9403024
_publ_section_title
;
Structure prediction by ZEFSAII (Michael W. Deem and Ramdas Pophale) SiO2 
 PCOD9403024
Probable space group: P M M A
;
_chemical_formula_sum "Si O2"
_cell_formula_units_Z 48
_cell_length_a 8.987002
_cell_length_b 15.550308
_cell_length_c 26.208442
_cell_angle_alpha 90.000000
_cell_angle_beta 90.000000
_cell_angle_gamma 90.000000
_cell_volume 3662.646781
_symmetry_space_group_name_H-M "P M M A"
_symmetry_group_IT_number 51
_symmetry_cell_setting 'orthorhombic'
loop_
_space_group_symop_operation_xyz
x,y,z
1/2-x,-y,z
1/2+x,-y,-z
-x,y,-z
-x,-y,-z
1/2+x,y,-z
1/2-x,y,z
x,-y,z
loop_
_atom_site_type_symbol
_atom_site_label
_atom_site_fract_x
_atom_site_fract_y
_atom_site_fract_z
Si Si1 0.428352 0.905241 0.556554
Si Si2 0.928051 0.732051 0.556352
Si Si3 0.074728 0.397083 0.633463
Si Si4 0.578212 0.395222 0.947700
Si Si5 0.421772 0.604828 0.843073
Si Si6 0.420508 0.395500 0.260908
O O1 0.500000 0.909047 0.500000
O O2 0.250000 0.892999 0.552921
O O3 0.505818 0.821112 0.579473
O O4 0.455023 0.000000 0.580048
O O5 0.750000 0.736551 0.552340
O O6 0.000000 0.722267 0.500000
O O7 0.981281 0.654218 0.591664
O O8 0.250000 0.378553 0.627967
O O9 0.054252 0.500000 0.627971
O O10 0.017515 0.372093 0.689840
O O11 0.750000 0.369321 0.946840
O O12 0.574521 0.500000 0.947771
O O13 0.495621 0.367260 0.896175
O O14 0.500000 0.367073 0.000000
O O15 0.250000 0.630692 0.840442
O O16 0.425190 0.500000 0.843056
O O17 0.509769 0.633389 0.792697
O O18 0.250000 0.367045 0.266579
O O19 0.419537 0.500000 0.259405
#
# Coordination Sequence:
#
# PCOD9403024 Si02
#       6
#     8   8   8   8   8   8
#     4   9  16  27  44  64  84 103 122 145 174 211
#     4  11  21  32  46  62  81 102 124 151 183 223
#     4  10  20  33  46  58  74  97 125 157 191 226
#     4   9  15  21  28  39  56  77 100 128 165 209
#     4   9  15  22  32  45  60  79 104 134 169 209
#     4   9  16  26  39  53  67  84 110 144 180 216
#
# _framework density 13.105276
#
# number of rings (size 3 to 8) (size 9 to 14) (size 15 to 20)
#    0.000    2.500    0.000    5.000    0.000    8.333 
#    0.000    0.000    0.000    0.000    0.000    0.000 
#    0.000    0.000    0.000    0.000    0.000    0.000 
#
# Total GULP energy -267280.508951 kJ/mol
# GULP energy per Si atom -5568.343936 kJ/mol
# Density = 1.307545 g / cm^3
# Si number density = 13.105276 Si / 1000 Ang^3
#
#
#
# Elastic Constant Matrix: (Units=GPa)
#
#
# Indices 1 2 3 4 5 6 
#
# 1 112.1391 28.2266 42.2353 0.0000 0.0000 0.0000
# 2 28.2266 27.5090 22.5325 0.0000 0.0000 0.0000
# 3 42.2353 22.5325 76.7443 0.0000 0.0000 0.0000
# 4 0.0000 0.0000 0.0000 -0.4687 0.0000 0.0000
# 5 0.0000 0.0000 0.0000 0.0000 25.2767 0.0000
# 6 0.0000 0.0000 0.0000 0.0000 0.0000 13.8511
#
#
#
# Elastic Compliance Matrix: (Units=1/GPa)
#
#
# Indices 1 2 3 4 5 6 
#
# 1 0.013003 -0.009849 -0.004264 0.000000 0.000000 0.000000
# 2 -0.009849 0.055322 -0.010823 0.000000 0.000000 0.000000
# 3 -0.004264 -0.010823 0.018555 0.000000 0.000000 0.000000
# 4 0.000000 0.000000 0.000000 -2.133347 0.000000 0.000000
# 5 0.000000 0.000000 0.000000 0.000000 0.039562 0.000000
# 6 0.000000 0.000000 0.000000 0.000000 0.000000 0.072196
#
#
# Mechanical properties :
#
#
# Convention : Reuss Voigt Hill
#
# Bulk Modulus (GPa) = 27.02118 44.70903 35.86511
# Shear Modulus (GPa) = -2.67023 15.95835 6.64406
#
# Velocity S-wave (km/s) = -1.42897 3.49335 2.25406
# Velocity P-wave (km/s) = 4.23565 7.10357 5.84814
#
# Compressibility (1/GPa) = 0.03700801
#
# Stress axis : x y z
#
# Youngs Moduli (GPa) = 76.90773 18.07584 53.89514
#
# Poissons Ratio (x) = 0.17803 0.22981
# Poissons Ratio (y) = 0.75747 0.58329
# Poissons Ratio (z) = 0.32794 0.19563
#
# Static dielectric constant tensor:
#      x y z
#    x 1.438800 0.000000 0.000000 
#    y 0.000000 1.423810 0.000000 
#    z 0.000000 0.000000 1.423540 
# 
# From -- ./inp_files/34625.got.cif
#   From: 2010.05.17/outbox.cif.g08.bks.cpg/sg51_18_cif.got.tgz:34625.got - 2010.06.03 11:52:47.
