data_PCOD9403559
_publ_section_title
;
Structure prediction by ZEFSAII (Michael W. Deem and Ramdas Pophale) SiO2 
 PCOD9403559
Probable space group: P M M A
;
_chemical_formula_sum "Si O2"
_cell_formula_units_Z 64
_cell_length_a 9.508076
_cell_length_b 14.658240
_cell_length_c 24.616173
_cell_angle_alpha 90.000000
_cell_angle_beta 90.000000
_cell_angle_gamma 90.000000
_cell_volume 3430.796893
_symmetry_space_group_name_H-M "P M M A"
_symmetry_group_IT_number 51
_symmetry_cell_setting 'orthorhombic'
loop_
_space_group_symop_operation_xyz
x,y,z
1/2-x,-y,z
1/2+x,-y,-z
-x,y,-z
-x,-y,-z
1/2+x,y,-z
1/2-x,y,z
x,-y,z
loop_
_atom_site_type_symbol
_atom_site_label
_atom_site_fract_x
_atom_site_fract_y
_atom_site_fract_z
Si Si1 0.588907 0.390443 0.840584
Si Si2 0.409570 0.357431 0.948886
Si Si3 0.092901 0.141051 0.951124
Si Si4 0.419572 0.391865 0.283019
Si Si5 0.405953 0.108932 0.152943
Si Si6 0.907240 0.107899 0.250079
Si Si7 0.412935 0.243976 0.649581
Si Si8 0.580586 0.103837 0.443050
O O1 0.750000 0.358226 0.849525
O O2 0.594620 0.500000 0.838931
O O3 0.490142 0.366883 0.891432
O O4 0.541278 0.364231 0.779408
O O5 0.250000 0.394127 0.946589
O O6 0.396435 0.249512 0.958945
O O7 0.500000 0.394223 0.000000
O O8 0.250000 0.103810 0.949746
O O9 0.010130 0.127365 0.895848
O O10 0.000000 0.103309 0.000000
O O11 0.250000 0.382951 0.286640
O O12 0.452934 0.500000 0.290104
O O13 0.495584 0.327368 0.326883
O O14 0.250000 0.145212 0.143013
O O15 0.475741 0.141614 0.208362
O O16 0.396795 0.000000 0.157979
O O17 0.750000 0.117879 0.225705
O O18 0.912929 0.166653 0.303911
O O19 0.926243 0.000000 0.261180
O O20 0.250000 0.273241 0.641718
O O21 0.460810 0.187136 0.596567
O O22 0.500000 0.111444 0.500000
O O23 0.750000 0.109094 0.450200
O O24 0.551976 0.000000 0.421517
#
# Coordination Sequence:
#
# PCOD9403559 Si02
#       8
#     8   8   8   8   8   8   8   8
#     4   9  19  36  55  74  99 132 168 209 264 327
#     4  10  21  35  52  74  98 125 162 208 261 323
#     4  10  21  36  52  70  92 121 160 205 254 311
#     4   9  20  38  56  78 110 147 187 232 284 336
#     4  10  21  35  50  70  96 127 164 207 255 307
#     4   9  18  33  51  74 108 144 175 212 261 320
#     4  10  20  33  55  85 113 147 190 230 273 322
#     4   9  18  34  56  85 123 162 196 232 273 320
#
# _framework density 18.654558999999999
#
# number of rings (size 3 to 8) (size 9 to 14) (size 15 to 20)
#    0.000    2.500    0.000    2.250    1.750    6.250 
#    0.000    1.250    0.000    4.125    0.000    0.000 
#    0.000    0.000    0.000    0.000    0.000    0.000 
#
# Total GULP energy -356881.709855 kJ/mol
# GULP energy per Si atom -5576.276716 kJ/mol
# Density = 1.861210 g / cm^3
# Si number density = 18.654559 Si / 1000 Ang^3
#
#
#
# Elastic Constant Matrix: (Units=GPa)
#
#
# Indices 1 2 3 4 5 6 
#
# 1 102.1696 38.6849 55.9823 0.0000 0.0000 0.0000
# 2 38.6849 97.9706 41.8721 0.0000 0.0000 0.0000
# 3 55.9823 41.8721 100.3248 0.0000 0.0000 0.0000
# 4 0.0000 0.0000 0.0000 30.9229 0.0000 0.0000
# 5 0.0000 0.0000 0.0000 0.0000 31.4200 0.0000
# 6 0.0000 0.0000 0.0000 0.0000 0.0000 23.7824
#
#
#
# Elastic Compliance Matrix: (Units=1/GPa)
#
#
# Indices 1 2 3 4 5 6 
#
# 1 0.014703 -0.002798 -0.007036 0.000000 0.000000 0.000000
# 2 -0.002798 0.012956 -0.003846 0.000000 0.000000 0.000000
# 3 -0.007036 -0.003846 0.015499 0.000000 0.000000 0.000000
# 4 0.000000 0.000000 0.000000 0.032338 0.000000 0.000000
# 5 0.000000 0.000000 0.000000 0.000000 0.031827 0.000000
# 6 0.000000 0.000000 0.000000 0.000000 0.000000 0.042048
#
#
# Mechanical properties :
#
#
# Convention : Reuss Voigt Hill
#
# Bulk Modulus (GPa) = 63.30451 63.72706 63.51578
# Shear Modulus (GPa) = 27.47299 28.15345 27.81322
#
# Velocity S-wave (km/s) = 3.84177 3.88906 3.86549
# Velocity P-wave (km/s) = 7.32719 7.37578 7.35153
#
# Compressibility (1/GPa) = 0.01579666
#
# Stress axis : x y z
#
# Youngs Moduli (GPa) = 68.01520 77.18589 64.51989
#
# Poissons Ratio (x) = 0.21598 0.45398
# Poissons Ratio (y) = 0.19032 0.24813
# Poissons Ratio (z) = 0.47858 0.29684
#
# Static dielectric constant tensor:
#      x y z
#    x 1.677790 0.000000 0.000000 
#    y 0.000000 1.683610 0.000000 
#    z 0.000000 0.000000 1.630350 
# 
# From -- ./inp_files/34914.got.cif
#   From: 2010.05.17/outbox.cif.g08.bks.cpg/sg51_18_cif.got.tgz:34914.got - 2010.06.03 11:52:47.
