data_PCOD9403389
_publ_section_title
;
Structure prediction by ZEFSAII (Michael W. Deem and Ramdas Pophale) SiO2 
 PCOD9403389
Probable space group: P M M A
;
_chemical_formula_sum "Si O2"
_cell_formula_units_Z 48
_cell_length_a 13.184466
_cell_length_b 7.362726
_cell_length_c 19.096128
_cell_angle_alpha 90.000000
_cell_angle_beta 90.000000
_cell_angle_gamma 90.000000
_cell_volume 1853.730094
_symmetry_space_group_name_H-M "P M M A"
_symmetry_group_IT_number 51
_symmetry_cell_setting 'orthorhombic'
loop_
_space_group_symop_operation_xyz
x,y,z
1/2-x,-y,z
1/2+x,-y,-z
-x,y,-z
-x,-y,-z
1/2+x,y,-z
1/2-x,y,z
x,-y,z
loop_
_atom_site_type_symbol
_atom_site_label
_atom_site_fract_x
_atom_site_fract_y
_atom_site_fract_z
Si Si1 0.063943 0.222210 0.761598
Si Si2 0.635378 0.779359 0.695668
Si Si3 0.128852 0.210124 0.610805
Si Si4 0.089790 0.206140 0.910037
Si Si5 0.861074 0.293575 0.935496
Si Si6 0.870512 0.220079 0.540591
O O1 0.945410 0.271657 0.754034
O O2 0.112774 0.285302 0.833728
O O3 0.108711 0.285797 0.687752
O O4 0.071563 0.000000 0.763697
O O5 0.750000 0.715781 0.706535
O O6 0.594823 0.722916 0.618278
O O7 0.638869 0.000000 0.693983
O O8 0.250000 0.205850 0.603731
O O9 0.092718 0.286240 0.535684
O O10 0.092452 0.000000 0.613377
O O11 0.966324 0.201983 0.913523
O O12 0.126813 0.000000 0.913729
O O13 0.130355 0.298043 0.979707
O O14 0.750000 0.216535 0.916359
O O15 0.865091 0.500000 0.910007
O O16 0.750000 0.260293 0.543960
O O17 0.879930 0.000000 0.537511
#
# Coordination Sequence:
#
# PCOD9403389 Si02
#       6
#     8   8   8   8   8   8
#     4   9  17  25  35  57  87 119 150 180 226 281
#     4   8  13  21  31  45  71 109 153 195 227 260
#     4   8  13  21  31  45  71 109 153 195 227 260
#     4  10  20  33  51  78 108 131 156 195 240 291
#     4  10  21  38  59  77  94 124 163 199 238 285
#     4   7  10  17  29  43  62  99 153 200 226 250
#
# _framework density 25.893739
#
# number of rings (size 3 to 8) (size 9 to 14) (size 15 to 20)
#    0.000    3.333    0.000    4.000    0.000    3.333 
#    0.000    6.667    0.000    0.000    0.000    0.000 
#    0.000    0.000    0.000   12.000    0.000   82.667 
#
# Total GULP energy -267972.376349 kJ/mol
# GULP energy per Si atom -5582.757841 kJ/mol
# Density = 2.583480 g / cm^3
# Si number density = 25.893739 Si / 1000 Ang^3
#
#
#
# Elastic Constant Matrix: (Units=GPa)
#
#
# Indices 1 2 3 4 5 6 
#
# 1 80.4319 -2.8626 -8.0903 0.0000 0.0000 0.0000
# 2 -2.8626 95.3080 -0.3035 0.0000 0.0000 0.0000
# 3 -8.0903 -0.3035 129.0345 0.0000 0.0000 0.0000
# 4 0.0000 0.0000 0.0000 8.8107 0.0000 0.0000
# 5 0.0000 0.0000 0.0000 0.0000 9.9581 0.0000
# 6 0.0000 0.0000 0.0000 0.0000 0.0000 -5.8608
#
#
#
# Elastic Compliance Matrix: (Units=1/GPa)
#
#
# Indices 1 2 3 4 5 6 
#
# 1 0.012525 0.000379 0.000786 0.000000 0.000000 0.000000
# 2 0.000379 0.010504 0.000048 0.000000 0.000000 0.000000
# 3 0.000786 0.000048 0.007799 0.000000 0.000000 0.000000
# 4 0.000000 0.000000 0.000000 0.113498 0.000000 0.000000
# 5 0.000000 0.000000 0.000000 0.000000 0.100420 0.000000
# 6 0.000000 0.000000 0.000000 0.000000 0.000000 -0.170625
#
#
# Mechanical properties :
#
#
# Convention : Reuss Voigt Hill
#
# Bulk Modulus (GPa) = 30.07038 31.36238 30.71638
# Shear Modulus (GPa) = 60.40062 23.65032 42.02547
#
# Velocity S-wave (km/s) = 4.83497 3.02546 4.03301
# Velocity P-wave (km/s) = 6.54274 4.93385 5.79441
#
# Compressibility (1/GPa) = 0.03325532
#
# Stress axis : x y z
#
# Youngs Moduli (GPa) = 79.83748 95.20336 128.21705
#
# Poissons Ratio (x) = -0.03605 -0.10081
# Poissons Ratio (y) = -0.03024 -0.00621
# Poissons Ratio (z) = -0.06277 -0.00461
#
# Static dielectric constant tensor:
#      x y z
#    x 2.069940 0.000000 0.000000 
#    y 0.000000 2.006490 0.000000 
#    z 0.000000 0.000000 2.022490 
# 
# From -- ./inp_files/33209.got.cif
#   From: 2010.05.17/outbox.cif.g08.bks.cpg/sg51_17_cif.got.tgz:33209.got - 2010.06.03 11:52:47.
