data_PCOD9403807
_publ_section_title
;
Structure prediction by ZEFSAII (Michael W. Deem and Ramdas Pophale) SiO2 
 PCOD9403807
Probable space group: P M M A
;
_chemical_formula_sum "Si O2"
_cell_formula_units_Z 64
_cell_length_a 14.809500
_cell_length_b 7.952908
_cell_length_c 24.920727
_cell_angle_alpha 90.000000
_cell_angle_beta 90.000000
_cell_angle_gamma 90.000000
_cell_volume 2935.128113
_symmetry_space_group_name_H-M "P M M A"
_symmetry_group_IT_number 51
_symmetry_cell_setting 'orthorhombic'
loop_
_space_group_symop_operation_xyz
x,y,z
1/2-x,-y,z
1/2+x,-y,-z
-x,y,-z
-x,-y,-z
1/2+x,y,-z
1/2-x,y,z
x,-y,z
loop_
_atom_site_type_symbol
_atom_site_label
_atom_site_fract_x
_atom_site_fract_y
_atom_site_fract_z
Si Si1 0.392975 0.189377 0.512165
Si Si2 0.646676 0.296897 0.152884
Si Si3 0.346762 0.799625 0.243278
Si Si4 0.150340 0.198447 0.114568
Si Si5 0.476797 0.307049 0.942412
Si Si6 0.548476 0.699423 0.376849
Si Si7 0.152707 0.694325 0.400350
Si Si8 0.455967 0.201255 0.738089
O O1 0.500000 0.195057 0.500000
O O2 0.389536 0.237501 0.574388
O O3 0.350751 0.299695 0.465286
O O4 0.360345 0.000000 0.504351
O O5 0.750000 0.238303 0.155138
O O6 0.646492 0.500000 0.149518
O O7 0.595274 0.231995 0.099527
O O8 0.594289 0.252880 0.207572
O O9 0.250000 0.727653 0.261057
O O10 0.350370 0.785336 0.178782
O O11 0.441385 0.727653 0.262791
O O12 0.345659 0.000000 0.255439
O O13 0.250000 0.246902 0.095091
O O14 0.070658 0.302853 0.089360
O O15 0.136412 0.000000 0.102924
O O16 0.447745 0.500000 0.953066
O O17 0.500000 0.226811 0.000000
O O18 0.541287 0.500000 0.383501
O O19 0.444434 0.769969 0.382294
O O20 0.585715 0.742447 0.318241
O O21 0.250000 0.771428 0.384061
O O22 0.153196 0.500000 0.382967
O O23 0.460843 0.000000 0.738829
#
# Coordination Sequence:
#
# PCOD9403807 Si02
#       8
#     8   8   8   8   8   8   8   8
#     4   9  17  31  51  75 103 137 181 228 271 318
#     4  10  22  41  61  80 109 150 191 231 280 337
#     4   8  15  29  50  76 106 140 175 214 268 329
#     4   9  17  32  54  79 109 144 179 217 266 326
#     4  10  21  36  57  86 116 146 183 229 280 335
#     4  10  20  34  53  77 109 147 184 224 273 332
#     4   9  18  33  53  78 110 147 182 219 270 331
#     4  11  21  35  58  84 111 146 189 238 285 331
#
# _framework density 21.804841
#
# number of rings (size 3 to 8) (size 9 to 14) (size 15 to 20)
#    0.000    2.500    1.250    1.875    0.000    4.000 
#    0.000    1.875    0.000    4.875    0.000    0.000 
#    0.000    0.000    0.000    0.000    0.000    0.000 
#
# Total GULP energy -356894.968762 kJ/mol
# GULP energy per Si atom -5576.483887 kJ/mol
# Density = 2.175521 g / cm^3
# Si number density = 21.804841 Si / 1000 Ang^3
#
#
#
# Elastic Constant Matrix: (Units=GPa)
#
#
# Indices 1 2 3 4 5 6 
#
# 1 72.4110 -2.2010 35.9930 0.0000 0.0000 0.0000
# 2 -2.2010 28.3927 -1.5766 0.0000 0.0000 0.0000
# 3 35.9930 -1.5766 140.0641 0.0000 0.0000 0.0000
# 4 0.0000 0.0000 0.0000 9.8551 0.0000 0.0000
# 5 0.0000 0.0000 0.0000 0.0000 0.0539 0.0000
# 6 0.0000 0.0000 0.0000 0.0000 0.0000 12.8523
#
#
#
# Elastic Compliance Matrix: (Units=1/GPa)
#
#
# Indices 1 2 3 4 5 6 
#
# 1 0.015861 0.001004 -0.004065 0.000000 0.000000 0.000000
# 2 0.001004 0.035306 0.000139 0.000000 0.000000 0.000000
# 3 -0.004065 0.000139 0.008186 0.000000 0.000000 0.000000
# 4 0.000000 0.000000 0.000000 0.101470 0.000000 0.000000
# 5 0.000000 0.000000 0.000000 0.000000 18.559898 0.000000
# 6 0.000000 0.000000 0.000000 0.000000 0.000000 0.077807
#
#
# Mechanical properties :
#
#
# Convention : Reuss Voigt Hill
#
# Bulk Modulus (GPa) = 18.68813 33.92205 26.30509
# Shear Modulus (GPa) = 0.26564 18.46243 9.36404
#
# Velocity S-wave (km/s) = 0.34942 2.91299 2.07456
# Velocity P-wave (km/s) = 2.95838 5.18699 4.22238
#
# Compressibility (1/GPa) = 0.05350991
#
# Stress axis : x y z
#
# Youngs Moduli (GPa) = 63.04808 28.32391 122.16500
#
# Poissons Ratio (x) = -0.02843 0.49655
# Poissons Ratio (y) = -0.06329 -0.01704
# Poissons Ratio (z) = 0.25626 -0.00395
#
# Static dielectric constant tensor:
#      x y z
#    x 1.827020 0.000000 0.000000 
#    y 0.000000 1.792470 0.000000 
#    z 0.000000 0.000000 1.800730 
# 
# From -- ./inp_files/35806.got.cif
#   From: 2010.05.17/outbox.cif.g08.bks.cpg/sg51_18_cif.got.tgz:35806.got - 2010.06.03 11:52:47.
