data_PCOD9403462
_publ_section_title
;
Structure prediction by ZEFSAII (Michael W. Deem and Ramdas Pophale) SiO2 
 PCOD9403462
Probable space group: P M M A
;
_chemical_formula_sum "Si O2"
_cell_formula_units_Z 48
_cell_length_a 14.407626
_cell_length_b 9.034536
_cell_length_c 18.219093
_cell_angle_alpha 90.000000
_cell_angle_beta 90.000000
_cell_angle_gamma 90.000000
_cell_volume 2371.510391
_symmetry_space_group_name_H-M "P M M A"
_symmetry_group_IT_number 51
_symmetry_cell_setting 'orthorhombic'
loop_
_space_group_symop_operation_xyz
x,y,z
1/2-x,-y,z
1/2+x,-y,-z
-x,y,-z
-x,-y,-z
1/2+x,y,-z
1/2-x,y,z
x,-y,z
loop_
_atom_site_type_symbol
_atom_site_label
_atom_site_fract_x
_atom_site_fract_y
_atom_site_fract_z
Si Si1 0.857900 0.824333 0.376337
Si Si2 0.139012 0.830601 0.450939
Si Si3 0.109133 0.831357 0.019647
Si Si4 0.148241 0.323891 0.873133
Si Si5 0.036106 0.674088 0.321387
Si Si6 0.455579 0.177355 0.174309
O O1 0.750000 0.788081 0.363294
O O2 0.877924 0.800325 0.463108
O O3 0.930506 0.729980 0.330895
O O4 0.870213 0.000000 0.362099
O O5 0.250000 0.824234 0.440848
O O6 0.088716 0.723041 0.395063
O O7 0.108213 0.000000 0.436116
O O8 0.149604 0.723280 0.958886
O O9 0.059068 0.758447 0.839999
O O10 0.144732 0.000000 0.012347
O O11 0.109056 0.783484 0.104471
O O12 0.250000 0.283079 0.841851
O O13 0.135973 0.500000 0.866053
O O14 0.039414 0.500000 0.310736
O O15 0.077798 0.757282 0.251019
O O16 0.460990 0.000000 0.176467
O O17 0.500000 0.161209 0.000000
#
# Coordination Sequence:
#
# PCOD9403462 Si02
#       6
#     8   8   8   8   8   8
#     4   9  19  37  60  83 108 144 189 231 271 323
#     4   9  19  38  62  83 105 140 188 235 274 322
#     4   8  16  32  53  74  94 124 169 211 246 293
#     4  10  20  33  52  80 110 137 167 209 264 322
#     4  12  24  35  53  83 117 150 181 223 283 340
#     4  10  21  37  55  74 101 140 182 221 261 311
#
# _framework density 20.240265999999998
#
# number of rings (size 3 to 8) (size 9 to 14) (size 15 to 20)
#    0.000    2.333    0.000    5.000    0.000    9.000 
#    0.000    2.500    0.000    1.000    0.000    0.000 
#    0.000    0.000    0.000    0.000    0.000    0.000 
#
# Total GULP energy -268033.714741 kJ/mol
# GULP energy per Si atom -5584.035724 kJ/mol
# Density = 2.019420 g / cm^3
# Si number density = 20.240266 Si / 1000 Ang^3
#
#
#
# Elastic Constant Matrix: (Units=GPa)
#
#
# Indices 1 2 3 4 5 6 
#
# 1 27.9360 3.3861 1.6601 0.0000 0.0000 0.0000
# 2 3.3861 54.0483 27.0675 0.0000 0.0000 0.0000
# 3 1.6601 27.0675 55.4451 0.0000 0.0000 0.0000
# 4 0.0000 0.0000 0.0000 6.4064 0.0000 0.0000
# 5 0.0000 0.0000 0.0000 0.0000 7.4363 0.0000
# 6 0.0000 0.0000 0.0000 0.0000 0.0000 12.3846
#
#
#
# Elastic Compliance Matrix: (Units=1/GPa)
#
#
# Indices 1 2 3 4 5 6 
#
# 1 0.036070 -0.002275 0.000031 0.000000 0.000000 0.000000
# 2 -0.002275 0.024633 -0.011957 0.000000 0.000000 0.000000
# 3 0.000031 -0.011957 0.023872 0.000000 0.000000 0.000000
# 4 0.000000 0.000000 0.000000 0.156093 0.000000 0.000000
# 5 0.000000 0.000000 0.000000 0.000000 0.134475 0.000000
# 6 0.000000 0.000000 0.000000 0.000000 0.000000 0.080746
#
#
# Mechanical properties :
#
#
# Convention : Reuss Voigt Hill
#
# Bulk Modulus (GPa) = 17.80257 22.40634 20.10446
# Shear Modulus (GPa) = 9.94004 12.26651 11.10328
#
# Velocity S-wave (km/s) = 2.21849 2.46447 2.34471
# Velocity P-wave (km/s) = 3.92135 4.38091 4.15748
#
# Compressibility (1/GPa) = 0.05617165
#
# Stress axis : x y z
#
# Youngs Moduli (GPa) = 27.72383 40.59643 41.88959
#
# Poissons Ratio (x) = 0.09236 -0.00129
# Poissons Ratio (y) = 0.06308 0.50088
# Poissons Ratio (z) = -0.00085 0.48542
#
# Static dielectric constant tensor:
#      x y z
#    x 1.740080 0.000000 0.000000 
#    y 0.000000 1.666520 0.000000 
#    z 0.000000 0.000000 1.749680 
# 
# From -- ./inp_files/25472.got.cif
#   From: 2010.05.17/outbox.cif.g08.bks.cpg/sg51_13_cif.got.tgz:25472.got - 2010.06.03 11:52:47.
