data_PCOD9403787
_publ_section_title
;
Structure prediction by ZEFSAII (Michael W. Deem and Ramdas Pophale) SiO2 
 PCOD9403787
Probable space group: P M M A
;
_chemical_formula_sum "Si O2"
_cell_formula_units_Z 64
_cell_length_a 34.426019
_cell_length_b 9.124043
_cell_length_c 11.194866
_cell_angle_alpha 90.000000
_cell_angle_beta 90.000000
_cell_angle_gamma 90.000000
_cell_volume 3516.357538
_symmetry_space_group_name_H-M "P M M A"
_symmetry_group_IT_number 51
_symmetry_cell_setting 'orthorhombic'
loop_
_space_group_symop_operation_xyz
x,y,z
1/2-x,-y,z
1/2+x,-y,-z
-x,y,-z
-x,-y,-z
1/2+x,y,-z
1/2-x,y,z
x,-y,z
loop_
_atom_site_type_symbol
_atom_site_label
_atom_site_fract_x
_atom_site_fract_y
_atom_site_fract_z
Si Si1 0.637300 0.170518 0.325658
Si Si2 0.090458 0.176077 0.911192
Si Si3 0.631226 0.175205 0.838059
Si Si4 0.706212 0.323923 0.457165
Si Si5 0.294312 0.323453 0.265145
Si Si6 0.980221 0.674161 0.206173
Si Si7 0.444956 0.171134 0.564373
Si Si8 0.446298 0.175147 0.288972
O O1 0.618819 0.216118 0.199017
O O2 0.673605 0.260044 0.371976
O O3 0.601415 0.181518 0.418020
O O4 0.648127 0.000000 0.316151
O O5 0.049673 0.256292 0.888568
O O6 0.083833 0.000000 0.904660
O O7 0.111765 0.210074 0.034495
O O8 0.671664 0.253694 0.812397
O O9 0.597951 0.214923 0.741941
O O10 0.637192 0.000000 0.832934
O O11 0.750000 0.277374 0.424503
O O12 0.705022 0.500000 0.453545
O O13 0.699561 0.280839 0.595675
O O14 0.250000 0.280914 0.232320
O O15 0.296377 0.500000 0.258689
O O16 0.980971 0.500000 0.196587
O O17 0.963574 0.726851 0.335257
O O18 0.023216 0.742004 0.205312
O O19 0.454957 0.205740 0.428123
O O20 0.455690 0.000000 0.588999
O O21 0.450214 0.000000 0.270642
#
# Coordination Sequence:
#
# PCOD9403787 Si02
#       8
#     8   8   8   8   8   8   8   8
#     4   9  17  31  52  75  98 128 168 212 255 297
#     4   9  20  39  56  71  99 137 174 214 259 303
#     4  10  21  37  58  80 100 132 180 222 253 297
#     4   9  18  32  50  75 107 138 165 197 246 309
#     4   9  19  36  56  79 110 142 165 197 255 313
#     4  11  22  34  51  76 104 136 175 214 254 305
#     4   9  18  33  52  74 103 135 166 208 263 316
#     4  10  20  34  53  77 105 136 170 212 264 313
#
# _framework density 18.200652999999999
#
# number of rings (size 3 to 8) (size 9 to 14) (size 15 to 20)
#    0.000    2.500    0.000    3.750    0.000    7.500 
#    0.000    4.375    0.000    3.750    0.000    0.000 
#    0.000    0.000    0.000    0.000    0.000    0.000 
#
# Total GULP energy -357146.082985 kJ/mol
# GULP energy per Si atom -5580.407547 kJ/mol
# Density = 1.815923 g / cm^3
# Si number density = 18.200653 Si / 1000 Ang^3
#
#
#
# Elastic Constant Matrix: (Units=GPa)
#
#
# Indices 1 2 3 4 5 6 
#
# 1 96.4626 29.8457 19.1236 0.0000 0.0000 0.0000
# 2 29.8457 28.4706 13.2632 0.0000 0.0000 0.0000
# 3 19.1236 13.2632 38.1086 0.0000 0.0000 0.0000
# 4 0.0000 0.0000 0.0000 18.1966 0.0000 0.0000
# 5 0.0000 0.0000 0.0000 0.0000 21.5073 0.0000
# 6 0.0000 0.0000 0.0000 0.0000 0.0000 41.5778
#
#
#
# Elastic Compliance Matrix: (Units=1/GPa)
#
#
# Indices 1 2 3 4 5 6 
#
# 1 0.015547 -0.015114 -0.002542 0.000000 0.000000 0.000000
# 2 -0.015114 0.056613 -0.012119 0.000000 0.000000 0.000000
# 3 -0.002542 -0.012119 0.031734 0.000000 0.000000 0.000000
# 4 0.000000 0.000000 0.000000 0.054955 0.000000 0.000000
# 5 0.000000 0.000000 0.000000 0.000000 0.046496 0.000000
# 6 0.000000 0.000000 0.000000 0.000000 0.000000 0.024051
#
#
# Mechanical properties :
#
#
# Convention : Reuss Voigt Hill
#
# Bulk Modulus (GPa) = 22.55027 31.94522 27.24774
# Shear Modulus (GPa) = 16.46214 22.97698 19.71956
#
# Velocity S-wave (km/s) = 3.01072 3.55692 3.29516
# Velocity P-wave (km/s) = 4.95001 5.87015 5.42961
#
# Compressibility (1/GPa) = 0.04434537
#
# Stress axis : x y z
#
# Youngs Moduli (GPa) = 64.32205 17.66367 31.51184
#
# Poissons Ratio (x) = 0.26696 0.08009
# Poissons Ratio (y) = 0.97214 0.38190
# Poissons Ratio (z) = 0.16348 0.21407
#
# Static dielectric constant tensor:
#      x y z
#    x 1.621080 0.000000 0.000000 
#    y 0.000000 1.607050 0.000000 
#    z 0.000000 0.000000 1.630860 
# 
# From -- ./inp_files/19615.got.cif
#   From: 2010.05.17/outbox.cif.g08.bks.cpg/sg51_10_cif.got.tgz:19615.got - 2010.06.03 11:52:47.
