data_PCOD9403257
_publ_section_title
;
Structure prediction by ZEFSAII (Michael W. Deem and Ramdas Pophale) SiO2 
 PCOD9403257
Probable space group: P M M A
;
_chemical_formula_sum "Si O2"
_cell_formula_units_Z 56
_cell_length_a 9.019290
_cell_length_b 22.419123
_cell_length_c 15.240566
_cell_angle_alpha 90.000000
_cell_angle_beta 90.000000
_cell_angle_gamma 90.000000
_cell_volume 3081.712123
_symmetry_space_group_name_H-M "P M M A"
_symmetry_group_IT_number 51
_symmetry_cell_setting 'orthorhombic'
loop_
_space_group_symop_operation_xyz
x,y,z
1/2-x,-y,z
1/2+x,-y,-z
-x,y,-z
-x,-y,-z
1/2+x,y,-z
1/2-x,y,z
x,-y,z
loop_
_atom_site_type_symbol
_atom_site_label
_atom_site_fract_x
_atom_site_fract_y
_atom_site_fract_z
Si Si1 0.073603 0.202981 0.406841
Si Si2 0.572002 0.828437 0.227926
Si Si3 0.423501 0.258429 0.092131
Si Si4 0.074208 0.344830 0.407421
Si Si5 0.927725 0.068808 0.092130
Si Si6 0.923049 0.597714 0.908824
Si Si7 0.925768 0.567039 0.271020
O O1 0.250000 0.192790 0.409387
O O2 0.048951 0.274190 0.393513
O O3 0.000000 0.186967 0.500000
O O4 0.998865 0.171196 0.324078
O O5 0.750000 0.823535 0.233744
O O6 0.506208 0.773416 0.172043
O O7 0.533006 0.886869 0.170727
O O8 0.250000 0.241747 0.091573
O O9 0.432660 0.330095 0.099403
O O10 0.500000 0.241418 0.000000
O O11 0.250000 0.354674 0.410941
O O12 0.000000 0.360879 0.500000
O O13 0.003204 0.383976 0.331287
O O14 0.750000 0.070828 0.082103
O O15 0.971111 0.000000 0.109235
O O16 0.000000 0.087368 0.000000
O O17 0.750000 0.581388 0.908852
O O18 0.006990 0.571180 0.825957
O O19 0.000000 0.580720 0.000000
O O20 0.750000 0.577612 0.267831
O O21 0.951545 0.500000 0.305671
#
# Coordination Sequence:
#
# PCOD9403257 Si02
#       7
#     8   8   8   8   8   8   8
#     4  10  21  37  57  82 110 138 172 215 263 316
#     4  11  21  32  52  80 109 143 179 218 266 314
#     4  10  20  33  50  76 108 138 171 213 262 316
#     4  10  21  38  60  83 107 137 170 209 261 317
#     4   9  19  35  53  76 109 148 188 226 262 304
#     4  10  21  37  56  76 101 136 174 214 262 314
#     4  11  24  39  55  77 104 135 173 216 260 309
#
# _framework density 18.171717000000001
#
# number of rings (size 3 to 8) (size 9 to 14) (size 15 to 20)
#    0.000    1.857    0.000    3.857    0.000   10.857 
#    0.000    0.000    0.000    0.429    0.000    0.000 
#    0.000    0.000    0.000    0.000    0.000    0.000 
#
# Total GULP energy -312969.885177 kJ/mol
# GULP energy per Si atom -5588.747950 kJ/mol
# Density = 1.813036 g / cm^3
# Si number density = 18.171717 Si / 1000 Ang^3
#
#
#
# Elastic Constant Matrix: (Units=GPa)
#
#
# Indices 1 2 3 4 5 6 
#
# 1 86.1803 46.9113 67.3439 0.0000 0.0000 0.0000
# 2 46.9113 51.7821 54.7740 0.0000 0.0000 0.0000
# 3 67.3439 54.7740 158.2680 0.0000 0.0000 0.0000
# 4 0.0000 0.0000 0.0000 62.7663 0.0000 0.0000
# 5 0.0000 0.0000 0.0000 0.0000 40.4402 0.0000
# 6 0.0000 0.0000 0.0000 0.0000 0.0000 23.7485
#
#
#
# Elastic Compliance Matrix: (Units=1/GPa)
#
#
# Indices 1 2 3 4 5 6 
#
# 1 0.024660 -0.017733 -0.004356 0.000000 0.000000 0.000000
# 2 -0.017733 0.043216 -0.007411 0.000000 0.000000 0.000000
# 3 -0.004356 -0.007411 0.010737 0.000000 0.000000 0.000000
# 4 0.000000 0.000000 0.000000 0.015932 0.000000 0.000000
# 5 0.000000 0.000000 0.000000 0.000000 0.024728 0.000000
# 6 0.000000 0.000000 0.000000 0.000000 0.000000 0.042108
#
#
# Mechanical properties :
#
#
# Convention : Reuss Voigt Hill
#
# Bulk Modulus (GPa) = 50.98641 70.47655 60.73148
# Shear Modulus (GPa) = 22.03446 33.87109 27.95277
#
# Velocity S-wave (km/s) = 3.48597 4.32203 3.92632
# Velocity P-wave (km/s) = 6.65746 7.98589 7.35174
#
# Compressibility (1/GPa) = 0.01961307
#
# Stress axis : x y z
#
# Youngs Moduli (GPa) = 40.55118 23.13980 93.13916
#
# Poissons Ratio (x) = 0.41034 0.40571
# Poissons Ratio (y) = 0.71909 0.69023
# Poissons Ratio (z) = 0.17664 0.17148
#
# Static dielectric constant tensor:
#      x y z
#    x 1.601800 0.000000 0.000000 
#    y 0.000000 1.629230 0.000000 
#    z 0.000000 0.000000 1.597630 
# 
# From -- ./inp_files/21759.got.cif
#   From: 2010.05.17/outbox.cif.g08.bks.cpg/sg51_11_cif.got.tgz:21759.got - 2010.06.03 11:52:47.
