data_PCOD9403823
_publ_section_title
;
Structure prediction by ZEFSAII (Michael W. Deem and Ramdas Pophale) SiO2 
 PCOD9403823
Probable space group: P M M A
;
_chemical_formula_sum "Si O2"
_cell_formula_units_Z 40
_cell_length_a 8.858822
_cell_length_b 13.962488
_cell_length_c 19.103889
_cell_angle_alpha 90.000000
_cell_angle_beta 90.000000
_cell_angle_gamma 90.000000
_cell_volume 2362.982876
_symmetry_space_group_name_H-M "P M M A"
_symmetry_group_IT_number 51
_symmetry_cell_setting 'orthorhombic'
loop_
_space_group_symop_operation_xyz
x,y,z
1/2-x,-y,z
1/2+x,-y,-z
-x,y,-z
-x,-y,-z
1/2+x,y,-z
1/2-x,y,z
x,-y,z
loop_
_atom_site_type_symbol
_atom_site_label
_atom_site_fract_x
_atom_site_fract_y
_atom_site_fract_z
Si Si1 0.068157 0.609730 0.779650
Si Si2 0.069964 0.206288 0.288187
Si Si3 0.570232 0.886317 0.424901
Si Si4 0.567817 0.891461 0.152651
Si Si5 0.069471 0.297924 0.926231
O O1 0.250000 0.621965 0.773615
O O2 0.030533 0.500000 0.764051
O O3 0.027977 0.635898 0.860079
O O4 0.987752 0.687556 0.731254
O O5 0.250000 0.202417 0.288262
O O6 0.004443 0.171035 0.361686
O O7 0.005078 0.138818 0.226277
O O8 0.500000 0.860481 0.500000
O O9 0.750000 0.871459 0.425601
O O10 0.542201 0.000000 0.414015
O O11 0.750000 0.886325 0.160530
O O12 0.523922 0.810109 0.096695
O O13 0.527131 0.000000 0.133511
O O14 0.250000 0.300163 0.932521
O O15 0.000000 0.325552 0.000000
#
# Coordination Sequence:
#
# PCOD9403823 Si02
#       5
#     8   8   8   8   8
#     4   9  19  37  57  73  93 127 169 209 252 303
#     4  11  21  32  50  77 106 132 163 207 253 298
#     4  10  20  34  53  78 109 143 175 205 239 283
#     4   9  18  33  50  67  93 133 175 209 244 292
#     4   9  18  31  47  70  98 127 161 203 253 305
#
# _framework density 16.927757
#
# number of rings (size 3 to 8) (size 9 to 14) (size 15 to 20)
#    0.000    2.400    0.000    4.200    0.000    8.400 
#    0.000    0.000    0.000    0.600    0.000    0.000 
#    0.000    0.000    0.000    0.000    0.000    0.000 
#
# Total GULP energy -223198.306581 kJ/mol
# GULP energy per Si atom -5579.957665 kJ/mol
# Density = 1.688923 g / cm^3
# Si number density = 16.927757 Si / 1000 Ang^3
#
#
#
# Elastic Constant Matrix: (Units=GPa)
#
#
# Indices 1 2 3 4 5 6 
#
# 1 36.8844 21.7942 31.2488 0.0000 0.0000 0.0000
# 2 21.7942 53.6449 11.9216 0.0000 0.0000 0.0000
# 3 31.2488 11.9216 95.7849 0.0000 0.0000 0.0000
# 4 0.0000 0.0000 0.0000 9.0256 0.0000 0.0000
# 5 0.0000 0.0000 0.0000 0.0000 32.3554 0.0000
# 6 0.0000 0.0000 0.0000 0.0000 0.0000 12.8409
#
#
#
# Elastic Compliance Matrix: (Units=1/GPa)
#
#
# Indices 1 2 3 4 5 6 
#
# 1 0.048677 -0.016709 -0.013801 0.000000 0.000000 0.000000
# 2 -0.016709 0.024907 0.002351 0.000000 0.000000 0.000000
# 3 -0.013801 0.002351 0.014650 0.000000 0.000000 0.000000
# 4 0.000000 0.000000 0.000000 0.110797 0.000000 0.000000
# 5 0.000000 0.000000 0.000000 0.000000 0.030907 0.000000
# 6 0.000000 0.000000 0.000000 0.000000 0.000000 0.077876
#
#
# Mechanical properties :
#
#
# Convention : Reuss Voigt Hill
#
# Bulk Modulus (GPa) = 31.33167 35.13815 33.23491
# Shear Modulus (GPa) = 13.34158 18.93435 16.13797
#
# Velocity S-wave (km/s) = 2.81044 3.34808 3.09098
# Velocity P-wave (km/s) = 5.39265 5.97905 5.69340
#
# Compressibility (1/GPa) = 0.03191659
#
# Stress axis : x y z
#
# Youngs Moduli (GPa) = 20.54369 40.14957 68.26050
#
# Poissons Ratio (x) = 0.67085 0.94204
# Poissons Ratio (y) = 0.34326 -0.16049
# Poissons Ratio (z) = 0.28352 -0.09440
#
# Static dielectric constant tensor:
#      x y z
#    x 1.564070 0.000000 0.000000 
#    y 0.000000 1.574220 0.000000 
#    z 0.000000 0.000000 1.542120 
# 
# From -- ./inp_files/20495.got.cif
#   From: 2010.05.17/outbox.cif.g08.bks.cpg/sg51_11_cif.got.tgz:20495.got - 2010.06.03 11:52:47.
