data_PCOD9403603
_publ_section_title
;
Structure prediction by ZEFSAII (Michael W. Deem and Ramdas Pophale) SiO2 
 PCOD9403603
Probable space group: P M M A
;
_chemical_formula_sum "Si O2"
_cell_formula_units_Z 56
_cell_length_a 8.401865
_cell_length_b 20.645530
_cell_length_c 16.024404
_cell_angle_alpha 90.000000
_cell_angle_beta 90.000000
_cell_angle_gamma 90.000000
_cell_volume 2779.608436
_symmetry_space_group_name_H-M "P M M A"
_symmetry_group_IT_number 51
_symmetry_cell_setting 'orthorhombic'
loop_
_space_group_symop_operation_xyz
x,y,z
1/2-x,-y,z
1/2+x,-y,-z
-x,y,-z
-x,-y,-z
1/2+x,y,-z
1/2-x,y,z
x,-y,z
loop_
_atom_site_type_symbol
_atom_site_label
_atom_site_fract_x
_atom_site_fract_y
_atom_site_fract_z
Si Si1 0.567210 0.072005 0.310881
Si Si2 0.565337 0.683942 0.409025
Si Si3 0.941847 0.787697 0.087896
Si Si4 0.559637 0.424456 0.907226
Si Si5 0.061215 0.928501 0.128839
Si Si6 0.559031 0.319000 0.221505
Si Si7 0.068385 0.824490 0.418869
O O1 0.750000 0.088321 0.331142
O O2 0.542320 0.069841 0.212556
O O3 0.452107 0.126667 0.344208
O O4 0.531545 0.000000 0.343828
O O5 0.500000 0.661285 0.500000
O O6 0.750000 0.666338 0.408858
O O7 0.496591 0.668328 0.316192
O O8 0.540075 0.761457 0.409656
O O9 0.750000 0.790431 0.088153
O O10 0.993880 0.745266 0.169077
O O11 0.011638 0.860389 0.089120
O O12 0.000000 0.757352 0.000000
O O13 0.750000 0.417730 0.904543
O O14 0.518698 0.500000 0.892686
O O15 0.483383 0.378510 0.838217
O O16 0.500000 0.407741 0.000000
O O17 0.250000 0.925273 0.146922
O O18 0.035544 0.000000 0.088822
O O19 0.750000 0.312620 0.229247
O O20 0.250000 0.803844 0.429313
O O21 0.000000 0.860202 0.500000
#
# Coordination Sequence:
#
# PCOD9403603 Si02
#       7
#     8   8   8   8   8   8   8
#     4  10  20  34  51  70  94 126 166 216 275 337
#     4  10  20  36  57  83 114 147 188 234 283 338
#     4  11  23  38  56  81 113 148 189 237 290 345
#     4  10  21  37  60  91 126 163 200 237 280 336
#     4  10  21  37  56  77 101 135 182 231 281 340
#     4  10  22  38  59  87 119 155 193 238 288 339
#     4  11  21  33  50  71  98 132 171 219 277 338
#
# _framework density 20.146723999999999
#
# number of rings (size 3 to 8) (size 9 to 14) (size 15 to 20)
#    0.000    1.714    0.000    5.571    0.000    7.714 
#    0.000    0.000    0.000    0.429    0.000    0.000 
#    0.000    0.000    0.000    0.000    0.000    0.000 
#
# Total GULP energy -312207.502658 kJ/mol
# GULP energy per Si atom -5575.133976 kJ/mol
# Density = 2.010087 g / cm^3
# Si number density = 20.146724 Si / 1000 Ang^3
#
#
#
# Elastic Constant Matrix: (Units=GPa)
#
#
# Indices 1 2 3 4 5 6 
#
# 1 20.7206 7.5856 9.7310 0.0000 0.0000 0.0000
# 2 7.5856 68.0284 45.3901 0.0000 0.0000 0.0000
# 3 9.7310 45.3901 137.6295 0.0000 0.0000 0.0000
# 4 0.0000 0.0000 0.0000 127.0928 0.0000 0.0000
# 5 0.0000 0.0000 0.0000 0.0000 29.3355 0.0000
# 6 0.0000 0.0000 0.0000 0.0000 0.0000 6.9750
#
#
#
# Elastic Compliance Matrix: (Units=1/GPa)
#
#
# Indices 1 2 3 4 5 6 
#
# 1 0.050835 -0.004193 -0.002211 0.000000 0.000000 0.000000
# 2 -0.004193 0.019193 -0.006033 0.000000 0.000000 0.000000
# 3 -0.002211 -0.006033 0.009412 0.000000 0.000000 0.000000
# 4 0.000000 0.000000 0.000000 0.007868 0.000000 0.000000
# 5 0.000000 0.000000 0.000000 0.000000 0.034088 0.000000
# 6 0.000000 0.000000 0.000000 0.000000 0.000000 0.143369
#
#
# Mechanical properties :
#
#
# Convention : Reuss Voigt Hill
#
# Bulk Modulus (GPa) = 18.32700 39.08799 28.70749
# Shear Modulus (GPa) = 16.24281 43.59210 29.91746
#
# Velocity S-wave (km/s) = 2.84249 4.65664 3.85772
# Velocity P-wave (km/s) = 4.45977 6.95386 5.84148
#
# Compressibility (1/GPa) = 0.05456431
#
# Stress axis : x y z
#
# Youngs Moduli (GPa) = 19.67161 52.10273 106.24696
#
# Poissons Ratio (x) = 0.21846 0.23496
# Poissons Ratio (y) = 0.08248 0.64102
# Poissons Ratio (z) = 0.04350 0.31435
#
# Static dielectric constant tensor:
#      x y z
#    x 1.729580 0.000000 0.000000 
#    y 0.000000 1.697940 0.000000 
#    z 0.000000 0.000000 1.807740 
# 
# From -- ./inp_files/21864.got.cif
#   From: 2010.05.17/outbox.cif.g08.bks.cpg/sg51_11_cif.got.tgz:21864.got - 2010.06.03 11:52:47.
