data_PCOD9403259
_publ_section_title
;
Structure prediction by ZEFSAII (Michael W. Deem and Ramdas Pophale) SiO2 
 PCOD9403259
Probable space group: P M M A
;
_chemical_formula_sum "Si O2"
_cell_formula_units_Z 56
_cell_length_a 8.820422
_cell_length_b 14.684931
_cell_length_c 24.015255
_cell_angle_alpha 90.000000
_cell_angle_beta 90.000000
_cell_angle_gamma 90.000000
_cell_volume 3110.630862
_symmetry_space_group_name_H-M "P M M A"
_symmetry_group_IT_number 51
_symmetry_cell_setting 'orthorhombic'
loop_
_space_group_symop_operation_xyz
x,y,z
1/2-x,-y,z
1/2+x,-y,-z
-x,y,-z
-x,-y,-z
1/2+x,y,-z
1/2-x,y,z
x,-y,z
loop_
_atom_site_type_symbol
_atom_site_label
_atom_site_fract_x
_atom_site_fract_y
_atom_site_fract_z
Si Si1 0.568657 0.894335 0.887828
Si Si2 0.570510 0.723224 0.057601
Si Si3 0.072346 0.891003 0.767248
Si Si4 0.931423 0.893967 0.439403
Si Si5 0.432102 0.785787 0.336932
Si Si6 0.434496 0.602932 0.282645
Si Si7 0.072024 0.390813 0.156312
O O1 0.750000 0.885595 0.888769
O O2 0.494559 0.823635 0.929900
O O3 0.507358 0.871206 0.826089
O O4 0.529154 0.000000 0.899048
O O5 0.750000 0.726203 0.053317
O O6 0.519583 0.661085 0.109290
O O7 0.500000 0.688501 0.000000
O O8 0.250000 0.866070 0.769705
O O9 0.990822 0.841445 0.716502
O O10 0.063099 0.000000 0.758680
O O11 0.750000 0.886209 0.441160
O O12 0.000000 0.873519 0.500000
O O13 0.998195 0.829663 0.391963
O O14 0.969085 0.000000 0.426427
O O15 0.250000 0.790558 0.339452
O O16 0.478755 0.681110 0.325570
O O17 0.250000 0.600522 0.281269
O O18 0.486396 0.500000 0.294732
O O19 0.480398 0.629022 0.219524
O O20 0.250000 0.365089 0.151724
O O21 0.062222 0.500000 0.149548
#
# Coordination Sequence:
#
# PCOD9403259 Si02
#       7
#     8   8   8   8   8   8   8
#     4  10  21  38  58  78 103 136 174 218 268 322
#     4  12  25  39  56  77 104 137 175 220 266 320
#     4  10  20  33  50  76 110 143 174 212 261 316
#     4  10  21  37  55  76 107 146 185 225 267 313
#     4  11  20  30  52  82 110 143 181 221 264 312
#     4   8  16  32  54  80 108 138 172 211 258 311
#     4   9  18  36  61  84 108 139 175 218 268 320
#
# _framework density 18.002779
#
# number of rings (size 3 to 8) (size 9 to 14) (size 15 to 20)
#    0.000    2.000    0.000    5.143    0.000    6.286 
#    0.000    0.714    0.000    3.857    0.000    0.000 
#    0.000    0.000    0.000    0.000    0.000    0.000 
#
# Total GULP energy -312833.853298 kJ/mol
# GULP energy per Si atom -5586.318809 kJ/mol
# Density = 1.796180 g / cm^3
# Si number density = 18.002779 Si / 1000 Ang^3
#
#
#
# Elastic Constant Matrix: (Units=GPa)
#
#
# Indices 1 2 3 4 5 6 
#
# 1 75.3558 37.1363 40.2318 0.0000 0.0000 0.0000
# 2 37.1363 75.2603 68.6487 0.0000 0.0000 0.0000
# 3 40.2318 68.6487 101.8264 0.0000 0.0000 0.0000
# 4 0.0000 0.0000 0.0000 19.9087 0.0000 0.0000
# 5 0.0000 0.0000 0.0000 0.0000 32.4247 0.0000
# 6 0.0000 0.0000 0.0000 0.0000 0.0000 20.0654
#
#
#
# Elastic Compliance Matrix: (Units=1/GPa)
#
#
# Indices 1 2 3 4 5 6 
#
# 1 0.017857 -0.006170 -0.002896 0.000000 0.000000 0.000000
# 2 -0.006170 0.036639 -0.022264 0.000000 0.000000 0.000000
# 3 -0.002896 -0.022264 0.025974 0.000000 0.000000 0.000000
# 4 0.000000 0.000000 0.000000 0.050229 0.000000 0.000000
# 5 0.000000 0.000000 0.000000 0.000000 0.030841 0.000000
# 6 0.000000 0.000000 0.000000 0.000000 0.000000 0.049837
#
#
# Mechanical properties :
#
#
# Convention : Reuss Voigt Hill
#
# Bulk Modulus (GPa) = 56.14143 60.49735 58.31939
# Shear Modulus (GPa) = 17.85881 21.57479 19.71680
#
# Velocity S-wave (km/s) = 3.15302 3.46557 3.31298
# Velocity P-wave (km/s) = 6.67143 7.04918 6.86291
#
# Compressibility (1/GPa) = 0.01781216
#
# Stress axis : x y z
#
# Youngs Moduli (GPa) = 56.00029 27.29296 38.49972
#
# Poissons Ratio (x) = 0.16840 0.11148
# Poissons Ratio (y) = 0.34553 0.85714
# Poissons Ratio (z) = 0.16216 0.60764
#
# Static dielectric constant tensor:
#      x y z
#    x 1.599420 0.000000 0.000000 
#    y 0.000000 1.633080 0.000000 
#    z 0.000000 0.000000 1.587110 
# 
# From -- ./inp_files/31909.got.cif
#   From: 2010.05.17/outbox.cif.g08.bks.cpg/sg51_16_cif.got.tgz:31909.got - 2010.06.03 11:52:47.
