data_PCOD9403489
_publ_section_title
;
Structure prediction by ZEFSAII (Michael W. Deem and Ramdas Pophale) SiO2 
 PCOD9403489
Probable space group: P M M A
;
_chemical_formula_sum "Si O2"
_cell_formula_units_Z 64
_cell_length_a 24.944578
_cell_length_b 9.031617
_cell_length_c 15.174366
_cell_angle_alpha 90.000000
_cell_angle_beta 90.000000
_cell_angle_gamma 90.000000
_cell_volume 3418.631015
_symmetry_space_group_name_H-M "P M M A"
_symmetry_group_IT_number 51
_symmetry_cell_setting 'orthorhombic'
loop_
_space_group_symop_operation_xyz
x,y,z
1/2-x,-y,z
1/2+x,-y,-z
-x,y,-z
-x,-y,-z
1/2+x,y,-z
1/2-x,y,z
x,-y,z
loop_
_atom_site_type_symbol
_atom_site_label
_atom_site_fract_x
_atom_site_fract_y
_atom_site_fract_z
Si Si1 0.012258 0.171884 0.154871
Si Si2 0.097962 0.322501 0.825751
Si Si3 0.187995 0.678113 0.964412
Si Si4 0.483777 0.169998 0.366545
Si Si5 0.906648 0.323818 0.377578
Si Si6 0.132201 0.824506 0.453291
Si Si7 0.130103 0.821709 0.128363
Si Si8 0.812833 0.324795 0.706472
O O1 0.021557 0.180089 0.260752
O O2 0.068091 0.225010 0.113377
O O3 0.957639 0.258134 0.137064
O O4 0.004336 0.000000 0.131342
O O5 0.093822 0.500000 0.825699
O O6 0.148521 0.279720 0.884814
O O7 0.104181 0.276483 0.723521
O O8 0.250000 0.712848 0.946695
O O9 0.183943 0.500000 0.977384
O O10 0.167117 0.759472 0.051262
O O11 0.531650 0.276952 0.394582
O O12 0.426992 0.200102 0.411115
O O13 0.499524 0.000000 0.387691
O O14 0.900525 0.500000 0.384860
O O15 0.870343 0.242179 0.449161
O O16 0.172897 0.742411 0.388442
O O17 0.142043 0.000000 0.454213
O O18 0.151903 0.757167 0.220038
O O19 0.130992 0.000000 0.132151
O O20 0.750000 0.303599 0.726326
O O21 0.824348 0.500000 0.707846
#
# Coordination Sequence:
#
# PCOD9403489 Si02
#       8
#     8   8   8   8   8   8   8   8
#     4   9  18  34  55  82 117 152 184 223 281 346
#     4   9  20  38  58  82 114 151 193 240 288 339
#     4  10  22  41  62  83 109 146 193 240 286 338
#     4   9  17  32  51  76 111 151 188 223 272 336
#     4  10  20  33  52  82 114 146 190 238 285 335
#     4  11  21  35  55  80 112 152 193 232 280 338
#     4  11  22  38  60  88 118 148 184 229 286 349
#     4  11  24  40  58  82 114 152 193 238 286 339
#
# _framework density 18.720945
#
# number of rings (size 3 to 8) (size 9 to 14) (size 15 to 20)
#    0.000    2.000    1.250    2.250    0.000    7.750 
#    0.000    3.125    0.000    2.250    0.000    0.000 
#    0.000    0.000    0.000    0.000    0.000    0.000 
#
# Total GULP energy -357437.435269 kJ/mol
# GULP energy per Si atom -5584.959926 kJ/mol
# Density = 1.867834 g / cm^3
# Si number density = 18.720945 Si / 1000 Ang^3
#
#
#
# Elastic Constant Matrix: (Units=GPa)
#
#
# Indices 1 2 3 4 5 6 
#
# 1 119.1982 48.7079 50.1238 0.0000 0.0000 0.0000
# 2 48.7079 42.4896 32.7826 0.0000 0.0000 0.0000
# 3 50.1238 32.7826 44.3316 0.0000 0.0000 0.0000
# 4 0.0000 0.0000 0.0000 22.1420 0.0000 0.0000
# 5 0.0000 0.0000 0.0000 0.0000 29.2093 0.0000
# 6 0.0000 0.0000 0.0000 0.0000 0.0000 39.6786
#
#
#
# Elastic Compliance Matrix: (Units=1/GPa)
#
#
# Indices 1 2 3 4 5 6 
#
# 1 0.018150 -0.011580 -0.011958 0.000000 0.000000 0.000000
# 2 -0.011580 0.062191 -0.032896 0.000000 0.000000 0.000000
# 3 -0.011958 -0.032896 0.060404 0.000000 0.000000 0.000000
# 4 0.000000 0.000000 0.000000 0.045163 0.000000 0.000000
# 5 0.000000 0.000000 0.000000 0.000000 0.034236 0.000000
# 6 0.000000 0.000000 0.000000 0.000000 0.000000 0.025202
#
#
# Mechanical properties :
#
#
# Convention : Reuss Voigt Hill
#
# Bulk Modulus (GPa) = 35.87303 52.13867 44.00585
# Shear Modulus (GPa) = 13.60524 23.16633 18.38578
#
# Velocity S-wave (km/s) = 2.69873 3.52156 3.13724
# Velocity P-wave (km/s) = 5.37722 6.66679 6.05643
#
# Compressibility (1/GPa) = 0.02787610
#
# Stress axis : x y z
#
# Youngs Moduli (GPa) = 55.09766 16.07962 16.55518
#
# Poissons Ratio (x) = 0.18620 0.19797
# Poissons Ratio (y) = 0.63801 0.54461
# Poissons Ratio (z) = 0.65885 0.52896
#
# Static dielectric constant tensor:
#      x y z
#    x 1.633990 0.000000 0.000000 
#    y 0.000000 1.627190 0.000000 
#    z 0.000000 0.000000 1.665490 
# 
# From -- ./inp_files/26328.got.cif
#   From: 2010.05.17/outbox.cif.g08.bks.cpg/sg51_14_cif.got.tgz:26328.got - 2010.06.03 11:52:47.
