data_PCOD9403563
_publ_section_title
;
Structure prediction by ZEFSAII (Michael W. Deem and Ramdas Pophale) SiO2 
 PCOD9403563
Probable space group: P M M A
;
_chemical_formula_sum "Si O2"
_cell_formula_units_Z 48
_cell_length_a 28.995611
_cell_length_b 7.631144
_cell_length_c 10.361301
_cell_angle_alpha 90.000000
_cell_angle_beta 90.000000
_cell_angle_gamma 90.000000
_cell_volume 2292.641787
_symmetry_space_group_name_H-M "P M M A"
_symmetry_group_IT_number 51
_symmetry_cell_setting 'orthorhombic'
loop_
_space_group_symop_operation_xyz
x,y,z
1/2-x,-y,z
1/2+x,-y,-z
-x,y,-z
-x,-y,-z
1/2+x,y,-z
1/2-x,y,z
x,-y,z
loop_
_atom_site_type_symbol
_atom_site_label
_atom_site_fract_x
_atom_site_fract_y
_atom_site_fract_z
Si Si1 0.250000 0.703572 0.070361
Si Si2 0.346540 0.211734 0.491964
Si Si3 0.149233 0.293636 0.027457
Si Si4 0.393255 0.787469 0.753792
Si Si5 0.086095 0.705666 0.258581
Si Si6 0.250000 0.213211 0.370562
Si Si7 0.510810 0.203691 0.358762
O O1 0.250000 0.500000 0.028248
O O2 0.298877 0.781880 0.025440
O O3 0.250000 0.715579 0.225529
O O4 0.360270 0.267093 0.635601
O O5 0.384865 0.271275 0.389657
O O6 0.296368 0.269102 0.443729
O O7 0.347099 0.000000 0.490354
O O8 0.154666 0.500000 0.059078
O O9 0.117184 0.220490 0.142053
O O10 0.124575 0.276631 0.890817
O O11 0.444580 0.724944 0.714920
O O12 0.393084 0.000000 0.760887
O O13 0.078380 0.500000 0.235811
O O14 0.035876 0.787250 0.277137
O O15 0.250000 0.000000 0.362968
O O16 0.500000 0.283154 0.500000
O O17 0.522763 0.000000 0.383204
#
# Coordination Sequence:
#
# PCOD9403563 Si02
#       7
#     4   8   8   8   8   4   8
#     4  10  20  39  60  80 116 158 192 231 286 346
#     4  10  20  37  58  86 118 147 188 241 290 339
#     4  10  23  40  58  83 119 156 192 238 288 341
#     4  10  22  39  60  85 116 154 191 235 292 346
#     4  11  22  36  59  88 114 152 195 237 286 340
#     4  10  20  33  60  92 114 144 190 245 292 334
#     4  10  20  38  61  85 116 153 191 239 294 344
#
# _framework density 20.936547999999998
#
# number of rings (size 3 to 8) (size 9 to 14) (size 15 to 20)
#    0.000    1.833    3.333    0.500    0.000    5.000 
#    0.000    4.167    0.000    0.000    0.000    0.000 
#    0.000    0.000    0.000    0.000    0.000    0.000 
#
# Total GULP energy -268110.992380 kJ/mol
# GULP energy per Si atom -5585.645675 kJ/mol
# Density = 2.088890 g / cm^3
# Si number density = 20.936548 Si / 1000 Ang^3
#
#
#
# Elastic Constant Matrix: (Units=GPa)
#
#
# Indices 1 2 3 4 5 6 
#
# 1 143.8386 -8.3656 42.2540 0.0000 0.0000 0.0000
# 2 -8.3656 36.4323 -14.8390 0.0000 0.0000 0.0000
# 3 42.2540 -14.8390 110.1205 0.0000 0.0000 0.0000
# 4 0.0000 0.0000 0.0000 26.7857 0.0000 0.0000
# 5 0.0000 0.0000 0.0000 0.0000 33.5024 0.0000
# 6 0.0000 0.0000 0.0000 0.0000 0.0000 10.7810
#
#
#
# Elastic Compliance Matrix: (Units=1/GPa)
#
#
# Indices 1 2 3 4 5 6 
#
# 1 0.007848 0.000609 -0.002929 0.000000 0.000000 0.000000
# 2 0.000609 0.029089 0.003686 0.000000 0.000000 0.000000
# 3 -0.002929 0.003686 0.010702 0.000000 0.000000 0.000000
# 4 0.000000 0.000000 0.000000 0.037333 0.000000 0.000000
# 5 0.000000 0.000000 0.000000 0.000000 0.029849 0.000000
# 6 0.000000 0.000000 0.000000 0.000000 0.000000 0.092756
#
#
# Mechanical properties :
#
#
# Convention : Reuss Voigt Hill
#
# Bulk Modulus (GPa) = 19.85271 36.49890 28.17580
# Shear Modulus (GPa) = 22.55951 32.30328 27.43140
#
# Velocity S-wave (km/s) = 3.28612 3.93226 3.62362
# Velocity P-wave (km/s) = 4.88887 6.17153 5.56726
#
# Compressibility (1/GPa) = 0.05037096
#
# Stress axis : x y z
#
# Youngs Moduli (GPa) = 127.41813 34.37674 93.44320
#
# Poissons Ratio (x) = -0.02093 0.27373
# Poissons Ratio (y) = -0.07759 -0.34445
# Poissons Ratio (z) = 0.37325 -0.12672
#
# Static dielectric constant tensor:
#      x y z
#    x 1.753000 0.000000 0.000000 
#    y 0.000000 1.634280 0.000000 
#    z 0.000000 0.000000 1.698370 
# 
# From -- ./inp_files/12876.got.cif
#   From: 2010.05.17/outbox.cif.g08.bks.cpg/sg51_7_cif.got.tgz:12876.got - 2010.06.03 11:52:47.
