data_PCOD9403152
_publ_section_title
;
Structure prediction by ZEFSAII (Michael W. Deem and Ramdas Pophale) SiO2 
 PCOD9403152
Probable space group: P M M A
;
_chemical_formula_sum "Si O2"
_cell_formula_units_Z 64
_cell_length_a 8.994322
_cell_length_b 14.487956
_cell_length_c 31.801711
_cell_angle_alpha 90.000000
_cell_angle_beta 90.000000
_cell_angle_gamma 90.000000
_cell_volume 4144.060015
_symmetry_space_group_name_H-M "P M M A"
_symmetry_group_IT_number 51
_symmetry_cell_setting 'orthorhombic'
loop_
_space_group_symop_operation_xyz
x,y,z
1/2-x,-y,z
1/2+x,-y,-z
-x,y,-z
-x,-y,-z
1/2+x,y,-z
1/2-x,y,z
x,-y,z
loop_
_atom_site_type_symbol
_atom_site_label
_atom_site_fract_x
_atom_site_fract_y
_atom_site_fract_z
Si Si1 0.426817 0.106224 0.244613
Si Si2 0.571565 0.607534 0.129585
Si Si3 0.073233 0.389784 0.293710
Si Si4 0.578376 0.612320 0.957170
Si Si5 0.073764 0.104253 0.664536
Si Si6 0.571509 0.713879 0.214454
Si Si7 0.572173 0.704366 0.375204
Si Si8 0.926900 0.390577 0.544869
O O1 0.250000 0.120705 0.242528
O O2 0.482046 0.118095 0.292683
O O3 0.511797 0.182152 0.217557
O O4 0.459216 0.000000 0.232842
O O5 0.750000 0.610285 0.125253
O O6 0.528919 0.500000 0.136180
O O7 0.500066 0.640936 0.086063
O O8 0.530026 0.666098 0.170449
O O9 0.250000 0.370892 0.294877
O O10 0.051973 0.500000 0.291847
O O11 0.001088 0.341831 0.253091
O O12 0.996709 0.349331 0.335398
O O13 0.750000 0.639265 0.957165
O O14 0.571291 0.500000 0.957533
O O15 0.500000 0.644173 0.000000
O O16 0.250000 0.110298 0.675091
O O17 0.041501 0.187124 0.632781
O O18 0.045071 0.000000 0.648990
O O19 0.750000 0.711689 0.218801
O O20 0.750000 0.690972 0.376070
O O21 0.499793 0.666412 0.417545
O O22 0.750000 0.375771 0.543371
O O23 0.952660 0.500000 0.552624
O O24 0.000000 0.367987 0.500000
#
# Coordination Sequence:
#
# PCOD9403152 Si02
#       8
#     8   8   8   8   8   8   8   8
#     4  10  20  33  50  71  95 125 162 205 249 292
#     4   9  18  31  45  63  91 127 165 202 241 288
#     4  11  23  35  47  67  98 134 168 203 240 282
#     4   9  16  26  42  63  87 118 158 202 245 286
#     4   9  18  33  52  74  99 127 161 200 243 290
#     4  11  21  33  49  69  95 130 166 203 246 292
#     4  11  21  33  53  78 101 129 163 201 243 288
#     4  10  21  37  56  77 102 131 162 199 242 288
#
# _framework density 15.443792
#
# number of rings (size 3 to 8) (size 9 to 14) (size 15 to 20)
#    0.000    2.000    1.250    3.000    0.000    7.500 
#    0.000    1.250    0.000    0.375    0.000    0.000 
#    0.000    0.500    0.000    1.625    0.000    2.375 
#
# Total GULP energy -357137.000552 kJ/mol
# GULP energy per Si atom -5580.265634 kJ/mol
# Density = 1.540864 g / cm^3
# Si number density = 15.443792 Si / 1000 Ang^3
#
#
#
# Elastic Constant Matrix: (Units=GPa)
#
#
# Indices 1 2 3 4 5 6 
#
# 1 72.3816 56.9755 68.2901 0.0000 0.0000 0.0000
# 2 56.9755 90.9389 73.9224 0.0000 0.0000 0.0000
# 3 68.2901 73.9224 147.7147 0.0000 0.0000 0.0000
# 4 0.0000 0.0000 0.0000 7.0849 0.0000 0.0000
# 5 0.0000 0.0000 0.0000 0.0000 29.9755 0.0000
# 6 0.0000 0.0000 0.0000 0.0000 0.0000 22.2151
#
#
#
# Elastic Compliance Matrix: (Units=1/GPa)
#
#
# Indices 1 2 3 4 5 6 
#
# 1 0.032078 -0.013558 -0.008045 0.000000 0.000000 0.000000
# 2 -0.013558 0.024268 -0.005877 0.000000 0.000000 0.000000
# 3 -0.008045 -0.005877 0.013430 0.000000 0.000000 0.000000
# 4 0.000000 0.000000 0.000000 0.141145 0.000000 0.000000
# 5 0.000000 0.000000 0.000000 0.000000 0.033361 0.000000
# 6 0.000000 0.000000 0.000000 0.000000 0.000000 0.045014
#
#
# Mechanical properties :
#
#
# Convention : Reuss Voigt Hill
#
# Bulk Modulus (GPa) = 67.49198 78.82350 73.15774
# Shear Modulus (GPa) = 14.31867 19.31160 16.81513
#
# Velocity S-wave (km/s) = 3.04821 3.54000 3.30327
# Velocity P-wave (km/s) = 7.49569 8.23763 7.87540
#
# Compressibility (1/GPa) = 0.01481658
#
# Stress axis : x y z
#
# Youngs Moduli (GPa) = 31.17359 41.20675 74.46025
#
# Poissons Ratio (x) = 0.55869 0.59904
# Poissons Ratio (y) = 0.42266 0.43757
# Poissons Ratio (z) = 0.25079 0.24215
#
# Static dielectric constant tensor:
#      x y z
#    x 1.515840 0.000000 0.000000 
#    y 0.000000 1.515410 0.000000 
#    z 0.000000 0.000000 1.483670 
# 
# From -- ./inp_files/37640.got.cif
#   From: 2010.05.17/outbox.cif.g08.bks.cpg/sg51_19_cif.got.tgz:37640.got - 2010.06.03 11:52:47.
