data_PCOD9403814
_publ_section_title
;
Structure prediction by ZEFSAII (Michael W. Deem and Ramdas Pophale) SiO2 
 PCOD9403814
Probable space group: P M M A
;
_chemical_formula_sum "Si O2"
_cell_formula_units_Z 64
_cell_length_a 20.290067
_cell_length_b 9.222816
_cell_length_c 20.205560
_cell_angle_alpha 90.000000
_cell_angle_beta 90.000000
_cell_angle_gamma 90.000000
_cell_volume 3781.097854
_symmetry_space_group_name_H-M "P M M A"
_symmetry_group_IT_number 51
_symmetry_cell_setting 'orthorhombic'
loop_
_space_group_symop_operation_xyz
x,y,z
1/2-x,-y,z
1/2+x,-y,-z
-x,y,-z
-x,-y,-z
1/2+x,y,-z
1/2-x,y,z
x,-y,z
loop_
_atom_site_type_symbol
_atom_site_label
_atom_site_fract_x
_atom_site_fract_y
_atom_site_fract_z
Si Si1 0.825538 0.174125 0.387480
Si Si2 0.578455 0.334166 0.017040
Si Si3 0.105401 0.172288 0.110958
Si Si4 0.914736 0.325663 0.650212
Si Si5 0.029717 0.325877 0.845148
Si Si6 0.325821 0.174197 0.457689
Si Si7 0.325328 0.670320 0.223969
Si Si8 0.939410 0.674012 0.305952
O O1 0.750000 0.215028 0.371263
O O2 0.836633 0.209898 0.465019
O O3 0.878863 0.249986 0.341690
O O4 0.830567 0.000000 0.381554
O O5 0.600944 0.500000 0.007883
O O6 0.579947 0.294992 0.094538
O O7 0.500000 0.331706 0.000000
O O8 0.612051 0.230793 0.963874
O O9 0.160573 0.235409 0.159452
O O10 0.037310 0.240387 0.139378
O O11 0.102774 0.000000 0.112204
O O12 0.911543 0.500000 0.642806
O O13 0.877978 0.250659 0.589516
O O14 0.874864 0.288851 0.717212
O O15 0.990876 0.284222 0.660421
O O16 0.015676 0.500000 0.847762
O O17 0.055373 0.291425 0.772158
O O18 0.250000 0.215339 0.440848
O O19 0.330567 0.000000 0.450951
O O20 0.250000 0.686508 0.246381
O O21 0.336664 0.500000 0.208427
O O22 0.933171 0.500000 0.311412
#
# Coordination Sequence:
#
# PCOD9403814 Si02
#       8
#     8   8   8   8   8   8   8   8
#     4   9  20  39  58  76 102 137 174 210 257 320
#     4   8  15  28  49  70  93 131 172 207 246 299
#     4  11  20  29  46  73 105 134 167 217 263 302
#     4  10  20  34  53  78 107 135 170 218 265 308
#     4   9  17  33  52  72 102 137 171 208 254 307
#     4   9  19  36  55  74 102 141 180 216 253 303
#     4  10  20  35  53  70  98 144 186 216 255 312
#     4  10  20  34  55  81 109 135 167 218 265 306
#
# _framework density 16.926300999999999
#
# number of rings (size 3 to 8) (size 9 to 14) (size 15 to 20)
#    0.000    2.500    1.250    3.000    0.000    6.000 
#    0.000    3.750    0.000    0.750    0.000    1.750 
#    0.000    0.000    0.000    0.000    0.000    0.000 
#
# Total GULP energy -356876.311531 kJ/mol
# GULP energy per Si atom -5576.192368 kJ/mol
# Density = 1.688778 g / cm^3
# Si number density = 16.926301 Si / 1000 Ang^3
#
#
#
# Elastic Constant Matrix: (Units=GPa)
#
#
# Indices 1 2 3 4 5 6 
#
# 1 96.6120 41.1027 77.3302 0.0000 0.0000 0.0000
# 2 41.1027 41.4011 47.2443 0.0000 0.0000 0.0000
# 3 77.3302 47.2443 124.0604 0.0000 0.0000 0.0000
# 4 0.0000 0.0000 0.0000 -30.5565 0.0000 0.0000
# 5 0.0000 0.0000 0.0000 0.0000 20.1776 0.0000
# 6 0.0000 0.0000 0.0000 0.0000 0.0000 25.0746
#
#
#
# Elastic Compliance Matrix: (Units=1/GPa)
#
#
# Indices 1 2 3 4 5 6 
#
# 1 0.023470 -0.011684 -0.010180 0.000000 0.000000 0.000000
# 2 -0.011684 0.048534 -0.011200 0.000000 0.000000 0.000000
# 3 -0.010180 -0.011200 0.018671 0.000000 0.000000 0.000000
# 4 0.000000 0.000000 0.000000 -0.032726 0.000000 0.000000
# 5 0.000000 0.000000 0.000000 0.000000 0.049560 0.000000
# 6 0.000000 0.000000 0.000000 0.000000 0.000000 0.039881
#
#
# Mechanical properties :
#
#
# Convention : Reuss Voigt Hill
#
# Bulk Modulus (GPa) = 40.73692 65.93646 53.33669
# Shear Modulus (GPa) = 22.55314 9.36556 15.95935
#
# Velocity S-wave (km/s) = 3.65421 2.35481 3.07395
# Velocity P-wave (km/s) = 6.47486 6.81419 6.64669
#
# Compressibility (1/GPa) = 0.02454776
#
# Stress axis : x y z
#
# Youngs Moduli (GPa) = 42.60815 20.60415 53.55909
#
# Poissons Ratio (x) = 0.24074 0.54522
# Poissons Ratio (y) = 0.49783 0.59984
# Poissons Ratio (z) = 0.43374 0.23076
#
# Static dielectric constant tensor:
#      x y z
#    x 1.557640 0.000000 0.000000 
#    y 0.000000 1.561090 0.000000 
#    z 0.000000 0.000000 1.583790 
# 
# From -- ./inp_files/30544.got.cif
#   From: 2010.05.17/outbox.cif.g08.bks.cpg/sg51_16_cif.got.tgz:30544.got - 2010.06.03 11:52:47.
