data_PCOD9403697
_publ_section_title
;
Structure prediction by ZEFSAII (Michael W. Deem and Ramdas Pophale) SiO2 
 PCOD9403697
Probable space group: P M M A
;
_chemical_formula_sum "Si O2"
_cell_formula_units_Z 56
_cell_length_a 19.290711
_cell_length_b 9.383409
_cell_length_c 18.143633
_cell_angle_alpha 90.000000
_cell_angle_beta 90.000000
_cell_angle_gamma 90.000000
_cell_volume 3284.226749
_symmetry_space_group_name_H-M "P M M A"
_symmetry_group_IT_number 51
_symmetry_cell_setting 'orthorhombic'
loop_
_space_group_symop_operation_xyz
x,y,z
1/2-x,-y,z
1/2+x,-y,-z
-x,y,-z
-x,-y,-z
1/2+x,y,-z
1/2-x,y,z
x,-y,z
loop_
_atom_site_type_symbol
_atom_site_label
_atom_site_fract_x
_atom_site_fract_y
_atom_site_fract_z
Si Si1 0.831969 0.830049 0.327542
Si Si2 0.591307 0.170569 0.772297
Si Si3 0.667757 0.169792 0.621426
Si Si4 0.432063 0.829489 0.806090
Si Si5 0.834331 0.663832 0.474494
Si Si6 0.927173 0.329560 0.039865
Si Si7 0.831129 0.670635 0.904143
O O1 0.750000 0.803065 0.315717
O O2 0.876489 0.789339 0.256265
O O3 0.855274 0.746331 0.400484
O O4 0.840261 0.000000 0.339705
O O5 0.624853 0.210210 0.693937
O O6 0.509686 0.202010 0.777530
O O7 0.630218 0.249872 0.838227
O O8 0.600303 0.000000 0.780803
O O9 0.750000 0.196546 0.634025
O O10 0.644892 0.254540 0.548835
O O11 0.659973 0.000000 0.608970
O O12 0.420792 0.750559 0.883123
O O13 0.427181 0.000000 0.817458
O O14 0.750000 0.665188 0.474518
O O15 0.857153 0.500000 0.474285
O O16 0.926502 0.500000 0.052394
O O17 0.867097 0.292902 0.981739
O O18 0.000000 0.294092 0.000000
O O19 0.750000 0.705198 0.904238
O O20 0.838978 0.500000 0.894340
#
# Coordination Sequence:
#
# PCOD9403697 Si02
#       7
#     8   8   8   8   8   8   8
#     4   9  18  34  54  75 102 135 171 213 261 310
#     4  10  20  34  52  76 106 137 172 212 256 307
#     4   9  17  30  49  72  99 133 169 205 251 305
#     4  10  21  35  54  79 104 134 173 214 258 308
#     4   9  17  30  50  76 102 130 169 214 256 300
#     4  10  20  36  55  74 100 137 174 207 254 313
#     4  10  21  36  54  77 104 135 173 215 258 305
#
# _framework density 17.051197999999999
#
# number of rings (size 3 to 8) (size 9 to 14) (size 15 to 20)
#    0.000    2.429    1.429    0.857    0.000    5.143 
#    0.000    2.143    0.000    4.286    0.000    0.000 
#    0.000    0.000    0.000    0.000    0.000    0.000 
#
# Total GULP energy -312396.314539 kJ/mol
# GULP energy per Si atom -5578.505617 kJ/mol
# Density = 1.701239 g / cm^3
# Si number density = 17.051198 Si / 1000 Ang^3
#
#
#
# Elastic Constant Matrix: (Units=GPa)
#
#
# Indices 1 2 3 4 5 6 
#
# 1 85.6194 47.0767 84.1043 0.0000 0.0000 0.0000
# 2 47.0767 46.3038 82.1681 0.0000 0.0000 0.0000
# 3 84.1043 82.1681 206.2806 0.0000 0.0000 0.0000
# 4 0.0000 0.0000 0.0000 -93.0399 0.0000 0.0000
# 5 0.0000 0.0000 0.0000 0.0000 25.4872 0.0000
# 6 0.0000 0.0000 0.0000 0.0000 0.0000 17.3001
#
#
#
# Elastic Compliance Matrix: (Units=1/GPa)
#
#
# Indices 1 2 3 4 5 6 
#
# 1 0.026489 -0.026492 -0.000247 0.000000 0.000000 0.000000
# 2 -0.026492 0.100168 -0.029099 0.000000 0.000000 0.000000
# 3 -0.000247 -0.029099 0.016540 0.000000 0.000000 0.000000
# 4 0.000000 0.000000 0.000000 -0.010748 0.000000 0.000000
# 5 0.000000 0.000000 0.000000 0.000000 0.039235 0.000000
# 6 0.000000 0.000000 0.000000 0.000000 0.000000 0.057803
#
#
# Mechanical properties :
#
#
# Convention : Reuss Voigt Hill
#
# Bulk Modulus (GPa) = 31.72601 84.98912 58.35756
# Shear Modulus (GPa) = 14.21786 -1.72688 6.24549
#
# Velocity S-wave (km/s) = 2.89075 -1.00745 1.91592
# Velocity P-wave (km/s) = 5.45790 6.97126 6.26047
#
# Compressibility (1/GPa) = 0.03151988
#
# Stress axis : x y z
#
# Youngs Moduli (GPa) = 37.75149 9.98322 60.46115
#
# Poissons Ratio (x) = 0.26448 0.01495
# Poissons Ratio (y) = 1.00013 1.75934
# Poissons Ratio (z) = 0.00934 0.29050
#
# Static dielectric constant tensor:
#      x y z
#    x 1.570830 0.000000 0.000000 
#    y 0.000000 1.569850 0.000000 
#    z 0.000000 0.000000 1.541930 
# 
# From -- ./inp_files/25691.got.cif
#   From: 2010.05.17/outbox.cif.g08.bks.cpg/sg51_13_cif.got.tgz:25691.got - 2010.06.03 11:52:47.
