data_PCOD9403915
_publ_section_title
;
Structure prediction by ZEFSAII (Michael W. Deem and Ramdas Pophale) SiO2 
 PCOD9403915
Probable space group: P M M A
;
_chemical_formula_sum "Si O2"
_cell_formula_units_Z 40
_cell_length_a 9.798764
_cell_length_b 13.550616
_cell_length_c 16.462139
_cell_angle_alpha 90.000000
_cell_angle_beta 90.000000
_cell_angle_gamma 90.000000
_cell_volume 2185.831099
_symmetry_space_group_name_H-M "P M M A"
_symmetry_group_IT_number 51
_symmetry_cell_setting 'orthorhombic'
loop_
_space_group_symop_operation_xyz
x,y,z
1/2-x,-y,z
1/2+x,-y,-z
-x,y,-z
-x,-y,-z
1/2+x,y,-z
1/2-x,y,z
x,-y,z
loop_
_atom_site_type_symbol
_atom_site_label
_atom_site_fract_x
_atom_site_fract_y
_atom_site_fract_z
Si Si1 0.905576 0.115978 0.863708
Si Si2 0.968007 0.805054 0.686967
Si Si3 0.750000 0.119795 0.562303
Si Si4 0.910733 0.709341 0.073769
Si Si5 0.089529 0.385415 0.749534
Si Si6 0.750000 0.117161 0.373950
O O1 0.750000 0.134798 0.892858
O O2 0.909778 0.145330 0.768503
O O3 0.017141 0.185887 0.905593
O O4 0.934593 0.000000 0.873373
O O5 0.878481 0.836608 0.610489
O O6 0.990183 0.688790 0.701868
O O7 0.117910 0.846534 0.672404
O O8 0.750000 0.149305 0.468131
O O9 0.750000 0.000000 0.567803
O O10 0.750000 0.718848 0.054870
O O11 0.922004 0.644879 0.155697
O O12 0.000000 0.666725 0.000000
O O13 0.250000 0.369771 0.727207
O O14 0.057814 0.500000 0.737855
O O15 0.750000 0.000000 0.375414
#
# Coordination Sequence:
#
# PCOD9403915 Si02
#       6
#     8   8   4   8   8   4
#     4  10  20  34  54  78 110 153 191 227 274 329
#     4  11  20  36  57  83 114 153 192 235 280 333
#     4  11  22  36  55  83 124 157 181 229 285 333
#     4  10  21  36  56  82 113 145 181 230 280 334
#     4   9  19  38  62  84 107 145 192 238 287 330
#     4  11  22  34  55  87 118 153 193 225 275 345
#
# _framework density 18.299675000000001
#
# number of rings (size 3 to 8) (size 9 to 14) (size 15 to 20)
#    0.000    1.800    2.000    3.000    1.400    2.800 
#    0.000    0.500    0.000    3.600    0.000    0.000 
#    0.000    0.000    0.000    0.000    0.000    0.000 
#
# Total GULP energy -223278.997688 kJ/mol
# GULP energy per Si atom -5581.974942 kJ/mol
# Density = 1.825802 g / cm^3
# Si number density = 18.299675 Si / 1000 Ang^3
#
#
#
# Elastic Constant Matrix: (Units=GPa)
#
#
# Indices 1 2 3 4 5 6 
#
# 1 104.5556 20.7616 8.9907 0.0000 0.0000 0.0000
# 2 20.7616 81.6437 11.0622 0.0000 0.0000 0.0000
# 3 8.9907 11.0622 39.6573 0.0000 0.0000 0.0000
# 4 0.0000 0.0000 0.0000 5.0690 0.0000 0.0000
# 5 0.0000 0.0000 0.0000 0.0000 131.0309 0.0000
# 6 0.0000 0.0000 0.0000 0.0000 0.0000 23.5053
#
#
#
# Elastic Compliance Matrix: (Units=1/GPa)
#
#
# Indices 1 2 3 4 5 6 
#
# 1 0.010175 -0.002364 -0.001647 0.000000 0.000000 0.000000
# 2 -0.002364 0.013279 -0.003168 0.000000 0.000000 0.000000
# 3 -0.001647 -0.003168 0.026473 0.000000 0.000000 0.000000
# 4 0.000000 0.000000 0.000000 0.197277 0.000000 0.000000
# 5 0.000000 0.000000 0.000000 0.000000 0.007632 0.000000
# 6 0.000000 0.000000 0.000000 0.000000 0.000000 0.042544
#
#
# Mechanical properties :
#
#
# Convention : Reuss Voigt Hill
#
# Bulk Modulus (GPa) = 28.11518 34.16508 31.14013
# Shear Modulus (GPa) = 15.45138 44.25717 29.85427
#
# Velocity S-wave (km/s) = 2.90893 4.92313 4.04345
# Velocity P-wave (km/s) = 5.16523 7.14329 6.23322
#
# Compressibility (1/GPa) = 0.03556798
#
# Stress axis : x y z
#
# Youngs Moduli (GPa) = 98.27588 75.30781 37.77405
#
# Poissons Ratio (x) = 0.17806 0.06223
# Poissons Ratio (y) = 0.23236 0.11967
# Poissons Ratio (z) = 0.16189 0.23858
#
# Static dielectric constant tensor:
#      x y z
#    x 1.553060 0.000000 0.000000 
#    y 0.000000 1.611340 0.000000 
#    z 0.000000 0.000000 1.637570 
# 
# From -- ./inp_files/20539.got.cif
#   From: 2010.05.17/outbox.cif.g08.bks.cpg/sg51_11_cif.got.tgz:20539.got - 2010.06.03 11:52:47.
