data_PCOD9403912
_publ_section_title
;
Structure prediction by ZEFSAII (Michael W. Deem and Ramdas Pophale) SiO2 
 PCOD9403912
Probable space group: P M M A
;
_chemical_formula_sum "Si O2"
_cell_formula_units_Z 56
_cell_length_a 14.572654
_cell_length_b 8.517067
_cell_length_c 22.951056
_cell_angle_alpha 90.000000
_cell_angle_beta 90.000000
_cell_angle_gamma 90.000000
_cell_volume 2848.599474
_symmetry_space_group_name_H-M "P M M A"
_symmetry_group_IT_number 51
_symmetry_cell_setting 'orthorhombic'
loop_
_space_group_symop_operation_xyz
x,y,z
1/2-x,-y,z
1/2+x,-y,-z
-x,y,-z
-x,-y,-z
1/2+x,y,-z
1/2-x,y,z
x,-y,z
loop_
_atom_site_type_symbol
_atom_site_label
_atom_site_fract_x
_atom_site_fract_y
_atom_site_fract_z
Si Si1 0.250000 0.191701 0.453422
Si Si2 0.904010 0.317291 0.331289
Si Si3 0.652931 0.185888 0.768870
Si Si4 0.451586 0.310738 0.914120
Si Si5 0.902816 0.814759 0.636902
Si Si6 0.050319 0.187951 0.791881
Si Si7 0.645311 0.690853 0.964991
Si Si8 0.750000 0.813770 0.414379
O O1 0.339040 0.237546 0.416052
O O2 0.250000 0.249317 0.519518
O O3 0.250000 0.000000 0.453004
O O4 0.884230 0.500000 0.328279
O O5 0.899586 0.248181 0.265934
O O6 0.836427 0.238134 0.376738
O O7 0.005858 0.283663 0.354688
O O8 0.750000 0.254613 0.790091
O O9 0.649360 0.195833 0.698655
O O10 0.555332 0.251094 0.789151
O O11 0.653013 0.000000 0.783416
O O12 0.453040 0.500000 0.911139
O O13 0.413800 0.242572 0.854072
O O14 0.388586 0.268369 0.969556
O O15 0.557752 0.257517 0.925822
O O16 0.926528 0.000000 0.629452
O O17 0.047803 0.000000 0.788405
O O18 0.750000 0.745868 0.952779
O O19 0.647268 0.500000 0.961612
O O20 0.750000 0.000000 0.419409
#
# Coordination Sequence:
#
# PCOD9403912 Si02
#       8
#     4   8   8   8   8   8   8   4
#     4   9  18  33  61  91 113 143 186 229 274 337
#     4  11  23  40  58  79 111 150 188 231 284 336
#     4   8  13  24  46  73 101 133 171 215 265 321
#     4   9  17  31  52  77 105 137 178 223 264 317
#     4   9  16  32  58  85 110 141 180 225 275 333
#     4  10  20  34  54  78 107 144 183 228 280 328
#     4   8  15  30  52  76 105 142 177 214 264 321
#     4  11  23  41  61  83 109 143 190 239 282 329
#
# _framework density 19.658783
#
# number of rings (size 3 to 8) (size 9 to 14) (size 15 to 20)
#    0.000    2.714    0.714    3.643    0.000    1.143 
#    1.286    6.071    0.000    1.714    0.000    0.000 
#    0.000    0.000    0.000    0.000    0.000    0.000 
#
# Total GULP energy -312160.804577 kJ/mol
# GULP energy per Si atom -5574.300082 kJ/mol
# Density = 1.961404 g / cm^3
# Si number density = 19.658783 Si / 1000 Ang^3
#
#
#
# Elastic Constant Matrix: (Units=GPa)
#
#
# Indices 1 2 3 4 5 6 
#
# 1 32.2458 0.0407 2.8380 0.0000 0.0000 0.0000
# 2 0.0407 28.4080 16.7606 0.0000 0.0000 0.0000
# 3 2.8380 16.7606 125.8093 0.0000 0.0000 0.0000
# 4 0.0000 0.0000 0.0000 27.8168 0.0000 0.0000
# 5 0.0000 0.0000 0.0000 0.0000 7.7600 0.0000
# 6 0.0000 0.0000 0.0000 0.0000 0.0000 44.4700
#
#
#
# Elastic Compliance Matrix: (Units=1/GPa)
#
#
# Indices 1 2 3 4 5 6 
#
# 1 0.031078 0.000401 -0.000754 0.000000 0.000000 0.000000
# 2 0.000401 0.038209 -0.005099 0.000000 0.000000 0.000000
# 3 -0.000754 -0.005099 0.008645 0.000000 0.000000 0.000000
# 4 0.000000 0.000000 0.000000 0.035949 0.000000 0.000000
# 5 0.000000 0.000000 0.000000 0.000000 0.128866 0.000000
# 6 0.000000 0.000000 0.000000 0.000000 0.000000 0.022487
#
#
# Mechanical properties :
#
#
# Convention : Reuss Voigt Hill
#
# Bulk Modulus (GPa) = 14.91968 25.08241 20.00104
# Shear Modulus (GPa) = 16.75136 27.13095 21.94115
#
# Velocity S-wave (km/s) = 2.92225 3.71899 3.34443
# Velocity P-wave (km/s) = 4.35797 5.58818 5.01097
#
# Compressibility (1/GPa) = 0.06702558
#
# Stress axis : x y z
#
# Youngs Moduli (GPa) = 32.17742 26.17153 115.67502
#
# Poissons Ratio (x) = -0.01048 0.08727
# Poissons Ratio (y) = -0.01289 0.58987
# Poissons Ratio (z) = 0.02427 0.13346
#
# Static dielectric constant tensor:
#      x y z
#    x 1.711320 0.000000 0.000000 
#    y 0.000000 1.665850 0.000000 
#    z 0.000000 0.000000 1.683230 
# 
# From -- ./inp_files/33603.got.cif
#   From: 2010.05.17/outbox.cif.g08.bks.cpg/sg51_17_cif.got.tgz:33603.got - 2010.06.03 11:52:47.
