data_PCOD9403954
_publ_section_title
;
Structure prediction by ZEFSAII (Michael W. Deem and Ramdas Pophale) SiO2 
 PCOD9403954
Probable space group: P M M A
;
_chemical_formula_sum "Si O2"
_cell_formula_units_Z 52
_cell_length_a 9.181517
_cell_length_b 15.251729
_cell_length_c 20.984631
_cell_angle_alpha 90.000000
_cell_angle_beta 90.000000
_cell_angle_gamma 90.000000
_cell_volume 2938.562008
_symmetry_space_group_name_H-M "P M M A"
_symmetry_group_IT_number 51
_symmetry_cell_setting 'orthorhombic'
loop_
_space_group_symop_operation_xyz
x,y,z
1/2-x,-y,z
1/2+x,-y,-z
-x,y,-z
-x,-y,-z
1/2+x,y,-z
1/2-x,y,z
x,-y,z
loop_
_atom_site_type_symbol
_atom_site_label
_atom_site_fract_x
_atom_site_fract_y
_atom_site_fract_z
Si Si1 0.424848 0.397802 0.066768
Si Si2 0.418167 0.000000 0.435032
Si Si3 0.074951 0.400866 0.703419
Si Si4 0.918363 0.148168 0.364192
Si Si5 0.077289 0.103094 0.236188
Si Si6 0.423141 0.713492 0.188754
Si Si7 0.920040 0.337583 0.431858
O O1 0.250000 0.390601 0.060059
O O2 0.458750 0.500000 0.081057
O O3 0.472020 0.336425 0.125070
O O4 0.500000 0.375206 0.000000
O O5 0.500000 0.000000 0.500000
O O6 0.470782 0.915743 0.398218
O O7 0.250000 0.000000 0.445360
O O8 0.250000 0.385281 0.703341
O O9 0.047114 0.500000 0.726124
O O10 0.026880 0.393688 0.629197
O O11 0.000677 0.331176 0.750304
O O12 0.750000 0.119595 0.368667
O O13 0.928316 0.240510 0.400508
O O14 0.972730 0.138547 0.292039
O O15 0.250000 0.105763 0.255058
O O16 0.058158 0.181022 0.184801
O O17 0.046207 0.000000 0.221690
O O18 0.250000 0.697786 0.196514
O O19 0.750000 0.358460 0.443203
O O20 0.000000 0.343856 0.500000
#
# Coordination Sequence:
#
# PCOD9403954 Si02
#       7
#     8   4   8   8   8   8   8
#     4   9  18  33  54  83 117 149 182 219 262 316
#     4  12  24  36  50  72 100 130 171 220 279 344
#     4  10  21  37  55  77 106 139 178 225 276 330
#     4  11  21  35  53  73  99 133 174 222 277 331
#     4  10  20  34  54  80 107 139 178 222 271 324
#     4  10  20  35  57  83 113 145 180 224 271 319
#     4  10  22  37  52  72  98 133 176 222 273 327
#
# _framework density 17.695730000000001
#
# number of rings (size 3 to 8) (size 9 to 14) (size 15 to 20)
#    0.000    1.846    2.308    2.077    0.000    4.923 
#    0.000    1.538    0.000    0.462    0.000    0.000 
#    0.000    0.000    0.000    0.000    0.000    0.000 
#
# Total GULP energy -289709.017568 kJ/mol
# GULP energy per Si atom -5571.327261 kJ/mol
# Density = 1.765545 g / cm^3
# Si number density = 17.695730 Si / 1000 Ang^3
#
#
#
# Elastic Constant Matrix: (Units=GPa)
#
#
# Indices 1 2 3 4 5 6 
#
# 1 56.4214 32.9316 33.6836 0.0000 0.0000 0.0000
# 2 32.9316 101.6885 60.4581 0.0000 0.0000 0.0000
# 3 33.6836 60.4581 113.0518 0.0000 0.0000 0.0000
# 4 0.0000 0.0000 0.0000 24.6406 0.0000 0.0000
# 5 0.0000 0.0000 0.0000 0.0000 26.3629 0.0000
# 6 0.0000 0.0000 0.0000 0.0000 0.0000 15.7511
#
#
#
# Elastic Compliance Matrix: (Units=1/GPa)
#
#
# Indices 1 2 3 4 5 6 
#
# 1 0.023161 -0.004982 -0.004237 0.000000 0.000000 0.000000
# 2 -0.004982 0.015490 -0.006799 0.000000 0.000000 0.000000
# 3 -0.004237 -0.006799 0.013744 0.000000 0.000000 0.000000
# 4 0.000000 0.000000 0.000000 0.040583 0.000000 0.000000
# 5 0.000000 0.000000 0.000000 0.000000 0.037932 0.000000
# 6 0.000000 0.000000 0.000000 0.000000 0.000000 0.063488
#
#
# Mechanical properties :
#
#
# Convention : Reuss Voigt Hill
#
# Bulk Modulus (GPa) = 49.11799 58.36760 53.74280
# Shear Modulus (GPa) = 21.43906 22.95682 22.19794
#
# Velocity S-wave (km/s) = 3.48449 3.60572 3.54563
# Velocity P-wave (km/s) = 6.63371 7.09863 6.87011
#
# Compressibility (1/GPa) = 0.02035914
#
# Stress axis : x y z
#
# Youngs Moduli (GPa) = 43.17661 64.55866 72.75919
#
# Poissons Ratio (x) = 0.32161 0.30825
# Poissons Ratio (y) = 0.21509 0.49472
# Poissons Ratio (z) = 0.18292 0.43896
#
# Static dielectric constant tensor:
#      x y z
#    x 1.593070 0.000000 0.000000 
#    y 0.000000 1.583820 0.000000 
#    z 0.000000 0.000000 1.586190 
# 
# From -- ./inp_files/31684.got.cif
#   From: 2010.05.17/outbox.cif.g08.bks.cpg/sg51_16_cif.got.tgz:31684.got - 2010.06.03 11:52:47.
