data_PCOD9403712
_publ_section_title
;
Structure prediction by ZEFSAII (Michael W. Deem and Ramdas Pophale) SiO2 
 PCOD9403712
Probable space group: P M M A
;
_chemical_formula_sum "Si O2"
_cell_formula_units_Z 44
_cell_length_a 10.180714
_cell_length_b 13.169073
_cell_length_c 20.980780
_cell_angle_alpha 90.000000
_cell_angle_beta 90.000000
_cell_angle_gamma 90.000000
_cell_volume 2812.905047
_symmetry_space_group_name_H-M "P M M A"
_symmetry_group_IT_number 51
_symmetry_cell_setting 'orthorhombic'
loop_
_space_group_symop_operation_xyz
x,y,z
1/2-x,-y,z
1/2+x,-y,-z
-x,y,-z
-x,-y,-z
1/2+x,y,-z
1/2-x,y,z
x,-y,z
loop_
_atom_site_type_symbol
_atom_site_label
_atom_site_fract_x
_atom_site_fract_y
_atom_site_fract_z
Si Si1 0.404208 0.116245 0.218108
Si Si2 0.595506 0.832457 0.333651
Si Si3 0.996849 0.310512 0.847360
Si Si4 0.750000 0.623600 0.074881
Si Si5 0.593968 0.613977 0.287365
Si Si6 0.250000 0.619807 0.071379
Si Si7 0.902854 0.000000 0.440782
O O1 0.250000 0.143032 0.229333
O O2 0.493088 0.127533 0.281267
O O3 0.468006 0.193492 0.168329
O O4 0.408482 0.000000 0.196904
O O5 0.750000 0.847529 0.314673
O O6 0.573742 0.710129 0.334432
O O7 0.576802 0.899903 0.396678
O O8 0.875697 0.349854 0.887999
O O9 0.124527 0.334254 0.888266
O O10 0.016446 0.363113 0.778101
O O11 0.750000 0.500000 0.078185
O O12 0.750000 0.658329 0.001282
O O13 0.750000 0.615048 0.271713
O O14 0.562334 0.500000 0.310686
O O15 0.250000 0.500000 0.064667
O O16 0.000000 0.000000 0.500000
O O17 0.750000 0.000000 0.460928
#
# Coordination Sequence:
#
# PCOD9403712 Si02
#       7
#     8   8   8   4   8   4   4
#     4  10  20  34  53  76 104 134 167 213 271 317
#     4   9  18  32  52  79 107 134 175 217 250 303
#     4  11  20  34  50  76 101 132 173 216 264 319
#     4  11  22  36  53  71  99 137 174 213 260 324
#     4   9  16  28  50  76 103 132 162 208 262 309
#     4  11  22  34  51  73 101 133 170 217 266 318
#     4  10  20  34  52  80 110 144 179 214 251 293
#
# _framework density 15.642191
#
# number of rings (size 3 to 8) (size 9 to 14) (size 15 to 20)
#    0.000    2.000    2.727    2.182    1.273    2.182 
#    0.000    0.000    0.000    3.818    0.000    0.000 
#    0.000    0.000    0.000    0.000    0.000    0.000 
#
# Total GULP energy -245081.389949 kJ/mol
# GULP energy per Si atom -5570.031590 kJ/mol
# Density = 1.560659 g / cm^3
# Si number density = 15.642191 Si / 1000 Ang^3
#
#
#
# Elastic Constant Matrix: (Units=GPa)
#
#
# Indices 1 2 3 4 5 6 
#
# 1 114.0556 49.7137 57.2218 0.0000 0.0000 0.0000
# 2 49.7137 127.4796 53.6603 0.0000 0.0000 0.0000
# 3 57.2218 53.6603 86.0757 0.0000 0.0000 0.0000
# 4 0.0000 0.0000 0.0000 19.6590 0.0000 0.0000
# 5 0.0000 0.0000 0.0000 0.0000 47.2032 0.0000
# 6 0.0000 0.0000 0.0000 0.0000 0.0000 21.9339
#
#
#
# Elastic Compliance Matrix: (Units=1/GPa)
#
#
# Indices 1 2 3 4 5 6 
#
# 1 0.013528 -0.002020 -0.007734 0.000000 0.000000 0.000000
# 2 -0.002020 0.010937 -0.005475 0.000000 0.000000 0.000000
# 3 -0.007734 -0.005475 0.020172 0.000000 0.000000 0.000000
# 4 0.000000 0.000000 0.000000 0.050867 0.000000 0.000000
# 5 0.000000 0.000000 0.000000 0.000000 0.021185 0.000000
# 6 0.000000 0.000000 0.000000 0.000000 0.000000 0.045592
#
#
# Mechanical properties :
#
#
# Convention : Reuss Voigt Hill
#
# Bulk Modulus (GPa) = 70.52742 72.08917 71.30830
# Shear Modulus (GPa) = 25.32074 28.89355 27.10715
#
# Velocity S-wave (km/s) = 4.02773 4.30252 4.16739
# Velocity P-wave (km/s) = 8.17410 8.41835 8.29713
#
# Compressibility (1/GPa) = 0.01417888
#
# Stress axis : x y z
#
# Youngs Moduli (GPa) = 73.91862 91.43374 49.57264
#
# Poissons Ratio (x) = 0.18471 0.38340
# Poissons Ratio (y) = 0.14933 0.27142
# Poissons Ratio (z) = 0.57169 0.50061
#
# Static dielectric constant tensor:
#      x y z
#    x 1.502260 0.000000 0.000000 
#    y 0.000000 1.548750 0.000000 
#    z 0.000000 0.000000 1.495910 
# 
# From -- ./inp_files/27440.got.cif
#   From: 2010.05.17/outbox.cif.g08.bks.cpg/sg51_14_cif.got.tgz:27440.got - 2010.06.03 11:52:47.
