data_PCOD9403079
_publ_section_title
;
Structure prediction by ZEFSAII (Michael W. Deem and Ramdas Pophale) SiO2 
 PCOD9403079
Probable space group: P M M A
;
_chemical_formula_sum "Si O2"
_cell_formula_units_Z 64
_cell_length_a 9.250281
_cell_length_b 14.759736
_cell_length_c 21.707012
_cell_angle_alpha 90.000000
_cell_angle_beta 90.000000
_cell_angle_gamma 90.000000
_cell_volume 2963.695369
_symmetry_space_group_name_H-M "P M M A"
_symmetry_group_IT_number 51
_symmetry_cell_setting 'orthorhombic'
loop_
_space_group_symop_operation_xyz
x,y,z
1/2-x,-y,z
1/2+x,-y,-z
-x,y,-z
-x,-y,-z
1/2+x,y,-z
1/2-x,y,z
x,-y,z
loop_
_atom_site_type_symbol
_atom_site_label
_atom_site_fract_x
_atom_site_fract_y
_atom_site_fract_z
Si Si1 0.581365 0.110342 0.820836
Si Si2 0.417519 0.610603 0.188482
Si Si3 0.915104 0.391333 0.312012
Si Si4 0.416069 0.891378 0.311269
Si Si5 0.414285 0.889220 0.939961
Si Si6 0.914559 0.361775 0.560216
Si Si7 0.581778 0.610502 0.062750
Si Si8 0.913315 0.146057 0.557650
O O1 0.750000 0.134973 0.825926
O O2 0.522322 0.138909 0.754087
O O3 0.490989 0.143023 0.878261
O O4 0.577775 0.000000 0.822558
O O5 0.250000 0.639995 0.188312
O O6 0.416971 0.500000 0.189039
O O7 0.498297 0.640497 0.251205
O O8 0.499646 0.637754 0.125667
O O9 0.750000 0.356008 0.314604
O O10 0.905879 0.500000 0.305832
O O11 0.000201 0.375108 0.375838
O O12 0.250000 0.856099 0.313506
O O13 0.486468 0.868426 0.376004
O O14 0.408143 0.000000 0.308817
O O15 0.250000 0.860265 0.942905
O O16 0.415903 0.000000 0.939349
O O17 0.500000 0.860344 0.000000
O O18 0.750000 0.396561 0.564220
O O19 0.903083 0.253848 0.550905
O O20 0.000000 0.396872 0.500000
O O21 0.750000 0.638336 0.062933
O O22 0.580722 0.500000 0.062500
O O23 0.500000 0.638983 0.000000
O O24 0.750000 0.108663 0.559205
O O25 0.000000 0.108992 0.500000
#
# Coordination Sequence:
#
# PCOD9403079 Si02
#       8
#     8   8   8   8   8   8   8   8
#     4   8  13  22  36  53  75 106 142 177 214 255
#     4   9  16  26  40  59  85 116 148 183 225 271
#     4  10  20  33  49  69  92 118 149 186 228 274
#     4   8  14  26  45  67  91 120 152 185 222 265
#     4   9  15  21  30  46  71 104 140 176 213 255
#     4  10  20  34  51  69  91 119 150 185 224 268
#     4   9  15  22  33  51  78 114 154 191 226 266
#     4   9  18  32  49  69  92 119 151 185 222 265
#
# _framework density 21.594660999999999
#
# number of rings (size 3 to 8) (size 9 to 14) (size 15 to 20)
#    0.000    3.000    0.000    2.625    0.000    6.250 
#    0.000    0.625    0.000    0.750    0.000    0.000 
#    0.000    1.000    0.000    5.000    0.000    7.500 
#
# Total GULP energy -357093.523784 kJ/mol
# GULP energy per Si atom -5579.586309 kJ/mol
# Density = 2.154551 g / cm^3
# Si number density = 21.594661 Si / 1000 Ang^3
#
#
#
# Elastic Constant Matrix: (Units=GPa)
#
#
# Indices 1 2 3 4 5 6 
#
# 1 175.7731 4.2595 139.7116 0.0000 0.0000 0.0000
# 2 4.2595 61.1694 3.1569 0.0000 0.0000 0.0000
# 3 139.7116 3.1569 277.0260 0.0000 0.0000 0.0000
# 4 0.0000 0.0000 0.0000 41.4487 0.0000 0.0000
# 5 0.0000 0.0000 0.0000 0.0000 39.5606 0.0000
# 6 0.0000 0.0000 0.0000 0.0000 0.0000 -20.8259
#
#
#
# Elastic Compliance Matrix: (Units=1/GPa)
#
#
# Indices 1 2 3 4 5 6 
#
# 1 0.009506 -0.000415 -0.004789 0.000000 0.000000 0.000000
# 2 -0.000415 0.016376 0.000023 0.000000 0.000000 0.000000
# 3 -0.004789 0.000023 0.006025 0.000000 0.000000 0.000000
# 4 0.000000 0.000000 0.000000 0.024126 0.000000 0.000000
# 5 0.000000 0.000000 0.000000 0.000000 0.025278 0.000000
# 6 0.000000 0.000000 0.000000 0.000000 0.000000 -0.048017
#
#
# Mechanical properties :
#
#
# Convention : Reuss Voigt Hill
#
# Bulk Modulus (GPa) = 46.41774 89.80271 68.11022
# Shear Modulus (GPa) = 98.35165 36.49271 67.42218
#
# Velocity S-wave (km/s) = 6.75598 4.11529 5.59370
# Velocity P-wave (km/s) = 9.07741 8.01603 8.56318
#
# Compressibility (1/GPa) = 0.02154349
#
# Stress axis : x y z
#
# Youngs Moduli (GPa) = 105.19643 61.06586 165.97672
#
# Poissons Ratio (x) = 0.02533 0.79493
# Poissons Ratio (y) = 0.04363 -0.00375
# Poissons Ratio (z) = 0.50383 -0.00138
#
# Static dielectric constant tensor:
#      x y z
#    x 1.757560 0.000000 0.000000 
#    y 0.000000 1.827510 0.000000 
#    z 0.000000 0.000000 1.775750 
# 
# From -- ./inp_files/28623.got.cif
#   From: 2010.05.17/outbox.cif.g08.bks.cpg/sg51_15_cif.got.tgz:28623.got - 2010.06.03 11:52:47.
