data_PCOD9403366
_publ_section_title
;
Structure prediction by ZEFSAII (Michael W. Deem and Ramdas Pophale) SiO2 
 PCOD9403366
Probable space group: P M M A
;
_chemical_formula_sum "Si O2"
_cell_formula_units_Z 48
_cell_length_a 9.392148
_cell_length_b 8.201417
_cell_length_c 32.208094
_cell_angle_alpha 90.000000
_cell_angle_beta 90.000000
_cell_angle_gamma 90.000000
_cell_volume 2480.954769
_symmetry_space_group_name_H-M "P M M A"
_symmetry_group_IT_number 51
_symmetry_cell_setting 'orthorhombic'
loop_
_space_group_symop_operation_xyz
x,y,z
1/2-x,-y,z
1/2+x,-y,-z
-x,y,-z
-x,-y,-z
1/2+x,y,-z
1/2-x,y,z
x,-y,z
loop_
_atom_site_type_symbol
_atom_site_label
_atom_site_fract_x
_atom_site_fract_y
_atom_site_fract_z
Si Si1 0.077104 0.688962 0.706935
Si Si2 0.586844 0.302809 0.878677
Si Si3 0.584827 0.300442 0.202229
Si Si4 0.086869 0.192484 0.617498
Si Si5 0.089333 0.695552 0.460721
Si Si6 0.913540 0.802971 0.040526
O O1 0.250000 0.694138 0.708561
O O2 0.034214 0.500000 0.703655
O O3 0.032550 0.754109 0.752135
O O4 0.034636 0.775045 0.664415
O O5 0.750000 0.245783 0.881846
O O6 0.588301 0.500000 0.877865
O O7 0.511674 0.247431 0.836085
O O8 0.494973 0.249029 0.918044
O O9 0.750000 0.251463 0.196071
O O10 0.584408 0.500000 0.203478
O O11 0.250000 0.256422 0.614363
O O12 0.989901 0.268472 0.582158
O O13 0.090914 0.000000 0.610810
O O14 0.250000 0.760604 0.460778
O O15 0.097109 0.500000 0.465088
O O16 0.000000 0.759450 0.500000
O O17 0.750000 0.744981 0.040180
O O18 0.910809 0.000000 0.039293
O O19 0.000000 0.745689 0.000000
#
# Coordination Sequence:
#
# PCOD9403366 Si02
#       6
#     8   8   8   8   8   8
#     4   8  14  27  49  73  97 131 174 214 250 291
#     4  10  20  33  51  77 107 137 169 207 253 303
#     4   8  14  27  48  72  98 131 171 213 254 294
#     4  10  20  33  51  77 108 140 171 205 250 302
#     4  10  21  37  57  79 101 129 168 212 256 302
#     4  10  21  37  56  76  99 131 170 210 254 304
#
# _framework density 19.347390000000001
#
# number of rings (size 3 to 8) (size 9 to 14) (size 15 to 20)
#    0.000    2.667    0.000    3.000    0.000    4.667 
#    0.000    1.667    0.000    6.000    0.000    0.000 
#    0.000    0.000    0.000    0.000    0.000    0.000 
#
# Total GULP energy -267736.317251 kJ/mol
# GULP energy per Si atom -5577.839943 kJ/mol
# Density = 1.930335 g / cm^3
# Si number density = 19.347390 Si / 1000 Ang^3
#
#
#
# Elastic Constant Matrix: (Units=GPa)
#
#
# Indices 1 2 3 4 5 6 
#
# 1 140.7367 11.9879 103.9952 0.0000 0.0000 0.0000
# 2 11.9879 4.9098 7.1751 0.0000 0.0000 0.0000
# 3 103.9952 7.1751 191.9445 0.0000 0.0000 0.0000
# 4 0.0000 0.0000 0.0000 286.7250 0.0000 0.0000
# 5 0.0000 0.0000 0.0000 0.0000 30.4223 0.0000
# 6 0.0000 0.0000 0.0000 0.0000 0.0000 14.9952
#
#
#
# Elastic Compliance Matrix: (Units=1/GPa)
#
#
# Indices 1 2 3 4 5 6 
#
# 1 0.014234 -0.024840 -0.006783 0.000000 0.000000 0.000000
# 2 -0.024840 0.258795 0.003784 0.000000 0.000000 0.000000
# 3 -0.006783 0.003784 0.008744 0.000000 0.000000 0.000000
# 4 0.000000 0.000000 0.000000 0.003488 0.000000 0.000000
# 5 0.000000 0.000000 0.000000 0.000000 0.032871 0.000000
# 6 0.000000 0.000000 0.000000 0.000000 0.000000 0.066688
#
#
# Mechanical properties :
#
#
# Convention : Reuss Voigt Hill
#
# Bulk Modulus (GPa) = 4.42295 64.87860 34.65077
# Shear Modulus (GPa) = 9.69254 80.72403 45.20828
#
# Velocity S-wave (km/s) = 2.24067 6.46638 4.83915
# Velocity P-wave (km/s) = 2.99753 9.45296 7.01226
#
# Compressibility (1/GPa) = 0.22609338
#
# Stress axis : x y z
#
# Youngs Moduli (GPa) = 70.25569 3.86407 114.37038
#
# Poissons Ratio (x) = 0.09598 0.77580
# Poissons Ratio (y) = 1.74518 -0.43282
# Poissons Ratio (z) = 0.47656 -0.01462
#
# Static dielectric constant tensor:
#      x y z
#    x 1.668540 0.000000 0.000000 
#    y 0.000000 1.687520 0.000000 
#    z 0.000000 0.000000 1.665030 
# 
# From -- ./inp_files/36993.got.cif
#   From: 2010.05.17/outbox.cif.g08.bks.cpg/sg51_19_cif.got.tgz:36993.got - 2010.06.03 11:52:47.
