data_PCOD9403570
_publ_section_title
;
Structure prediction by ZEFSAII (Michael W. Deem and Ramdas Pophale) SiO2 
 PCOD9403570
Probable space group: P M M A
;
_chemical_formula_sum "Si O2"
_cell_formula_units_Z 64
_cell_length_a 9.502891
_cell_length_b 14.477920
_cell_length_c 24.738992
_cell_angle_alpha 90.000000
_cell_angle_beta 90.000000
_cell_angle_gamma 90.000000
_cell_volume 3403.642364
_symmetry_space_group_name_H-M "P M M A"
_symmetry_group_IT_number 51
_symmetry_cell_setting 'orthorhombic'
loop_
_space_group_symop_operation_xyz
x,y,z
1/2-x,-y,z
1/2+x,-y,-z
-x,y,-z
-x,-y,-z
1/2+x,y,-z
1/2-x,y,z
x,-y,z
loop_
_atom_site_type_symbol
_atom_site_label
_atom_site_fract_x
_atom_site_fract_y
_atom_site_fract_z
Si Si1 0.582664 0.611123 0.719424
Si Si2 0.907904 0.139936 0.049153
Si Si3 0.410635 0.389496 0.827190
Si Si4 0.905476 0.889753 0.846616
Si Si5 0.086679 0.246730 0.649458
Si Si6 0.590686 0.640726 0.050491
Si Si7 0.907672 0.108943 0.250498
Si Si8 0.419228 0.894919 0.556575
O O1 0.750000 0.629121 0.722081
O O2 0.563674 0.500000 0.711928
O O3 0.506254 0.637677 0.776211
O O4 0.509141 0.670115 0.671752
O O5 0.750000 0.103327 0.050549
O O6 0.898048 0.249860 0.041794
O O7 0.990975 0.125642 0.104074
O O8 0.000000 0.102568 0.000000
O O9 0.250000 0.351115 0.822823
O O10 0.400461 0.500000 0.823739
O O11 0.465488 0.370553 0.888087
O O12 0.750000 0.850767 0.856164
O O13 0.978098 0.856710 0.792035
O O14 0.893751 0.000000 0.840807
O O15 0.250000 0.277397 0.642809
O O16 0.086219 0.169149 0.696176
O O17 0.041294 0.188880 0.596570
O O18 0.750000 0.603127 0.050298
O O19 0.500000 0.604700 0.000000
O O20 0.750000 0.117416 0.226712
O O21 0.928867 0.000000 0.262076
O O22 0.500000 0.886436 0.500000
O O23 0.250000 0.890046 0.549102
O O24 0.448501 0.000000 0.577841
#
# Coordination Sequence:
#
# PCOD9403570 Si02
#       8
#     8   8   8   8   8   8   8   8
#     4  10  22  38  54  78 111 145 186 237 288 333
#     4  10  20  34  50  67  89 119 159 206 254 310
#     4   9  18  34  54  74  99 132 169 212 266 330
#     4  10  21  35  49  68  95 125 159 204 258 313
#     4  10  20  34  57  85 112 149 192 228 269 322
#     4   9  19  33  49  71  96 123 159 205 258 320
#     4   9  18  33  52  76 107 140 174 214 260 316
#     4   9  18  34  57  88 126 163 196 231 270 317
#
# _framework density 18.803387000000001
#
# number of rings (size 3 to 8) (size 9 to 14) (size 15 to 20)
#    0.000    2.500    0.000    1.500    1.750    5.500 
#    0.000    0.000    0.000    4.125    0.000    0.000 
#    0.000    0.000    0.000    0.000    0.000    0.000 
#
# Total GULP energy -356894.169085 kJ/mol
# GULP energy per Si atom -5576.471392 kJ/mol
# Density = 1.876059 g / cm^3
# Si number density = 18.803387 Si / 1000 Ang^3
#
#
#
# Elastic Constant Matrix: (Units=GPa)
#
#
# Indices 1 2 3 4 5 6 
#
# 1 103.4065 38.2478 56.6860 0.0000 0.0000 0.0000
# 2 38.2478 87.2217 36.3604 0.0000 0.0000 0.0000
# 3 56.6860 36.3604 103.0886 0.0000 0.0000 0.0000
# 4 0.0000 0.0000 0.0000 28.5314 0.0000 0.0000
# 5 0.0000 0.0000 0.0000 0.0000 28.5845 0.0000
# 6 0.0000 0.0000 0.0000 0.0000 0.0000 14.5935
#
#
#
# Elastic Compliance Matrix: (Units=1/GPa)
#
#
# Indices 1 2 3 4 5 6 
#
# 1 0.014759 -0.003621 -0.006838 0.000000 0.000000 0.000000
# 2 -0.003621 0.014330 -0.003063 0.000000 0.000000 0.000000
# 3 -0.006838 -0.003063 0.014541 0.000000 0.000000 0.000000
# 4 0.000000 0.000000 0.000000 0.035049 0.000000 0.000000
# 5 0.000000 0.000000 0.000000 0.000000 0.034984 0.000000
# 6 0.000000 0.000000 0.000000 0.000000 0.000000 0.068524
#
#
# Mechanical properties :
#
#
# Convention : Reuss Voigt Hill
#
# Bulk Modulus (GPa) = 60.29724 61.81170 61.05447
# Shear Modulus (GPa) = 23.28188 25.17004 24.22596
#
# Velocity S-wave (km/s) = 3.52259 3.66265 3.59330
# Velocity P-wave (km/s) = 6.97723 7.12956 7.05380
#
# Compressibility (1/GPa) = 0.01658451
#
# Stress axis : x y z
#
# Youngs Moduli (GPa) = 67.75739 69.78422 68.77145
#
# Poissons Ratio (x) = 0.25270 0.47027
# Poissons Ratio (y) = 0.24536 0.21065
# Poissons Ratio (z) = 0.46334 0.21376
#
# Static dielectric constant tensor:
#      x y z
#    x 1.670680 0.000000 0.000000 
#    y 0.000000 1.690900 0.000000 
#    z 0.000000 0.000000 1.635140 
# 
# From -- ./inp_files/35029.got.cif
#   From: 2010.05.17/outbox.cif.g08.bks.cpg/sg51_18_cif.got.tgz:35029.got - 2010.06.03 11:52:47.
