data_PCOD9403976
_publ_section_title
;
Structure prediction by ZEFSAII (Michael W. Deem and Ramdas Pophale) SiO2 
 PCOD9403976
Probable space group: P M M A
;
_chemical_formula_sum "Si O2"
_cell_formula_units_Z 64
_cell_length_a 26.012358
_cell_length_b 7.423063
_cell_length_c 14.996818
_cell_angle_alpha 90.000000
_cell_angle_beta 90.000000
_cell_angle_gamma 90.000000
_cell_volume 2895.756166
_symmetry_space_group_name_H-M "P M M A"
_symmetry_group_IT_number 51
_symmetry_cell_setting 'orthorhombic'
loop_
_space_group_symop_operation_xyz
x,y,z
1/2-x,-y,z
1/2+x,-y,-z
-x,y,-z
-x,-y,-z
1/2+x,y,-z
1/2-x,y,z
x,-y,z
loop_
_atom_site_type_symbol
_atom_site_label
_atom_site_fract_x
_atom_site_fract_y
_atom_site_fract_z
Si Si1 0.308287 0.217492 0.256190
Si Si2 0.372943 0.288767 0.081414
Si Si3 0.988586 0.795247 0.903807
Si Si4 0.099941 0.779635 0.588904
Si Si5 0.898952 0.219849 0.616111
Si Si6 0.808066 0.784994 0.288046
Si Si7 0.691264 0.715674 0.084854
Si Si8 0.495651 0.779471 0.710370
O O1 0.250000 0.282452 0.265993
O O2 0.332467 0.267866 0.161150
O O3 0.347742 0.278859 0.332466
O O4 0.307161 0.000000 0.259770
O O5 0.384223 0.500000 0.069852
O O6 0.426950 0.200386 0.106063
O O7 0.347359 0.216861 0.990664
O O8 0.010243 0.715602 0.812222
O O9 0.009093 0.000000 0.908602
O O10 0.000000 0.710258 0.000000
O O11 0.098701 0.722109 0.486409
O O12 0.150718 0.717978 0.641125
O O13 0.050108 0.724534 0.645212
O O14 0.099957 0.000000 0.588566
O O15 0.949584 0.276541 0.670076
O O16 0.899023 0.000000 0.616079
O O17 0.750000 0.713019 0.297661
O O18 0.824981 0.753229 0.186086
O O19 0.805313 0.000000 0.299712
O O20 0.750000 0.783706 0.073604
O O21 0.693446 0.500000 0.074013
O O22 0.496026 0.000000 0.713236
#
# Coordination Sequence:
#
# PCOD9403976 Si02
#       8
#     8   8   8   8   8   8   8   8
#     4  10  20  34  54  80 109 142 179 221 270 322
#     4  11  22  36  55  77 106 141 178 221 267 319
#     4  10  21  35  54  80 109 140 174 219 271 320
#     4   9  17  27  47  77 105 136 170 211 264 315
#     4   9  16  29  48  74 106 135 170 217 263 311
#     4   9  18  31  48  75 107 132 163 212 261 306
#     4   9  19  35  52  70  96 133 172 206 249 308
#     4   9  16  29  48  73 103 135 172 211 256 311
#
# _framework density 22.101308
#
# number of rings (size 3 to 8) (size 9 to 14) (size 15 to 20)
#    0.000    2.500    1.250    1.125    1.750    4.000 
#    0.000    3.750    0.000    0.750    0.000    2.625 
#    0.000    0.000    0.000    0.000    0.000    0.000 
#
# Total GULP energy -357603.447238 kJ/mol
# GULP energy per Si atom -5587.553863 kJ/mol
# Density = 2.205100 g / cm^3
# Si number density = 22.101308 Si / 1000 Ang^3
#
#
#
# Elastic Constant Matrix: (Units=GPa)
#
#
# Indices 1 2 3 4 5 6 
#
# 1 109.3069 -1.6367 79.8348 0.0000 0.0000 0.0000
# 2 -1.6367 74.3540 -2.7731 0.0000 0.0000 0.0000
# 3 79.8348 -2.7731 194.4272 0.0000 0.0000 0.0000
# 4 0.0000 0.0000 0.0000 4.3299 0.0000 0.0000
# 5 0.0000 0.0000 0.0000 0.0000 140.0298 0.0000
# 6 0.0000 0.0000 0.0000 0.0000 0.0000 -44.5856
#
#
#
# Elastic Compliance Matrix: (Units=1/GPa)
#
#
# Indices 1 2 3 4 5 6 
#
# 1 0.013068 0.000088 -0.005365 0.000000 0.000000 0.000000
# 2 0.000088 0.013457 0.000156 0.000000 0.000000 0.000000
# 3 -0.005365 0.000156 0.007348 0.000000 0.000000 0.000000
# 4 0.000000 0.000000 0.000000 0.230953 0.000000 0.000000
# 5 0.000000 0.000000 0.000000 0.000000 0.007141 0.000000
# 6 0.000000 0.000000 0.000000 0.000000 0.000000 -0.022429
#
#
# Mechanical properties :
#
#
# Convention : Reuss Voigt Hill
#
# Bulk Modulus (GPa) = 42.31714 58.77088 50.54401
# Shear Modulus (GPa) = 18.68056 40.13235 29.40645
#
# Velocity S-wave (km/s) = 2.91043 4.26589 3.65160
# Velocity P-wave (km/s) = 5.52110 7.13534 6.37948
#
# Compressibility (1/GPa) = 0.02363109
#
# Stress axis : x y z
#
# Youngs Moduli (GPa) = 76.52215 74.31117 136.08451
#
# Poissons Ratio (x) = -0.00651 0.73006
# Poissons Ratio (y) = -0.00670 -0.02123
# Poissons Ratio (z) = 0.41052 -0.01159
#
# Static dielectric constant tensor:
#      x y z
#    x 1.776060 0.000000 0.000000 
#    y 0.000000 1.837990 0.000000 
#    z 0.000000 0.000000 1.773430 
# 
# From -- ./inp_files/26289.got.cif
#   From: 2010.05.17/outbox.cif.g08.bks.cpg/sg51_14_cif.got.tgz:26289.got - 2010.06.03 11:52:47.
