data_PCOD9403930
_publ_section_title
;
Structure prediction by ZEFSAII (Michael W. Deem and Ramdas Pophale) SiO2 
 PCOD9403930
Probable space group: P M M A
;
_chemical_formula_sum "Si O2"
_cell_formula_units_Z 48
_cell_length_a 7.758178
_cell_length_b 9.428129
_cell_length_c 31.769040
_cell_angle_alpha 90.000000
_cell_angle_beta 90.000000
_cell_angle_gamma 90.000000
_cell_volume 2323.749703
_symmetry_space_group_name_H-M "P M M A"
_symmetry_group_IT_number 51
_symmetry_cell_setting 'orthorhombic'
loop_
_space_group_symop_operation_xyz
x,y,z
1/2-x,-y,z
1/2+x,-y,-z
-x,y,-z
-x,-y,-z
1/2+x,y,-z
1/2-x,y,z
x,-y,z
loop_
_atom_site_type_symbol
_atom_site_label
_atom_site_fract_x
_atom_site_fract_y
_atom_site_fract_z
Si Si1 0.957125 0.837769 0.452961
Si Si2 0.538762 0.336883 0.372225
Si Si3 0.455259 0.159882 0.128258
Si Si4 0.042492 0.661228 0.207454
Si Si5 0.542316 0.161862 0.290612
Si Si6 0.044819 0.661249 0.952632
O O1 0.750000 0.843454 0.449734
O O2 0.018799 0.737971 0.415359
O O3 0.000000 0.787715 0.500000
O O4 0.022122 0.000000 0.448519
O O5 0.750000 0.336914 0.372166
O O6 0.483493 0.500000 0.369344
O O7 0.481742 0.245609 0.332013
O O8 0.250000 0.149686 0.134868
O O9 0.524441 0.257223 0.166119
O O10 0.481530 0.235551 0.083684
O O11 0.526078 0.000000 0.129007
O O12 0.250000 0.653037 0.204032
O O13 0.976556 0.500000 0.210250
O O14 0.002216 0.751171 0.248891
O O15 0.750000 0.155553 0.293286
O O16 0.477819 0.000000 0.288934
O O17 0.250000 0.655195 0.949429
O O18 0.975955 0.500000 0.946981
O O19 0.000000 0.707302 0.000000
#
# Coordination Sequence:
#
# PCOD9403930 Si02
#       6
#     8   8   8   8   8   8
#     4   9  17  30  48  69  94 125 162 204 251 304
#     4   9  17  30  49  72  98 130 168 209 253 302
#     4  10  21  37  57  80 107 141 179 217 260 311
#     4  10  21  37  57  80 107 140 176 215 262 313
#     4  10  20  34  54  79 105 135 173 215 258 307
#     4  10  21  37  58  83 110 142 180 221 265 312
#
# _framework density 20.656269000000002
#
# number of rings (size 3 to 8) (size 9 to 14) (size 15 to 20)
#    0.000    2.333    0.000    2.500    0.000    7.333 
#    0.000    0.833    0.000    3.000    0.000    0.000 
#    0.000    0.000    0.000    0.000    0.000    0.000 
#
# Total GULP energy -268111.734382 kJ/mol
# GULP energy per Si atom -5585.661133 kJ/mol
# Density = 2.060925 g / cm^3
# Si number density = 20.656269 Si / 1000 Ang^3
#
#
#
# Elastic Constant Matrix: (Units=GPa)
#
#
# Indices 1 2 3 4 5 6 
#
# 1 28.4897 8.0930 -3.5806 0.0000 0.0000 0.0000
# 2 8.0930 206.7506 147.0499 0.0000 0.0000 0.0000
# 3 -3.5806 147.0499 204.9762 0.0000 0.0000 0.0000
# 4 0.0000 0.0000 0.0000 41.3831 0.0000 0.0000
# 5 0.0000 0.0000 0.0000 0.0000 28.7596 0.0000
# 6 0.0000 0.0000 0.0000 0.0000 0.0000 10.8078
#
#
#
# Elastic Compliance Matrix: (Units=1/GPa)
#
#
# Indices 1 2 3 4 5 6 
#
# 1 0.036624 -0.003856 0.003406 0.000000 0.000000 0.000000
# 2 -0.003856 0.010282 -0.007444 0.000000 0.000000 0.000000
# 3 0.003406 -0.007444 0.010278 0.000000 0.000000 0.000000
# 4 0.000000 0.000000 0.000000 0.024164 0.000000 0.000000
# 5 0.000000 0.000000 0.000000 0.000000 0.034771 0.000000
# 6 0.000000 0.000000 0.000000 0.000000 0.000000 0.092526
#
#
# Mechanical properties :
#
#
# Convention : Reuss Voigt Hill
#
# Bulk Modulus (GPa) = 24.15649 82.59346 53.37497
# Shear Modulus (GPa) = 20.98802 35.43372 28.21087
#
# Velocity S-wave (km/s) = 3.19103 4.14623 3.69959
# Velocity P-wave (km/s) = 5.02959 7.93682 6.64417
#
# Compressibility (1/GPa) = 0.04139674
#
# Stress axis : x y z
#
# Youngs Moduli (GPa) = 27.30456 97.25831 97.29377
#
# Poissons Ratio (x) = 0.37505 -0.33141
# Poissons Ratio (y) = 0.10529 0.72422
# Poissons Ratio (z) = -0.09301 0.72395
#
# Static dielectric constant tensor:
#      x y z
#    x 1.770350 0.000000 0.000000 
#    y 0.000000 1.729200 0.000000 
#    z 0.000000 0.000000 1.696230 
# 
# From -- ./inp_files/36885.got.cif
#   From: 2010.05.17/outbox.cif.g08.bks.cpg/sg51_19_cif.got.tgz:36885.got - 2010.06.03 11:52:47.
