data_PCOD9403749
_publ_section_title
;
Structure prediction by ZEFSAII (Michael W. Deem and Ramdas Pophale) SiO2 
 PCOD9403749
Probable space group: P M M A
;
_chemical_formula_sum "Si O2"
_cell_formula_units_Z 52
_cell_length_a 9.394653
_cell_length_b 10.584216
_cell_length_c 30.455141
_cell_angle_alpha 90.000000
_cell_angle_beta 90.000000
_cell_angle_gamma 90.000000
_cell_volume 3028.308060
_symmetry_space_group_name_H-M "P M M A"
_symmetry_group_IT_number 51
_symmetry_cell_setting 'orthorhombic'
loop_
_space_group_symop_operation_xyz
x,y,z
1/2-x,-y,z
1/2+x,-y,-z
-x,y,-z
-x,-y,-z
1/2+x,y,-z
1/2-x,y,z
x,-y,z
loop_
_atom_site_type_symbol
_atom_site_label
_atom_site_fract_x
_atom_site_fract_y
_atom_site_fract_z
Si Si1 0.412819 0.500000 0.544117
Si Si2 0.918291 0.729519 0.388447
Si Si3 0.086292 0.845836 0.956754
Si Si4 0.421054 0.648274 0.300319
Si Si5 0.586560 0.153330 0.871558
Si Si6 0.590612 0.148483 0.541272
Si Si7 0.422911 0.145374 0.226886
O O1 0.250000 0.500000 0.530419
O O2 0.500000 0.500000 0.500000
O O3 0.436048 0.382118 0.576144
O O4 0.750000 0.755659 0.383053
O O5 0.991480 0.687259 0.343453
O O6 0.006164 0.837630 0.413212
O O7 0.250000 0.805741 0.958709
O O8 0.009473 0.803812 0.912025
O O9 0.085272 0.000000 0.956476
O O10 0.000000 0.806375 0.000000
O O11 0.250000 0.660213 0.307987
O O12 0.448022 0.500000 0.289747
O O13 0.461198 0.747953 0.262148
O O14 0.750000 0.197185 0.876572
O O15 0.532324 0.182668 0.822561
O O16 0.590774 0.000000 0.873037
O O17 0.500000 0.199736 0.500000
O O18 0.750000 0.204763 0.543379
O O19 0.606415 0.000000 0.532858
O O20 0.250000 0.141023 0.225574
O O21 0.469708 0.000000 0.236627
#
# Coordination Sequence:
#
# PCOD9403749 Si02
#       7
#     4   8   8   8   8   8   8
#     4  10  22  36  52  74  98 124 154 192 233 280
#     4  11  22  37  54  74 101 132 165 199 242 292
#     4   9  15  21  31  51  82 119 156 193 235 286
#     4  10  20  34  53  76 101 131 168 211 256 302
#     4   8  13  23  39  57  80 114 155 197 240 287
#     4  10  21  37  56  79 106 134 164 198 238 286
#     4   8  15  29  49  71  95 126 165 207 251 299
#
# _framework density 17.171303999999999
#
# number of rings (size 3 to 8) (size 9 to 14) (size 15 to 20)
#    0.000    2.615    0.769    2.769    0.000    5.846 
#    0.000    2.308    0.000    0.923    0.000    0.000 
#    0.000    0.615    0.000    1.077    0.000    1.538 
#
# Total GULP energy -289607.180631 kJ/mol
# GULP energy per Si atom -5569.368858 kJ/mol
# Density = 1.713222 g / cm^3
# Si number density = 17.171304 Si / 1000 Ang^3
#
#
#
# Elastic Constant Matrix: (Units=GPa)
#
#
# Indices 1 2 3 4 5 6 
#
# 1 96.2616 32.6133 86.9649 0.0000 0.0000 0.0000
# 2 32.6133 45.3348 50.1173 0.0000 0.0000 0.0000
# 3 86.9649 50.1173 174.9696 0.0000 0.0000 0.0000
# 4 0.0000 0.0000 0.0000 23.2287 0.0000 0.0000
# 5 0.0000 0.0000 0.0000 0.0000 30.1114 0.0000
# 6 0.0000 0.0000 0.0000 0.0000 0.0000 7.5610
#
#
#
# Elastic Compliance Matrix: (Units=1/GPa)
#
#
# Indices 1 2 3 4 5 6 
#
# 1 0.019561 -0.004864 -0.008329 0.000000 0.000000 0.000000
# 2 -0.004864 0.033489 -0.007175 0.000000 0.000000 0.000000
# 3 -0.008329 -0.007175 0.011910 0.000000 0.000000 0.000000
# 4 0.000000 0.000000 0.000000 0.043050 0.000000 0.000000
# 5 0.000000 0.000000 0.000000 0.000000 0.033210 0.000000
# 6 0.000000 0.000000 0.000000 0.000000 0.000000 0.132257
#
#
# Mechanical properties :
#
#
# Convention : Reuss Voigt Hill
#
# Bulk Modulus (GPa) = 41.28124 72.88411 57.08268
# Shear Modulus (GPa) = 15.51405 21.97158 18.74282
#
# Velocity S-wave (km/s) = 3.00907 3.58096 3.30740
# Velocity P-wave (km/s) = 6.01379 7.72238 6.92101
#
# Compressibility (1/GPa) = 0.02422408
#
# Stress axis : x y z
#
# Youngs Moduli (GPa) = 51.12189 29.86053 83.96167
#
# Poissons Ratio (x) = 0.14525 0.69933
# Poissons Ratio (y) = 0.24867 0.60240
# Poissons Ratio (z) = 0.42580 0.21424
#
# Static dielectric constant tensor:
#      x y z
#    x 1.591260 0.000000 0.000000 
#    y 0.000000 1.605290 0.000000 
#    z 0.000000 0.000000 1.572260 
# 
# From -- ./inp_files/36246.got.cif
#   From: 2010.05.17/outbox.cif.g08.bks.cpg/sg51_19_cif.got.tgz:36246.got - 2010.06.03 11:52:47.
