data_PCOD9403236
_publ_section_title
;
Structure prediction by ZEFSAII (Michael W. Deem and Ramdas Pophale) SiO2 
 PCOD9403236
Probable space group: P M M A
;
_chemical_formula_sum "Si O2"
_cell_formula_units_Z 64
_cell_length_a 34.526119
_cell_length_b 8.046201
_cell_length_c 11.036303
_cell_angle_alpha 90.000000
_cell_angle_beta 90.000000
_cell_angle_gamma 90.000000
_cell_volume 3065.930147
_symmetry_space_group_name_H-M "P M M A"
_symmetry_group_IT_number 51
_symmetry_cell_setting 'orthorhombic'
loop_
_space_group_symop_operation_xyz
x,y,z
1/2-x,-y,z
1/2+x,-y,-z
-x,y,-z
-x,-y,-z
1/2+x,y,-z
1/2-x,y,z
x,-y,z
loop_
_atom_site_type_symbol
_atom_site_label
_atom_site_fract_x
_atom_site_fract_y
_atom_site_fract_z
Si Si1 0.292918 0.303199 0.420312
Si Si2 0.511018 0.691613 0.819019
Si Si3 0.872094 0.701704 0.687408
Si Si4 0.051348 0.193819 0.420567
Si Si5 0.793423 0.196051 0.307508
Si Si6 0.087096 0.297593 0.059711
Si Si7 0.060891 0.805931 0.686835
Si Si8 0.368380 0.307142 0.824664
O O1 0.250000 0.231311 0.397216
O O2 0.290856 0.500000 0.396580
O O3 0.328873 0.239756 0.342295
O O4 0.301452 0.280146 0.562870
O O5 0.502505 0.500000 0.847874
O O6 0.533169 0.703674 0.689455
O O7 0.542945 0.759154 0.913425
O O8 0.470648 0.779632 0.792014
O O9 0.874138 0.500000 0.673005
O O10 0.902628 0.785242 0.596873
O O11 0.887217 0.740943 0.822044
O O12 0.042882 0.247072 0.557730
O O13 0.039898 0.000000 0.404487
O O14 0.750000 0.248512 0.267810
O O15 0.827713 0.231235 0.214254
O O16 0.792524 0.000000 0.330003
O O17 0.084219 0.500000 0.051702
O O18 0.109381 0.234665 0.941685
O O19 0.100114 0.711662 0.718194
O O20 0.069986 0.000000 0.674943
O O21 0.361208 0.500000 0.849070
#
# Coordination Sequence:
#
# PCOD9403236 Si02
#       8
#     8   8   8   8   8   8   8   8
#     4   9  17  30  52  82 110 135 168 210 256 313
#     4  10  20  36  57  78 103 136 175 217 263 314
#     4   9  17  32  53  75 102 135 171 212 260 312
#     4  10  20  33  50  74 105 137 170 213 264 316
#     4  10  21  37  56  79 110 142 169 207 262 314
#     4   8  18  36  54  74 101 135 175 220 264 302
#     4  11  23  36  51  77 112 142 172 214 263 312
#     4  11  22  37  57  78 103 138 182 223 257 302
#
# _framework density 20.874580000000002
#
# number of rings (size 3 to 8) (size 9 to 14) (size 15 to 20)
#    0.000    2.250    0.000    3.750    0.000    7.250 
#    0.000    9.375    0.000    2.250    0.000    1.750 
#    0.000    0.000    0.000    0.000    0.000    0.000 
#
# Total GULP energy -357319.843930 kJ/mol
# GULP energy per Si atom -5583.122561 kJ/mol
# Density = 2.082707 g / cm^3
# Si number density = 20.874580 Si / 1000 Ang^3
#
#
#
# Elastic Constant Matrix: (Units=GPa)
#
#
# Indices 1 2 3 4 5 6 
#
# 1 108.4669 -0.5067 18.0885 0.0000 0.0000 0.0000
# 2 -0.5067 19.2945 -1.7577 0.0000 0.0000 0.0000
# 3 18.0885 -1.7577 62.6646 0.0000 0.0000 0.0000
# 4 0.0000 0.0000 0.0000 117.2416 0.0000 0.0000
# 5 0.0000 0.0000 0.0000 0.0000 28.8221 0.0000
# 6 0.0000 0.0000 0.0000 0.0000 0.0000 -28.7922
#
#
#
# Elastic Compliance Matrix: (Units=1/GPa)
#
#
# Indices 1 2 3 4 5 6 
#
# 1 0.009686 0.000000 -0.002796 0.000000 0.000000 0.000000
# 2 0.000000 0.051961 0.001458 0.000000 0.000000 0.000000
# 3 -0.002796 0.001458 0.016806 0.000000 0.000000 0.000000
# 4 0.000000 0.000000 0.000000 0.008529 0.000000 0.000000
# 5 0.000000 0.000000 0.000000 0.000000 0.034696 0.000000
# 6 0.000000 0.000000 0.000000 0.000000 0.000000 -0.034732
#
#
# Mechanical properties :
#
#
# Convention : Reuss Voigt Hill
#
# Bulk Modulus (GPa) = 13.19692 24.67493 18.93592
# Shear Modulus (GPa) = 43.52309 35.09442 39.30875
#
# Velocity S-wave (km/s) = 4.57111 4.10470 4.34417
# Velocity P-wave (km/s) = 5.84772 5.85755 5.85264
#
# Compressibility (1/GPa) = 0.07577527
#
# Stress axis : x y z
#
# Youngs Moduli (GPa) = 103.24556 19.24521 59.50290
#
# Poissons Ratio (x) = 0.00001 0.16636
# Poissons Ratio (y) = 0.00004 -0.08673
# Poissons Ratio (z) = 0.28866 -0.02805
#
# Static dielectric constant tensor:
#      x y z
#    x 1.772550 0.000000 0.000000 
#    y 0.000000 1.720580 0.000000 
#    z 0.000000 0.000000 1.761770 
# 
# From -- ./inp_files/19523.got.cif
#   From: 2010.05.17/outbox.cif.g08.bks.cpg/sg51_10_cif.got.tgz:19523.got - 2010.06.03 11:52:47.
