data_PCOD9403492
_publ_section_title
;
Structure prediction by ZEFSAII (Michael W. Deem and Ramdas Pophale) SiO2 
 PCOD9403492
Probable space group: P M M A
;
_chemical_formula_sum "Si O2"
_cell_formula_units_Z 64
_cell_length_a 14.053749
_cell_length_b 9.197245
_cell_length_c 26.551210
_cell_angle_alpha 90.000000
_cell_angle_beta 90.000000
_cell_angle_gamma 90.000000
_cell_volume 3431.897165
_symmetry_space_group_name_H-M "P M M A"
_symmetry_group_IT_number 51
_symmetry_cell_setting 'orthorhombic'
loop_
_space_group_symop_operation_xyz
x,y,z
1/2-x,-y,z
1/2+x,-y,-z
-x,y,-z
-x,-y,-z
1/2+x,y,-z
1/2-x,y,z
x,-y,z
loop_
_atom_site_type_symbol
_atom_site_label
_atom_site_fract_x
_atom_site_fract_y
_atom_site_fract_z
Si Si1 0.364732 0.667434 0.531949
Si Si2 0.633933 0.334275 0.973465
Si Si3 0.139764 0.171539 0.428914
Si Si4 0.953270 0.825423 0.180895
Si Si5 0.045187 0.827422 0.626798
Si Si6 0.137184 0.326314 0.722702
Si Si7 0.858756 0.174228 0.870619
Si Si8 0.135093 0.167918 0.926966
O O1 0.250000 0.669253 0.535178
O O2 0.396414 0.500000 0.536509
O O3 0.388872 0.734451 0.477537
O O4 0.404527 0.764600 0.576960
O O5 0.750000 0.333514 0.975239
O O6 0.602392 0.500000 0.968591
O O7 0.610188 0.243595 0.923641
O O8 0.602198 0.263822 0.025977
O O9 0.250000 0.202041 0.416771
O O10 0.066897 0.197375 0.383597
O O11 0.132430 0.000000 0.442368
O O12 0.906242 0.741104 0.226614
O O13 0.903384 0.788894 0.127658
O O14 0.064418 0.790015 0.172022
O O15 0.943446 0.000000 0.188492
O O16 0.085519 0.745548 0.675048
O O17 0.061743 0.000000 0.631310
O O18 0.250000 0.294905 0.720249
O O19 0.125082 0.500000 0.721854
O O20 0.750000 0.219127 0.859677
O O21 0.859942 0.000000 0.876772
O O22 0.250000 0.173471 0.925295
O O23 0.107025 0.000000 0.935792
#
# Coordination Sequence:
#
# PCOD9403492 Si02
#       8
#     8   8   8   8   8   8   8   8
#     4  10  20  33  52  82 119 155 188 225 273 325
#     4   9  17  29  47  73 105 140 175 212 259 316
#     4   9  19  36  56  81 115 151 187 227 269 315
#     4  10  21  37  58  81 103 135 180 224 267 317
#     4  11  22  36  58  84 109 145 190 230 270 317
#     4  11  25  43  61  82 109 139 172 217 273 326
#     4   9  18  34  55  78 106 139 175 217 264 314
#     4   9  17  30  49  73 102 135 171 214 264 318
#
# _framework density 18.648575999999998
#
# number of rings (size 3 to 8) (size 9 to 14) (size 15 to 20)
#    0.000    2.250    0.000    2.625    0.000    9.250 
#    0.000    4.375    0.000    3.750    0.000    0.000 
#    0.000    0.000    0.000    0.000    0.000    0.000 
#
# Total GULP energy -357461.079408 kJ/mol
# GULP energy per Si atom -5585.329366 kJ/mol
# Density = 1.860613 g / cm^3
# Si number density = 18.648576 Si / 1000 Ang^3
#
#
#
# Elastic Constant Matrix: (Units=GPa)
#
#
# Indices 1 2 3 4 5 6 
#
# 1 88.9706 55.7608 71.7982 0.0000 0.0000 0.0000
# 2 55.7608 72.0564 70.9675 0.0000 0.0000 0.0000
# 3 71.7982 70.9675 128.8447 0.0000 0.0000 0.0000
# 4 0.0000 0.0000 0.0000 -125.6336 0.0000 0.0000
# 5 0.0000 0.0000 0.0000 0.0000 33.6122 0.0000
# 6 0.0000 0.0000 0.0000 0.0000 0.0000 19.7158
#
#
#
# Elastic Compliance Matrix: (Units=1/GPa)
#
#
# Indices 1 2 3 4 5 6 
#
# 1 0.024398 -0.012000 -0.006986 0.000000 0.000000 0.000000
# 2 -0.012000 0.036235 -0.013271 0.000000 0.000000 0.000000
# 3 -0.006986 -0.013271 0.018964 0.000000 0.000000 0.000000
# 4 0.000000 0.000000 0.000000 -0.007960 0.000000 0.000000
# 5 0.000000 0.000000 0.000000 0.000000 0.029751 0.000000
# 6 0.000000 0.000000 0.000000 0.000000 0.000000 0.050721
#
#
# Mechanical properties :
#
#
# Convention : Reuss Voigt Hill
#
# Bulk Modulus (GPa) = 66.30232 76.32496 71.31364
# Shear Modulus (GPa) = 22.55797 -8.37143 7.09327
#
# Velocity S-wave (km/s) = 3.48175 -2.12103 1.95241
# Velocity P-wave (km/s) = 7.19682 5.91764 6.58835
#
# Compressibility (1/GPa) = 0.01508243
#
# Stress axis : x y z
#
# Youngs Moduli (GPa) = 40.98667 27.59792 52.73112
#
# Poissons Ratio (x) = 0.33117 0.36840
# Poissons Ratio (y) = 0.49183 0.69980
# Poissons Ratio (z) = 0.28635 0.36626
#
# Static dielectric constant tensor:
#      x y z
#    x 1.696990 0.000000 0.000000 
#    y 0.000000 1.628290 0.000000 
#    z 0.000000 0.000000 1.591010 
# 
# From -- ./inp_files/35875.got.cif
#   From: 2010.05.17/outbox.cif.g08.bks.cpg/sg51_18_cif.got.tgz:35875.got - 2010.06.03 11:52:47.
