data_PCOD9403276
_publ_section_title
;
Structure prediction by ZEFSAII (Michael W. Deem and Ramdas Pophale) SiO2 
 PCOD9403276
Probable space group: P M M A
;
_chemical_formula_sum "Si O2"
_cell_formula_units_Z 64
_cell_length_a 20.123022
_cell_length_b 8.886440
_cell_length_c 20.912806
_cell_angle_alpha 90.000000
_cell_angle_beta 90.000000
_cell_angle_gamma 90.000000
_cell_volume 3739.670372
_symmetry_space_group_name_H-M "P M M A"
_symmetry_group_IT_number 51
_symmetry_cell_setting 'orthorhombic'
loop_
_space_group_symop_operation_xyz
x,y,z
1/2-x,-y,z
1/2+x,-y,-z
-x,y,-z
-x,-y,-z
1/2+x,y,-z
1/2-x,y,z
x,-y,z
loop_
_atom_site_type_symbol
_atom_site_label
_atom_site_fract_x
_atom_site_fract_y
_atom_site_fract_z
Si Si1 0.573480 0.319356 0.681442
Si Si2 0.826731 0.181377 0.432560
Si Si3 0.428680 0.181690 0.677798
Si Si4 0.172808 0.181112 0.066336
Si Si5 0.076397 0.181297 0.181329
Si Si6 0.421717 0.180103 0.824095
Si Si7 0.673107 0.318787 0.568898
Si Si8 0.327122 0.320234 0.929799
O O1 0.571341 0.500000 0.683761
O O2 0.500295 0.255480 0.666703
O O3 0.593064 0.256107 0.750947
O O4 0.625191 0.272567 0.626539
O O5 0.750000 0.226016 0.420278
O O6 0.875455 0.227518 0.375440
O O7 0.846803 0.249051 0.500873
O O8 0.828602 0.000000 0.436579
O O9 0.406669 0.219825 0.750173
O O10 0.436322 0.000000 0.675838
O O11 0.250000 0.220465 0.079095
O O12 0.125355 0.227428 0.124432
O O13 0.168695 0.000000 0.060498
O O14 0.153448 0.253164 0.998735
O O15 0.999524 0.217818 0.165621
O O16 0.080155 0.000000 0.188698
O O17 0.374202 0.259552 0.874265
O O18 0.414620 0.000000 0.831004
O O19 0.750000 0.275606 0.581118
O O20 0.670565 0.500000 0.563931
O O21 0.250000 0.275635 0.918329
O O22 0.330234 0.500000 0.932458
#
# Coordination Sequence:
#
# PCOD9403276 Si02
#       8
#     8   8   8   8   8   8   8   8
#     4  10  20  33  51  74 100 132 168 203 241 292
#     4   9  18  33  53  76  99 126 165 209 249 291
#     4   9  19  35  53  74 101 130 161 203 251 294
#     4   9  18  34  55  76  99 130 166 201 241 293
#     4   9  19  35  53  75 102 129 162 205 248 289
#     4   9  18  33  52  72  97 131 165 199 243 294
#     4   9  19  35  51  70 100 135 168 202 243 292
#     4  10  21  35  50  72 102 131 162 204 247 287
#
# _framework density 17.113807000000001
#
# number of rings (size 3 to 8) (size 9 to 14) (size 15 to 20)
#    0.000    2.750    0.000    1.500    0.000    6.750 
#    0.000    6.250    0.000    1.500    0.000    0.000 
#    0.000    0.000    0.000    0.000    0.000    0.000 
#
# Total GULP energy -356914.534684 kJ/mol
# GULP energy per Si atom -5576.789604 kJ/mol
# Density = 1.707486 g / cm^3
# Si number density = 17.113807 Si / 1000 Ang^3
#
#
#
# Elastic Constant Matrix: (Units=GPa)
#
#
# Indices 1 2 3 4 5 6 
#
# 1 100.7153 36.7604 126.4236 0.0000 0.0000 0.0000
# 2 36.7604 17.9499 49.0249 0.0000 0.0000 0.0000
# 3 126.4236 49.0249 191.8018 0.0000 0.0000 0.0000
# 4 0.0000 0.0000 0.0000 -13.8950 0.0000 0.0000
# 5 0.0000 0.0000 0.0000 0.0000 42.6790 0.0000
# 6 0.0000 0.0000 0.0000 0.0000 0.0000 23.6586
#
#
#
# Elastic Compliance Matrix: (Units=1/GPa)
#
#
# Indices 1 2 3 4 5 6 
#
# 1 0.072798 -0.059730 -0.032717 0.000000 0.000000 0.000000
# 2 -0.059730 0.233542 -0.020323 0.000000 0.000000 0.000000
# 3 -0.032717 -0.020323 0.031973 0.000000 0.000000 0.000000
# 4 0.000000 0.000000 0.000000 -0.071968 0.000000 0.000000
# 5 0.000000 0.000000 0.000000 0.000000 0.023431 0.000000
# 6 0.000000 0.000000 0.000000 0.000000 0.000000 0.042268
#
#
# Mechanical properties :
#
#
# Convention : Reuss Voigt Hill
#
# Bulk Modulus (GPa) = 8.86742 81.65389 45.26065
# Shear Modulus (GPa) = 8.40089 17.03905 12.71997
#
# Velocity S-wave (km/s) = 2.21799 3.15879 2.72923
# Velocity P-wave (km/s) = 3.42812 7.81791 6.03621
#
# Compressibility (1/GPa) = 0.11277242
#
# Stress axis : x y z
#
# Youngs Moduli (GPa) = 13.73661 4.28189 31.27619
#
# Poissons Ratio (x) = 0.25576 1.02326
# Poissons Ratio (y) = 0.82049 0.63563
# Poissons Ratio (z) = 0.44942 0.08702
#
# Static dielectric constant tensor:
#      x y z
#    x 1.569760 0.000000 0.000000 
#    y 0.000000 1.573700 0.000000 
#    z 0.000000 0.000000 1.553560 
# 
# From -- ./inp_files/30508.got.cif
#   From: 2010.05.17/outbox.cif.g08.bks.cpg/sg51_16_cif.got.tgz:30508.got - 2010.06.03 11:52:47.
