data_PCOD9403217
_publ_section_title
;
Structure prediction by ZEFSAII (Michael W. Deem and Ramdas Pophale) SiO2 
 PCOD9403217
Probable space group: P M M A
;
_chemical_formula_sum "Si O2"
_cell_formula_units_Z 64
_cell_length_a 9.017580
_cell_length_b 14.896217
_cell_length_c 21.642997
_cell_angle_alpha 90.000000
_cell_angle_beta 90.000000
_cell_angle_gamma 90.000000
_cell_volume 2907.256789
_symmetry_space_group_name_H-M "P M M A"
_symmetry_group_IT_number 51
_symmetry_cell_setting 'orthorhombic'
loop_
_space_group_symop_operation_xyz
x,y,z
1/2-x,-y,z
1/2+x,-y,-z
-x,y,-z
-x,-y,-z
1/2+x,y,-z
1/2-x,y,z
x,-y,z
loop_
_atom_site_type_symbol
_atom_site_label
_atom_site_fract_x
_atom_site_fract_y
_atom_site_fract_z
Si Si1 0.422423 0.389922 0.803085
Si Si2 0.073224 0.654390 0.560028
Si Si3 0.414211 0.605844 0.317719
Si Si4 0.574719 0.608383 0.061789
Si Si5 0.415281 0.894269 0.687676
Si Si6 0.419705 0.109586 0.936844
Si Si7 0.079580 0.110095 0.189616
Si Si8 0.572611 0.148797 0.561588
O O1 0.250000 0.363889 0.796049
O O2 0.423699 0.500000 0.802968
O O3 0.517935 0.357073 0.745504
O O4 0.478434 0.360665 0.870704
O O5 0.250000 0.660152 0.553048
O O6 0.000000 0.608054 0.500000
O O7 0.025875 0.614267 0.625291
O O8 0.994142 0.751108 0.562156
O O9 0.250000 0.643567 0.332233
O O10 0.397692 0.500000 0.307555
O O11 0.750000 0.624369 0.059098
O O12 0.553595 0.500000 0.061506
O O13 0.500000 0.644652 0.000000
O O14 0.250000 0.855524 0.676551
O O15 0.490965 0.858378 0.749817
O O16 0.516388 0.887439 0.627024
O O17 0.398228 0.000000 0.698802
O O18 0.250000 0.140489 0.935920
O O19 0.502992 0.137252 0.874459
O O20 0.418256 0.000000 0.936823
O O21 0.500000 0.136961 0.000000
O O22 0.250000 0.138842 0.192263
O O23 0.079552 0.000000 0.190155
O O24 0.500000 0.105822 0.500000
O O25 0.750000 0.146933 0.556789
#
# Coordination Sequence:
#
# PCOD9403217 Si02
#       8
#     8   8   8   8   8   8   8   8
#     4   8  14  25  39  57  85 121 158 196 240 287
#     4  11  22  38  58  77 100 129 162 200 244 293
#     4  10  20  33  50  74 102 131 165 204 246 293
#     4   8  13  20  31  49  76 112 153 193 233 280
#     4  10  20  34  52  75 103 134 168 205 246 293
#     4   9  15  22  33  51  78 115 157 198 240 288
#     4   9  16  26  40  60  88 122 159 199 244 291
#     4  11  22  38  58  78 102 130 163 202 245 293
#
# _framework density 22.013878999999999
#
# number of rings (size 3 to 8) (size 9 to 14) (size 15 to 20)
#    0.000    2.500    0.000    5.250    0.000    5.500 
#    0.000    2.500    0.000    0.000    0.000    0.000 
#    0.000    1.000    0.000    8.500    0.000   12.750 
#
# Total GULP energy -357286.514064 kJ/mol
# GULP energy per Si atom -5582.601782 kJ/mol
# Density = 2.196377 g / cm^3
# Si number density = 22.013879 Si / 1000 Ang^3
#
#
#
# Elastic Constant Matrix: (Units=GPa)
#
#
# Indices 1 2 3 4 5 6 
#
# 1 193.6277 7.4551 113.1536 0.0000 0.0000 0.0000
# 2 7.4551 45.4601 7.1219 0.0000 0.0000 0.0000
# 3 113.1536 7.1219 226.9886 0.0000 0.0000 0.0000
# 4 0.0000 0.0000 0.0000 20.2942 0.0000 0.0000
# 5 0.0000 0.0000 0.0000 0.0000 27.2724 0.0000
# 6 0.0000 0.0000 0.0000 0.0000 0.0000 6.6467
#
#
#
# Elastic Compliance Matrix: (Units=1/GPa)
#
#
# Indices 1 2 3 4 5 6 
#
# 1 0.007305 -0.000631 -0.003622 0.000000 0.000000 0.000000
# 2 -0.000631 0.022160 -0.000381 0.000000 0.000000 0.000000
# 3 -0.003622 -0.000381 0.006223 0.000000 0.000000 0.000000
# 4 0.000000 0.000000 0.000000 0.049275 0.000000 0.000000
# 5 0.000000 0.000000 0.000000 0.000000 0.036667 0.000000
# 6 0.000000 0.000000 0.000000 0.000000 0.000000 0.150451
#
#
# Mechanical properties :
#
#
# Convention : Reuss Voigt Hill
#
# Bulk Modulus (GPa) = 37.84746 80.17082 59.00914
# Shear Modulus (GPa) = 17.23206 33.39905 25.31555
#
# Velocity S-wave (km/s) = 2.80086 3.89933 3.39482
# Velocity P-wave (km/s) = 5.26209 7.53461 6.49846
#
# Compressibility (1/GPa) = 0.02642185
#
# Stress axis : x y z
#
# Youngs Moduli (GPa) = 136.88372 45.12549 160.69388
#
# Poissons Ratio (x) = 0.02846 0.58203
# Poissons Ratio (y) = 0.08632 0.06121
# Poissons Ratio (z) = 0.49579 0.01719
#
# Static dielectric constant tensor:
#      x y z
#    x 1.771340 0.000000 0.000000 
#    y 0.000000 1.924670 0.000000 
#    z 0.000000 0.000000 1.934050 
# 
# From -- ./inp_files/32362.got.cif
#   From: 2010.05.17/outbox.cif.g08.bks.cpg/sg51_17_cif.got.tgz:32362.got - 2010.06.03 11:52:47.
