data_PCOD9403905
_publ_section_title
;
Structure prediction by ZEFSAII (Michael W. Deem and Ramdas Pophale) SiO2 
 PCOD9403905
Probable space group: P M M A
;
_chemical_formula_sum "Si O2"
_cell_formula_units_Z 52
_cell_length_a 10.075833
_cell_length_b 7.759973
_cell_length_c 36.363313
_cell_angle_alpha 90.000000
_cell_angle_beta 90.000000
_cell_angle_gamma 90.000000
_cell_volume 2843.181700
_symmetry_space_group_name_H-M "P M M A"
_symmetry_group_IT_number 51
_symmetry_cell_setting 'orthorhombic'
loop_
_space_group_symop_operation_xyz
x,y,z
1/2-x,-y,z
1/2+x,-y,-z
-x,y,-z
-x,-y,-z
1/2+x,y,-z
1/2-x,y,z
x,-y,z
loop_
_atom_site_type_symbol
_atom_site_label
_atom_site_fract_x
_atom_site_fract_y
_atom_site_fract_z
Si Si1 0.403368 0.789537 0.532118
Si Si2 0.589143 0.802528 0.092666
Si Si3 0.900190 0.292958 0.679166
Si Si4 0.599992 0.206789 0.385642
Si Si5 0.589195 0.500000 0.036279
Si Si6 0.598916 0.707478 0.761406
Si Si7 0.599898 0.793742 0.173501
O O1 0.500000 0.728079 0.500000
O O2 0.250000 0.740313 0.525938
O O3 0.441515 0.733352 0.573466
O O4 0.407169 0.000000 0.531675
O O5 0.750000 0.808389 0.094545
O O6 0.556217 0.668290 0.060848
O O7 0.548330 0.737045 0.133310
O O8 0.543126 0.000000 0.086420
O O9 0.750000 0.230547 0.671769
O O10 0.894793 0.500000 0.680830
O O11 0.939431 0.232260 0.720219
O O12 0.000521 0.248654 0.646938
O O13 0.750000 0.270677 0.378485
O O14 0.606881 0.000000 0.387757
O O15 0.750000 0.500000 0.029358
O O16 0.500000 0.500000 0.000000
O O17 0.750000 0.767539 0.768692
O O18 0.602607 0.500000 0.760424
O O19 0.496969 0.755930 0.793027
O O20 0.750000 0.726574 0.179731
O O21 0.609381 0.000000 0.170169
#
# Coordination Sequence:
#
# PCOD9403905 Si02
#       7
#     8   8   8   8   4   8   8
#     4   8  14  25  41  63  91 118 144 181 230 281
#     4   8  16  32  52  75 104 136 171 212 257 306
#     4   9  19  35  50  65  91 127 165 199 234 283
#     4   9  18  31  47  70  97 121 150 193 241 284
#     4  10  20  34  54  78 104 138 176 214 260 308
#     4   9  19  34  49  68  96 129 162 199 244 291
#     4   9  18  32  51  76 101 126 163 207 247 292
#
# _framework density 18.289366999999999
#
# number of rings (size 3 to 8) (size 9 to 14) (size 15 to 20)
#    0.000    3.231    0.000    2.769    1.077    3.385 
#    0.000    6.923    0.000    1.385    0.000    0.000 
#    0.000    0.000    0.000    0.000    0.000    0.000 
#
# Total GULP energy -289663.175337 kJ/mol
# GULP energy per Si atom -5570.445680 kJ/mol
# Density = 1.824774 g / cm^3
# Si number density = 18.289367 Si / 1000 Ang^3
#
#
#
# Elastic Constant Matrix: (Units=GPa)
#
#
# Indices 1 2 3 4 5 6 
#
# 1 86.5279 21.2833 115.3684 0.0000 0.0000 0.0000
# 2 21.2833 41.0917 38.6977 0.0000 0.0000 0.0000
# 3 115.3684 38.6977 213.8421 0.0000 0.0000 0.0000
# 4 0.0000 0.0000 0.0000 26.8775 0.0000 0.0000
# 5 0.0000 0.0000 0.0000 0.0000 40.3566 0.0000
# 6 0.0000 0.0000 0.0000 0.0000 0.0000 18.9910
#
#
#
# Elastic Compliance Matrix: (Units=1/GPa)
#
#
# Indices 1 2 3 4 5 6 
#
# 1 0.041184 -0.000490 -0.022130 0.000000 0.000000 0.000000
# 2 -0.000490 0.029341 -0.005045 0.000000 0.000000 0.000000
# 3 -0.022130 -0.005045 0.017529 0.000000 0.000000 0.000000
# 4 0.000000 0.000000 0.000000 0.037206 0.000000 0.000000
# 5 0.000000 0.000000 0.000000 0.000000 0.024779 0.000000
# 6 0.000000 0.000000 0.000000 0.000000 0.000000 0.052656
#
#
# Mechanical properties :
#
#
# Convention : Reuss Voigt Hill
#
# Bulk Modulus (GPa) = 30.56009 76.90672 53.73341
# Shear Modulus (GPa) = 18.59200 28.31918 23.45559
#
# Velocity S-wave (km/s) = 3.19179 3.93923 3.58505
# Velocity P-wave (km/s) = 5.50717 7.92662 6.82496
#
# Compressibility (1/GPa) = 0.03272241
#
# Stress axis : x y z
#
# Youngs Moduli (GPa) = 24.28146 34.08199 57.04983
#
# Poissons Ratio (x) = 0.01671 1.26251
# Poissons Ratio (y) = 0.01190 0.28783
# Poissons Ratio (z) = 0.53735 0.17195
#
# Static dielectric constant tensor:
#      x y z
#    x 1.612800 0.000000 0.000000 
#    y 0.000000 1.678190 0.000000 
#    z 0.000000 0.000000 1.637000 
# 
# From -- ./inp_files/37690.got.cif
#   From: 2010.05.17/outbox.cif.g08.bks.cpg/sg51_19_cif.got.tgz:37690.got - 2010.06.03 11:52:47.
