data_PCOD9403528
_publ_section_title
;
Structure prediction by ZEFSAII (Michael W. Deem and Ramdas Pophale) SiO2 
 PCOD9403528
Probable space group: P M M A
;
_chemical_formula_sum "Si O2"
_cell_formula_units_Z 56
_cell_length_a 21.640644
_cell_length_b 8.753229
_cell_length_c 14.805684
_cell_angle_alpha 90.000000
_cell_angle_beta 90.000000
_cell_angle_gamma 90.000000
_cell_volume 2804.574282
_symmetry_space_group_name_H-M "P M M A"
_symmetry_group_IT_number 51
_symmetry_cell_setting 'orthorhombic'
loop_
_space_group_symop_operation_xyz
x,y,z
1/2-x,-y,z
1/2+x,-y,-z
-x,y,-z
-x,-y,-z
1/2+x,y,-z
1/2-x,y,z
x,-y,z
loop_
_atom_site_type_symbol
_atom_site_label
_atom_site_fract_x
_atom_site_fract_y
_atom_site_fract_z
Si Si1 0.660293 0.327610 0.395942
Si Si2 0.750000 0.314165 0.871253
Si Si3 0.750000 0.316427 0.081352
Si Si4 0.013775 0.673201 0.599902
Si Si5 0.144204 0.816538 0.794333
Si Si6 0.178821 0.179124 0.408637
Si Si7 0.874111 0.317434 0.769105
Si Si8 0.998591 0.177767 0.215981
O O1 0.684919 0.500000 0.392510
O O2 0.586803 0.341014 0.396681
O O3 0.671276 0.237632 0.302829
O O4 0.676497 0.246887 0.490151
O O5 0.750000 0.500000 0.865637
O O6 0.813204 0.262310 0.823043
O O7 0.750000 0.272733 0.976279
O O8 0.750000 0.500000 0.088743
O O9 0.689289 0.251444 0.130646
O O10 0.987601 0.500000 0.613996
O O11 0.000000 0.726880 0.500000
O O12 0.997161 0.791551 0.676778
O O13 0.071607 0.767500 0.807127
O O14 0.144509 0.000000 0.795992
O O15 0.250000 0.195871 0.378144
O O16 0.136547 0.262195 0.334428
O O17 0.163164 0.000000 0.411888
O O18 0.874960 0.500000 0.769464
O O19 0.938214 0.260146 0.814066
O O20 0.002203 0.000000 0.193533
#
# Coordination Sequence:
#
# PCOD9403528 Si02
#       8
#     8   4   4   8   8   8   8   8
#     4  10  20  33  53  82 117 158 204 247 288 341
#     4   9  22  43  66  93 118 149 195 248 308 363
#     4  11  23  43  70  93 116 147 195 252 302 365
#     4   9  17  30  48  74 108 150 198 242 284 334
#     4  10  22  41  62  89 126 163 199 244 302 361
#     4  11  23  36  52  81 122 164 205 250 299 354
#     4  11  21  39  64  88 120 159 201 251 301 357
#     4  10  21  36  57  86 120 157 196 241 296 356
#
# _framework density 19.967379999999999
#
# number of rings (size 3 to 8) (size 9 to 14) (size 15 to 20)
#    0.000    1.857    0.714    3.214    1.000    4.571 
#    0.000    3.571    0.000    4.286    0.000    0.000 
#    0.000    0.000    0.000    0.000    0.000    0.000 
#
# Total GULP energy -312338.299009 kJ/mol
# GULP energy per Si atom -5577.469625 kJ/mol
# Density = 1.992193 g / cm^3
# Si number density = 19.967380 Si / 1000 Ang^3
#
#
#
# Elastic Constant Matrix: (Units=GPa)
#
#
# Indices 1 2 3 4 5 6 
#
# 1 157.6850 44.3134 54.8846 0.0000 0.0000 0.0000
# 2 44.3134 70.6433 17.9065 0.0000 0.0000 0.0000
# 3 54.8846 17.9065 89.3820 0.0000 0.0000 0.0000
# 4 0.0000 0.0000 0.0000 11.3935 0.0000 0.0000
# 5 0.0000 0.0000 0.0000 0.0000 -33.2739 0.0000
# 6 0.0000 0.0000 0.0000 0.0000 0.0000 26.5682
#
#
#
# Elastic Compliance Matrix: (Units=1/GPa)
#
#
# Indices 1 2 3 4 5 6 
#
# 1 0.009308 -0.004625 -0.004789 0.000000 0.000000 0.000000
# 2 -0.004625 0.017211 -0.000608 0.000000 0.000000 0.000000
# 3 -0.004789 -0.000608 0.014251 0.000000 0.000000 0.000000
# 4 0.000000 0.000000 0.000000 0.087770 0.000000 0.000000
# 5 0.000000 0.000000 0.000000 0.000000 -0.030054 0.000000
# 6 0.000000 0.000000 0.000000 0.000000 0.000000 0.037639
#
#
# Mechanical properties :
#
#
# Convention : Reuss Voigt Hill
#
# Bulk Modulus (GPa) = 48.25006 61.32436 54.78721
# Shear Modulus (GPa) = 30.66012 14.31126 22.48569
#
# Velocity S-wave (km/s) = 3.92281 2.68009 3.35941
# Velocity P-wave (km/s) = 6.68841 6.35265 6.52269
#
# Compressibility (1/GPa) = 0.02072536
#
# Stress axis : x y z
#
# Youngs Moduli (GPa) = 107.42877 58.10248 70.17266
#
# Poissons Ratio (x) = 0.26873 0.33608
# Poissons Ratio (y) = 0.49687 0.04266
# Poissons Ratio (z) = 0.51450 0.03533
#
# Static dielectric constant tensor:
#      x y z
#    x 1.764310 0.000000 0.000000 
#    y 0.000000 1.703360 0.000000 
#    z 0.000000 0.000000 1.713730 
# 
# From -- ./inp_files/25872.got.cif
#   From: 2010.05.17/outbox.cif.g08.bks.cpg/sg51_13_cif.got.tgz:25872.got - 2010.06.03 11:52:47.
