data_PCOD9403370
_publ_section_title
;
Structure prediction by ZEFSAII (Michael W. Deem and Ramdas Pophale) SiO2 
 PCOD9403370
Probable space group: P M M A
;
_chemical_formula_sum "Si O2"
_cell_formula_units_Z 48
_cell_length_a 9.545446
_cell_length_b 8.048606
_cell_length_c 32.081371
_cell_angle_alpha 90.000000
_cell_angle_beta 90.000000
_cell_angle_gamma 90.000000
_cell_volume 2464.732620
_symmetry_space_group_name_H-M "P M M A"
_symmetry_group_IT_number 51
_symmetry_cell_setting 'orthorhombic'
loop_
_space_group_symop_operation_xyz
x,y,z
1/2-x,-y,z
1/2+x,-y,-z
-x,y,-z
-x,-y,-z
1/2+x,y,-z
1/2-x,y,z
x,-y,z
loop_
_atom_site_type_symbol
_atom_site_label
_atom_site_fract_x
_atom_site_fract_y
_atom_site_fract_z
Si Si1 0.411896 0.299524 0.131627
Si Si2 0.090814 0.197620 0.789189
Si Si3 0.409307 0.198560 0.380123
Si Si4 0.088008 0.203314 0.540712
Si Si5 0.913011 0.297262 0.960431
Si Si6 0.410858 0.303346 0.697970
O O1 0.250000 0.246487 0.135722
O O2 0.413549 0.500000 0.131575
O O3 0.500430 0.240956 0.170686
O O4 0.463047 0.244378 0.085656
O O5 0.250000 0.260255 0.795099
O O6 0.039506 0.268401 0.745061
O O7 0.094380 0.000000 0.784795
O O8 0.250000 0.264497 0.380883
O O9 0.505908 0.261082 0.418058
O O10 0.487399 0.230860 0.336753
O O11 0.400049 0.000000 0.385592
O O12 0.250000 0.257813 0.539690
O O13 0.000000 0.253026 0.500000
O O14 0.090516 0.000000 0.541143
O O15 0.750000 0.251493 0.964352
O O16 0.918613 0.500000 0.960829
O O17 0.000000 0.236797 0.000000
O O18 0.250000 0.237829 0.694251
O O19 0.405759 0.500000 0.691780
#
# Coordination Sequence:
#
# PCOD9403370 Si02
#       6
#     8   8   8   8   8   8
#     4   9  18  32  50  74 104 135 167 205 250 300
#     4  10  21  36  54  76 101 130 167 210 254 302
#     4  10  20  33  51  77 107 138 173 211 252 300
#     4   9  16  27  46  73 105 139 174 213 254 295
#     4   8  14  25  42  67  98 129 162 201 244 290
#     4  10  21  37  56  76  99 130 168 209 255 306
#
# _framework density 19.474729
#
# number of rings (size 3 to 8) (size 9 to 14) (size 15 to 20)
#    0.000    2.667    0.000    3.000    0.000    6.667 
#    0.000    1.667    0.000    1.000    0.000    0.000 
#    0.000    0.000    0.000    0.000    0.000    0.000 
#
# Total GULP energy -267770.088314 kJ/mol
# GULP energy per Si atom -5578.543507 kJ/mol
# Density = 1.943040 g / cm^3
# Si number density = 19.474729 Si / 1000 Ang^3
#
#
#
# Elastic Constant Matrix: (Units=GPa)
#
#
# Indices 1 2 3 4 5 6 
#
# 1 123.8473 8.7648 107.0367 0.0000 0.0000 0.0000
# 2 8.7648 10.6795 2.9673 0.0000 0.0000 0.0000
# 3 107.0367 2.9673 180.6092 0.0000 0.0000 0.0000
# 4 0.0000 0.0000 0.0000 20.9243 0.0000 0.0000
# 5 0.0000 0.0000 0.0000 0.0000 40.0799 0.0000
# 6 0.0000 0.0000 0.0000 0.0000 0.0000 14.3848
#
#
#
# Elastic Compliance Matrix: (Units=1/GPa)
#
#
# Indices 1 2 3 4 5 6 
#
# 1 0.017923 -0.011812 -0.010428 0.000000 0.000000 0.000000
# 2 -0.011812 0.101852 0.005327 0.000000 0.000000 0.000000
# 3 -0.010428 0.005327 0.011629 0.000000 0.000000 0.000000
# 4 0.000000 0.000000 0.000000 0.047791 0.000000 0.000000
# 5 0.000000 0.000000 0.000000 0.000000 0.024950 0.000000
# 6 0.000000 0.000000 0.000000 0.000000 0.000000 0.069518
#
#
# Mechanical properties :
#
#
# Convention : Reuss Voigt Hill
#
# Bulk Modulus (GPa) = 10.24821 61.40817 35.82819
# Shear Modulus (GPa) = 14.70526 28.16893 21.43709
#
# Velocity S-wave (km/s) = 2.75088 3.80733 3.32138
# Velocity P-wave (km/s) = 3.91963 7.13641 5.75725
#
# Compressibility (1/GPa) = 0.09757800
#
# Stress axis : x y z
#
# Youngs Moduli (GPa) = 55.79529 9.81820 85.99057
#
# Poissons Ratio (x) = 0.11597 0.89668
# Poissons Ratio (y) = 0.65905 -0.45807
# Poissons Ratio (z) = 0.58181 -0.05230
#
# Static dielectric constant tensor:
#      x y z
#    x 1.671420 0.000000 0.000000 
#    y 0.000000 1.709300 0.000000 
#    z 0.000000 0.000000 1.665470 
# 
# From -- ./inp_files/36986.got.cif
#   From: 2010.05.17/outbox.cif.g08.bks.cpg/sg51_19_cif.got.tgz:36986.got - 2010.06.03 11:52:47.
