data_PCOD9403982
_publ_section_title
;
Structure prediction by ZEFSAII (Michael W. Deem and Ramdas Pophale) SiO2 
 PCOD9403982
Probable space group: P M M A
;
_chemical_formula_sum "Si O2"
_cell_formula_units_Z 36
_cell_length_a 9.506569
_cell_length_b 7.864535
_cell_length_c 25.450264
_cell_angle_alpha 90.000000
_cell_angle_beta 90.000000
_cell_angle_gamma 90.000000
_cell_volume 1902.782489
_symmetry_space_group_name_H-M "P M M A"
_symmetry_group_IT_number 51
_symmetry_cell_setting 'orthorhombic'
loop_
_space_group_symop_operation_xyz
x,y,z
1/2-x,-y,z
1/2+x,-y,-z
-x,y,-z
-x,-y,-z
1/2+x,y,-z
1/2-x,y,z
x,-y,z
loop_
_atom_site_type_symbol
_atom_site_label
_atom_site_fract_x
_atom_site_fract_y
_atom_site_fract_z
Si Si1 0.912738 0.202280 0.231231
Si Si2 0.082893 0.689846 0.130737
Si Si3 0.088115 0.708148 0.448955
Si Si4 0.580431 0.000000 0.945195
Si Si5 0.911907 0.705323 0.348290
O O1 0.750000 0.260066 0.227954
O O2 0.961391 0.241077 0.290452
O O3 0.003420 0.285420 0.185604
O O4 0.916410 0.000000 0.223350
O O5 0.250000 0.707677 0.140032
O O6 0.055695 0.500000 0.110334
O O7 0.042237 0.834906 0.089440
O O8 0.250000 0.763103 0.451299
O O9 0.088363 0.500000 0.448872
O O10 0.000000 0.761532 0.500000
O O11 0.009967 0.763938 0.395827
O O12 0.750000 0.000000 0.953093
O O13 0.500000 0.000000 0.000000
O O14 0.750000 0.764495 0.355087
O O15 0.909681 0.500000 0.349601
#
# Coordination Sequence:
#
# PCOD9403982 Si02
#       5
#     8   8   8   4   8
#     4  10  20  34  54  80 110 144 183 227 278 334
#     4  10  21  38  60  85 115 152 191 232 281 333
#     4   9  16  26  42  65  93 126 166 214 269 328
#     4  10  22  40  60  86 120 154 191 234 277 326
#     4   9  17  29  45  68  99 132 168 214 267 324
#
# _framework density 18.91966
#
# number of rings (size 3 to 8) (size 9 to 14) (size 15 to 20)
#    0.000    2.444    1.111    1.333    0.000    6.222 
#    0.000    2.222    0.000    0.667    0.000    0.000 
#    0.000    0.000    0.000    0.000    0.000    0.000 
#
# Total GULP energy -200962.888284 kJ/mol
# GULP energy per Si atom -5582.302452 kJ/mol
# Density = 1.887660 g / cm^3
# Si number density = 18.919660 Si / 1000 Ang^3
#
#
#
# Elastic Constant Matrix: (Units=GPa)
#
#
# Indices 1 2 3 4 5 6 
#
# 1 76.6273 36.7149 83.6503 0.0000 0.0000 0.0000
# 2 36.7149 74.4106 58.3968 0.0000 0.0000 0.0000
# 3 83.6503 58.3968 176.4340 0.0000 0.0000 0.0000
# 4 0.0000 0.0000 0.0000 23.2123 0.0000 0.0000
# 5 0.0000 0.0000 0.0000 0.0000 41.5961 0.0000
# 6 0.0000 0.0000 0.0000 0.0000 0.0000 -0.6550
#
#
#
# Elastic Compliance Matrix: (Units=1/GPa)
#
#
# Indices 1 2 3 4 5 6 
#
# 1 0.028179 -0.004619 -0.011831 0.000000 0.000000 0.000000
# 2 -0.004619 0.018912 -0.004070 0.000000 0.000000 0.000000
# 3 -0.011831 -0.004070 0.012624 0.000000 0.000000 0.000000
# 4 0.000000 0.000000 0.000000 0.043081 0.000000 0.000000
# 5 0.000000 0.000000 0.000000 0.000000 0.024041 0.000000
# 6 0.000000 0.000000 0.000000 0.000000 0.000000 -1.526610
#
#
# Mechanical properties :
#
#
# Convention : Reuss Voigt Hill
#
# Bulk Modulus (GPa) = 53.54609 76.11066 64.82838
# Shear Modulus (GPa) = -3.69683 22.74466 9.52392
#
# Velocity S-wave (km/s) = -1.39936 3.47100 2.24606
# Velocity P-wave (km/s) = 5.07468 7.50862 6.40827
#
# Compressibility (1/GPa) = 0.01867550
#
# Stress axis : x y z
#
# Youngs Moduli (GPa) = 35.48760 52.87746 79.21215
#
# Poissons Ratio (x) = 0.24422 0.93719
# Poissons Ratio (y) = 0.16390 0.32237
# Poissons Ratio (z) = 0.41987 0.21520
#
# Static dielectric constant tensor:
#      x y z
#    x 1.638830 0.000000 0.000000 
#    y 0.000000 1.684840 0.000000 
#    z 0.000000 0.000000 1.612280 
# 
# From -- ./inp_files/34322.got.cif
#   From: 2010.05.17/outbox.cif.g08.bks.cpg/sg51_18_cif.got.tgz:34322.got - 2010.06.03 11:52:47.
