data_PCOD9403335
_publ_section_title
;
Structure prediction by ZEFSAII (Michael W. Deem and Ramdas Pophale) SiO2 
 PCOD9403335
Probable space group: P M M A
;
_chemical_formula_sum "Si O2"
_cell_formula_units_Z 40
_cell_length_a 18.394913
_cell_length_b 8.877655
_cell_length_c 14.159240
_cell_angle_alpha 90.000000
_cell_angle_beta 90.000000
_cell_angle_gamma 90.000000
_cell_volume 2312.256159
_symmetry_space_group_name_H-M "P M M A"
_symmetry_group_IT_number 51
_symmetry_cell_setting 'orthorhombic'
loop_
_space_group_symop_operation_xyz
x,y,z
1/2-x,-y,z
1/2+x,-y,-z
-x,y,-z
-x,-y,-z
1/2+x,y,-z
1/2-x,y,z
x,-y,z
loop_
_atom_site_type_symbol
_atom_site_label
_atom_site_fract_x
_atom_site_fract_y
_atom_site_fract_z
Si Si1 0.049457 0.680033 0.789069
Si Si2 0.165118 0.180358 0.920824
Si Si3 0.020474 0.181324 0.394462
Si Si4 0.398509 0.679717 0.110812
Si Si5 0.831469 0.180237 0.704735
O O1 0.055457 0.500000 0.785713
O O2 0.121097 0.752259 0.832977
O O3 0.028224 0.743654 0.686675
O O4 0.981047 0.717454 0.858004
O O5 0.250000 0.223729 0.920294
O O6 0.160542 0.000000 0.919577
O O7 0.127381 0.242136 0.015546
O O8 0.000000 0.228877 0.500000
O O9 0.104125 0.217564 0.367965
O O10 0.012022 0.000000 0.388457
O O11 0.393601 0.500000 0.100049
O O12 0.349206 0.735558 0.197846
O O13 0.750000 0.215918 0.672092
O O14 0.835263 0.000000 0.722293
#
# Coordination Sequence:
#
# PCOD9403335 Si02
#       5
#     8   8   8   8   8
#     4  10  21  36  54  76 102 133 170 211 255 304
#     4  11  23  36  51  74 104 138 174 209 247 296
#     4   9  18  34  55  76 100 133 172 213 259 307
#     4  10  20  33  51  76 104 134 168 206 250 301
#     4   9  17  30  49  74 102 131 166 209 255 302
#
# _framework density 17.299121
#
# number of rings (size 3 to 8) (size 9 to 14) (size 15 to 20)
#    0.000    2.200    0.000    3.000    0.000    9.600 
#    0.000    1.000    0.000    3.600    0.000    0.000 
#    0.000    0.000    0.000    0.000    0.000    0.000 
#
# Total GULP energy -223289.682695 kJ/mol
# GULP energy per Si atom -5582.242067 kJ/mol
# Density = 1.725975 g / cm^3
# Si number density = 17.299121 Si / 1000 Ang^3
#
#
#
# Elastic Constant Matrix: (Units=GPa)
#
#
# Indices 1 2 3 4 5 6 
#
# 1 87.0925 41.4992 79.5788 0.0000 0.0000 0.0000
# 2 41.4992 35.5052 44.2718 0.0000 0.0000 0.0000
# 3 79.5788 44.2718 132.1854 0.0000 0.0000 0.0000
# 4 0.0000 0.0000 0.0000 -7.1431 0.0000 0.0000
# 5 0.0000 0.0000 0.0000 0.0000 12.3932 0.0000
# 6 0.0000 0.0000 0.0000 0.0000 0.0000 11.7766
#
#
#
# Elastic Compliance Matrix: (Units=1/GPa)
#
#
# Indices 1 2 3 4 5 6 
#
# 1 0.035058 -0.025171 -0.012675 0.000000 0.000000 0.000000
# 2 -0.025171 0.066434 -0.007097 0.000000 0.000000 0.000000
# 3 -0.012675 -0.007097 0.017573 0.000000 0.000000 0.000000
# 4 0.000000 0.000000 0.000000 -0.139995 0.000000 0.000000
# 5 0.000000 0.000000 0.000000 0.000000 0.080689 0.000000
# 6 0.000000 0.000000 0.000000 0.000000 0.000000 0.084914
#
#
# Mechanical properties :
#
#
# Convention : Reuss Voigt Hill
#
# Bulk Modulus (GPa) = 34.27165 65.05363 49.66264
# Shear Modulus (GPa) = 20.46781 9.36756 14.91768
#
# Velocity S-wave (km/s) = 3.44346 2.32955 2.93974
# Velocity P-wave (km/s) = 5.97194 6.70243 6.34770
#
# Compressibility (1/GPa) = 0.02917863
#
# Stress axis : x y z
#
# Youngs Moduli (GPa) = 28.52436 15.05243 56.90648
#
# Poissons Ratio (x) = 0.37889 0.72130
# Poissons Ratio (y) = 0.71800 0.40384
# Poissons Ratio (z) = 0.36155 0.10682
#
# Static dielectric constant tensor:
#      x y z
#    x 1.596500 0.000000 0.000000 
#    y 0.000000 1.573950 0.000000 
#    z 0.000000 0.000000 1.551730 
# 
# From -- ./inp_files/17083.got.cif
#   From: 2010.05.17/outbox.cif.g08.bks.cpg/sg51_9_cif.got.tgz:17083.got - 2010.06.03 11:52:47.
