data_PCOD9403818
_publ_section_title
;
Structure prediction by ZEFSAII (Michael W. Deem and Ramdas Pophale) SiO2 
 PCOD9403818
Probable space group: P M M A
;
_chemical_formula_sum "Si O2"
_cell_formula_units_Z 56
_cell_length_a 8.849020
_cell_length_b 20.642625
_cell_length_c 15.758889
_cell_angle_alpha 90.000000
_cell_angle_beta 90.000000
_cell_angle_gamma 90.000000
_cell_volume 2878.629000
_symmetry_space_group_name_H-M "P M M A"
_symmetry_group_IT_number 51
_symmetry_cell_setting 'orthorhombic'
loop_
_space_group_symop_operation_xyz
x,y,z
1/2-x,-y,z
1/2+x,-y,-z
-x,y,-z
-x,-y,-z
1/2+x,y,-z
1/2-x,y,z
x,-y,z
loop_
_atom_site_type_symbol
_atom_site_label
_atom_site_fract_x
_atom_site_fract_y
_atom_site_fract_z
Si Si1 0.567806 0.656138 0.094466
Si Si2 0.578555 0.071391 0.641049
Si Si3 0.569093 0.334384 0.595521
Si Si4 0.578554 0.929595 0.843530
Si Si5 0.429632 0.198952 0.907289
Si Si6 0.428798 0.202889 0.592940
Si Si7 0.068699 0.576661 0.739541
O O1 0.750000 0.653103 0.085833
O O2 0.526512 0.729306 0.124702
O O3 0.522489 0.607374 0.169518
O O4 0.500000 0.645142 0.000000
O O5 0.750000 0.084246 0.608467
O O6 0.588710 0.066463 0.742255
O O7 0.471694 0.131918 0.625144
O O8 0.530016 0.000000 0.609190
O O9 0.500000 0.343172 0.500000
O O10 0.750000 0.332465 0.588510
O O11 0.507556 0.265874 0.633337
O O12 0.513831 0.388979 0.660854
O O13 0.750000 0.922531 0.877257
O O14 0.486749 0.865239 0.861867
O O15 0.518411 0.000000 0.873817
O O16 0.250000 0.197267 0.910499
O O17 0.500000 0.195475 0.000000
O O18 0.500000 0.203635 0.500000
O O19 0.250000 0.212317 0.593065
O O20 0.250000 0.587599 0.730573
O O21 0.041307 0.500000 0.739461
#
# Coordination Sequence:
#
# PCOD9403818 Si02
#       7
#     8   8   8   8   8   8   8
#     4   9  20  38  59  87 122 158 199 245 296 348
#     4   9  19  36  55  78 111 149 190 237 290 345
#     4  11  23  41  64  91 123 159 201 249 300 355
#     4   9  19  35  53  75 106 143 184 232 286 341
#     4  10  20  34  53  78 107 143 188 236 286 341
#     4  11  22  37  58  83 113 148 192 239 289 347
#     4  10  22  41  64  92 126 162 198 240 296 359
#
# _framework density 19.453706
#
# number of rings (size 3 to 8) (size 9 to 14) (size 15 to 20)
#    0.000    2.143    0.000    4.714    2.000    3.714 
#    0.000    1.429    0.000    0.000    0.000    0.000 
#    0.000    0.000    0.000    0.000    0.000    0.000 
#
# Total GULP energy -312192.642262 kJ/mol
# GULP energy per Si atom -5574.868612 kJ/mol
# Density = 1.940943 g / cm^3
# Si number density = 19.453706 Si / 1000 Ang^3
#
#
#
# Elastic Constant Matrix: (Units=GPa)
#
#
# Indices 1 2 3 4 5 6 
#
# 1 101.1332 78.4430 40.1480 0.0000 0.0000 0.0000
# 2 78.4430 159.8067 66.0975 0.0000 0.0000 0.0000
# 3 40.1480 66.0975 69.4530 0.0000 0.0000 0.0000
# 4 0.0000 0.0000 0.0000 64.6250 0.0000 0.0000
# 5 0.0000 0.0000 0.0000 0.0000 22.5053 0.0000
# 6 0.0000 0.0000 0.0000 0.0000 0.0000 28.2961
#
#
#
# Elastic Compliance Matrix: (Units=1/GPa)
#
#
# Indices 1 2 3 4 5 6 
#
# 1 0.016335 -0.006782 -0.002988 0.000000 0.000000 0.000000
# 2 -0.006782 0.013136 -0.008581 0.000000 0.000000 0.000000
# 3 -0.002988 -0.008581 0.024291 0.000000 0.000000 0.000000
# 4 0.000000 0.000000 0.000000 0.015474 0.000000 0.000000
# 5 0.000000 0.000000 0.000000 0.000000 0.044434 0.000000
# 6 0.000000 0.000000 0.000000 0.000000 0.000000 0.035341
#
#
# Mechanical properties :
#
#
# Convention : Reuss Voigt Hill
#
# Bulk Modulus (GPa) = 58.61495 77.75220 68.18358
# Shear Modulus (GPa) = 26.12356 32.79891 29.46123
#
# Velocity S-wave (km/s) = 3.66848 4.11055 3.89579
# Velocity P-wave (km/s) = 6.93827 7.91096 7.44053
#
# Compressibility (1/GPa) = 0.01706049
#
# Stress axis : x y z
#
# Youngs Moduli (GPa) = 61.21949 76.12841 41.16696
#
# Poissons Ratio (x) = 0.51632 0.12300
# Poissons Ratio (y) = 0.41521 0.35323
# Poissons Ratio (z) = 0.18291 0.65322
#
# Static dielectric constant tensor:
#      x y z
#    x 1.677170 0.000000 0.000000 
#    y 0.000000 1.751140 0.000000 
#    z 0.000000 0.000000 1.665940 
# 
# From -- ./inp_files/21697.got.cif
#   From: 2010.05.17/outbox.cif.g08.bks.cpg/sg51_11_cif.got.tgz:21697.got - 2010.06.03 11:52:47.
