data_PCOD9403896
_publ_section_title
;
Structure prediction by ZEFSAII (Michael W. Deem and Ramdas Pophale) SiO2 
 PCOD9403896
Probable space group: P M M A
;
_chemical_formula_sum "Si O2"
_cell_formula_units_Z 48
_cell_length_a 14.622039
_cell_length_b 8.400545
_cell_length_c 21.937117
_cell_angle_alpha 90.000000
_cell_angle_beta 90.000000
_cell_angle_gamma 90.000000
_cell_volume 2694.604012
_symmetry_space_group_name_H-M "P M M A"
_symmetry_group_IT_number 51
_symmetry_cell_setting 'orthorhombic'
loop_
_space_group_symop_operation_xyz
x,y,z
1/2-x,-y,z
1/2+x,-y,-z
-x,y,-z
-x,-y,-z
1/2+x,y,-z
1/2-x,y,z
x,-y,z
loop_
_atom_site_type_symbol
_atom_site_label
_atom_site_fract_x
_atom_site_fract_y
_atom_site_fract_z
Si Si1 0.354701 0.690753 0.333859
Si Si2 0.501160 0.807481 0.569638
Si Si3 0.004170 0.192453 0.235408
Si Si4 0.354109 0.805902 0.668201
Si Si5 0.004867 0.808985 0.095801
Si Si6 0.144876 0.309102 0.996868
O O1 0.250000 0.746723 0.334336
O O2 0.355434 0.500000 0.334007
O O3 0.411273 0.750939 0.392253
O O4 0.409530 0.750039 0.274566
O O5 0.500000 0.751544 0.500000
O O6 0.412222 0.757196 0.608730
O O7 0.502131 0.000000 0.569324
O O8 0.913977 0.243164 0.273172
O O9 0.004936 0.246878 0.165652
O O10 0.005086 0.000000 0.235481
O O11 0.250000 0.749113 0.668695
O O12 0.351931 0.000000 0.668261
O O13 0.090643 0.744931 0.057213
O O14 0.991506 0.000000 0.905007
O O15 0.914245 0.755686 0.059646
O O16 0.250000 0.254745 0.996220
O O17 0.143315 0.500000 0.994476
#
# Coordination Sequence:
#
# PCOD9403896 Si02
#       6
#     8   8   8   8   8   8
#     4  10  21  35  51  73 102 137 173 208 250 299
#     4   9  18  32  51  75 101 131 168 209 253 299
#     4   9  19  34  52  75 100 129 166 209 256 299
#     4   8  14  27  47  70  96 124 157 198 243 294
#     4  10  20  34  54  78 102 130 168 215 261 302
#     4  10  21  36  53  74 103 138 171 204 248 305
#
# _framework density 17.813378
#
# number of rings (size 3 to 8) (size 9 to 14) (size 15 to 20)
#    0.000    2.667    0.000    3.500    0.000    6.333 
#    0.000    6.667    0.000    8.000    0.000    0.000 
#    0.000    0.000    0.000    0.000    0.000    0.000 
#
# Total GULP energy -267702.728122 kJ/mol
# GULP energy per Si atom -5577.140169 kJ/mol
# Density = 1.777283 g / cm^3
# Si number density = 17.813378 Si / 1000 Ang^3
#
#
#
# Elastic Constant Matrix: (Units=GPa)
#
#
# Indices 1 2 3 4 5 6 
#
# 1 176.3658 5.2421 86.8529 0.0000 0.0000 0.0000
# 2 5.2421 8.9709 9.0656 0.0000 0.0000 0.0000
# 3 86.8529 9.0656 183.5400 0.0000 0.0000 0.0000
# 4 0.0000 0.0000 0.0000 -16.1079 0.0000 0.0000
# 5 0.0000 0.0000 0.0000 0.0000 4.6094 0.0000
# 6 0.0000 0.0000 0.0000 0.0000 0.0000 4.0924
#
#
#
# Elastic Compliance Matrix: (Units=1/GPa)
#
#
# Indices 1 2 3 4 5 6 
#
# 1 0.007399 -0.000827 -0.003460 0.000000 0.000000 0.000000
# 2 -0.000827 0.117421 -0.005409 0.000000 0.000000 0.000000
# 3 -0.003460 -0.005409 0.007353 0.000000 0.000000 0.000000
# 4 0.000000 0.000000 0.000000 -0.062081 0.000000 0.000000
# 5 0.000000 0.000000 0.000000 0.000000 0.216949 0.000000
# 6 0.000000 0.000000 0.000000 0.000000 0.000000 0.244358
#
#
# Mechanical properties :
#
#
# Convention : Reuss Voigt Hill
#
# Bulk Modulus (GPa) = 8.86672 63.46642 36.16657
# Shear Modulus (GPa) = 8.49787 16.36651 12.43219
#
# Velocity S-wave (km/s) = 2.18652 3.03442 2.64467
# Velocity P-wave (km/s) = 3.37088 6.92696 5.44728
#
# Compressibility (1/GPa) = 0.11278126
#
# Stress axis : x y z
#
# Youngs Moduli (GPa) = 135.15981 8.51640 135.99909
#
# Poissons Ratio (x) = 0.00704 0.47060
# Poissons Ratio (y) = 0.11171 0.73557
# Poissons Ratio (z) = 0.46769 0.04606
#
# Static dielectric constant tensor:
#      x y z
#    x 1.593610 0.000000 0.000000 
#    y 0.000000 1.609950 0.000000 
#    z 0.000000 0.000000 1.596280 
# 
# From -- ./inp_files/33196.got.cif
#   From: 2010.05.17/outbox.cif.g08.bks.cpg/sg51_17_cif.got.tgz:33196.got - 2010.06.03 11:52:47.
