data_PCOD9403813
_publ_section_title
;
Structure prediction by ZEFSAII (Michael W. Deem and Ramdas Pophale) SiO2 
 PCOD9403813
Probable space group: P M M A
;
_chemical_formula_sum "Si O2"
_cell_formula_units_Z 44
_cell_length_a 9.369656
_cell_length_b 17.602517
_cell_length_c 14.641470
_cell_angle_alpha 90.000000
_cell_angle_beta 90.000000
_cell_angle_gamma 90.000000
_cell_volume 2414.810751
_symmetry_space_group_name_H-M "P M M A"
_symmetry_group_IT_number 51
_symmetry_cell_setting 'orthorhombic'
loop_
_space_group_symop_operation_xyz
x,y,z
1/2-x,-y,z
1/2+x,-y,-z
-x,y,-z
-x,-y,-z
1/2+x,y,-z
1/2-x,y,z
x,-y,z
loop_
_atom_site_type_symbol
_atom_site_label
_atom_site_fract_x
_atom_site_fract_y
_atom_site_fract_z
Si Si1 0.417882 0.411606 0.230099
Si Si2 0.418474 0.000000 0.904693
Si Si3 0.413752 0.407266 0.589333
Si Si4 0.580545 0.722633 0.904129
Si Si5 0.420344 0.910264 0.591736
Si Si6 0.920917 0.848278 0.211846
O O1 0.250000 0.406896 0.254727
O O2 0.451204 0.500000 0.212211
O O3 0.509799 0.384900 0.316717
O O4 0.441129 0.359468 0.142416
O O5 0.448825 0.074574 0.844867
O O6 0.250000 0.000000 0.924129
O O7 0.500000 0.000000 0.000000
O O8 0.500000 0.381861 0.500000
O O9 0.250000 0.382176 0.586466
O O10 0.414768 0.500000 0.588035
O O11 0.750000 0.735594 0.915520
O O12 0.512093 0.782689 0.834468
O O13 0.500000 0.728717 0.000000
O O14 0.500000 0.885773 0.500000
O O15 0.250000 0.904722 0.579103
O O16 0.457983 0.864067 0.682678
O O17 0.453028 0.000000 0.607229
O O18 0.750000 0.832793 0.206290
#
# Coordination Sequence:
#
# PCOD9403813 Si02
#       6
#     8   4   8   8   8   8
#     4   9  19  37  58  79 106 142 185 233 282 335
#     4  10  20  34  53  78 106 140 183 226 267 316
#     4   9  16  27  48  79 111 141 174 215 266 324
#     4  11  24  40  58  81 109 142 182 230 285 340
#     4   9  17  32  55  83 114 148 184 223 267 316
#     4  10  20  37  58  80 112 149 184 225 272 323
#
# _framework density 18.220890000000001
#
# number of rings (size 3 to 8) (size 9 to 14) (size 15 to 20)
#    0.000    2.364    0.909    1.636    0.000    6.909 
#    0.000    0.909    0.000    2.182    0.000    0.000 
#    0.000    0.000    0.000    0.000    0.000    0.000 
#
# Total GULP energy -245575.886153 kJ/mol
# GULP energy per Si atom -5581.270140 kJ/mol
# Density = 1.817942 g / cm^3
# Si number density = 18.220890 Si / 1000 Ang^3
#
#
#
# Elastic Constant Matrix: (Units=GPa)
#
#
# Indices 1 2 3 4 5 6 
#
# 1 77.7306 50.5263 88.3586 0.0000 0.0000 0.0000
# 2 50.5263 61.2630 56.3179 0.0000 0.0000 0.0000
# 3 88.3586 56.3179 178.7573 0.0000 0.0000 0.0000
# 4 0.0000 0.0000 0.0000 5.0896 0.0000 0.0000
# 5 0.0000 0.0000 0.0000 0.0000 36.9663 0.0000
# 6 0.0000 0.0000 0.0000 0.0000 0.0000 20.5898
#
#
#
# Elastic Compliance Matrix: (Units=1/GPa)
#
#
# Indices 1 2 3 4 5 6 
#
# 1 0.044990 -0.023455 -0.014849 0.000000 0.000000 0.000000
# 2 -0.023455 0.035206 0.000502 0.000000 0.000000 0.000000
# 3 -0.014849 0.000502 0.012776 0.000000 0.000000 0.000000
# 4 0.000000 0.000000 0.000000 0.196479 0.000000 0.000000
# 5 0.000000 0.000000 0.000000 0.000000 0.027052 0.000000
# 6 0.000000 0.000000 0.000000 0.000000 0.000000 0.048568
#
#
# Mechanical properties :
#
#
# Convention : Reuss Voigt Hill
#
# Bulk Modulus (GPa) = 57.57697 78.68405 68.13051
# Shear Modulus (GPa) = 11.19910 20.69901 15.94905
#
# Velocity S-wave (km/s) = 2.48186 3.37412 2.96179
# Velocity P-wave (km/s) = 6.31513 7.64570 7.01205
#
# Compressibility (1/GPa) = 0.01736806
#
# Stress axis : x y z
#
# Youngs Moduli (GPa) = 22.22694 28.40406 78.27367
#
# Poissons Ratio (x) = 0.66623 1.16227
# Poissons Ratio (y) = 0.52134 -0.03930
# Poissons Ratio (z) = 0.33004 -0.01426
#
# Static dielectric constant tensor:
#      x y z
#    x 1.608350 0.000000 0.000000 
#    y 0.000000 1.637070 0.000000 
#    z 0.000000 0.000000 1.596720 
# 
# From -- ./inp_files/20892.got.cif
#   From: 2010.05.17/outbox.cif.g08.bks.cpg/sg51_11_cif.got.tgz:20892.got - 2010.06.03 11:52:47.
