data_PCOD9403120
_publ_section_title
;
Structure prediction by ZEFSAII (Michael W. Deem and Ramdas Pophale) SiO2 
 PCOD9403120
Probable space group: P M M A
;
_chemical_formula_sum "Si O2"
_cell_formula_units_Z 44
_cell_length_a 8.774338
_cell_length_b 29.503123
_cell_length_c 9.817678
_cell_angle_alpha 90.000000
_cell_angle_beta 90.000000
_cell_angle_gamma 90.000000
_cell_volume 2541.505968
_symmetry_space_group_name_H-M "P M M A"
_symmetry_group_IT_number 51
_symmetry_cell_setting 'orthorhombic'
loop_
_space_group_symop_operation_xyz
x,y,z
1/2-x,-y,z
1/2+x,-y,-z
-x,y,-z
-x,-y,-z
1/2+x,y,-z
1/2-x,y,z
x,-y,z
loop_
_atom_site_type_symbol
_atom_site_label
_atom_site_fract_x
_atom_site_fract_y
_atom_site_fract_z
Si Si1 0.067156 0.815866 0.350791
Si Si2 0.567947 0.640573 0.153008
Si Si3 0.566633 0.920022 0.648568
Si Si4 0.432641 0.741040 0.847906
Si Si5 0.567626 0.450445 0.846385
Si Si6 0.065721 0.000000 0.150931
O O1 0.250000 0.812880 0.354036
O O2 0.024594 0.868085 0.317283
O O3 0.000000 0.806324 0.500000
O O4 0.000892 0.780356 0.244325
O O5 0.750000 0.635945 0.145589
O O6 0.531181 0.690496 0.209876
O O7 0.499199 0.595221 0.219471
O O8 0.500000 0.641848 0.000000
O O9 0.500000 0.931118 0.500000
O O10 0.750000 0.922128 0.638721
O O11 0.517705 0.955879 0.762293
O O12 0.250000 0.744785 0.855065
O O13 0.500000 0.744071 0.000000
O O14 0.750000 0.446641 0.854771
O O15 0.530087 0.500000 0.785018
O O16 0.500000 0.451505 0.000000
O O17 0.250000 0.000000 0.143314
O O18 0.000000 0.000000 0.000000
#
# Coordination Sequence:
#
# PCOD9403120 Si02
#       6
#     8   8   8   8   8   4
#     4  10  20  35  54  76 101 130 165 206 249 294
#     4   9  16  25  38  56  81 114 152 192 235 285
#     4   9  19  35  55  77 100 129 166 203 242 290
#     4  10  20  33  49  71  98 130 166 204 249 299
#     4   9  15  21  31  49  75 109 148 188 231 280
#     4  10  21  36  52  76 108 136 165 202 242 286
#
# _framework density 17.312571999999999
#
# number of rings (size 3 to 8) (size 9 to 14) (size 15 to 20)
#    0.000    2.545    0.000    3.545    0.000    5.455 
#    0.000    1.818    0.000    0.000    0.000    0.000 
#    0.000    0.727    0.000    2.364    0.000   10.182 
#
# Total GULP energy -245145.021377 kJ/mol
# GULP energy per Si atom -5571.477759 kJ/mol
# Density = 1.727317 g / cm^3
# Si number density = 17.312572 Si / 1000 Ang^3
#
#
#
# Elastic Constant Matrix: (Units=GPa)
#
#
# Indices 1 2 3 4 5 6 
#
# 1 55.3611 57.6558 30.5163 0.0000 0.0000 0.0000
# 2 57.6558 179.4829 93.0291 0.0000 0.0000 0.0000
# 3 30.5163 93.0291 70.2188 0.0000 0.0000 0.0000
# 4 0.0000 0.0000 0.0000 -12.6109 0.0000 0.0000
# 5 0.0000 0.0000 0.0000 0.0000 24.5507 0.0000
# 6 0.0000 0.0000 0.0000 0.0000 0.0000 29.9406
#
#
#
# Elastic Compliance Matrix: (Units=1/GPa)
#
#
# Indices 1 2 3 4 5 6 
#
# 1 0.027158 -0.008319 -0.000781 0.000000 0.000000 0.000000
# 2 -0.008319 0.020331 -0.023321 0.000000 0.000000 0.000000
# 3 -0.000781 -0.023321 0.045477 0.000000 0.000000 0.000000
# 4 0.000000 0.000000 0.000000 -0.079296 0.000000 0.000000
# 5 0.000000 0.000000 0.000000 0.000000 0.040732 0.000000
# 6 0.000000 0.000000 0.000000 0.000000 0.000000 0.033399
#
#
# Mechanical properties :
#
#
# Convention : Reuss Voigt Hill
#
# Bulk Modulus (GPa) = 35.55585 74.16281 54.85933
# Shear Modulus (GPa) = 30.86098 16.63351 23.74724
#
# Velocity S-wave (km/s) = 4.22664 3.10300 3.70763
# Velocity P-wave (km/s) = 6.66344 7.46784 7.07708
#
# Compressibility (1/GPa) = 0.02812477
#
# Stress axis : x y z
#
# Youngs Moduli (GPa) = 36.82197 49.18484 21.98934
#
# Poissons Ratio (x) = 0.40919 0.01716
# Poissons Ratio (y) = 0.30634 0.51280
# Poissons Ratio (z) = 0.02874 1.14702
#
# Static dielectric constant tensor:
#      x y z
#    x 1.581470 0.000000 0.000000 
#    y 0.000000 1.654900 0.000000 
#    z 0.000000 0.000000 1.548960 
# 
# From -- ./inp_files/5755.got.cif
#   From: 2010.05.17/outbox.cif.g08.bks.cpg/sg51_3_cif.got.tgz:5755.got - 2010.06.03 11:52:47.
