data_PCOD9403224
_publ_section_title
;
Structure prediction by ZEFSAII (Michael W. Deem and Ramdas Pophale) SiO2 
 PCOD9403224
Probable space group: P M M A
;
_chemical_formula_sum "Si O2"
_cell_formula_units_Z 48
_cell_length_a 8.714923
_cell_length_b 24.363563
_cell_length_c 14.143704
_cell_angle_alpha 90.000000
_cell_angle_beta 90.000000
_cell_angle_gamma 90.000000
_cell_volume 3003.084236
_symmetry_space_group_name_H-M "P M M A"
_symmetry_group_IT_number 51
_symmetry_cell_setting 'orthorhombic'
loop_
_space_group_symop_operation_xyz
x,y,z
1/2-x,-y,z
1/2+x,-y,-z
-x,y,-z
-x,-y,-z
1/2+x,y,-z
1/2-x,y,z
x,-y,z
loop_
_atom_site_type_symbol
_atom_site_label
_atom_site_fract_x
_atom_site_fract_y
_atom_site_fract_z
Si Si1 0.435152 0.061851 0.395371
Si Si2 0.065840 0.338136 0.220312
Si Si3 0.435954 0.170822 0.290799
Si Si4 0.433867 0.769617 0.103254
Si Si5 0.433286 0.276142 0.603745
Si Si6 0.433500 0.436012 0.896231
O O1 0.500000 0.072512 0.500000
O O2 0.250000 0.062564 0.400486
O O3 0.482307 0.110567 0.325413
O O4 0.482717 0.000000 0.367364
O O5 0.250000 0.338286 0.228174
O O6 0.022054 0.289891 0.145861
O O7 0.994101 0.320078 0.319890
O O8 0.005388 0.395185 0.179823
O O9 0.250000 0.175286 0.296722
O O10 0.480649 0.186666 0.183814
O O11 0.506301 0.217281 0.358514
O O12 0.250000 0.770633 0.096936
O O13 0.500000 0.778826 0.000000
O O14 0.500000 0.286332 0.500000
O O15 0.250000 0.276114 0.601518
O O16 0.250000 0.429764 0.898119
O O17 0.469675 0.500000 0.877148
O O18 0.500000 0.422674 0.000000
#
# Coordination Sequence:
#
# PCOD9403224 Si02
#       6
#     8   8   8   8   8   8
#     4   9  17  29  46  67  91 120 153 191 236 284
#     4  10  20  34  51  72  98 127 161 200 242 287
#     4   9  18  32  47  67  95 124 157 195 236 283
#     4   9  18  30  45  66  92 121 153 192 233 277
#     4  11  21  33  50  72  98 127 159 194 237 287
#     4  10  20  33  50  74 103 134 167 202 241 285
#
# _framework density 15.983568
#
# number of rings (size 3 to 8) (size 9 to 14) (size 15 to 20)
#    0.000    2.333    0.000    4.500    0.000    7.667 
#    0.000    0.000    0.000    1.000    0.000    0.000 
#    0.000    0.000    0.000    0.000    0.000    0.333 
#
# Total GULP energy -267767.213896 kJ/mol
# GULP energy per Si atom -5578.483623 kJ/mol
# Density = 1.594719 g / cm^3
# Si number density = 15.983568 Si / 1000 Ang^3
#
#
#
# Elastic Constant Matrix: (Units=GPa)
#
#
# Indices 1 2 3 4 5 6 
#
# 1 47.3908 40.9856 46.1766 0.0000 0.0000 0.0000
# 2 40.9856 108.9238 86.5975 0.0000 0.0000 0.0000
# 3 46.1766 86.5975 148.6925 0.0000 0.0000 0.0000
# 4 0.0000 0.0000 0.0000 23.3479 0.0000 0.0000
# 5 0.0000 0.0000 0.0000 0.0000 30.5591 0.0000
# 6 0.0000 0.0000 0.0000 0.0000 0.0000 21.7220
#
#
#
# Elastic Compliance Matrix: (Units=1/GPa)
#
#
# Indices 1 2 3 4 5 6 
#
# 1 0.033721 -0.008125 -0.005740 0.000000 0.000000 0.000000
# 2 -0.008125 0.019055 -0.008574 0.000000 0.000000 0.000000
# 3 -0.005740 -0.008574 0.013501 0.000000 0.000000 0.000000
# 4 0.000000 0.000000 0.000000 0.042830 0.000000 0.000000
# 5 0.000000 0.000000 0.000000 0.000000 0.032723 0.000000
# 6 0.000000 0.000000 0.000000 0.000000 0.000000 0.046036
#
#
# Mechanical properties :
#
#
# Convention : Reuss Voigt Hill
#
# Bulk Modulus (GPa) = 46.73176 72.50294 59.61735
# Shear Modulus (GPa) = 20.84389 23.87562 22.35976
#
# Velocity S-wave (km/s) = 3.61513 3.86911 3.74427
# Velocity P-wave (km/s) = 6.83567 8.08823 7.48818
#
# Compressibility (1/GPa) = 0.02139872
#
# Stress axis : x y z
#
# Youngs Moduli (GPa) = 29.65504 52.48090 74.06618
#
# Poissons Ratio (x) = 0.42640 0.42516
# Poissons Ratio (y) = 0.24094 0.63505
# Poissons Ratio (z) = 0.17023 0.44998
#
# Static dielectric constant tensor:
#      x y z
#    x 1.537310 0.000000 0.000000 
#    y 0.000000 1.536820 0.000000 
#    z 0.000000 0.000000 1.511470 
# 
# From -- ./inp_files/14458.got.cif
#   From: 2010.05.17/outbox.cif.g08.bks.cpg/sg51_8_cif.got.tgz:14458.got - 2010.06.03 11:52:47.
