data_PCOD9403320
_publ_section_title
;
Structure prediction by ZEFSAII (Michael W. Deem and Ramdas Pophale) SiO2 
 PCOD9403320
Probable space group: P M M A
;
_chemical_formula_sum "Si O2"
_cell_formula_units_Z 48
_cell_length_a 18.929900
_cell_length_b 16.195070
_cell_length_c 8.411267
_cell_angle_alpha 90.000000
_cell_angle_beta 90.000000
_cell_angle_gamma 90.000000
_cell_volume 2578.651003
_symmetry_space_group_name_H-M "P M M A"
_symmetry_group_IT_number 51
_symmetry_cell_setting 'orthorhombic'
loop_
_space_group_symop_operation_xyz
x,y,z
1/2-x,-y,z
1/2+x,-y,-z
-x,y,-z
-x,-y,-z
1/2+x,y,-z
1/2-x,y,z
x,-y,z
loop_
_atom_site_type_symbol
_atom_site_label
_atom_site_fract_x
_atom_site_fract_y
_atom_site_fract_z
Si Si1 0.419689 0.910522 0.946015
Si Si2 0.669443 0.750390 0.410901
Si Si3 0.666439 0.591614 0.851467
Si Si4 0.915847 0.406972 0.521969
Si Si5 0.079621 0.093487 0.561821
Si Si6 0.170677 0.758526 0.971027
O O1 0.419992 0.906346 0.754213
O O2 0.379829 0.832872 0.019120
O O3 0.388577 0.000000 0.991120
O O4 0.500000 0.908518 0.000000
O O5 0.750000 0.743539 0.469463
O O6 0.625592 0.667717 0.441921
O O7 0.630561 0.830778 0.483462
O O8 0.671813 0.759280 0.220138
O O9 0.750000 0.598057 0.802558
O O10 0.658936 0.500000 0.925122
O O11 0.613498 0.595299 0.702540
O O12 0.650661 0.668327 0.965454
O O13 0.899195 0.500000 0.461687
O O14 0.000000 0.395486 0.500000
O O15 0.000000 0.107676 0.500000
O O16 0.100633 0.000000 0.511025
O O17 0.250000 0.775364 0.028079
#
# Coordination Sequence:
#
# PCOD9403320 Si02
#       6
#     8   8   8   8   8   8
#     4   9  18  32  50  72  98 130 166 202 243 291
#     4  10  20  33  51  76 103 131 166 208 252 298
#     4   9  18  34  54  74  99 132 166 201 248 304
#     4  10  21  36  53  74 100 131 168 208 250 299
#     4   9  18  33  52  73 100 134 168 204 247 294
#     4   9  19  33  50  75 102 130 165 203 246 295
#
# _framework density 18.614384999999999
#
# number of rings (size 3 to 8) (size 9 to 14) (size 15 to 20)
#    0.000    2.667    0.000    1.000    0.000    6.333 
#    0.000    5.000    0.000    3.500    0.000    7.000 
#    0.000    0.000    0.000    0.000    0.000    0.000 
#
# Total GULP energy -267373.478061 kJ/mol
# GULP energy per Si atom -5570.280793 kJ/mol
# Density = 1.857202 g / cm^3
# Si number density = 18.614385 Si / 1000 Ang^3
#
#
#
# Elastic Constant Matrix: (Units=GPa)
#
#
# Indices 1 2 3 4 5 6 
#
# 1 100.1722 103.4169 13.7858 0.0000 0.0000 0.0000
# 2 103.4169 187.5658 25.5121 0.0000 0.0000 0.0000
# 3 13.7858 25.5121 8.0938 0.0000 0.0000 0.0000
# 4 0.0000 0.0000 0.0000 18.0457 0.0000 0.0000
# 5 0.0000 0.0000 0.0000 0.0000 22.3850 0.0000
# 6 0.0000 0.0000 0.0000 0.0000 0.0000 34.9425
#
#
#
# Elastic Compliance Matrix: (Units=1/GPa)
#
#
# Indices 1 2 3 4 5 6 
#
# 1 0.023183 -0.012974 0.001407 0.000000 0.000000 0.000000
# 2 -0.012974 0.016593 -0.030205 0.000000 0.000000 0.000000
# 3 0.001407 -0.030205 0.216364 0.000000 0.000000 0.000000
# 4 0.000000 0.000000 0.000000 0.055415 0.000000 0.000000
# 5 0.000000 0.000000 0.000000 0.000000 0.044673 0.000000
# 6 0.000000 0.000000 0.000000 0.000000 0.000000 0.028618
#
#
# Mechanical properties :
#
#
# Convention : Reuss Voigt Hill
#
# Bulk Modulus (GPa) = 5.79384 64.58460 35.18922
# Shear Modulus (GPa) = 9.50713 25.28244 17.39478
#
# Velocity S-wave (km/s) = 2.26241 3.68940 3.06024
# Velocity P-wave (km/s) = 3.15341 7.27464 5.60644
#
# Compressibility (1/GPa) = 0.17259696
#
# Stress axis : x y z
#
# Youngs Moduli (GPa) = 43.13487 60.26601 4.62185
#
# Poissons Ratio (x) = 0.78188 -0.00650
# Poissons Ratio (y) = 0.55962 0.13960
# Poissons Ratio (z) = -0.06070 1.82034
#
# Static dielectric constant tensor:
#      x y z
#    x 1.624790 0.000000 0.000000 
#    y 0.000000 1.670690 0.000000 
#    z 0.000000 0.000000 1.645160 
# 
# From -- ./inp_files/9560.got.cif
#   From: 2010.05.17/outbox.cif.g08.bks.cpg/sg51_5_cif.got.tgz:9560.got - 2010.06.03 11:52:47.
