data_PCOD9403092
_publ_section_title
;
Structure prediction by ZEFSAII (Michael W. Deem and Ramdas Pophale) SiO2 
 PCOD9403092
Probable space group: P M M A
;
_chemical_formula_sum "Si O2"
_cell_formula_units_Z 64
_cell_length_a 9.357066
_cell_length_b 18.657287
_cell_length_c 21.411881
_cell_angle_alpha 90.000000
_cell_angle_beta 90.000000
_cell_angle_gamma 90.000000
_cell_volume 3738.031924
_symmetry_space_group_name_H-M "P M M A"
_symmetry_group_IT_number 51
_symmetry_cell_setting 'orthorhombic'
loop_
_space_group_symop_operation_xyz
x,y,z
1/2-x,-y,z
1/2+x,-y,-z
-x,y,-z
-x,-y,-z
1/2+x,y,-z
1/2-x,y,z
x,-y,z
loop_
_atom_site_type_symbol
_atom_site_label
_atom_site_fract_x
_atom_site_fract_y
_atom_site_fract_z
Si Si1 0.414672 0.087380 0.061561
Si Si2 0.415033 0.412691 0.060502
Si Si3 0.422411 0.666973 0.689502
Si Si4 0.923486 0.833708 0.312210
Si Si5 0.077984 0.414961 0.199533
Si Si6 0.580039 0.914385 0.186796
Si Si7 0.079407 0.415645 0.563161
Si Si8 0.420390 0.914863 0.563295
O O1 0.250000 0.110621 0.060368
O O2 0.494445 0.108444 0.125186
O O3 0.415200 0.000000 0.060657
O O4 0.500000 0.111140 0.000000
O O5 0.250000 0.391573 0.054896
O O6 0.418990 0.500000 0.060365
O O7 0.467633 0.391608 0.129504
O O8 0.500000 0.387245 0.000000
O O9 0.250000 0.661367 0.696143
O O10 0.462195 0.750471 0.688236
O O11 0.498471 0.627706 0.746695
O O12 0.461609 0.629199 0.624147
O O13 0.750000 0.838087 0.312665
O O14 0.969144 0.873807 0.249105
O O15 0.971434 0.872839 0.375434
O O16 0.250000 0.406156 0.203387
O O17 0.048774 0.500000 0.206025
O O18 0.750000 0.901852 0.177612
O O19 0.561674 0.000000 0.195366
O O20 0.250000 0.408739 0.554461
O O21 0.047671 0.500000 0.573782
O O22 0.000000 0.393004 0.500000
O O23 0.500000 0.893028 0.500000
O O24 0.250000 0.903606 0.556074
O O25 0.443215 0.000000 0.572619
#
# Coordination Sequence:
#
# PCOD9403092 Si02
#       8
#     8   8   8   8   8   8   8   8
#     4   9  16  26  42  67  97 124 152 192 241 287
#     4   8  14  25  42  66  94 120 148 186 230 273
#     4  10  20  33  49  70  96 125 159 198 236 279
#     4   9  18  32  49  69  95 127 160 195 237 284
#     4   9  18  32  49  70  97 127 158 194 237 284
#     4   9  16  28  48  70  91 121 161 199 235 280
#     4   9  18  32  49  69  92 118 150 188 229 274
#     4   9  17  31  51  73  97 126 160 197 237 282
#
# _framework density 17.121309
#
# number of rings (size 3 to 8) (size 9 to 14) (size 15 to 20)
#    0.000    3.000    0.000    1.875    0.000    5.250 
#    0.000    4.375    0.000    3.750    0.000    1.750 
#    0.000    0.000    0.000    0.000    0.000    0.000 
#
# Total GULP energy -356641.027198 kJ/mol
# GULP energy per Si atom -5572.516050 kJ/mol
# Density = 1.708234 g / cm^3
# Si number density = 17.121309 Si / 1000 Ang^3
#
#
#
# Elastic Constant Matrix: (Units=GPa)
#
#
# Indices 1 2 3 4 5 6 
#
# 1 45.4035 37.0028 77.0981 0.0000 0.0000 0.0000
# 2 37.0028 51.5396 81.8789 0.0000 0.0000 0.0000
# 3 77.0981 81.8789 227.7423 0.0000 0.0000 0.0000
# 4 0.0000 0.0000 0.0000 -4.5218 0.0000 0.0000
# 5 0.0000 0.0000 0.0000 0.0000 35.9202 0.0000
# 6 0.0000 0.0000 0.0000 0.0000 0.0000 12.7416
#
#
#
# Elastic Compliance Matrix: (Units=1/GPa)
#
#
# Indices 1 2 3 4 5 6 
#
# 1 0.064921 -0.027270 -0.012173 0.000000 0.000000 0.000000
# 2 -0.027270 0.056700 -0.011153 0.000000 0.000000 0.000000
# 3 -0.012173 -0.011153 0.012522 0.000000 0.000000 0.000000
# 4 0.000000 0.000000 0.000000 -0.221150 0.000000 0.000000
# 5 0.000000 0.000000 0.000000 0.000000 0.027839 0.000000
# 6 0.000000 0.000000 0.000000 0.000000 0.000000 0.078483
#
#
# Mechanical properties :
#
#
# Convention : Reuss Voigt Hill
#
# Bulk Modulus (GPa) = 30.35041 79.62721 54.98881
# Shear Modulus (GPa) = 38.02546 17.40838 27.71692
#
# Velocity S-wave (km/s) = 4.71780 3.19214 4.02787
# Velocity P-wave (km/s) = 6.88782 7.75854 7.33611
#
# Compressibility (1/GPa) = 0.03294849
#
# Stress axis : x y z
#
# Youngs Moduli (GPa) = 15.40343 17.63680 79.86110
#
# Poissons Ratio (x) = 0.48096 0.97217
# Poissons Ratio (y) = 0.42006 0.89069
# Poissons Ratio (z) = 0.18751 0.19670
#
# Static dielectric constant tensor:
#      x y z
#    x 1.571110 0.000000 0.000000 
#    y 0.000000 1.561830 0.000000 
#    z 0.000000 0.000000 1.569770 
# 
# From -- ./inp_files/32326.got.cif
#   From: 2010.05.17/outbox.cif.g08.bks.cpg/sg51_17_cif.got.tgz:32326.got - 2010.06.03 11:52:47.
