data_PCOD9403176
_publ_section_title
;
Structure prediction by ZEFSAII (Michael W. Deem and Ramdas Pophale) SiO2 
 PCOD9403176
Probable space group: P M M A
;
_chemical_formula_sum "Si O2"
_cell_formula_units_Z 32
_cell_length_a 8.807660
_cell_length_b 21.773979
_cell_length_c 9.710411
_cell_angle_alpha 90.000000
_cell_angle_beta 90.000000
_cell_angle_gamma 90.000000
_cell_volume 1862.241296
_symmetry_space_group_name_H-M "P M M A"
_symmetry_group_IT_number 51
_symmetry_cell_setting 'orthorhombic'
loop_
_space_group_symop_operation_xyz
x,y,z
1/2-x,-y,z
1/2+x,-y,-z
-x,y,-z
-x,-y,-z
1/2+x,y,-z
1/2-x,y,z
x,-y,z
loop_
_atom_site_type_symbol
_atom_site_label
_atom_site_fract_x
_atom_site_fract_y
_atom_site_fract_z
Si Si1 0.431387 0.690139 0.845598
Si Si2 0.931692 0.432794 0.844997
Si Si3 0.431862 0.826304 0.846562
Si Si4 0.431641 0.070178 0.347957
O O1 0.250000 0.683577 0.853564
O O2 0.500760 0.628877 0.778220
O O3 0.467162 0.757819 0.787848
O O4 0.500000 0.692009 0.000000
O O5 0.750000 0.427318 0.853977
O O6 0.968039 0.500000 0.782796
O O7 0.000000 0.434351 0.000000
O O8 0.250000 0.831465 0.854754
O O9 0.499465 0.879730 0.753536
O O10 0.500000 0.830338 0.000000
O O11 0.500000 0.078541 0.500000
O O12 0.250000 0.076233 0.353450
O O13 0.467614 0.000000 0.304111
#
# Coordination Sequence:
#
# PCOD9403176 Si02
#       4
#     8   8   8   8
#     4   9  16  25  38  57  83 116 152 190 232 276
#     4   9  15  21  31  49  75 110 150 188 227 273
#     4  10  20  33  50  73 100 130 164 201 242 288
#     4  10  21  37  56  76  98 126 159 196 240 288
#
# _framework density 17.183593999999999
#
# number of rings (size 3 to 8) (size 9 to 14) (size 15 to 20)
#    0.000    2.500    0.000    4.500    0.000    6.500 
#    0.000    0.000    0.000    0.000    0.000    0.000 
#    0.000    1.000    0.000    3.250    0.000   14.000 
#
# Total GULP energy -178204.124021 kJ/mol
# GULP energy per Si atom -5568.878876 kJ/mol
# Density = 1.714448 g / cm^3
# Si number density = 17.183594 Si / 1000 Ang^3
#
#
#
# Elastic Constant Matrix: (Units=GPa)
#
#
# Indices 1 2 3 4 5 6 
#
# 1 83.2119 83.7257 23.0575 0.0000 0.0000 0.0000
# 2 83.7257 221.1132 61.1285 0.0000 0.0000 0.0000
# 3 23.0575 61.1285 26.3483 0.0000 0.0000 0.0000
# 4 0.0000 0.0000 0.0000 -6.2952 0.0000 0.0000
# 5 0.0000 0.0000 0.0000 0.0000 19.6048 0.0000
# 6 0.0000 0.0000 0.0000 0.0000 0.0000 29.7855
#
#
#
# Elastic Compliance Matrix: (Units=1/GPa)
#
#
# Indices 1 2 3 4 5 6 
#
# 1 0.019414 -0.007402 0.000183 0.000000 0.000000 0.000000
# 2 -0.007402 0.015433 -0.029328 0.000000 0.000000 0.000000
# 3 0.000183 -0.029328 0.105835 0.000000 0.000000 0.000000
# 4 0.000000 0.000000 0.000000 -0.158851 0.000000 0.000000
# 5 0.000000 0.000000 0.000000 0.000000 0.051008 0.000000
# 6 0.000000 0.000000 0.000000 0.000000 0.000000 0.033573
#
#
# Mechanical properties :
#
#
# Convention : Reuss Voigt Hill
#
# Bulk Modulus (GPa) = 14.79541 74.05519 44.42530
# Shear Modulus (GPa) = 30.85718 19.46981 25.16350
#
# Velocity S-wave (km/s) = 4.24221 3.36973 3.83089
# Velocity P-wave (km/s) = 5.71174 7.63741 6.74367
#
# Compressibility (1/GPa) = 0.06758851
#
# Stress axis : x y z
#
# Youngs Moduli (GPa) = 51.50791 64.79455 9.44867
#
# Poissons Ratio (x) = 0.47961 -0.00173
# Poissons Ratio (y) = 0.38126 0.27711
# Poissons Ratio (z) = -0.00943 1.90031
#
# Static dielectric constant tensor:
#      x y z
#    x 1.571010 0.000000 0.000000 
#    y 0.000000 1.665820 0.000000 
#    z 0.000000 0.000000 1.532330 
# 
# From -- ./inp_files/4840.got.cif
#   From: 2010.05.17/outbox.cif.g08.bks.cpg/sg51_3_cif.got.tgz:4840.got - 2010.06.03 11:52:47.
