data_PCOD9403996
_publ_section_title
;
Structure prediction by ZEFSAII (Michael W. Deem and Ramdas Pophale) SiO2 
 PCOD9403996
Probable space group: P M M A
;
_chemical_formula_sum "Si O2"
_cell_formula_units_Z 64
_cell_length_a 19.511867
_cell_length_b 7.800975
_cell_length_c 20.082111
_cell_angle_alpha 90.000000
_cell_angle_beta 90.000000
_cell_angle_gamma 90.000000
_cell_volume 3056.729979
_symmetry_space_group_name_H-M "P M M A"
_symmetry_group_IT_number 51
_symmetry_cell_setting 'orthorhombic'
loop_
_space_group_symop_operation_xyz
x,y,z
1/2-x,-y,z
1/2+x,-y,-z
-x,y,-z
-x,-y,-z
1/2+x,y,-z
1/2-x,y,z
x,-y,z
loop_
_atom_site_type_symbol
_atom_site_label
_atom_site_fract_x
_atom_site_fract_y
_atom_site_fract_z
Si Si1 0.672335 0.800570 0.947262
Si Si2 0.408519 0.698452 0.924566
Si Si3 0.908709 0.207250 0.341413
Si Si4 0.672225 0.706054 0.619895
Si Si5 0.053969 0.295185 0.285339
Si Si6 0.829864 0.792191 0.207795
Si Si7 0.328655 0.206753 0.529379
Si Si8 0.955174 0.701154 0.863878
O O1 0.750000 0.730848 0.947242
O O2 0.619053 0.716770 0.896461
O O3 0.675727 0.000000 0.929469
O O4 0.637999 0.786055 0.019905
O O5 0.413872 0.500000 0.946175
O O6 0.370995 0.713128 0.853578
O O7 0.484773 0.771853 0.911642
O O8 0.863040 0.260360 0.277941
O O9 0.876046 0.269190 0.410505
O O10 0.985725 0.264492 0.327580
O O11 0.908002 0.000000 0.342672
O O12 0.750000 0.772356 0.627147
O O13 0.674886 0.500000 0.626072
O O14 0.619560 0.773237 0.674819
O O15 0.648454 0.744965 0.544768
O O16 0.063586 0.500000 0.278490
O O17 0.044161 0.224488 0.210634
O O18 0.750000 0.746279 0.204976
O O19 0.834904 0.000000 0.202659
O O20 0.250000 0.267675 0.537737
O O21 0.327241 0.000000 0.532804
O O22 0.972721 0.500000 0.857933
#
# Coordination Sequence:
#
# PCOD9403996 Si02
#       8
#     8   8   8   8   8   8   8   8
#     4  11  25  42  60  86 117 148 187 233 280 334
#     4  11  22  38  60  87 116 148 187 230 276 333
#     4  10  20  34  54  80 112 149 187 228 276 333
#     4   9  19  36  57  80 106 142 188 233 281 335
#     4  10  21  38  58  82 113 146 183 231 281 334
#     4  10  20  34  54  81 113 150 190 229 273 328
#     4   9  18  34  55  79 110 148 189 233 279 327
#     4  10  22  40  61  85 114 149 189 233 281 336
#
# _framework density 20.937408000000001
#
# number of rings (size 3 to 8) (size 9 to 14) (size 15 to 20)
#    0.000    2.000    1.250    1.875    0.000    9.250 
#    0.000    3.750    0.000    3.750    0.000    0.000 
#    0.000    0.000    0.000    0.000    0.000    0.000 
#
# Total GULP energy -357504.225784 kJ/mol
# GULP energy per Si atom -5586.003528 kJ/mol
# Density = 2.088975 g / cm^3
# Si number density = 20.937408 Si / 1000 Ang^3
#
#
#
# Elastic Constant Matrix: (Units=GPa)
#
#
# Indices 1 2 3 4 5 6 
#
# 1 129.0476 -5.9585 51.2745 0.0000 0.0000 0.0000
# 2 -5.9585 22.7509 -4.7767 0.0000 0.0000 0.0000
# 3 51.2745 -4.7767 63.3647 0.0000 0.0000 0.0000
# 4 0.0000 0.0000 0.0000 23.5607 0.0000 0.0000
# 5 0.0000 0.0000 0.0000 0.0000 35.9243 0.0000
# 6 0.0000 0.0000 0.0000 0.0000 0.0000 22.8763
#
#
#
# Elastic Compliance Matrix: (Units=1/GPa)
#
#
# Indices 1 2 3 4 5 6 
#
# 1 0.011447 0.001070 -0.009182 0.000000 0.000000 0.000000
# 2 0.001070 0.044761 0.002508 0.000000 0.000000 0.000000
# 3 -0.009182 0.002508 0.023401 0.000000 0.000000 0.000000
# 4 0.000000 0.000000 0.000000 0.042444 0.000000 0.000000
# 5 0.000000 0.000000 0.000000 0.000000 0.027836 0.000000
# 6 0.000000 0.000000 0.000000 0.000000 0.000000 0.043713
#
#
# Mechanical properties :
#
#
# Convention : Reuss Voigt Hill
#
# Bulk Modulus (GPa) = 14.61951 32.91575 23.76763
# Shear Modulus (GPa) = 21.96743 28.11385 25.04064
#
# Velocity S-wave (km/s) = 3.24264 3.66834 3.46204
# Velocity P-wave (km/s) = 4.58446 5.80495 5.23043
#
# Compressibility (1/GPa) = 0.06840176
#
# Stress axis : x y z
#
# Youngs Moduli (GPa) = 87.36086 22.34076 42.73358
#
# Poissons Ratio (x) = -0.02391 0.39238
# Poissons Ratio (y) = -0.09348 -0.10719
# Poissons Ratio (z) = 0.80215 -0.05604
#
# Static dielectric constant tensor:
#      x y z
#    x 1.742850 0.000000 0.000000 
#    y 0.000000 1.789950 0.000000 
#    z 0.000000 0.000000 1.731870 
# 
# From -- ./inp_files/33783.got.cif
#   From: 2010.05.17/outbox.cif.g08.bks.cpg/sg51_17_cif.got.tgz:33783.got - 2010.06.03 11:52:47.
