data_PCOD9403377
_publ_section_title
;
Structure prediction by ZEFSAII (Michael W. Deem and Ramdas Pophale) SiO2 
 PCOD9403377
Probable space group: P M M A
;
_chemical_formula_sum "Si O2"
_cell_formula_units_Z 64
_cell_length_a 20.407201
_cell_length_b 8.320953
_cell_length_c 19.511388
_cell_angle_alpha 90.000000
_cell_angle_beta 90.000000
_cell_angle_gamma 90.000000
_cell_volume 3313.177294
_symmetry_space_group_name_H-M "P M M A"
_symmetry_group_IT_number 51
_symmetry_cell_setting 'orthorhombic'
loop_
_space_group_symop_operation_xyz
x,y,z
1/2-x,-y,z
1/2+x,-y,-z
-x,y,-z
-x,-y,-z
1/2+x,y,-z
1/2-x,y,z
x,-y,z
loop_
_atom_site_type_symbol
_atom_site_label
_atom_site_fract_x
_atom_site_fract_y
_atom_site_fract_z
Si Si1 0.320801 0.193706 0.600367
Si Si2 0.540657 0.193699 0.708559
Si Si3 0.055699 0.184947 0.826852
Si Si4 0.966221 0.804068 0.430401
Si Si5 0.176914 0.686915 0.754243
Si Si6 0.070244 0.689495 0.976640
Si Si7 0.825182 0.691026 0.763828
Si Si8 0.175293 0.809278 0.083581
O O1 0.250000 0.229169 0.566434
O O2 0.389522 0.239932 0.566898
O O3 0.320752 0.280247 0.673502
O O4 0.322877 0.000000 0.611092
O O5 0.500966 0.250024 0.776386
O O6 0.503402 0.249743 0.639296
O O7 0.616639 0.240044 0.716868
O O8 0.535941 0.000000 0.708865
O O9 0.122377 0.197590 0.784081
O O10 0.070654 0.279421 0.895963
O O11 0.040239 0.000000 0.844101
O O12 0.000000 0.747753 0.500000
O O13 0.969287 0.000000 0.429337
O O14 0.250000 0.717572 0.782009
O O15 0.160410 0.500000 0.767135
O O16 0.072815 0.500000 0.990319
O O17 0.127223 0.766124 0.021927
O O18 0.000000 0.754977 0.000000
O O19 0.750000 0.750878 0.751676
O O20 0.824484 0.500000 0.755482
O O21 0.841821 0.730955 0.843233
O O22 0.250000 0.760381 0.066988
O O23 0.173647 0.000000 0.094251
#
# Coordination Sequence:
#
# PCOD9403377 Si02
#       8
#     8   8   8   8   8   8   8   8
#     4   9  16  30  53  78 106 143 185 224 266 320
#     4  10  20  35  56  83 111 142 181 228 281 332
#     4  11  22  36  55  79 108 143 184 228 277 329
#     4   9  17  32  54  83 117 147 181 231 284 334
#     4  10  20  33  51  77 107 139 177 223 271 318
#     4  11  24  39  55  79 110 145 185 227 276 331
#     4  10  21  37  58  83 110 144 184 227 277 330
#     4  10  21  38  60  84 110 144 186 230 278 332
#
# _framework density 19.316806
#
# number of rings (size 3 to 8) (size 9 to 14) (size 15 to 20)
#    0.000    2.000    1.250    2.625    0.000    6.750 
#    0.000    0.625    0.000    3.750    0.000    1.750 
#    0.000    0.000    0.000    0.000    0.000    0.000 
#
# Total GULP energy -356945.266509 kJ/mol
# GULP energy per Si atom -5577.269789 kJ/mol
# Density = 1.927284 g / cm^3
# Si number density = 19.316806 Si / 1000 Ang^3
#
#
#
# Elastic Constant Matrix: (Units=GPa)
#
#
# Indices 1 2 3 4 5 6 
#
# 1 146.4457 11.7848 65.9718 0.0000 0.0000 0.0000
# 2 11.7848 13.3660 1.2932 0.0000 0.0000 0.0000
# 3 65.9718 1.2932 62.7947 0.0000 0.0000 0.0000
# 4 0.0000 0.0000 0.0000 10.0888 0.0000 0.0000
# 5 0.0000 0.0000 0.0000 0.0000 26.6660 0.0000
# 6 0.0000 0.0000 0.0000 0.0000 0.0000 494.9383
#
#
#
# Elastic Compliance Matrix: (Units=1/GPa)
#
#
# Indices 1 2 3 4 5 6 
#
# 1 0.014496 -0.011330 -0.014996 0.000000 0.000000 0.000000
# 2 -0.011330 0.083822 0.010177 0.000000 0.000000 0.000000
# 3 -0.014996 0.010177 0.031470 0.000000 0.000000 0.000000
# 4 0.000000 0.000000 0.000000 0.099120 0.000000 0.000000
# 5 0.000000 0.000000 0.000000 0.000000 0.037501 0.000000
# 6 0.000000 0.000000 0.000000 0.000000 0.000000 0.002020
#
#
# Mechanical properties :
#
#
# Convention : Reuss Voigt Hill
#
# Bulk Modulus (GPa) = 10.25750 42.30066 26.27908
# Shear Modulus (GPa) = 15.00501 115.90904 65.45703
#
# Velocity S-wave (km/s) = 2.79011 7.75464 5.82749
# Velocity P-wave (km/s) = 3.96249 10.10570 7.67550
#
# Compressibility (1/GPa) = 0.09748965
#
# Stress axis : x y z
#
# Youngs Moduli (GPa) = 68.98676 11.93010 31.77665
#
# Poissons Ratio (x) = 0.13517 0.47651
# Poissons Ratio (y) = 0.78161 -0.32339
# Poissons Ratio (z) = 1.03450 -0.12141
#
# Static dielectric constant tensor:
#      x y z
#    x 1.716570 0.000000 0.000000 
#    y 0.000000 1.666450 0.000000 
#    z 0.000000 0.000000 1.553010 
# 
# From -- ./inp_files/30667.got.cif
#   From: 2010.05.17/outbox.cif.g08.bks.cpg/sg51_16_cif.got.tgz:30667.got - 2010.06.03 11:52:47.
