data_PCOD9403547
_publ_section_title
;
Structure prediction by ZEFSAII (Michael W. Deem and Ramdas Pophale) SiO2 
 PCOD9403547
Probable space group: P M M A
;
_chemical_formula_sum "Si O2"
_cell_formula_units_Z 64
_cell_length_a 9.558813
_cell_length_b 14.752177
_cell_length_c 24.586859
_cell_angle_alpha 90.000000
_cell_angle_beta 90.000000
_cell_angle_gamma 90.000000
_cell_volume 3467.074156
_symmetry_space_group_name_H-M "P M M A"
_symmetry_group_IT_number 51
_symmetry_cell_setting 'orthorhombic'
loop_
_space_group_symop_operation_xyz
x,y,z
1/2-x,-y,z
1/2+x,-y,-z
-x,y,-z
-x,-y,-z
1/2+x,y,-z
1/2-x,y,z
x,-y,z
loop_
_atom_site_type_symbol
_atom_site_label
_atom_site_fract_x
_atom_site_fract_y
_atom_site_fract_z
Si Si1 0.918006 0.896332 0.556541
Si Si2 0.097163 0.147780 0.046853
Si Si3 0.917254 0.771185 0.655183
Si Si4 0.411731 0.390962 0.838955
Si Si5 0.092286 0.891565 0.733108
Si Si6 0.900438 0.108666 0.141945
Si Si7 0.082349 0.607523 0.269988
Si Si8 0.410137 0.361757 0.050955
O O1 0.750000 0.890239 0.548080
O O2 0.962167 0.816223 0.597865
O O3 0.000000 0.888251 0.500000
O O4 0.944896 0.000000 0.577907
O O5 0.250000 0.107647 0.044871
O O6 0.106219 0.255315 0.038715
O O7 0.026094 0.136629 0.104692
O O8 0.000000 0.108637 0.000000
O O9 0.750000 0.773261 0.654174
O O10 0.956151 0.671570 0.678557
O O11 0.977536 0.840384 0.699185
O O12 0.250000 0.357155 0.841086
O O13 0.404461 0.500000 0.837043
O O14 0.494133 0.364263 0.783668
O O15 0.501558 0.369574 0.893135
O O16 0.250000 0.870838 0.713287
O O17 0.085173 0.862612 0.795952
O O18 0.074671 0.000000 0.730759
O O19 0.750000 0.141351 0.119864
O O20 0.896223 0.000000 0.142450
O O21 0.250000 0.618403 0.259546
O O22 0.058161 0.500000 0.280016
O O23 0.250000 0.397285 0.055849
O O24 0.500000 0.399262 0.000000
#
# Coordination Sequence:
#
# PCOD9403547 Si02
#       8
#     8   8   8   8   8   8   8   8
#     4   9  18  33  53  80 115 151 186 226 268 312
#     4  10  21  35  51  70  91 119 159 204 251 305
#     4  10  20  33  54  82 109 143 186 226 268 314
#     4  10  21  36  54  76 101 131 168 211 263 322
#     4   9  19  34  50  74 108 141 173 211 261 321
#     4   9  19  35  51  68  94 127 161 201 251 306
#     4   9  19  36  55  77 108 144 182 226 274 324
#     4  10  21  36  53  74  99 127 163 208 261 323
#
# _framework density 18.459368999999999
#
# number of rings (size 3 to 8) (size 9 to 14) (size 15 to 20)
#    0.000    2.500    0.000    2.250    1.750    5.250 
#    0.000    2.500    0.000    0.375    0.000    0.000 
#    0.000    0.000    0.000    0.000    0.000    0.000 
#
# Total GULP energy -356708.213534 kJ/mol
# GULP energy per Si atom -5573.565836 kJ/mol
# Density = 1.841735 g / cm^3
# Si number density = 18.459369 Si / 1000 Ang^3
#
#
#
# Elastic Constant Matrix: (Units=GPa)
#
#
# Indices 1 2 3 4 5 6 
#
# 1 82.4325 30.6260 54.4391 0.0000 0.0000 0.0000
# 2 30.6260 75.4179 41.6429 0.0000 0.0000 0.0000
# 3 54.4391 41.6429 96.4908 0.0000 0.0000 0.0000
# 4 0.0000 0.0000 0.0000 30.2531 0.0000 0.0000
# 5 0.0000 0.0000 0.0000 0.0000 30.9319 0.0000
# 6 0.0000 0.0000 0.0000 0.0000 0.0000 17.6538
#
#
#
# Elastic Compliance Matrix: (Units=1/GPa)
#
#
# Indices 1 2 3 4 5 6 
#
# 1 0.019672 -0.002442 -0.010045 0.000000 0.000000 0.000000
# 2 -0.002442 0.017711 -0.006266 0.000000 0.000000 0.000000
# 3 -0.010045 -0.006266 0.018735 0.000000 0.000000 0.000000
# 4 0.000000 0.000000 0.000000 0.033054 0.000000 0.000000
# 5 0.000000 0.000000 0.000000 0.000000 0.032329 0.000000
# 6 0.000000 0.000000 0.000000 0.000000 0.000000 0.056645
#
#
# Mechanical properties :
#
#
# Convention : Reuss Voigt Hill
#
# Bulk Modulus (GPa) = 53.72706 56.41745 55.07225
# Shear Modulus (GPa) = 22.53710 24.27663 23.40687
#
# Velocity S-wave (km/s) = 3.49793 3.63042 3.56479
# Velocity P-wave (km/s) = 6.74409 6.94281 6.84417
#
# Compressibility (1/GPa) = 0.01861259
#
# Stress axis : x y z
#
# Youngs Moduli (GPa) = 50.83314 56.46253 53.37595
#
# Poissons Ratio (x) = 0.13789 0.53616
# Poissons Ratio (y) = 0.12414 0.33444
# Poissons Ratio (z) = 0.51061 0.35378
#
# Static dielectric constant tensor:
#      x y z
#    x 1.650750 0.000000 0.000000 
#    y 0.000000 1.680070 0.000000 
#    z 0.000000 0.000000 1.617870 
# 
# From -- ./inp_files/35009.got.cif
#   From: 2010.05.17/outbox.cif.g08.bks.cpg/sg51_18_cif.got.tgz:35009.got - 2010.06.03 11:52:47.
