data_PCOD9403204
_publ_section_title
;
Structure prediction by ZEFSAII (Michael W. Deem and Ramdas Pophale) SiO2 
 PCOD9403204
Probable space group: P M M A
;
_chemical_formula_sum "Si O2"
_cell_formula_units_Z 48
_cell_length_a 9.160609
_cell_length_b 14.979986
_cell_length_c 16.437751
_cell_angle_alpha 90.000000
_cell_angle_beta 90.000000
_cell_angle_gamma 90.000000
_cell_volume 2255.683442
_symmetry_space_group_name_H-M "P M M A"
_symmetry_group_IT_number 51
_symmetry_cell_setting 'orthorhombic'
loop_
_space_group_symop_operation_xyz
x,y,z
1/2-x,-y,z
1/2+x,-y,-z
-x,y,-z
-x,-y,-z
1/2+x,y,-z
1/2-x,y,z
x,-y,z
loop_
_atom_site_type_symbol
_atom_site_label
_atom_site_fract_x
_atom_site_fract_y
_atom_site_fract_z
Si Si1 0.083908 0.861158 0.580694
Si Si2 0.918945 0.890960 0.083879
Si Si3 0.918394 0.392893 0.251452
Si Si4 0.921167 0.391435 0.078766
Si Si5 0.085200 0.648001 0.576801
Si Si6 0.083089 0.107296 0.249068
O O1 0.250000 0.895488 0.585425
O O2 0.094330 0.754502 0.569318
O O3 0.000000 0.895313 0.500000
O O4 0.000338 0.875338 0.665929
O O5 0.750000 0.861787 0.083516
O O6 0.998470 0.861608 0.167507
O O7 0.918949 0.000000 0.084668
O O8 0.000000 0.864823 0.000000
O O9 0.750000 0.358981 0.254013
O O10 0.911141 0.500000 0.248489
O O11 0.983255 0.362051 0.165964
O O12 0.989469 0.368620 0.336386
O O13 0.750000 0.371073 0.076071
O O14 0.932365 0.500000 0.076755
O O15 0.000000 0.355212 0.000000
O O16 0.250000 0.611314 0.578641
O O17 0.000000 0.611612 0.500000
O O18 0.250000 0.141360 0.252073
O O19 0.090466 0.000000 0.241852
#
# Coordination Sequence:
#
# PCOD9403204 Si02
#       6
#     8   8   8   8   8   8
#     4  10  20  34  51  69  91 122 158 194 235 286
#     4   9  16  27  45  70 100 131 160 191 230 277
#     4   8  14  26  45  68  93 121 152 186 227 273
#     4   8  13  22  38  60  86 116 147 179 217 261
#     4   9  18  32  49  68  90 120 156 190 227 275
#     4  10  20  33  50  73  98 123 155 197 241 282
#
# _framework density 21.279582000000001
#
# number of rings (size 3 to 8) (size 9 to 14) (size 15 to 20)
#    0.000    3.000    0.000    2.500    0.000    4.333 
#    0.000    0.833    0.000    2.000    0.000    2.333 
#    0.000    0.000    0.000    0.000    0.000    0.000 
#
# Total GULP energy -267578.118610 kJ/mol
# GULP energy per Si atom -5574.544138 kJ/mol
# Density = 2.123115 g / cm^3
# Si number density = 21.279582 Si / 1000 Ang^3
#
#
#
# Elastic Constant Matrix: (Units=GPa)
#
#
# Indices 1 2 3 4 5 6 
#
# 1 137.0661 0.1210 117.1668 0.0000 0.0000 0.0000
# 2 0.1210 41.2201 3.4428 0.0000 0.0000 0.0000
# 3 117.1668 3.4428 276.2361 0.0000 0.0000 0.0000
# 4 0.0000 0.0000 0.0000 35.4601 0.0000 0.0000
# 5 0.0000 0.0000 0.0000 0.0000 38.4394 0.0000
# 6 0.0000 0.0000 0.0000 0.0000 0.0000 -16.7533
#
#
#
# Elastic Compliance Matrix: (Units=1/GPa)
#
#
# Indices 1 2 3 4 5 6 
#
# 1 0.011451 0.000372 -0.004862 0.000000 0.000000 0.000000
# 2 0.000372 0.024297 -0.000461 0.000000 0.000000 0.000000
# 3 -0.004862 -0.000461 0.005688 0.000000 0.000000 0.000000
# 4 0.000000 0.000000 0.000000 0.028201 0.000000 0.000000
# 5 0.000000 0.000000 0.000000 0.000000 0.026015 0.000000
# 6 0.000000 0.000000 0.000000 0.000000 0.000000 -0.059690
#
#
# Mechanical properties :
#
#
# Convention : Reuss Voigt Hill
#
# Bulk Modulus (GPa) = 31.70931 77.33150 54.52040
# Shear Modulus (GPa) = 88.69141 33.68201 61.18671
#
# Velocity S-wave (km/s) = 6.46294 3.98280 5.36807
# Velocity P-wave (km/s) = 8.40395 7.58748 8.00613
#
# Compressibility (1/GPa) = 0.03153648
#
# Stress axis : x y z
#
# Youngs Moduli (GPa) = 87.32567 41.15668 175.80904
#
# Poissons Ratio (x) = -0.01533 0.85475
# Poissons Ratio (y) = -0.03253 0.08101
# Poissons Ratio (z) = 0.42456 0.01897
#
# Static dielectric constant tensor:
#      x y z
#    x 1.757060 0.000000 0.000000 
#    y 0.000000 1.804740 0.000000 
#    z 0.000000 0.000000 1.794890 
# 
# From -- ./inp_files/14441.got.cif
#   From: 2010.05.17/outbox.cif.g08.bks.cpg/sg51_8_cif.got.tgz:14441.got - 2010.06.03 11:52:47.
