data_PCOD9403981
_publ_section_title
;
Structure prediction by ZEFSAII (Michael W. Deem and Ramdas Pophale) SiO2 
 PCOD9403981
Probable space group: P M M A
;
_chemical_formula_sum "Si O2"
_cell_formula_units_Z 64
_cell_length_a 18.036676
_cell_length_b 8.954008
_cell_length_c 22.107524
_cell_angle_alpha 90.000000
_cell_angle_beta 90.000000
_cell_angle_gamma 90.000000
_cell_volume 3570.377091
_symmetry_space_group_name_H-M "P M M A"
_symmetry_group_IT_number 51
_symmetry_cell_setting 'orthorhombic'
loop_
_space_group_symop_operation_xyz
x,y,z
1/2-x,-y,z
1/2+x,-y,-z
-x,y,-z
-x,-y,-z
1/2+x,y,-z
1/2-x,y,z
x,-y,z
loop_
_atom_site_type_symbol
_atom_site_label
_atom_site_fract_x
_atom_site_fract_y
_atom_site_fract_z
Si Si1 0.026434 0.319790 0.066782
Si Si2 0.335173 0.321709 0.495423
Si Si3 0.335278 0.179874 0.723015
Si Si4 0.107201 0.677998 0.247627
Si Si5 0.166479 0.177747 0.127868
Si Si6 0.573598 0.820441 0.396614
Si Si7 0.447364 0.677537 0.811559
Si Si8 0.600158 0.821213 0.623609
O O1 0.034239 0.500000 0.069661
O O2 0.104318 0.247073 0.084700
O O3 0.968769 0.277551 0.120072
O O4 0.000000 0.278327 0.000000
O O5 0.250000 0.287408 0.512715
O O6 0.343189 0.500000 0.491239
O O7 0.390904 0.256879 0.545265
O O8 0.353706 0.248118 0.431153
O O9 0.250000 0.229920 0.720521
O O10 0.380365 0.225904 0.662922
O O11 0.379003 0.240518 0.780879
O O12 0.336128 0.000000 0.724462
O O13 0.118081 0.500000 0.249689
O O14 0.154591 0.749350 0.193746
O O15 0.121930 0.751588 0.312111
O O16 0.021509 0.706693 0.228108
O O17 0.250000 0.207592 0.106745
O O18 0.155909 0.000000 0.132657
O O19 0.486902 0.786084 0.388075
O O20 0.580253 0.000000 0.403392
O O21 0.434286 0.500000 0.810805
O O22 0.608167 0.000000 0.625059
#
# Coordination Sequence:
#
# PCOD9403981 Si02
#       8
#     8   8   8   8   8   8   8   8
#     4   9  19  37  60  85 113 150 195 236 278 329
#     4  11  25  41  55  76 108 145 184 229 281 333
#     4  10  20  34  54  80 110 144 179 221 274 328
#     4  10  20  35  57  83 111 145 183 226 278 332
#     4  10  21  36  56  85 119 152 190 235 281 331
#     4  10  21  38  59  81 106 139 183 230 277 332
#     4   9  18  33  54  80 109 140 177 223 270 320
#     4  11  22  37  60  85 108 141 183 229 282 337
#
# _framework density 17.925277999999999
#
# number of rings (size 3 to 8) (size 9 to 14) (size 15 to 20)
#    0.000    2.000    1.250    3.000    0.000    8.500 
#    0.000    0.625    0.000    3.750    0.000    0.000 
#    0.000    0.000    0.000    0.000    0.000    0.000 
#
# Total GULP energy -357425.586777 kJ/mol
# GULP energy per Si atom -5584.774793 kJ/mol
# Density = 1.788448 g / cm^3
# Si number density = 17.925278 Si / 1000 Ang^3
#
#
#
# Elastic Constant Matrix: (Units=GPa)
#
#
# Indices 1 2 3 4 5 6 
#
# 1 52.3349 23.6727 19.9463 0.0000 0.0000 0.0000
# 2 23.6727 24.0639 27.0590 0.0000 0.0000 0.0000
# 3 19.9463 27.0590 115.5921 0.0000 0.0000 0.0000
# 4 0.0000 0.0000 0.0000 21.4800 0.0000 0.0000
# 5 0.0000 0.0000 0.0000 0.0000 15.4571 0.0000
# 6 0.0000 0.0000 0.0000 0.0000 0.0000 19.4429
#
#
#
# Elastic Compliance Matrix: (Units=1/GPa)
#
#
# Indices 1 2 3 4 5 6 
#
# 1 0.035058 -0.037577 0.002747 0.000000 0.000000 0.000000
# 2 -0.037577 0.096679 -0.016148 0.000000 0.000000 0.000000
# 3 0.002747 -0.016148 0.011957 0.000000 0.000000 0.000000
# 4 0.000000 0.000000 0.000000 0.046555 0.000000 0.000000
# 5 0.000000 0.000000 0.000000 0.000000 0.064695 0.000000
# 6 0.000000 0.000000 0.000000 0.000000 0.000000 0.051433
#
#
# Mechanical properties :
#
#
# Convention : Reuss Voigt Hill
#
# Bulk Modulus (GPa) = 23.95817 37.03856 30.49836
# Shear Modulus (GPa) = 11.84146 19.36353 15.60249
#
# Velocity S-wave (km/s) = 2.57300 3.29026 2.95349
# Velocity P-wave (km/s) = 4.71399 5.92807 5.35555
#
# Compressibility (1/GPa) = 0.04173942
#
# Stress axis : x y z
#
# Youngs Moduli (GPa) = 28.52421 10.34347 83.63227
#
# Poissons Ratio (x) = 0.38867 -0.22973
# Poissons Ratio (y) = 1.07185 1.35046
# Poissons Ratio (z) = -0.07835 0.16702
#
# Static dielectric constant tensor:
#      x y z
#    x 1.604190 0.000000 0.000000 
#    y 0.000000 1.597800 0.000000 
#    z 0.000000 0.000000 1.589920 
# 
# From -- ./inp_files/33988.got.cif
#   From: 2010.05.17/outbox.cif.g08.bks.cpg/sg51_17_cif.got.tgz:33988.got - 2010.06.03 11:52:47.
