data_PCOD9403743
_publ_section_title
;
Structure prediction by ZEFSAII (Michael W. Deem and Ramdas Pophale) SiO2 
 PCOD9403743
Probable space group: P M M A
;
_chemical_formula_sum "Si O2"
_cell_formula_units_Z 48
_cell_length_a 9.277240
_cell_length_b 7.530908
_cell_length_c 31.875553
_cell_angle_alpha 90.000000
_cell_angle_beta 90.000000
_cell_angle_gamma 90.000000
_cell_volume 2227.018691
_symmetry_space_group_name_H-M "P M M A"
_symmetry_group_IT_number 51
_symmetry_cell_setting 'orthorhombic'
loop_
_space_group_symop_operation_xyz
x,y,z
1/2-x,-y,z
1/2+x,-y,-z
-x,y,-z
-x,-y,-z
1/2+x,y,-z
1/2-x,y,z
x,-y,z
loop_
_atom_site_type_symbol
_atom_site_label
_atom_site_fract_x
_atom_site_fract_y
_atom_site_fract_z
Si Si1 0.913100 0.711532 0.376279
Si Si2 0.413110 0.288492 0.792619
Si Si3 0.583886 0.282724 0.541919
Si Si4 0.583785 0.717373 0.874459
Si Si5 0.586776 0.211242 0.708172
Si Si6 0.583783 0.716944 0.041788
O O1 0.750000 0.782458 0.373711
O O2 0.901759 0.500000 0.382261
O O3 0.001155 0.779327 0.416431
O O4 0.999986 0.738257 0.333467
O O5 0.250000 0.217520 0.790123
O O6 0.401749 0.500000 0.798625
O O7 0.501456 0.220762 0.832724
O O8 0.499753 0.261856 0.749762
O O9 0.500000 0.228296 0.500000
O O10 0.750000 0.225847 0.541628
O O11 0.584641 0.500000 0.542282
O O12 0.750000 0.773884 0.874822
O O13 0.584354 0.500000 0.874192
O O14 0.499479 0.772553 0.916267
O O15 0.750000 0.284281 0.708198
O O16 0.596796 0.000000 0.708194
O O17 0.750000 0.773890 0.041770
O O18 0.584158 0.500000 0.041679
O O19 0.500000 0.773688 0.000000
#
# Coordination Sequence:
#
# PCOD9403743 Si02
#       6
#     8   8   8   8   8   8
#     4  10  20  34  54  80 107 136 172 211 251 298
#     4  10  20  34  53  76 100 128 165 208 253 302
#     4   9  16  27  46  74 107 139 170 207 249 291
#     4   9  16  26  41  62  89 122 159 199 244 293
#     4  11  24  39  54  74 101 133 169 209 254 304
#     4   9  15  22  33  52  82 120 159 197 239 290
#
# _framework density 21.55348
#
# number of rings (size 3 to 8) (size 9 to 14) (size 15 to 20)
#    0.000    2.333    0.000    3.500    0.000   11.333 
#    0.000    0.000    0.000    0.500    0.000    0.000 
#    0.000    0.667    0.000    2.500    0.000    5.500 
#
# Total GULP energy -268298.807895 kJ/mol
# GULP energy per Si atom -5589.558498 kJ/mol
# Density = 2.150442 g / cm^3
# Si number density = 21.553480 Si / 1000 Ang^3
#
#
#
# Elastic Constant Matrix: (Units=GPa)
#
#
# Indices 1 2 3 4 5 6 
#
# 1 281.5957 7.0500 170.0890 0.0000 0.0000 0.0000
# 2 7.0500 53.9669 -2.6628 0.0000 0.0000 0.0000
# 3 170.0890 -2.6628 259.9471 0.0000 0.0000 0.0000
# 4 0.0000 0.0000 0.0000 -52.2153 0.0000 0.0000
# 5 0.0000 0.0000 0.0000 0.0000 48.9399 0.0000
# 6 0.0000 0.0000 0.0000 0.0000 0.0000 -5.1658
#
#
#
# Elastic Compliance Matrix: (Units=1/GPa)
#
#
# Indices 1 2 3 4 5 6 
#
# 1 0.005922 -0.000965 -0.003885 0.000000 0.000000 0.000000
# 2 -0.000965 0.018697 0.000823 0.000000 0.000000 0.000000
# 3 -0.003885 0.000823 0.006397 0.000000 0.000000 0.000000
# 4 0.000000 0.000000 0.000000 -0.019151 0.000000 0.000000
# 5 0.000000 0.000000 0.000000 0.000000 0.020433 0.000000
# 6 0.000000 0.000000 0.000000 0.000000 0.000000 -0.193583
#
#
# Mechanical properties :
#
#
# Convention : Reuss Voigt Hill
#
# Bulk Modulus (GPa) = 43.55028 104.94025 74.24526
# Shear Modulus (GPa) = -34.34589 26.38066 -3.98261
#
# Velocity S-wave (km/s) = -3.99622 3.50231 -1.36081
# Velocity P-wave (km/s) = 1.02152 8.07149 5.66151
#
# Compressibility (1/GPa) = 0.02296196
#
# Stress axis : x y z
#
# Youngs Moduli (GPa) = 168.86965 53.48566 156.31970
#
# Poissons Ratio (x) = 0.05163 0.60724
# Poissons Ratio (y) = 0.16300 -0.12867
# Poissons Ratio (z) = 0.65599 -0.04402
#
# Static dielectric constant tensor:
#      x y z
#    x 1.755400 0.000000 0.000000 
#    y 0.000000 1.810070 0.000000 
#    z 0.000000 0.000000 1.734070 
# 
# From -- ./inp_files/36988.got.cif
#   From: 2010.05.17/outbox.cif.g08.bks.cpg/sg51_19_cif.got.tgz:36988.got - 2010.06.03 11:52:47.
