data_PCOD9403199
_publ_section_title
;
Structure prediction by ZEFSAII (Michael W. Deem and Ramdas Pophale) SiO2 
 PCOD9403199
Probable space group: P M M A
;
_chemical_formula_sum "Si O2"
_cell_formula_units_Z 64
_cell_length_a 28.816237
_cell_length_b 8.822141
_cell_length_c 15.802190
_cell_angle_alpha 90.000000
_cell_angle_beta 90.000000
_cell_angle_gamma 90.000000
_cell_volume 4017.247057
_symmetry_space_group_name_H-M "P M M A"
_symmetry_group_IT_number 51
_symmetry_cell_setting 'orthorhombic'
loop_
_space_group_symop_operation_xyz
x,y,z
1/2-x,-y,z
1/2+x,-y,-z
-x,y,-z
-x,-y,-z
1/2+x,y,-z
1/2-x,y,z
x,-y,z
loop_
_atom_site_type_symbol
_atom_site_label
_atom_site_fract_x
_atom_site_fract_y
_atom_site_fract_z
Si Si1 0.151198 0.319388 0.657251
Si Si2 0.046679 0.818697 0.399220
Si Si3 0.305254 0.180688 0.824346
Si Si4 0.638368 0.680376 0.665271
Si Si5 0.306313 0.325375 0.002255
Si Si6 0.305139 0.819485 0.180410
Si Si7 0.805051 0.820560 0.509974
Si Si8 0.050451 0.318875 0.586773
O O1 0.158730 0.500000 0.653119
O O2 0.168269 0.255825 0.746411
O O3 0.179118 0.240318 0.581095
O O4 0.096780 0.290129 0.640048
O O5 0.088090 0.758071 0.341334
O O6 0.056256 0.755152 0.493963
O O7 0.996344 0.752379 0.375538
O O8 0.045595 0.000000 0.401285
O O9 0.250000 0.212032 0.814918
O O10 0.311247 0.000000 0.823405
O O11 0.320786 0.247190 0.914769
O O12 0.633520 0.500000 0.664173
O O13 0.666154 0.735653 0.747348
O O14 0.667130 0.734237 0.582987
O O15 0.250000 0.324103 0.001285
O O16 0.321466 0.500000 0.005768
O O17 0.319668 0.236858 0.087239
O O18 0.250000 0.786933 0.190705
O O19 0.311115 0.000000 0.187833
O O20 0.750000 0.799002 0.520792
O O21 0.815090 0.000000 0.516283
O O22 0.044907 0.500000 0.576706
#
# Coordination Sequence:
#
# PCOD9403199 Si02
#       8
#     8   8   8   8   8   8   8   8
#     4  11  22  34  51  74 101 135 171 209 253 302
#     4  11  21  34  54  75  97 129 168 212 259 305
#     4  10  20  33  50  73 103 138 174 213 254 297
#     4  12  23  35  51  73 101 135 172 211 253 301
#     4   9  17  31  51  74 100 131 169 212 256 301
#     4  10  20  34  52  75 104 136 171 211 254 302
#     4  11  23  36  49  68  99 137 174 210 248 296
#     4  10  20  35  53  74 100 129 166 213 260 304
#
# _framework density 15.931309000000001
#
# number of rings (size 3 to 8) (size 9 to 14) (size 15 to 20)
#    0.000    1.500    1.250    6.000    0.000    8.500 
#    0.000    0.000    0.000    0.000    0.000    0.875 
#    0.000    7.000    0.000    0.000    0.000    0.000 
#
# Total GULP energy -357502.585826 kJ/mol
# GULP energy per Si atom -5585.977904 kJ/mol
# Density = 1.589505 g / cm^3
# Si number density = 15.931309 Si / 1000 Ang^3
#
#
#
# Elastic Constant Matrix: (Units=GPa)
#
#
# Indices 1 2 3 4 5 6 
#
# 1 61.9188 49.4949 22.5918 0.0000 0.0000 0.0000
# 2 49.4949 108.2241 30.9915 0.0000 0.0000 0.0000
# 3 22.5918 30.9915 75.2563 0.0000 0.0000 0.0000
# 4 0.0000 0.0000 0.0000 32.5249 0.0000 0.0000
# 5 0.0000 0.0000 0.0000 0.0000 4.3149 0.0000
# 6 0.0000 0.0000 0.0000 0.0000 0.0000 24.0919
#
#
#
# Elastic Compliance Matrix: (Units=1/GPa)
#
#
# Indices 1 2 3 4 5 6 
#
# 1 0.026167 -0.011017 -0.003318 0.000000 0.000000 0.000000
# 2 -0.011017 0.015114 -0.002917 0.000000 0.000000 0.000000
# 3 -0.003318 -0.002917 0.015485 0.000000 0.000000 0.000000
# 4 0.000000 0.000000 0.000000 0.030746 0.000000 0.000000
# 5 0.000000 0.000000 0.000000 0.000000 0.231754 0.000000
# 6 0.000000 0.000000 0.000000 0.000000 0.000000 0.041508
#
#
# Mechanical properties :
#
#
# Convention : Reuss Voigt Hill
#
# Bulk Modulus (GPa) = 44.91956 50.17283 47.54620
# Shear Modulus (GPa) = 12.41620 21.67441 17.04531
#
# Velocity S-wave (km/s) = 2.79473 3.69249 3.27452
# Velocity P-wave (km/s) = 6.21860 7.05272 6.64875
#
# Compressibility (1/GPa) = 0.02226202
#
# Stress axis : x y z
#
# Youngs Moduli (GPa) = 38.21535 66.16437 64.57745
#
# Poissons Ratio (x) = 0.72894 0.21430
# Poissons Ratio (y) = 0.42102 0.18836
# Poissons Ratio (z) = 0.12682 0.19299
#
# Static dielectric constant tensor:
#      x y z
#    x 1.529530 0.000000 0.000000 
#    y 0.000000 1.531480 0.000000 
#    z 0.000000 0.000000 1.506710 
# 
# From -- ./inp_files/26621.got.cif
#   From: 2010.05.17/outbox.cif.g08.bks.cpg/sg51_14_cif.got.tgz:26621.got - 2010.06.03 11:52:47.
