data_PCOD9403506
_publ_section_title
;
Structure prediction by ZEFSAII (Michael W. Deem and Ramdas Pophale) SiO2 
 PCOD9403506
Probable space group: P M M A
;
_chemical_formula_sum "Si O2"
_cell_formula_units_Z 64
_cell_length_a 9.086277
_cell_length_b 24.774412
_cell_length_c 15.699440
_cell_angle_alpha 90.000000
_cell_angle_beta 90.000000
_cell_angle_gamma 90.000000
_cell_volume 3534.056508
_symmetry_space_group_name_H-M "P M M A"
_symmetry_group_IT_number 51
_symmetry_cell_setting 'orthorhombic'
loop_
_space_group_symop_operation_xyz
x,y,z
1/2-x,-y,z
1/2+x,-y,-z
-x,y,-z
-x,-y,-z
1/2+x,y,-z
1/2-x,y,z
x,-y,z
loop_
_atom_site_type_symbol
_atom_site_label
_atom_site_fract_x
_atom_site_fract_y
_atom_site_fract_z
Si Si1 0.927162 0.856978 0.221764
Si Si2 0.425307 0.562174 0.773818
Si Si3 0.075829 0.744888 0.185465
Si Si4 0.923449 0.593414 0.414657
Si Si5 0.576316 0.064559 0.910266
Si Si6 0.922549 0.286780 0.354894
Si Si7 0.574657 0.638983 0.911115
Si Si8 0.076058 0.166602 0.585995
O O1 0.750000 0.858547 0.217925
O O2 0.971144 0.857270 0.322167
O O3 0.985523 0.800315 0.183776
O O4 0.998539 0.904197 0.166592
O O5 0.250000 0.574791 0.776208
O O6 0.445124 0.500000 0.799120
O O7 0.473982 0.569495 0.675676
O O8 0.509363 0.601878 0.836583
O O9 0.250000 0.756337 0.186716
O O10 0.043622 0.701561 0.112244
O O11 0.026396 0.715934 0.272989
O O12 0.750000 0.582722 0.421559
O O13 0.945346 0.658114 0.405393
O O14 0.000000 0.573594 0.500000
O O15 0.750000 0.077307 0.913223
O O16 0.560409 0.000000 0.899899
O O17 0.500000 0.079412 0.000000
O O18 0.750000 0.285902 0.327335
O O19 0.948344 0.231244 0.405164
O O20 0.750000 0.632360 0.915300
O O21 0.500000 0.624669 0.000000
O O22 0.250000 0.157771 0.578491
O O23 0.000000 0.146695 0.500000
#
# Coordination Sequence:
#
# PCOD9403506 Si02
#       8
#     8   8   8   8   8   8   8   8
#     4  10  21  36  56  84 119 157 194 234 282 334
#     4  10  22  41  62  81 106 142 182 228 280 333
#     4  10  20  34  54  82 113 145 184 226 275 332
#     4  10  20  33  53  80 110 143 180 223 274 332
#     4  10  21  38  61  88 117 151 193 240 288 336
#     4   9  17  31  50  74 106 145 182 222 274 328
#     4  11  24  40  61  86 110 141 180 225 280 339
#     4   9  18  30  47  75 110 149 190 229 277 326
#
# _framework density 18.109500000000001
#
# number of rings (size 3 to 8) (size 9 to 14) (size 15 to 20)
#    0.000    2.125    1.250    2.625    0.000    7.000 
#    0.000    1.250    0.000    0.375    0.000    0.000 
#    0.000    0.000    0.000    0.000    0.000    0.000 
#
# Total GULP energy -357150.669439 kJ/mol
# GULP energy per Si atom -5580.479210 kJ/mol
# Density = 1.806828 g / cm^3
# Si number density = 18.109500 Si / 1000 Ang^3
#
#
#
# Elastic Constant Matrix: (Units=GPa)
#
#
# Indices 1 2 3 4 5 6 
#
# 1 58.5040 42.2009 57.9523 0.0000 0.0000 0.0000
# 2 42.2009 51.4906 52.7323 0.0000 0.0000 0.0000
# 3 57.9523 52.7323 127.0950 0.0000 0.0000 0.0000
# 4 0.0000 0.0000 0.0000 1.5434 0.0000 0.0000
# 5 0.0000 0.0000 0.0000 0.0000 34.2803 0.0000
# 6 0.0000 0.0000 0.0000 0.0000 0.0000 22.1113
#
#
#
# Elastic Compliance Matrix: (Units=1/GPa)
#
#
# Indices 1 2 3 4 5 6 
#
# 1 0.047740 -0.029271 -0.009623 0.000000 0.000000 0.000000
# 2 -0.029271 0.051718 -0.008111 0.000000 0.000000 0.000000
# 3 -0.009623 -0.008111 0.015621 0.000000 0.000000 0.000000
# 4 0.000000 0.000000 0.000000 0.647930 0.000000 0.000000
# 5 0.000000 0.000000 0.000000 0.000000 0.029171 0.000000
# 6 0.000000 0.000000 0.000000 0.000000 0.000000 0.045226
#
#
# Mechanical properties :
#
#
# Convention : Reuss Voigt Hill
#
# Bulk Modulus (GPa) = 47.46585 60.31782 53.89183
# Shear Modulus (GPa) = 5.32798 17.20059 11.26429
#
# Velocity S-wave (km/s) = 1.71711 3.08524 2.49672
# Velocity P-wave (km/s) = 5.49533 6.78758 6.17535
#
# Compressibility (1/GPa) = 0.02106778
#
# Stress axis : x y z
#
# Youngs Moduli (GPa) = 20.94679 19.33566 64.01450
#
# Poissons Ratio (x) = 0.56598 0.61604
# Poissons Ratio (y) = 0.61314 0.51922
# Poissons Ratio (z) = 0.20158 0.15683
#
# Static dielectric constant tensor:
#      x y z
#    x 1.606660 0.000000 0.000000 
#    y 0.000000 1.618340 0.000000 
#    z 0.000000 0.000000 1.617360 
# 
# From -- ./inp_files/22356.got.cif
#   From: 2010.05.17/outbox.cif.g08.bks.cpg/sg51_12_cif.got.tgz:22356.got - 2010.06.03 11:52:47.
