data_PCOD9403179
_publ_section_title
;
Structure prediction by ZEFSAII (Michael W. Deem and Ramdas Pophale) SiO2 
 PCOD9403179
Probable space group: P M M A
;
_chemical_formula_sum "Si O2"
_cell_formula_units_Z 48
_cell_length_a 9.468714
_cell_length_b 7.505247
_cell_length_c 31.752440
_cell_angle_alpha 90.000000
_cell_angle_beta 90.000000
_cell_angle_gamma 90.000000
_cell_volume 2256.488334
_symmetry_space_group_name_H-M "P M M A"
_symmetry_group_IT_number 51
_symmetry_cell_setting 'orthorhombic'
loop_
_space_group_symop_operation_xyz
x,y,z
1/2-x,-y,z
1/2+x,-y,-z
-x,y,-z
-x,-y,-z
1/2+x,y,-z
1/2-x,y,z
x,-y,z
loop_
_atom_site_type_symbol
_atom_site_label
_atom_site_fract_x
_atom_site_fract_y
_atom_site_fract_z
Si Si1 0.089367 0.285466 0.120217
Si Si2 0.410808 0.786901 0.377698
Si Si3 0.089960 0.714098 0.705640
Si Si4 0.908016 0.211608 0.038597
Si Si5 0.913268 0.782156 0.458603
Si Si6 0.413034 0.282631 0.214788
O O1 0.250000 0.223583 0.111796
O O2 0.093128 0.500000 0.121400
O O3 0.048317 0.225783 0.167343
O O4 0.986346 0.234500 0.082848
O O5 0.250000 0.717639 0.377205
O O6 0.492374 0.753324 0.334352
O O7 0.503824 0.721130 0.416969
O O8 0.401504 0.000000 0.382783
O O9 0.250000 0.781066 0.700264
O O10 0.097567 0.500000 0.708974
O O11 0.015500 0.780053 0.748332
O O12 0.750000 0.285894 0.039422
O O13 0.896476 0.000000 0.031543
O O14 0.000000 0.285680 0.000000
O O15 0.750000 0.724589 0.459311
O O16 0.000000 0.728186 0.500000
O O17 0.911351 0.000000 0.458261
O O18 0.250000 0.230667 0.222715
O O19 0.415369 0.500000 0.215139
#
# Coordination Sequence:
#
# PCOD9403179 Si02
#       6
#     8   8   8   8   8   8
#     4   9  18  33  54  79 103 127 160 203 248 292
#     4  10  20  33  50  73 100 130 166 207 249 292
#     4  10  20  33  51  75 101 131 167 204 245 296
#     4  10  21  36  53  73  99 133 170 204 242 291
#     4   9  16  27  45  69  97 128 162 201 245 293
#     4   8  15  30  51  73  98 129 164 201 241 288
#
# _framework density 21.271991
#
# number of rings (size 3 to 8) (size 9 to 14) (size 15 to 20)
#    0.000    2.667    0.000    3.000    0.000    6.333 
#    0.000    2.500    0.000    1.500    0.000    0.000 
#    0.000    0.000    0.000    0.000    0.000    0.000 
#
# Total GULP energy -268083.245702 kJ/mol
# GULP energy per Si atom -5585.067619 kJ/mol
# Density = 2.122357 g / cm^3
# Si number density = 21.271991 Si / 1000 Ang^3
#
#
#
# Elastic Constant Matrix: (Units=GPa)
#
#
# Indices 1 2 3 4 5 6 
#
# 1 228.2329 7.5337 156.2352 0.0000 0.0000 0.0000
# 2 7.5337 56.0963 -0.0349 0.0000 0.0000 0.0000
# 3 156.2352 -0.0349 205.7233 0.0000 0.0000 0.0000
# 4 0.0000 0.0000 0.0000 19.8597 0.0000 0.0000
# 5 0.0000 0.0000 0.0000 0.0000 39.9079 0.0000
# 6 0.0000 0.0000 0.0000 0.0000 0.0000 11.6697
#
#
#
# Elastic Compliance Matrix: (Units=1/GPa)
#
#
# Indices 1 2 3 4 5 6 
#
# 1 0.009211 -0.001241 -0.006996 0.000000 0.000000 0.000000
# 2 -0.001241 0.017994 0.000946 0.000000 0.000000 0.000000
# 3 -0.006996 0.000946 0.010174 0.000000 0.000000 0.000000
# 4 0.000000 0.000000 0.000000 0.050353 0.000000 0.000000
# 5 0.000000 0.000000 0.000000 0.000000 0.025058 0.000000
# 6 0.000000 0.000000 0.000000 0.000000 0.000000 0.085692
#
#
# Mechanical properties :
#
#
# Convention : Reuss Voigt Hill
#
# Bulk Modulus (GPa) = 43.86644 90.83562 67.35103
# Shear Modulus (GPa) = 22.65897 36.04202 29.35050
#
# Velocity S-wave (km/s) = 3.26728 4.12070 3.71856
# Velocity P-wave (km/s) = 5.90762 8.08919 7.08290
#
# Compressibility (1/GPa) = 0.02279647
#
# Stress axis : x y z
#
# Youngs Moduli (GPa) = 108.56211 55.57470 98.29087
#
# Poissons Ratio (x) = 0.06899 0.68761
# Poissons Ratio (y) = 0.13477 -0.09297
# Poissons Ratio (z) = 0.75947 -0.05257
#
# Static dielectric constant tensor:
#      x y z
#    x 1.744410 0.000000 0.000000 
#    y 0.000000 1.836310 0.000000 
#    z 0.000000 0.000000 1.724050 
# 
# From -- ./inp_files/36966.got.cif
#   From: 2010.05.17/outbox.cif.g08.bks.cpg/sg51_19_cif.got.tgz:36966.got - 2010.06.03 11:52:47.
