data_PCOD9403392
_publ_section_title
;
Structure prediction by ZEFSAII (Michael W. Deem and Ramdas Pophale) SiO2 
 PCOD9403392
Probable space group: P M M A
;
_chemical_formula_sum "Si O2"
_cell_formula_units_Z 56
_cell_length_a 8.888959
_cell_length_b 14.610599
_cell_length_c 23.920066
_cell_angle_alpha 90.000000
_cell_angle_beta 90.000000
_cell_angle_gamma 90.000000
_cell_volume 3106.571102
_symmetry_space_group_name_H-M "P M M A"
_symmetry_group_IT_number 51
_symmetry_cell_setting 'orthorhombic'
loop_
_space_group_symop_operation_xyz
x,y,z
1/2-x,-y,z
1/2+x,-y,-z
-x,y,-z
-x,-y,-z
1/2+x,y,-z
1/2-x,y,z
x,-y,z
loop_
_atom_site_type_symbol
_atom_site_label
_atom_site_fract_x
_atom_site_fract_y
_atom_site_fract_z
Si Si1 0.574530 0.890626 0.169544
Si Si2 0.430501 0.215197 0.941695
Si Si3 0.570080 0.606349 0.561114
Si Si4 0.573156 0.609252 0.761304
Si Si5 0.428989 0.721777 0.660584
Si Si6 0.429067 0.107045 0.287726
Si Si7 0.569120 0.395683 0.118075
O O1 0.750000 0.864839 0.179179
O O2 0.522532 0.842511 0.112774
O O3 0.480922 0.867603 0.224779
O O4 0.568107 0.000000 0.162139
O O5 0.250000 0.208415 0.945555
O O6 0.472127 0.320129 0.927535
O O7 0.500000 0.184905 0.000000
O O8 0.500000 0.621831 0.500000
O O9 0.750000 0.617109 0.559150
O O10 0.538151 0.500000 0.576615
O O11 0.499775 0.673499 0.606560
O O12 0.750000 0.632183 0.758718
O O13 0.557707 0.500000 0.751642
O O14 0.484791 0.664168 0.714266
O O15 0.507809 0.627553 0.822896
O O16 0.250000 0.720847 0.657361
O O17 0.489515 0.824215 0.670339
O O18 0.250000 0.116618 0.292374
O O19 0.468704 0.000000 0.296150
O O20 0.750000 0.391602 0.125787
O O21 0.528502 0.500000 0.103134
#
# Coordination Sequence:
#
# PCOD9403392 Si02
#       7
#     8   8   8   8   8   8   8
#     4   9  18  34  54  75 101 131 163 204 259 321
#     4  10  21  34  48  68  93 124 164 209 256 308
#     4  10  21  38  59  84 117 155 194 234 272 313
#     4  10  20  33  51  78 109 138 172 218 270 321
#     4  12  23  34  54  82 113 150 187 223 266 318
#     4  10  21  37  58  84 111 139 175 222 274 325
#     4   9  18  33  50  68  94 128 165 207 258 316
#
# _framework density 18.026306000000002
#
# number of rings (size 3 to 8) (size 9 to 14) (size 15 to 20)
#    0.000    2.000    0.000    3.857    0.000    7.143 
#    0.000    0.000    0.000    0.429    0.000    0.000 
#    0.000    0.000    0.000    0.000    0.000    0.000 
#
# Total GULP energy -312831.911769 kJ/mol
# GULP energy per Si atom -5586.284139 kJ/mol
# Density = 1.798528 g / cm^3
# Si number density = 18.026306 Si / 1000 Ang^3
#
#
#
# Elastic Constant Matrix: (Units=GPa)
#
#
# Indices 1 2 3 4 5 6 
#
# 1 71.3543 46.0383 46.6464 0.0000 0.0000 0.0000
# 2 46.0383 74.7640 64.1974 0.0000 0.0000 0.0000
# 3 46.6464 64.1974 95.0827 0.0000 0.0000 0.0000
# 4 0.0000 0.0000 0.0000 26.6637 0.0000 0.0000
# 5 0.0000 0.0000 0.0000 0.0000 32.8710 0.0000
# 6 0.0000 0.0000 0.0000 0.0000 0.0000 22.8446
#
#
#
# Elastic Compliance Matrix: (Units=1/GPa)
#
#
# Indices 1 2 3 4 5 6 
#
# 1 0.023959 -0.011090 -0.004266 0.000000 0.000000 0.000000
# 2 -0.011090 0.036961 -0.019514 0.000000 0.000000 0.000000
# 3 -0.004266 -0.019514 0.025786 0.000000 0.000000 0.000000
# 4 0.000000 0.000000 0.000000 0.037504 0.000000 0.000000
# 5 0.000000 0.000000 0.000000 0.000000 0.030422 0.000000
# 6 0.000000 0.000000 0.000000 0.000000 0.000000 0.043774
#
#
# Mechanical properties :
#
#
# Convention : Reuss Voigt Hill
#
# Bulk Modulus (GPa) = 58.94805 61.66282 60.30543
# Shear Modulus (GPa) = 18.26137 22.09711 20.17924
#
# Velocity S-wave (km/s) = 3.18628 3.50498 3.34942
# Velocity P-wave (km/s) = 6.80505 7.11767 6.96311
#
# Compressibility (1/GPa) = 0.01696409
#
# Stress axis : x y z
#
# Youngs Moduli (GPa) = 41.73785 27.05553 38.78142
#
# Poissons Ratio (x) = 0.30006 0.16544
# Poissons Ratio (y) = 0.46289 0.75679
# Poissons Ratio (z) = 0.17805 0.52797
#
# Static dielectric constant tensor:
#      x y z
#    x 1.603720 0.000000 0.000000 
#    y 0.000000 1.643040 0.000000 
#    z 0.000000 0.000000 1.577320 
# 
# From -- ./inp_files/31993.got.cif
#   From: 2010.05.17/outbox.cif.g08.bks.cpg/sg51_16_cif.got.tgz:31993.got - 2010.06.03 11:52:47.
