data_PCOD9403531
_publ_section_title
;
Structure prediction by ZEFSAII (Michael W. Deem and Ramdas Pophale) SiO2 
 PCOD9403531
Probable space group: P M M A
;
_chemical_formula_sum "Si O2"
_cell_formula_units_Z 64
_cell_length_a 8.288992
_cell_length_b 20.220503
_cell_length_c 21.369054
_cell_angle_alpha 90.000000
_cell_angle_beta 90.000000
_cell_angle_gamma 90.000000
_cell_volume 3581.615590
_symmetry_space_group_name_H-M "P M M A"
_symmetry_group_IT_number 51
_symmetry_cell_setting 'orthorhombic'
loop_
_space_group_symop_operation_xyz
x,y,z
1/2-x,-y,z
1/2+x,-y,-z
-x,y,-z
-x,-y,-z
1/2+x,y,-z
1/2-x,y,z
x,-y,z
loop_
_atom_site_type_symbol
_atom_site_label
_atom_site_fract_x
_atom_site_fract_y
_atom_site_fract_z
Si Si1 0.557396 0.287486 0.567469
Si Si2 0.442993 0.791884 0.688069
Si Si3 0.053573 0.426906 0.383859
Si Si4 0.442968 0.925617 0.258020
Si Si5 0.944969 0.787978 0.067344
Si Si6 0.944415 0.573581 0.762544
Si Si7 0.056173 0.073034 0.884490
Si Si8 0.556139 0.289349 0.190222
O O1 0.500000 0.263734 0.500000
O O2 0.750000 0.289740 0.568065
O O3 0.502267 0.242159 0.624832
O O4 0.495274 0.362655 0.579283
O O5 0.250000 0.789932 0.688809
O O6 0.498554 0.867033 0.697733
O O7 0.504002 0.750417 0.748560
O O8 0.250000 0.427414 0.386107
O O9 0.998484 0.500000 0.404874
O O10 0.008806 0.418576 0.310658
O O11 0.250000 0.922817 0.252658
O O12 0.515980 0.916004 0.188627
O O13 0.488573 0.000000 0.278555
O O14 0.750000 0.788801 0.068764
O O15 0.004235 0.863467 0.077864
O O16 0.001774 0.744439 0.126221
O O17 0.000000 0.763308 0.000000
O O18 0.750000 0.575442 0.764304
O O19 0.996558 0.500000 0.782601
O O20 0.009976 0.634467 0.801788
O O21 0.250000 0.071599 0.890408
O O22 0.993109 0.000000 0.902401
O O23 0.750000 0.284116 0.190469
#
# Coordination Sequence:
#
# PCOD9403531 Si02
#       8
#     8   8   8   8   8   8   8   8
#     4  11  22  36  54  78 110 147 184 224 267 316
#     4  11  21  36  57  80 107 142 181 223 268 318
#     4   8  15  29  49  74 106 142 177 214 257 308
#     4  10  20  33  53  83 112 137 174 222 267 314
#     4  10  21  36  50  74 106 142 181 222 267 318
#     4   9  17  31  53  80 106 134 173 218 266 318
#     4   9  17  32  52  73 105 146 180 213 259 313
#     4  10  20  34  53  78 108 137 175 222 269 316
#
# _framework density 17.869032000000001
#
# number of rings (size 3 to 8) (size 9 to 14) (size 15 to 20)
#    0.000    2.250    2.500    1.875    0.000    3.000 
#    0.000    0.000    0.000    1.875    0.000    0.000 
#    0.000    0.000    0.000    0.000    0.000    0.000 
#
# Total GULP energy -357057.188195 kJ/mol
# GULP energy per Si atom -5579.018566 kJ/mol
# Density = 1.782836 g / cm^3
# Si number density = 17.869032 Si / 1000 Ang^3
#
#
#
# Elastic Constant Matrix: (Units=GPa)
#
#
# Indices 1 2 3 4 5 6 
#
# 1 11.2875 10.0072 9.3326 0.0000 0.0000 0.0000
# 2 10.0072 116.4792 68.1795 0.0000 0.0000 0.0000
# 3 9.3326 68.1795 113.9751 0.0000 0.0000 0.0000
# 4 0.0000 0.0000 0.0000 24.5353 0.0000 0.0000
# 5 0.0000 0.0000 0.0000 0.0000 18.8174 0.0000
# 6 0.0000 0.0000 0.0000 0.0000 0.0000 22.9051
#
#
#
# Elastic Compliance Matrix: (Units=1/GPa)
#
#
# Indices 1 2 3 4 5 6 
#
# 1 0.097421 -0.005694 -0.004571 0.000000 0.000000 0.000000
# 2 -0.005694 0.013544 -0.007636 0.000000 0.000000 0.000000
# 3 -0.004571 -0.007636 0.013716 0.000000 0.000000 0.000000
# 4 0.000000 0.000000 0.000000 0.040758 0.000000 0.000000
# 5 0.000000 0.000000 0.000000 0.000000 0.053142 0.000000
# 6 0.000000 0.000000 0.000000 0.000000 0.000000 0.043658
#
#
# Mechanical properties :
#
#
# Convention : Reuss Voigt Hill
#
# Bulk Modulus (GPa) = 11.25122 46.30894 28.78008
# Shear Modulus (GPa) = 15.25939 23.53306 19.39623
#
# Velocity S-wave (km/s) = 2.92542 3.63295 3.29822
# Velocity P-wave (km/s) = 4.20963 6.60074 5.53583
#
# Compressibility (1/GPa) = 0.08887927
#
# Stress axis : x y z
#
# Youngs Moduli (GPa) = 10.26470 73.83415 72.90911
#
# Poissons Ratio (x) = 0.42045 0.33325
# Poissons Ratio (y) = 0.05845 0.55671
# Poissons Ratio (z) = 0.04692 0.56377
#
# Static dielectric constant tensor:
#      x y z
#    x 1.622270 0.000000 0.000000 
#    y 0.000000 1.633100 0.000000 
#    z 0.000000 0.000000 1.593440 
# 
# From -- ./inp_files/32441.got.cif
#   From: 2010.05.17/outbox.cif.g08.bks.cpg/sg51_17_cif.got.tgz:32441.got - 2010.06.03 11:52:47.
