data_PCOD9403584
_publ_section_title
;
Structure prediction by ZEFSAII (Michael W. Deem and Ramdas Pophale) SiO2 
 PCOD9403584
Probable space group: P M M A
;
_chemical_formula_sum "Si O2"
_cell_formula_units_Z 36
_cell_length_a 7.325388
_cell_length_b 8.216436
_cell_length_c 26.088740
_cell_angle_alpha 90.000000
_cell_angle_beta 90.000000
_cell_angle_gamma 90.000000
_cell_volume 1570.244258
_symmetry_space_group_name_H-M "P M M A"
_symmetry_group_IT_number 51
_symmetry_cell_setting 'orthorhombic'
loop_
_space_group_symop_operation_xyz
x,y,z
1/2-x,-y,z
1/2+x,-y,-z
-x,y,-z
-x,-y,-z
1/2+x,y,-z
1/2-x,y,z
x,-y,z
loop_
_atom_site_type_symbol
_atom_site_label
_atom_site_fract_x
_atom_site_fract_y
_atom_site_fract_z
Si Si1 0.032256 0.812502 0.444556
Si Si2 0.027947 0.684839 0.224965
Si Si3 0.032511 0.500000 0.060354
Si Si4 0.970227 0.193373 0.665631
Si Si5 0.472764 0.177733 0.118413
O O1 0.250000 0.822061 0.439995
O O2 0.966465 0.742507 0.390093
O O3 0.000000 0.733504 0.500000
O O4 0.962469 0.000000 0.447446
O O5 0.250000 0.692167 0.226510
O O6 0.977628 0.500000 0.212683
O O7 0.961653 0.730994 0.281573
O O8 0.972392 0.797042 0.177712
O O9 0.250000 0.500000 0.069310
O O10 0.963890 0.666341 0.086290
O O11 0.000000 0.500000 0.000000
O O12 0.750000 0.213787 0.666730
O O13 0.006476 0.000000 0.666528
O O14 0.250000 0.179061 0.117318
O O15 0.531243 0.000000 0.099685
#
# Coordination Sequence:
#
# PCOD9403584 Si02
#       5
#     8   8   4   8   8
#     4   8  13  21  33  50  73 101 133 169 208 252
#     4   9  14  21  35  57  85 112 138 175 225 273
#     4  10  20  34  50  72 100 128 159 190 222 264
#     4   8  13  20  31  50  75 101 131 169 215 264
#     4   9  16  27  44  66  94 125 154 188 230 271
#
# _framework density 22.926371
#
# number of rings (size 3 to 8) (size 9 to 14) (size 15 to 20)
#    0.000    3.333    1.111    2.000    0.000    3.111 
#    0.000    0.000    0.000    0.667    0.000    1.556 
#    0.000    3.556    0.000    0.000    0.000    0.000 
#
# Total GULP energy -200745.558309 kJ/mol
# GULP energy per Si atom -5576.265509 kJ/mol
# Density = 2.287419 g / cm^3
# Si number density = 22.926371 Si / 1000 Ang^3
#
#
#
# Elastic Constant Matrix: (Units=GPa)
#
#
# Indices 1 2 3 4 5 6 
#
# 1 87.9299 5.7695 -2.0067 0.0000 0.0000 0.0000
# 2 5.7695 120.4673 86.1466 0.0000 0.0000 0.0000
# 3 -2.0067 86.1466 174.4061 0.0000 0.0000 0.0000
# 4 0.0000 0.0000 0.0000 43.3290 0.0000 0.0000
# 5 0.0000 0.0000 0.0000 0.0000 9.2038 0.0000
# 6 0.0000 0.0000 0.0000 0.0000 0.0000 -26.0900
#
#
#
# Elastic Compliance Matrix: (Units=1/GPa)
#
#
# Indices 1 2 3 4 5 6 
#
# 1 0.011452 -0.000994 0.000623 0.000000 0.000000 0.000000
# 2 -0.000994 0.012921 -0.006393 0.000000 0.000000 0.000000
# 3 0.000623 -0.006393 0.008899 0.000000 0.000000 0.000000
# 4 0.000000 0.000000 0.000000 0.023079 0.000000 0.000000
# 5 0.000000 0.000000 0.000000 0.000000 0.108651 0.000000
# 6 0.000000 0.000000 0.000000 0.000000 0.000000 -0.038329
#
#
# Mechanical properties :
#
#
# Convention : Reuss Voigt Hill
#
# Bulk Modulus (GPa) = 50.65218 62.51356 56.58287
# Shear Modulus (GPa) = 34.06392 24.81482 29.43937
#
# Velocity S-wave (km/s) = 3.85878 3.29351 3.58730
# Velocity P-wave (km/s) = 6.48036 6.46446 6.47241
#
# Compressibility (1/GPa) = 0.01974249
#
# Stress axis : x y z
#
# Youngs Moduli (GPa) = 87.32024 77.39581 112.37326
#
# Poissons Ratio (x) = 0.07691 -0.06996
# Poissons Ratio (y) = 0.08677 0.71845
# Poissons Ratio (z) = -0.05437 0.49483
#
# Static dielectric constant tensor:
#      x y z
#    x 1.935110 0.000000 0.000000 
#    y 0.000000 1.823190 0.000000 
#    z 0.000000 0.000000 1.868100 
# 
# From -- ./inp_files/32753.got.cif
#   From: 2010.05.17/outbox.cif.g08.bks.cpg/sg51_17_cif.got.tgz:32753.got - 2010.06.03 11:52:47.
