data_PCOD9403846
_publ_section_title
;
Structure prediction by ZEFSAII (Michael W. Deem and Ramdas Pophale) SiO2 
 PCOD9403846
Probable space group: P M M A
;
_chemical_formula_sum "Si O2"
_cell_formula_units_Z 64
_cell_length_a 8.753305
_cell_length_b 19.894750
_cell_length_c 21.155301
_cell_angle_alpha 90.000000
_cell_angle_beta 90.000000
_cell_angle_gamma 90.000000
_cell_volume 3684.085971
_symmetry_space_group_name_H-M "P M M A"
_symmetry_group_IT_number 51
_symmetry_cell_setting 'orthorhombic'
loop_
_space_group_symop_operation_xyz
x,y,z
1/2-x,-y,z
1/2+x,-y,-z
-x,y,-z
-x,-y,-z
1/2+x,y,-z
1/2-x,y,z
x,-y,z
loop_
_atom_site_type_symbol
_atom_site_label
_atom_site_fract_x
_atom_site_fract_y
_atom_site_fract_z
Si Si1 0.068003 0.922673 0.736534
Si Si2 0.431830 0.575253 0.750635
Si Si3 0.068227 0.423557 0.388646
Si Si4 0.433634 0.715341 0.806444
Si Si5 0.567200 0.791154 0.066105
Si Si6 0.066963 0.923462 0.122405
Si Si7 0.431372 0.287391 0.566222
Si Si8 0.068020 0.791830 0.314771
O O1 0.250000 0.911610 0.740572
O O2 0.997138 0.914333 0.806537
O O3 0.993338 0.867683 0.691424
O O4 0.040877 0.000000 0.717275
O O5 0.250000 0.579602 0.735656
O O6 0.461291 0.500000 0.775412
O O7 0.523089 0.583177 0.685258
O O8 0.467733 0.636506 0.797058
O O9 0.250000 0.414608 0.395968
O O10 0.027924 0.500000 0.407745
O O11 0.980566 0.365014 0.424571
O O12 0.250000 0.724326 0.800347
O O13 0.479612 0.746021 0.873671
O O14 0.511756 0.754477 0.748821
O O15 0.750000 0.792225 0.063048
O O16 0.506072 0.866102 0.079689
O O17 0.500000 0.766592 0.000000
O O18 0.250000 0.916452 0.123287
O O19 0.029286 0.000000 0.102745
O O20 0.500000 0.263096 0.500000
O O21 0.250000 0.282132 0.566115
O O22 0.498967 0.246480 0.625205
O O23 0.250000 0.790471 0.317809
#
# Coordination Sequence:
#
# PCOD9403846 Si02
#       8
#     8   8   8   8   8   8   8   8
#     4  10  20  35  57  85 116 149 186 230 278 327
#     4   9  17  31  54  82 110 142 182 230 282 333
#     4  10  20  34  53  81 116 151 189 230 276 333
#     4  10  20  35  56  82 110 145 187 234 281 334
#     4  11  23  37  54  76 109 148 190 234 285 340
#     4  10  20  34  53  79 111 146 185 227 274 332
#     4  12  25  41  59  81 114 152 194 237 283 339
#     4  12  23  36  59  87 115 149 188 232 282 332
#
# _framework density 17.372015000000001
#
# number of rings (size 3 to 8) (size 9 to 14) (size 15 to 20)
#    0.000    1.500    2.500    3.750    0.000    3.250 
#    0.000    0.000    0.000    0.750    0.000    0.000 
#    0.000    0.000    0.000    0.000    0.000    0.125 
#
# Total GULP energy -357545.035036 kJ/mol
# GULP energy per Si atom -5586.641172 kJ/mol
# Density = 1.733248 g / cm^3
# Si number density = 17.372015 Si / 1000 Ang^3
#
#
#
# Elastic Constant Matrix: (Units=GPa)
#
#
# Indices 1 2 3 4 5 6 
#
# 1 79.2111 46.7981 50.4148 0.0000 0.0000 0.0000
# 2 46.7981 97.5891 59.1981 0.0000 0.0000 0.0000
# 3 50.4148 59.1981 117.4255 0.0000 0.0000 0.0000
# 4 0.0000 0.0000 0.0000 17.1931 0.0000 0.0000
# 5 0.0000 0.0000 0.0000 0.0000 27.7423 0.0000
# 6 0.0000 0.0000 0.0000 0.0000 0.0000 23.5222
#
#
#
# Elastic Compliance Matrix: (Units=1/GPa)
#
#
# Indices 1 2 3 4 5 6 
#
# 1 0.019678 -0.006211 -0.005317 0.000000 0.000000 0.000000
# 2 -0.006211 0.016722 -0.005763 0.000000 0.000000 0.000000
# 3 -0.005317 -0.005763 0.013704 0.000000 0.000000 0.000000
# 4 0.000000 0.000000 0.000000 0.058163 0.000000 0.000000
# 5 0.000000 0.000000 0.000000 0.000000 0.036046 0.000000
# 6 0.000000 0.000000 0.000000 0.000000 0.000000 0.042513
#
#
# Mechanical properties :
#
#
# Convention : Reuss Voigt Hill
#
# Bulk Modulus (GPa) = 64.42926 67.44974 65.93950
# Shear Modulus (GPa) = 22.06694 22.87916 22.47305
#
# Velocity S-wave (km/s) = 3.56793 3.63300 3.60062
# Velocity P-wave (km/s) = 7.35813 7.51726 7.43812
#
# Compressibility (1/GPa) = 0.01552090
#
# Stress axis : x y z
#
# Youngs Moduli (GPa) = 50.81742 59.80310 72.96911
#
# Poissons Ratio (x) = 0.37144 0.38800
# Poissons Ratio (y) = 0.31563 0.42054
# Poissons Ratio (z) = 0.27022 0.34466
#
# Static dielectric constant tensor:
#      x y z
#    x 1.579090 0.000000 0.000000 
#    y 0.000000 1.609760 0.000000 
#    z 0.000000 0.000000 1.569300 
# 
# From -- ./inp_files/28480.got.cif
#   From: 2010.05.17/outbox.cif.g08.bks.cpg/sg51_15_cif.got.tgz:28480.got - 2010.06.03 11:52:47.
