data_PCOD9403231
_publ_section_title
;
Structure prediction by ZEFSAII (Michael W. Deem and Ramdas Pophale) SiO2 
 PCOD9403231
Probable space group: P M M A
;
_chemical_formula_sum "Si O2"
_cell_formula_units_Z 64
_cell_length_a 14.365616
_cell_length_b 9.207664
_cell_length_c 23.937163
_cell_angle_alpha 90.000000
_cell_angle_beta 90.000000
_cell_angle_gamma 90.000000
_cell_volume 3166.258680
_symmetry_space_group_name_H-M "P M M A"
_symmetry_group_IT_number 51
_symmetry_cell_setting 'orthorhombic'
loop_
_space_group_symop_operation_xyz
x,y,z
1/2-x,-y,z
1/2+x,-y,-z
-x,y,-z
-x,-y,-z
1/2+x,y,-z
1/2-x,y,z
x,-y,z
loop_
_atom_site_type_symbol
_atom_site_label
_atom_site_fract_x
_atom_site_fract_y
_atom_site_fract_z
Si Si1 0.360349 0.172347 0.860220
Si Si2 0.456328 0.172382 0.627131
Si Si3 0.136770 0.834247 0.083707
Si Si4 0.974662 0.173342 0.249980
Si Si5 0.636041 0.332394 0.027518
Si Si6 0.106186 0.335911 0.522400
Si Si7 0.850891 0.324614 0.599890
Si Si8 0.641160 0.326817 0.800700
O O1 0.250000 0.198826 0.853763
O O2 0.412381 0.212907 0.803388
O O3 0.393832 0.257801 0.914828
O O4 0.372552 0.000000 0.869636
O O5 0.426062 0.202579 0.690700
O O6 0.394388 0.240823 0.577962
O O7 0.559576 0.241671 0.622446
O O8 0.461734 0.000000 0.618902
O O9 0.250000 0.839527 0.080966
O O10 0.115623 0.745533 0.139736
O O11 0.102766 0.000000 0.087319
O O12 0.105326 0.754535 0.027432
O O13 0.071326 0.258587 0.243895
O O14 0.992808 0.000000 0.247515
O O15 0.750000 0.328508 0.027370
O O16 0.608101 0.500000 0.024920
O O17 0.135481 0.500000 0.535845
O O18 0.155185 0.285741 0.465964
O O19 0.000000 0.341196 0.500000
O O20 0.750000 0.292914 0.626226
O O21 0.865904 0.500000 0.602904
O O22 0.750000 0.294549 0.789592
O O23 0.630871 0.500000 0.803618
#
# Coordination Sequence:
#
# PCOD9403231 Si02
#       8
#     8   8   8   8   8   8   8   8
#     4   9  18  35  57  76  97 131 175 219 264 318
#     4  10  20  33  50  74 104 136 171 211 254 301
#     4   9  16  28  49  75 103 137 173 209 258 321
#     4  10  22  38  54  75 105 142 181 219 262 312
#     4   9  16  27  47  76 106 132 163 211 269 322
#     4   8  15  30  51  72  95 127 163 197 239 290
#     4   9  18  33  53  77 105 136 170 208 251 301
#     4  10  21  36  54  77 105 138 177 221 266 311
#
# _framework density 20.21313
#
# number of rings (size 3 to 8) (size 9 to 14) (size 15 to 20)
#    0.000    2.750    0.000    2.250    0.000    8.250 
#    0.000    3.750    0.000    4.500    0.000    0.000 
#    0.000    0.000    0.000    0.000    0.000    0.000 
#
# Total GULP energy -357191.197350 kJ/mol
# GULP energy per Si atom -5581.112459 kJ/mol
# Density = 2.016712 g / cm^3
# Si number density = 20.213130 Si / 1000 Ang^3
#
#
#
# Elastic Constant Matrix: (Units=GPa)
#
#
# Indices 1 2 3 4 5 6 
#
# 1 40.6460 4.9359 5.3424 0.0000 0.0000 0.0000
# 2 4.9359 55.4591 43.2290 0.0000 0.0000 0.0000
# 3 5.3424 43.2290 106.5459 0.0000 0.0000 0.0000
# 4 0.0000 0.0000 0.0000 55.6475 0.0000 0.0000
# 5 0.0000 0.0000 0.0000 0.0000 17.3667 0.0000
# 6 0.0000 0.0000 0.0000 0.0000 0.0000 -6.3318
#
#
#
# Elastic Compliance Matrix: (Units=1/GPa)
#
#
# Indices 1 2 3 4 5 6 
#
# 1 0.024890 -0.001817 -0.000511 0.000000 0.000000 0.000000
# 2 -0.001817 0.026504 -0.010662 0.000000 0.000000 0.000000
# 3 -0.000511 -0.010662 0.013737 0.000000 0.000000 0.000000
# 4 0.000000 0.000000 0.000000 0.017970 0.000000 0.000000
# 5 0.000000 0.000000 0.000000 0.000000 0.057581 0.000000
# 6 0.000000 0.000000 0.000000 0.000000 0.000000 -0.157933
#
#
# Mechanical properties :
#
#
# Convention : Reuss Voigt Hill
#
# Bulk Modulus (GPa) = 25.54199 34.40728 29.97463
# Shear Modulus (GPa) = 229.55162 23.27941 126.41551
#
# Velocity S-wave (km/s) = 10.66828 3.39735 7.91688
# Velocity P-wave (km/s) = 12.82237 5.69636 9.92123
#
# Compressibility (1/GPa) = 0.03915122
#
# Stress axis : x y z
#
# Youngs Moduli (GPa) = 40.17605 37.73001 72.79450
#
# Poissons Ratio (x) = 0.06856 0.03718
# Poissons Ratio (y) = 0.07300 0.77617
# Poissons Ratio (z) = 0.02052 0.40229
#
# Static dielectric constant tensor:
#      x y z
#    x 1.800600 0.000000 0.000000 
#    y 0.000000 1.676550 0.000000 
#    z 0.000000 0.000000 1.711370 
# 
# From -- ./inp_files/33967.got.cif
#   From: 2010.05.17/outbox.cif.g08.bks.cpg/sg51_17_cif.got.tgz:33967.got - 2010.06.03 11:52:47.
