data_PCOD9403773
_publ_section_title
;
Structure prediction by ZEFSAII (Michael W. Deem and Ramdas Pophale) SiO2 
 PCOD9403773
Probable space group: P M M A
;
_chemical_formula_sum "Si O2"
_cell_formula_units_Z 64
_cell_length_a 29.020769
_cell_length_b 9.152741
_cell_length_c 13.146517
_cell_angle_alpha 90.000000
_cell_angle_beta 90.000000
_cell_angle_gamma 90.000000
_cell_volume 3491.972354
_symmetry_space_group_name_H-M "P M M A"
_symmetry_group_IT_number 51
_symmetry_cell_setting 'orthorhombic'
loop_
_space_group_symop_operation_xyz
x,y,z
1/2-x,-y,z
1/2+x,-y,-z
-x,y,-z
-x,-y,-z
1/2+x,y,-z
1/2-x,y,z
x,-y,z
loop_
_atom_site_type_symbol
_atom_site_label
_atom_site_fract_x
_atom_site_fract_y
_atom_site_fract_z
Si Si1 0.004443 0.170942 0.251529
Si Si2 0.194941 0.672058 0.646278
Si Si3 0.458836 0.340256 0.920715
Si Si4 0.305587 0.828797 0.855032
Si Si5 0.138354 0.673155 0.032167
Si Si6 0.135036 0.676457 0.450919
Si Si7 0.544025 0.661653 0.428830
Si Si8 0.112192 0.822871 0.242039
O O1 0.057744 0.225141 0.245829
O O2 0.975468 0.214870 0.153308
O O3 0.973950 0.236788 0.340816
O O4 0.008129 0.000000 0.264085
O O5 0.250000 0.689593 0.638741
O O6 0.184849 0.500000 0.662813
O O7 0.178950 0.759782 0.746566
O O8 0.172219 0.713424 0.538381
O O9 0.455108 0.500000 0.868146
O O10 0.500000 0.351569 0.000000
O O11 0.411588 0.312480 0.978805
O O12 0.250000 0.816930 0.857984
O O13 0.317998 0.000000 0.859206
O O14 0.326608 0.744268 0.951409
O O15 0.147530 0.500000 0.046487
O O16 0.134763 0.755028 0.140373
O O17 0.136337 0.500000 0.433384
O O18 0.086487 0.714817 0.504183
O O19 0.136300 0.759771 0.343718
O O20 0.500000 0.647435 0.500000
O O21 0.556980 0.500000 0.389792
O O22 0.114197 0.000000 0.239397
#
# Coordination Sequence:
#
# PCOD9403773 Si02
#       8
#     8   8   8   8   8   8   8   8
#     4  11  23  35  51  77 112 151 189 236 288 337
#     4   9  19  38  63  89 116 146 186 235 281 332
#     4  10  21  37  56  79 110 150 194 236 280 335
#     4  10  22  41  64  90 121 152 183 230 293 351
#     4  11  23  39  62  87 113 152 199 242 284 338
#     4  10  21  37  58  83 111 150 196 237 284 340
#     4  10  20  34  53  76 107 148 191 233 276 332
#     4  11  23  38  56  81 117 156 193 237 290 344
#
# _framework density 18.327750000000002
#
# number of rings (size 3 to 8) (size 9 to 14) (size 15 to 20)
#    0.000    1.750    2.500    1.500    1.750    4.250 
#    0.000    0.625    0.000    2.250    0.000    0.000 
#    0.000    0.000    0.000    0.000    0.000    0.000 
#
# Total GULP energy -356941.695037 kJ/mol
# GULP energy per Si atom -5577.213985 kJ/mol
# Density = 1.828604 g / cm^3
# Si number density = 18.327750 Si / 1000 Ang^3
#
#
#
# Elastic Constant Matrix: (Units=GPa)
#
#
# Indices 1 2 3 4 5 6 
#
# 1 42.6463 32.3673 38.4577 0.0000 0.0000 0.0000
# 2 32.3673 80.8830 71.5983 0.0000 0.0000 0.0000
# 3 38.4577 71.5983 145.8737 0.0000 0.0000 0.0000
# 4 0.0000 0.0000 0.0000 72.0120 0.0000 0.0000
# 5 0.0000 0.0000 0.0000 0.0000 26.1341 0.0000
# 6 0.0000 0.0000 0.0000 0.0000 0.0000 18.1781
#
#
#
# Elastic Compliance Matrix: (Units=1/GPa)
#
#
# Indices 1 2 3 4 5 6 
#
# 1 0.035053 -0.010339 -0.004167 0.000000 0.000000 0.000000
# 2 -0.010339 0.024912 -0.009502 0.000000 0.000000 0.000000
# 3 -0.004167 -0.009502 0.012617 0.000000 0.000000 0.000000
# 4 0.000000 0.000000 0.000000 0.013887 0.000000 0.000000
# 5 0.000000 0.000000 0.000000 0.000000 0.038264 0.000000
# 6 0.000000 0.000000 0.000000 0.000000 0.000000 0.055011
#
#
# Mechanical properties :
#
#
# Convention : Reuss Voigt Hill
#
# Bulk Modulus (GPa) = 40.70366 61.58328 51.14347
# Shear Modulus (GPa) = 21.19112 31.73015 26.46063
#
# Velocity S-wave (km/s) = 3.40403 4.16536 3.80379
# Velocity P-wave (km/s) = 6.14059 7.53709 6.87439
#
# Compressibility (1/GPa) = 0.02456782
#
# Stress axis : x y z
#
# Youngs Moduli (GPa) = 28.52809 40.14167 79.25612
#
# Poissons Ratio (x) = 0.41502 0.33024
# Poissons Ratio (y) = 0.29495 0.75306
# Poissons Ratio (z) = 0.11887 0.38141
#
# Static dielectric constant tensor:
#      x y z
#    x 1.626320 0.000000 0.000000 
#    y 0.000000 1.648270 0.000000 
#    z 0.000000 0.000000 1.605720 
# 
# From -- ./inp_files/19489.got.cif
#   From: 2010.05.17/outbox.cif.g08.bks.cpg/sg51_10_cif.got.tgz:19489.got - 2010.06.03 11:52:47.
