data_PCOD9403093
_publ_section_title
;
Structure prediction by ZEFSAII (Michael W. Deem and Ramdas Pophale) SiO2 
 PCOD9403093
Probable space group: P M M A
;
_chemical_formula_sum "Si O2"
_cell_formula_units_Z 48
_cell_length_a 14.307381
_cell_length_b 9.393262
_cell_length_c 16.177403
_cell_angle_alpha 90.000000
_cell_angle_beta 90.000000
_cell_angle_gamma 90.000000
_cell_volume 2174.129370
_symmetry_space_group_name_H-M "P M M A"
_symmetry_group_IT_number 51
_symmetry_cell_setting 'orthorhombic'
loop_
_space_group_symop_operation_xyz
x,y,z
1/2-x,-y,z
1/2+x,-y,-z
-x,y,-z
-x,-y,-z
1/2+x,y,-z
1/2-x,y,z
x,-y,z
loop_
_atom_site_type_symbol
_atom_site_label
_atom_site_fract_x
_atom_site_fract_y
_atom_site_fract_z
Si Si1 0.135600 0.663405 0.450694
Si Si2 0.635715 0.833904 0.387961
Si Si3 0.893641 0.161900 0.025618
Si Si4 0.635463 0.837144 0.712112
Si Si5 0.137317 0.833798 0.792749
Si Si6 0.141944 0.658471 0.133212
O O1 0.250000 0.663182 0.451320
O O2 0.105288 0.500000 0.445428
O O3 0.104899 0.739076 0.535242
O O4 0.107863 0.752990 0.370163
O O5 0.750000 0.833234 0.388730
O O6 0.606191 0.779052 0.297023
O O7 0.608481 0.000000 0.397771
O O8 0.889017 0.225657 0.117719
O O9 0.853492 0.000000 0.025339
O O10 0.855286 0.263472 0.954661
O O11 0.000000 0.147596 0.000000
O O12 0.750000 0.841089 0.713194
O O13 0.600858 0.758746 0.795115
O O14 0.603818 0.000000 0.710292
O O15 0.250000 0.829980 0.791518
O O16 0.108699 0.000000 0.794808
O O17 0.250000 0.641791 0.158244
O O18 0.099941 0.500000 0.128807
#
# Coordination Sequence:
#
# PCOD9403093 Si02
#       6
#     8   8   8   8   8   8
#     4   9  15  22  34  57  91 123 147 179 225 272
#     4   8  13  22  37  57  82 115 153 187 221 265
#     4  10  20  33  50  72  96 124 160 200 242 289
#     4   9  16  26  42  64  90 121 155 189 226 272
#     4   8  14  26  45  67  91 121 157 196 234 272
#     4  10  20  33  49  70  96 126 160 198 240 284
#
# _framework density 22.077801999999998
#
# number of rings (size 3 to 8) (size 9 to 14) (size 15 to 20)
#    0.000    3.000    0.000    3.000    0.000    6.000 
#    0.000    0.833    0.000    3.000    0.000    1.167 
#    0.000    9.333    0.000    0.000    0.000    0.000 
#
# Total GULP energy -267884.804862 kJ/mol
# GULP energy per Si atom -5580.933435 kJ/mol
# Density = 2.202755 g / cm^3
# Si number density = 22.077802 Si / 1000 Ang^3
#
#
#
# Elastic Constant Matrix: (Units=GPa)
#
#
# Indices 1 2 3 4 5 6 
#
# 1 47.9595 7.5682 14.3730 0.0000 0.0000 0.0000
# 2 7.5682 157.4291 122.6146 0.0000 0.0000 0.0000
# 3 14.3730 122.6146 257.0815 0.0000 0.0000 0.0000
# 4 0.0000 0.0000 0.0000 -75.3853 0.0000 0.0000
# 5 0.0000 0.0000 0.0000 0.0000 24.6596 0.0000
# 6 0.0000 0.0000 0.0000 0.0000 0.0000 3.0481
#
#
#
# Elastic Compliance Matrix: (Units=1/GPa)
#
#
# Indices 1 2 3 4 5 6 
#
# 1 0.021209 -0.000153 -0.001113 0.000000 0.000000 0.000000
# 2 -0.000153 0.010107 -0.004812 0.000000 0.000000 0.000000
# 3 -0.001113 -0.004812 0.006247 0.000000 0.000000 0.000000
# 4 0.000000 0.000000 0.000000 -0.013265 0.000000 0.000000
# 5 0.000000 0.000000 0.000000 0.000000 0.040552 0.000000
# 6 0.000000 0.000000 0.000000 0.000000 0.000000 0.328078
#
#
# Mechanical properties :
#
#
# Convention : Reuss Voigt Hill
#
# Bulk Modulus (GPa) = 39.35852 83.50907 61.43379
# Shear Modulus (GPa) = 12.09034 11.65876 11.87455
#
# Velocity S-wave (km/s) = 2.34268 2.30048 2.32168
# Velocity P-wave (km/s) = 5.01831 6.70547 5.92228
#
# Compressibility (1/GPa) = 0.02540746
#
# Stress axis : x y z
#
# Youngs Moduli (GPa) = 47.15082 98.93748 160.07211
#
# Poissons Ratio (x) = 0.01512 0.17814
# Poissons Ratio (y) = 0.00721 0.77029
# Poissons Ratio (z) = 0.05247 0.47610
#
# Static dielectric constant tensor:
#      x y z
#    x 1.814410 0.000000 0.000000 
#    y 0.000000 1.778510 0.000000 
#    z 0.000000 0.000000 1.798520 
# 
# From -- ./inp_files/25460.got.cif
#   From: 2010.05.17/outbox.cif.g08.bks.cpg/sg51_13_cif.got.tgz:25460.got - 2010.06.03 11:52:47.
