data_PCOD9403964
_publ_section_title
;
Structure prediction by ZEFSAII (Michael W. Deem and Ramdas Pophale) SiO2 
 PCOD9403964
Probable space group: P M M A
;
_chemical_formula_sum "Si O2"
_cell_formula_units_Z 48
_cell_length_a 7.667032
_cell_length_b 9.343287
_cell_length_c 35.427850
_cell_angle_alpha 90.000000
_cell_angle_beta 90.000000
_cell_angle_gamma 90.000000
_cell_volume 2537.883969
_symmetry_space_group_name_H-M "P M M A"
_symmetry_group_IT_number 51
_symmetry_cell_setting 'orthorhombic'
loop_
_space_group_symop_operation_xyz
x,y,z
1/2-x,-y,z
1/2+x,-y,-z
-x,y,-z
-x,-y,-z
1/2+x,y,-z
1/2-x,y,z
x,-y,z
loop_
_atom_site_type_symbol
_atom_site_label
_atom_site_fract_x
_atom_site_fract_y
_atom_site_fract_z
Si Si1 0.545247 0.830410 0.456038
Si Si2 0.454658 0.671613 0.735875
Si Si3 0.457188 0.660681 0.884228
Si Si4 0.250000 0.326652 0.322254
Si Si5 0.536995 0.836131 0.187893
Si Si6 0.750000 0.672661 0.590619
Si Si7 0.542777 0.837404 0.957842
O O1 0.500000 0.804103 0.500000
O O2 0.750000 0.801352 0.449863
O O3 0.418903 0.736759 0.430275
O O4 0.513938 0.000000 0.449215
O O5 0.250000 0.701838 0.728586
O O6 0.471191 0.500000 0.741286
O O7 0.579276 0.716097 0.701557
O O8 0.509204 0.750847 0.774242
O O9 0.250000 0.649667 0.877859
O O10 0.529747 0.500000 0.884522
O O11 0.526355 0.755478 0.849631
O O12 0.480398 0.738213 0.924119
O O13 0.250000 0.500000 0.323023
O O14 0.250000 0.280677 0.365566
O O15 0.750000 0.838217 0.186795
O O16 0.477828 0.000000 0.188803
O O17 0.750000 0.500000 0.588600
O O18 0.750000 0.845096 0.954842
O O19 0.471354 0.000000 0.954243
O O20 0.500000 0.785296 0.000000
#
# Coordination Sequence:
#
# PCOD9403964 Si02
#       7
#     8   8   8   4   8   4   8
#     4  10  20  38  62  84 113 159 207 248 297 361
#     4   9  17  33  57  79 104 144 190 229 272 335
#     4  10  20  34  54  80 108 139 176 216 261 319
#     4   9  20  37  55  81 115 153 191 231 287 351
#     4   9  17  31  53  80 108 137 172 219 273 322
#     4  11  23  37  57  89 127 157 195 253 307 359
#     4  10  21  37  56  77 102 135 174 215 263 318
#
# _framework density 18.913394
#
# number of rings (size 3 to 8) (size 9 to 14) (size 15 to 20)
#    0.000    2.333    0.833    1.750    0.000    5.667 
#    1.500    3.750    0.000    2.000    0.000    0.000 
#    0.000    0.000    0.000    0.000    0.000    0.000 
#
# Total GULP energy -267933.729841 kJ/mol
# GULP energy per Si atom -5581.952705 kJ/mol
# Density = 1.887035 g / cm^3
# Si number density = 18.913394 Si / 1000 Ang^3
#
#
#
# Elastic Constant Matrix: (Units=GPa)
#
#
# Indices 1 2 3 4 5 6 
#
# 1 82.7664 48.9760 60.0884 0.0000 0.0000 0.0000
# 2 48.9760 94.7624 93.7315 0.0000 0.0000 0.0000
# 3 60.0884 93.7315 184.3289 0.0000 0.0000 0.0000
# 4 0.0000 0.0000 0.0000 156.1817 0.0000 0.0000
# 5 0.0000 0.0000 0.0000 0.0000 26.5923 0.0000
# 6 0.0000 0.0000 0.0000 0.0000 0.0000 15.5115
#
#
#
# Elastic Compliance Matrix: (Units=1/GPa)
#
#
# Indices 1 2 3 4 5 6 
#
# 1 0.017865 -0.006987 -0.002271 0.000000 0.000000 0.000000
# 2 -0.006987 0.023964 -0.009908 0.000000 0.000000 0.000000
# 3 -0.002271 -0.009908 0.011204 0.000000 0.000000 0.000000
# 4 0.000000 0.000000 0.000000 0.006403 0.000000 0.000000
# 5 0.000000 0.000000 0.000000 0.000000 0.037605 0.000000
# 6 0.000000 0.000000 0.000000 0.000000 0.000000 0.064468
#
#
# Mechanical properties :
#
#
# Convention : Reuss Voigt Hill
#
# Bulk Modulus (GPa) = 68.02300 85.27220 76.64760
# Shear Modulus (GPa) = 24.42098 50.26123 37.34110
#
# Velocity S-wave (km/s) = 3.59723 5.16063 4.44815
# Velocity P-wave (km/s) = 7.30048 8.98293 8.18505
#
# Compressibility (1/GPa) = 0.01470091
#
# Stress axis : x y z
#
# Youngs Moduli (GPa) = 55.97399 41.72879 89.25675
#
# Poissons Ratio (x) = 0.29157 0.20269
# Poissons Ratio (y) = 0.39111 0.88437
# Poissons Ratio (z) = 0.12711 0.41345
#
# Static dielectric constant tensor:
#      x y z
#    x 1.675200 0.000000 0.000000 
#    y 0.000000 1.653030 0.000000 
#    z 0.000000 0.000000 1.628580 
# 
# From -- ./inp_files/37078.got.cif
#   From: 2010.05.17/outbox.cif.g08.bks.cpg/sg51_19_cif.got.tgz:37078.got - 2010.06.03 11:52:47.
