data_PCOD9403798
_publ_section_title
;
Structure prediction by ZEFSAII (Michael W. Deem and Ramdas Pophale) SiO2 
 PCOD9403798
Probable space group: P M M A
;
_chemical_formula_sum "Si O2"
_cell_formula_units_Z 48
_cell_length_a 30.957524
_cell_length_b 8.903490
_cell_length_c 9.622901
_cell_angle_alpha 90.000000
_cell_angle_beta 90.000000
_cell_angle_gamma 90.000000
_cell_volume 2652.360254
_symmetry_space_group_name_H-M "P M M A"
_symmetry_group_IT_number 51
_symmetry_cell_setting 'orthorhombic'
loop_
_space_group_symop_operation_xyz
x,y,z
1/2-x,-y,z
1/2+x,-y,-z
-x,y,-z
-x,-y,-z
1/2+x,y,-z
1/2-x,y,z
x,-y,z
loop_
_atom_site_type_symbol
_atom_site_label
_atom_site_fract_x
_atom_site_fract_y
_atom_site_fract_z
Si Si1 0.750000 0.830316 0.309700
Si Si2 0.179753 0.666547 0.530116
Si Si3 0.155949 0.178321 0.014879
Si Si4 0.250000 0.321812 0.982538
Si Si5 0.623888 0.822329 0.682270
Si Si6 0.105194 0.330751 0.760039
Si Si7 0.451592 0.819612 0.534628
O O1 0.790045 0.793083 0.406554
O O2 0.750000 0.715171 0.182188
O O3 0.750000 0.000000 0.257102
O O4 0.199390 0.500000 0.521828
O O5 0.161006 0.721254 0.385238
O O6 0.140723 0.658148 0.638655
O O7 0.204021 0.250871 0.031384
O O8 0.129332 0.246887 0.885832
O O9 0.162038 0.000000 0.992952
O O10 0.127151 0.200383 0.153259
O O11 0.250000 0.500000 0.007222
O O12 0.580393 0.785091 0.595690
O O13 0.632159 0.000000 0.656693
O O14 0.093155 0.500000 0.803096
O O15 0.066467 0.248295 0.678703
O O16 0.500000 0.768751 0.500000
O O17 0.451663 0.000000 0.549299
#
# Coordination Sequence:
#
# PCOD9403798 Si02
#       7
#     4   8   8   4   8   8   8
#     4  12  22  33  54  79 106 142 186 234 274 321
#     4  10  20  34  53  77 106 141 182 229 276 324
#     4  11  22  37  57  81 112 152 191 231 279 333
#     4  12  24  37  54  79 112 148 190 234 274 327
#     4   9  20  37  56  81 112 144 185 232 282 338
#     4  10  20  34  55  81 111 145 183 229 277 335
#     4   9  18  36  62  87 111 143 186 236 287 342
#
# _framework density 18.097087999999999
#
# number of rings (size 3 to 8) (size 9 to 14) (size 15 to 20)
#    0.000    1.833    1.667    3.000    0.000    3.667 
#    0.000    1.667    0.000    5.000    0.000    0.000 
#    0.000    0.000    0.000    0.000    0.000    0.000 
#
# Total GULP energy -267484.866852 kJ/mol
# GULP energy per Si atom -5572.601393 kJ/mol
# Density = 1.805590 g / cm^3
# Si number density = 18.097088 Si / 1000 Ang^3
#
#
#
# Elastic Constant Matrix: (Units=GPa)
#
#
# Indices 1 2 3 4 5 6 
#
# 1 83.5572 31.9968 31.4279 0.0000 0.0000 0.0000
# 2 31.9968 77.0777 43.4442 0.0000 0.0000 0.0000
# 3 31.4279 43.4442 98.1992 0.0000 0.0000 0.0000
# 4 0.0000 0.0000 0.0000 15.7125 0.0000 0.0000
# 5 0.0000 0.0000 0.0000 0.0000 38.7804 0.0000
# 6 0.0000 0.0000 0.0000 0.0000 0.0000 7.2871
#
#
#
# Elastic Compliance Matrix: (Units=1/GPa)
#
#
# Indices 1 2 3 4 5 6 
#
# 1 0.014740 -0.004609 -0.002678 0.000000 0.000000 0.000000
# 2 -0.004609 0.018725 -0.006809 0.000000 0.000000 0.000000
# 3 -0.002678 -0.006809 0.014053 0.000000 0.000000 0.000000
# 4 0.000000 0.000000 0.000000 0.063644 0.000000 0.000000
# 5 0.000000 0.000000 0.000000 0.000000 0.025786 0.000000
# 6 0.000000 0.000000 0.000000 0.000000 0.000000 0.137229
#
#
# Mechanical properties :
#
#
# Convention : Reuss Voigt Hill
#
# Bulk Modulus (GPa) = 51.74640 52.50802 52.12721
# Shear Modulus (GPa) = 16.19103 22.48701 19.33902
#
# Velocity S-wave (km/s) = 2.99436 3.52884 3.27253
# Velocity P-wave (km/s) = 6.37266 6.75879 6.56856
#
# Compressibility (1/GPa) = 0.01932501
#
# Stress axis : x y z
#
# Youngs Moduli (GPa) = 67.84108 53.40380 71.15972
#
# Poissons Ratio (x) = 0.24616 0.19058
# Poissons Ratio (y) = 0.31271 0.48453
# Poissons Ratio (z) = 0.18170 0.36363
#
# Static dielectric constant tensor:
#      x y z
#    x 1.625330 0.000000 0.000000 
#    y 0.000000 1.635420 0.000000 
#    z 0.000000 0.000000 1.590360 
# 
# From -- ./inp_files/12890.got.cif
#   From: 2010.05.17/outbox.cif.g08.bks.cpg/sg51_7_cif.got.tgz:12890.got - 2010.06.03 11:52:47.
