data_PCOD9403467
_publ_section_title
;
Structure prediction by ZEFSAII (Michael W. Deem and Ramdas Pophale) SiO2 
 PCOD9403467
Probable space group: P M M A
;
_chemical_formula_sum "Si O2"
_cell_formula_units_Z 48
_cell_length_a 8.672421
_cell_length_b 9.653570
_cell_length_c 31.465002
_cell_angle_alpha 90.000000
_cell_angle_beta 90.000000
_cell_angle_gamma 90.000000
_cell_volume 2634.244404
_symmetry_space_group_name_H-M "P M M A"
_symmetry_group_IT_number 51
_symmetry_cell_setting 'orthorhombic'
loop_
_space_group_symop_operation_xyz
x,y,z
1/2-x,-y,z
1/2+x,-y,-z
-x,y,-z
-x,-y,-z
1/2+x,y,-z
1/2-x,y,z
x,-y,z
loop_
_atom_site_type_symbol
_atom_site_label
_atom_site_fract_x
_atom_site_fract_y
_atom_site_fract_z
Si Si1 0.934665 0.839083 0.453672
Si Si2 0.434680 0.839311 0.046431
Si Si3 0.065400 0.339801 0.876626
Si Si4 0.936759 0.339841 0.623485
Si Si5 0.935964 0.161874 0.799867
Si Si6 0.062318 0.841583 0.296832
O O1 0.750000 0.830784 0.454522
O O2 0.000000 0.801330 0.500000
O O3 0.000629 0.742179 0.417034
O O4 0.978821 0.000000 0.445502
O O5 0.250000 0.831793 0.045591
O O6 0.498646 0.740465 0.082792
O O7 0.478455 0.000000 0.055288
O O8 0.500000 0.803430 0.000000
O O9 0.250000 0.336117 0.878632
O O10 0.014933 0.500000 0.876180
O O11 0.009807 0.260639 0.834533
O O12 0.750000 0.335352 0.622520
O O13 0.984409 0.500000 0.623151
O O14 0.988810 0.262123 0.666474
O O15 0.750000 0.173453 0.802357
O O16 0.983938 0.194576 0.751339
O O17 0.974020 0.000000 0.807960
O O18 0.250000 0.841576 0.296810
O O19 0.013726 0.000000 0.305861
#
# Coordination Sequence:
#
# PCOD9403467 Si02
#       6
#     8   8   8   8   8   8
#     4  10  21  37  57  79 102 133 175 220 265 313
#     4  10  21  38  61  86 109 137 176 220 266 317
#     4  11  24  38  52  76 111 148 183 219 263 315
#     4  10  20  33  52  80 111 142 175 212 259 315
#     4   9  18  34  57  83 107 135 177 225 269 314
#     4   8  15  30  53  79 106 137 175 219 263 309
#
# _framework density 18.221543
#
# number of rings (size 3 to 8) (size 9 to 14) (size 15 to 20)
#    0.000    2.333    0.000    3.500    0.000    8.000 
#    0.000    2.500    0.000    1.000    0.000    0.000 
#    0.000    0.000    0.000    0.000    0.000    0.000 
#
# Total GULP energy -267987.046336 kJ/mol
# GULP energy per Si atom -5583.063465 kJ/mol
# Density = 1.818007 g / cm^3
# Si number density = 18.221543 Si / 1000 Ang^3
#
#
#
# Elastic Constant Matrix: (Units=GPa)
#
#
# Indices 1 2 3 4 5 6 
#
# 1 25.2581 43.4952 42.4319 0.0000 0.0000 0.0000
# 2 43.4952 149.6443 144.4523 0.0000 0.0000 0.0000
# 3 42.4319 144.4523 191.9472 0.0000 0.0000 0.0000
# 4 0.0000 0.0000 0.0000 -14.3424 0.0000 0.0000
# 5 0.0000 0.0000 0.0000 0.0000 30.1860 0.0000
# 6 0.0000 0.0000 0.0000 0.0000 0.0000 25.0662
#
#
#
# Elastic Compliance Matrix: (Units=1/GPa)
#
#
# Indices 1 2 3 4 5 6 
#
# 1 0.079289 -0.022396 -0.000673 0.000000 0.000000 0.000000
# 2 -0.022396 0.030755 -0.018194 0.000000 0.000000 0.000000
# 3 -0.000673 -0.018194 0.019051 0.000000 0.000000 0.000000
# 4 0.000000 0.000000 0.000000 -0.069723 0.000000 0.000000
# 5 0.000000 0.000000 0.000000 0.000000 0.033128 0.000000
# 6 0.000000 0.000000 0.000000 0.000000 0.000000 0.039894
#
#
# Mechanical properties :
#
#
# Convention : Reuss Voigt Hill
#
# Bulk Modulus (GPa) = 21.47398 91.95649 56.71524
# Shear Modulus (GPa) = 21.69726 17.27995 19.48861
#
# Velocity S-wave (km/s) = 3.45446 3.08283 3.27393
# Velocity P-wave (km/s) = 5.26513 7.95281 6.74421
#
# Compressibility (1/GPa) = 0.04656798
#
# Stress axis : x y z
#
# Youngs Moduli (GPa) = 12.61207 32.51497 52.49096
#
# Poissons Ratio (x) = 0.72821 0.03534
# Poissons Ratio (y) = 0.28246 0.95503
# Poissons Ratio (z) = 0.00849 0.59158
#
# Static dielectric constant tensor:
#      x y z
#    x 1.620030 0.000000 0.000000 
#    y 0.000000 1.610560 0.000000 
#    z 0.000000 0.000000 1.599050 
# 
# From -- ./inp_files/36877.got.cif
#   From: 2010.05.17/outbox.cif.g08.bks.cpg/sg51_19_cif.got.tgz:36877.got - 2010.06.03 11:52:47.
