data_PCOD9403274
_publ_section_title
;
Structure prediction by ZEFSAII (Michael W. Deem and Ramdas Pophale) SiO2 
 PCOD9403274
Probable space group: P M M A
;
_chemical_formula_sum "Si O2"
_cell_formula_units_Z 48
_cell_length_a 9.349985
_cell_length_b 20.504296
_cell_length_c 11.565503
_cell_angle_alpha 90.000000
_cell_angle_beta 90.000000
_cell_angle_gamma 90.000000
_cell_volume 2217.278789
_symmetry_space_group_name_H-M "P M M A"
_symmetry_group_IT_number 51
_symmetry_cell_setting 'orthorhombic'
loop_
_space_group_symop_operation_xyz
x,y,z
1/2-x,-y,z
1/2+x,-y,-z
-x,y,-z
-x,-y,-z
1/2+x,y,-z
1/2-x,y,z
x,-y,z
loop_
_atom_site_type_symbol
_atom_site_label
_atom_site_fract_x
_atom_site_fract_y
_atom_site_fract_z
Si Si1 0.910785 0.400657 0.393337
Si Si2 0.915770 0.250601 0.337486
Si Si3 0.577450 0.878504 0.615809
Si Si4 0.407775 0.571007 0.173339
Si Si5 0.084853 0.284095 0.107662
Si Si6 0.083746 0.921374 0.118496
O O1 0.750000 0.422160 0.402143
O O2 0.913721 0.321469 0.396263
O O3 0.000000 0.425384 0.500000
O O4 0.976369 0.422394 0.272519
O O5 0.750000 0.227581 0.332920
O O6 0.021606 0.195820 0.384950
O O7 0.986055 0.265943 0.214354
O O8 0.500000 0.908563 0.500000
O O9 0.750000 0.884063 0.604150
O O10 0.539080 0.901489 0.748665
O O11 0.250000 0.573173 0.230228
O O12 0.419375 0.500000 0.115757
O O13 0.411976 0.636852 0.099907
O O14 0.250000 0.262818 0.119319
O O15 0.000000 0.256561 0.000000
O O16 0.250000 0.901025 0.106776
O O17 0.077677 0.000000 0.118604
O O18 0.000000 0.900593 0.000000
#
# Coordination Sequence:
#
# PCOD9403274 Si02
#       6
#     8   8   8   8   8   8
#     4  10  20  33  51  73  97 130 169 212 264 324
#     4  10  21  37  56  79 109 144 184 230 283 340
#     4  11  23  38  59  90 126 162 202 248 298 354
#     4   9  19  35  52  71  97 129 167 214 268 327
#     4  10  20  35  55  78 105 138 179 226 278 339
#     4   9  20  40  64  90 122 161 205 251 298 350
#
# _framework density 21.648157000000001
#
# number of rings (size 3 to 8) (size 9 to 14) (size 15 to 20)
#    0.000    2.167    0.000    2.500    0.000    7.333 
#    0.000    1.667    0.000    0.000    0.000    0.000 
#    0.000    0.000    0.000    0.000    0.000    0.000 
#
# Total GULP energy -267459.678605 kJ/mol
# GULP energy per Si atom -5572.076638 kJ/mol
# Density = 2.159889 g / cm^3
# Si number density = 21.648157 Si / 1000 Ang^3
#
#
#
# Elastic Constant Matrix: (Units=GPa)
#
#
# Indices 1 2 3 4 5 6 
#
# 1 123.5915 -2.5918 67.8303 0.0000 0.0000 0.0000
# 2 -2.5918 72.8271 15.5867 0.0000 0.0000 0.0000
# 3 67.8303 15.5867 133.0592 0.0000 0.0000 0.0000
# 4 0.0000 0.0000 0.0000 376.1455 0.0000 0.0000
# 5 0.0000 0.0000 0.0000 0.0000 35.3950 0.0000
# 6 0.0000 0.0000 0.0000 0.0000 0.0000 6.3700
#
#
#
# Elastic Compliance Matrix: (Units=1/GPa)
#
#
# Indices 1 2 3 4 5 6 
#
# 1 0.011435 0.001697 -0.006028 0.000000 0.000000 0.000000
# 2 0.001697 0.014336 -0.002545 0.000000 0.000000 0.000000
# 3 -0.006028 -0.002545 0.010887 0.000000 0.000000 0.000000
# 4 0.000000 0.000000 0.000000 0.002659 0.000000 0.000000
# 5 0.000000 0.000000 0.000000 0.000000 0.028253 0.000000
# 6 0.000000 0.000000 0.000000 0.000000 0.000000 0.156985
#
#
# Mechanical properties :
#
#
# Convention : Reuss Voigt Hill
#
# Bulk Modulus (GPa) = 43.65528 54.56982 49.11255
# Shear Modulus (GPa) = 20.33008 100.15894 60.24451
#
# Velocity S-wave (km/s) = 3.06782 6.80934 5.28104
# Velocity P-wave (km/s) = 5.72349 9.33195 7.74091
#
# Compressibility (1/GPa) = 0.02290674
#
# Stress axis : x y z
#
# Youngs Moduli (GPa) = 87.44940 69.75384 91.85659
#
# Poissons Ratio (x) = -0.11838 0.55373
# Poissons Ratio (y) = -0.14841 0.23373
# Poissons Ratio (z) = 0.52716 0.17749
#
# Static dielectric constant tensor:
#      x y z
#    x 1.750490 0.000000 0.000000 
#    y 0.000000 1.842640 0.000000 
#    z 0.000000 0.000000 1.668710 
# 
# From -- ./inp_files/14454.got.cif
#   From: 2010.05.17/outbox.cif.g08.bks.cpg/sg51_8_cif.got.tgz:14454.got - 2010.06.03 11:52:47.
