data_PCOD9403520
_publ_section_title
;
Structure prediction by ZEFSAII (Michael W. Deem and Ramdas Pophale) SiO2 
 PCOD9403520
Probable space group: P M M A
;
_chemical_formula_sum "Si O2"
_cell_formula_units_Z 64
_cell_length_a 9.335406
_cell_length_b 14.228577
_cell_length_c 26.806720
_cell_angle_alpha 90.000000
_cell_angle_beta 90.000000
_cell_angle_gamma 90.000000
_cell_volume 3560.724370
_symmetry_space_group_name_H-M "P M M A"
_symmetry_group_IT_number 51
_symmetry_cell_setting 'orthorhombic'
loop_
_space_group_symop_operation_xyz
x,y,z
1/2-x,-y,z
1/2+x,-y,-z
-x,y,-z
-x,-y,-z
1/2+x,y,-z
1/2-x,y,z
x,-y,z
loop_
_atom_site_type_symbol
_atom_site_label
_atom_site_fract_x
_atom_site_fract_y
_atom_site_fract_z
Si Si1 0.082903 0.613214 0.846247
Si Si2 0.080931 0.111737 0.697129
Si Si3 0.412793 0.114035 0.202219
Si Si4 0.077873 0.729222 0.351612
Si Si5 0.919904 0.108256 0.102037
Si Si6 0.579011 0.610385 0.746820
Si Si7 0.078565 0.609598 0.448986
Si Si8 0.079585 0.704767 0.950427
O O1 0.250000 0.639748 0.840358
O O2 0.073756 0.500000 0.848548
O O3 0.033205 0.653957 0.899253
O O4 0.996533 0.644543 0.797413
O O5 0.250000 0.130408 0.700175
O O6 0.003477 0.138632 0.749046
O O7 0.005317 0.173571 0.655017
O O8 0.061155 0.000000 0.689752
O O9 0.250000 0.150143 0.204908
O O10 0.492520 0.137984 0.151055
O O11 0.405976 0.000000 0.202128
O O12 0.250000 0.743820 0.350862
O O13 0.040490 0.666224 0.303156
O O14 0.040367 0.673584 0.401829
O O15 0.750000 0.111625 0.113794
O O16 0.946741 0.184422 0.059418
O O17 0.955506 0.000000 0.089360
O O18 0.750000 0.616799 0.753127
O O19 0.542681 0.500000 0.740220
O O20 0.250000 0.615441 0.455854
O O21 0.043904 0.500000 0.438403
O O22 0.000000 0.636634 0.500000
O O23 0.250000 0.689929 0.955795
O O24 0.000000 0.672819 0.000000
#
# Coordination Sequence:
#
# PCOD9403520 Si02
#       8
#     8   8   8   8   8   8   8   8
#     4   9  19  36  54  72  98 130 163 205 256 306
#     4  10  21  35  50  72 106 146 184 223 267 314
#     4   9  17  30  49  73  99 129 168 211 254 305
#     4  10  20  33  53  82 112 145 182 224 269 312
#     4   9  18  33  51  71  98 130 161 199 252 310
#     4   9  18  33  53  79 109 138 169 206 255 317
#     4   9  18  34  56  82 115 152 187 226 271 319
#     4  10  22  37  52  72  95 124 163 209 256 308
#
# _framework density 17.973870000000002
#
# number of rings (size 3 to 8) (size 9 to 14) (size 15 to 20)
#    0.000    2.625    0.000    1.125    1.750    6.250 
#    0.000    0.000    0.000    4.125    0.000    0.000 
#    0.000    0.000    0.000    0.000    0.000    0.000 
#
# Total GULP energy -357143.215702 kJ/mol
# GULP energy per Si atom -5580.362745 kJ/mol
# Density = 1.793296 g / cm^3
# Si number density = 17.973870 Si / 1000 Ang^3
#
#
#
# Elastic Constant Matrix: (Units=GPa)
#
#
# Indices 1 2 3 4 5 6 
#
# 1 46.2778 31.4173 58.0124 0.0000 0.0000 0.0000
# 2 31.4173 48.6883 44.2630 0.0000 0.0000 0.0000
# 3 58.0124 44.2630 136.9804 0.0000 0.0000 0.0000
# 4 0.0000 0.0000 0.0000 28.3378 0.0000 0.0000
# 5 0.0000 0.0000 0.0000 0.0000 32.5734 0.0000
# 6 0.0000 0.0000 0.0000 0.0000 0.0000 19.4322
#
#
#
# Elastic Compliance Matrix: (Units=1/GPa)
#
#
# Indices 1 2 3 4 5 6 
#
# 1 0.058688 -0.021627 -0.017866 0.000000 0.000000 0.000000
# 2 -0.021627 0.037052 -0.002813 0.000000 0.000000 0.000000
# 3 -0.017866 -0.002813 0.015776 0.000000 0.000000 0.000000
# 4 0.000000 0.000000 0.000000 0.035289 0.000000 0.000000
# 5 0.000000 0.000000 0.000000 0.000000 0.030700 0.000000
# 6 0.000000 0.000000 0.000000 0.000000 0.000000 0.051461
#
#
# Mechanical properties :
#
#
# Convention : Reuss Voigt Hill
#
# Bulk Modulus (GPa) = 37.17226 55.48131 46.32679
# Shear Modulus (GPa) = 15.50166 22.61895 19.06031
#
# Velocity S-wave (km/s) = 2.93995 3.55129 3.25998
# Velocity P-wave (km/s) = 5.67896 6.91016 6.32459
#
# Compressibility (1/GPa) = 0.02690178
#
# Stress axis : x y z
#
# Youngs Moduli (GPa) = 17.03934 26.98912 63.38766
#
# Poissons Ratio (x) = 0.58370 1.13250
# Poissons Ratio (y) = 0.36851 0.17833
# Poissons Ratio (z) = 0.30443 0.07593
#
# Static dielectric constant tensor:
#      x y z
#    x 1.605120 0.000000 0.000000 
#    y 0.000000 1.654260 0.000000 
#    z 0.000000 0.000000 1.580720 
# 
# From -- ./inp_files/34837.got.cif
#   From: 2010.05.17/outbox.cif.g08.bks.cpg/sg51_18_cif.got.tgz:34837.got - 2010.06.03 11:52:47.
