data_PCOD9403908
_publ_section_title
;
Structure prediction by ZEFSAII (Michael W. Deem and Ramdas Pophale) SiO2 
 PCOD9403908
Probable space group: P M M A
;
_chemical_formula_sum "Si O2"
_cell_formula_units_Z 40
_cell_length_a 9.113441
_cell_length_b 14.591910
_cell_length_c 16.298132
_cell_angle_alpha 90.000000
_cell_angle_beta 90.000000
_cell_angle_gamma 90.000000
_cell_volume 2167.366516
_symmetry_space_group_name_H-M "P M M A"
_symmetry_group_IT_number 51
_symmetry_cell_setting 'orthorhombic'
loop_
_space_group_symop_operation_xyz
x,y,z
1/2-x,-y,z
1/2+x,-y,-z
-x,y,-z
-x,-y,-z
1/2+x,y,-z
1/2-x,y,z
x,-y,z
loop_
_atom_site_type_symbol
_atom_site_label
_atom_site_fract_x
_atom_site_fract_y
_atom_site_fract_z
Si Si1 0.425030 0.102850 0.246623
Si Si2 0.422019 0.609229 0.581551
Si Si3 0.085864 0.107852 0.924785
Si Si4 0.073645 0.391905 0.911855
Si Si5 0.427093 0.289188 0.743917
O O1 0.250000 0.111981 0.251534
O O2 0.481353 0.108601 0.153119
O O3 0.507504 0.190755 0.281335
O O4 0.464655 0.000000 0.276716
O O5 0.500000 0.646168 0.500000
O O6 0.250000 0.630646 0.574974
O O7 0.439000 0.500000 0.581863
O O8 0.473415 0.644902 0.669712
O O9 0.250000 0.145576 0.909874
O O10 0.106067 0.000000 0.943718
O O11 0.000000 0.152051 0.000000
O O12 0.250000 0.383474 0.920121
O O13 0.042491 0.500000 0.893285
O O14 0.027585 0.328835 0.833778
O O15 0.000000 0.371146 0.000000
O O16 0.250000 0.284409 0.746165
#
# Coordination Sequence:
#
# PCOD9403908 Si02
#       5
#     8   8   8   8   8
#     4  10  21  35  49  68  97 133 174 221 268 310
#     4   9  18  34  57  85 114 140 167 205 258 318
#     4   9  16  27  44  64  87 119 162 212 263 311
#     4   9  18  33  52  75 105 140 176 213 254 304
#     4  10  20  34  54  78 105 140 178 215 259 313
#
# _framework density 18.455577000000002
#
# number of rings (size 3 to 8) (size 9 to 14) (size 15 to 20)
#    0.000    2.600    0.000    1.800    0.000    8.400 
#    0.000    2.000    0.000    6.600    0.000    0.000 
#    0.000    0.000    0.000    0.000    0.000    0.000 
#
# Total GULP energy -222751.374317 kJ/mol
# GULP energy per Si atom -5568.784358 kJ/mol
# Density = 1.841357 g / cm^3
# Si number density = 18.455577 Si / 1000 Ang^3
#
#
#
# Elastic Constant Matrix: (Units=GPa)
#
#
# Indices 1 2 3 4 5 6 
#
# 1 19.1136 25.7710 28.7264 0.0000 0.0000 0.0000
# 2 25.7710 35.0687 23.5360 0.0000 0.0000 0.0000
# 3 28.7264 23.5360 97.3424 0.0000 0.0000 0.0000
# 4 0.0000 0.0000 0.0000 -61.9472 0.0000 0.0000
# 5 0.0000 0.0000 0.0000 0.0000 23.2521 0.0000
# 6 0.0000 0.0000 0.0000 0.0000 0.0000 18.6293
#
#
#
# Elastic Compliance Matrix: (Units=1/GPa)
#
#
# Indices 1 2 3 4 5 6 
#
# 1 -0.700759 0.449045 0.098226 0.000000 0.000000 0.000000
# 2 0.449045 -0.253708 -0.071173 0.000000 0.000000 0.000000
# 3 0.098226 -0.071173 -0.001506 0.000000 0.000000 0.000000
# 4 0.000000 0.000000 0.000000 -0.016143 0.000000 0.000000
# 5 0.000000 0.000000 0.000000 0.000000 0.043007 0.000000
# 6 0.000000 0.000000 0.000000 0.000000 0.000000 0.053679
#
#
# Mechanical properties :
#
#
# Convention : Reuss Voigt Hill
#
# Bulk Modulus (GPa) = -264.76248 34.17683 -115.29283
# Shear Modulus (GPa) = -2.73391 0.88625 -0.92383
#
# Velocity S-wave (km/s) = -1.21843 0.69372 -0.70828
# Velocity P-wave (km/s) = 12.07270 4.38181 7.95456
#
# Compressibility (1/GPa) = -0.00377697
#
# Stress axis : x y z
#
# Youngs Moduli (GPa) = -1.42702 -3.94154 -664.21903
#
# Poissons Ratio (x) = 1.76993 65.24372
# Poissons Ratio (y) = 0.64080 -47.27466
# Poissons Ratio (z) = 0.14017 -0.28053
#
# Static dielectric constant tensor:
#      x y z
#    x 1.648020 0.000000 0.000000 
#    y 0.000000 1.714850 0.000000 
#    z 0.000000 0.000000 1.679240 
# 
# From -- ./inp_files/20494.got.cif
#   From: 2010.05.17/outbox.cif.g08.bks.cpg/sg51_11_cif.got.tgz:20494.got - 2010.06.03 11:52:47.
