data_PCOD9403149
_publ_section_title
;
Structure prediction by ZEFSAII (Michael W. Deem and Ramdas Pophale) SiO2 
 PCOD9403149
Probable space group: P M M A
;
_chemical_formula_sum "Si O2"
_cell_formula_units_Z 44
_cell_length_a 9.017925
_cell_length_b 15.665704
_cell_length_c 18.199134
_cell_angle_alpha 90.000000
_cell_angle_beta 90.000000
_cell_angle_gamma 90.000000
_cell_volume 2571.030674
_symmetry_space_group_name_H-M "P M M A"
_symmetry_group_IT_number 51
_symmetry_cell_setting 'orthorhombic'
loop_
_space_group_symop_operation_xyz
x,y,z
1/2-x,-y,z
1/2+x,-y,-z
-x,y,-z
-x,-y,-z
1/2+x,y,-z
1/2-x,y,z
x,-y,z
loop_
_atom_site_type_symbol
_atom_site_label
_atom_site_fract_x
_atom_site_fract_y
_atom_site_fract_z
Si Si1 0.071803 0.597029 0.420261
Si Si2 0.428713 0.272503 0.292630
Si Si3 0.072682 0.094867 0.229131
Si Si4 0.575680 0.335968 0.143952
Si Si5 0.925041 0.152432 0.077095
Si Si6 0.574870 0.500000 0.921294
O O1 0.250000 0.599417 0.427461
O O2 0.032732 0.500000 0.394383
O O3 0.029283 0.672105 0.363855
O O4 0.000000 0.608920 0.500000
O O5 0.250000 0.282483 0.282986
O O6 0.461653 0.171117 0.286337
O O7 0.516151 0.309732 0.223464
O O8 0.250000 0.098179 0.216786
O O9 0.995824 0.111286 0.150271
O O10 0.033324 0.000000 0.255370
O O11 0.750000 0.356318 0.145563
O O12 0.555523 0.254192 0.090872
O O13 0.481540 0.415866 0.118733
O O14 0.750000 0.133868 0.074659
O O15 0.000000 0.127656 0.000000
O O16 0.750000 0.500000 0.927681
O O17 0.500000 0.500000 0.000000
#
# Coordination Sequence:
#
# PCOD9403149 Si02
#       6
#     8   8   8   8   8   4
#     4   9  18  32  51  77 107 136 167 201 244 298
#     4   9  18  33  53  76 102 133 168 208 252 301
#     4   9  18  33  52  73  97 128 168 211 257 306
#     4  10  21  35  50  72  98 129 170 212 255 305
#     4  10  20  33  50  70  96 128 165 211 261 309
#     4  12  24  36  50  68  95 132 173 216 258 300
#
# _framework density 17.113759000000002
#
# number of rings (size 3 to 8) (size 9 to 14) (size 15 to 20)
#    0.000    2.364    0.000    2.455    1.273    5.091 
#    0.000    0.000    0.000    0.545    0.000    0.000 
#    0.000    0.000    0.000    0.000    0.000    0.000 
#
# Total GULP energy -245335.850324 kJ/mol
# GULP energy per Si atom -5575.814780 kJ/mol
# Density = 1.707481 g / cm^3
# Si number density = 17.113759 Si / 1000 Ang^3
#
#
#
# Elastic Constant Matrix: (Units=GPa)
#
#
# Indices 1 2 3 4 5 6 
#
# 1 47.0197 52.3316 26.7961 0.0000 0.0000 0.0000
# 2 52.3316 139.0013 64.0396 0.0000 0.0000 0.0000
# 3 26.7961 64.0396 86.1644 0.0000 0.0000 0.0000
# 4 0.0000 0.0000 0.0000 3.4642 0.0000 0.0000
# 5 0.0000 0.0000 0.0000 0.0000 26.8251 0.0000
# 6 0.0000 0.0000 0.0000 0.0000 0.0000 16.1436
#
#
#
# Elastic Compliance Matrix: (Units=1/GPa)
#
#
# Indices 1 2 3 4 5 6 
#
# 1 0.036778 -0.013043 -0.001744 0.000000 0.000000 0.000000
# 2 -0.013043 0.015566 -0.007513 0.000000 0.000000 0.000000
# 3 -0.001744 -0.007513 0.017732 0.000000 0.000000 0.000000
# 4 0.000000 0.000000 0.000000 0.288666 0.000000 0.000000
# 5 0.000000 0.000000 0.000000 0.000000 0.037279 0.000000
# 6 0.000000 0.000000 0.000000 0.000000 0.000000 0.061944
#
#
# Mechanical properties :
#
#
# Convention : Reuss Voigt Hill
#
# Bulk Modulus (GPa) = 39.25157 62.05776 50.65466
# Shear Modulus (GPa) = 9.78370 17.88780 13.83575
#
# Velocity S-wave (km/s) = 2.39359 3.23651 2.84642
# Velocity P-wave (km/s) = 5.53394 7.09276 6.36128
#
# Compressibility (1/GPa) = 0.02547669
#
# Stress axis : x y z
#
# Youngs Moduli (GPa) = 27.19036 64.24340 56.39645
#
# Poissons Ratio (x) = 0.83792 0.09833
# Poissons Ratio (y) = 0.35464 0.42369
# Poissons Ratio (z) = 0.04741 0.48264
#
# Static dielectric constant tensor:
#      x y z
#    x 1.565180 0.000000 0.000000 
#    y 0.000000 1.615810 0.000000 
#    z 0.000000 0.000000 1.523670 
# 
# From -- ./inp_files/20862.got.cif
#   From: 2010.05.17/outbox.cif.g08.bks.cpg/sg51_11_cif.got.tgz:20862.got - 2010.06.03 11:52:47.
