data_PCOD9403095
_publ_section_title
;
Structure prediction by ZEFSAII (Michael W. Deem and Ramdas Pophale) SiO2 
 PCOD9403095
Probable space group: P M M A
;
_chemical_formula_sum "Si O2"
_cell_formula_units_Z 64
_cell_length_a 23.512865
_cell_length_b 9.496571
_cell_length_c 18.313539
_cell_angle_alpha 90.000000
_cell_angle_beta 90.000000
_cell_angle_gamma 90.000000
_cell_volume 4089.259276
_symmetry_space_group_name_H-M "P M M A"
_symmetry_group_IT_number 51
_symmetry_cell_setting 'orthorhombic'
loop_
_space_group_symop_operation_xyz
x,y,z
1/2-x,-y,z
1/2+x,-y,-z
-x,y,-z
-x,-y,-z
1/2+x,y,-z
1/2-x,y,z
x,-y,z
loop_
_atom_site_type_symbol
_atom_site_label
_atom_site_fract_x
_atom_site_fract_y
_atom_site_fract_z
Si Si1 0.874195 0.667641 0.861723
Si Si2 0.502031 0.667610 0.085553
Si Si3 0.610217 0.832293 0.138005
Si Si4 0.819121 0.838601 0.563947
Si Si5 0.817244 0.835349 0.992427
Si Si6 0.683039 0.831727 0.280347
Si Si7 0.682288 0.168433 0.730381
Si Si8 0.680788 0.661312 0.425144
O O1 0.864915 0.500000 0.858096
O O2 0.940688 0.692895 0.878528
O O3 0.839674 0.735743 0.928707
O O4 0.852807 0.743601 0.788730
O O5 0.513414 0.500000 0.087024
O O6 0.552033 0.749341 0.126166
O O7 0.500000 0.710662 0.000000
O O8 0.644761 0.793550 0.210894
O O9 0.599333 0.000000 0.140824
O O10 0.649661 0.805918 0.067345
O O11 0.750000 0.839081 0.562799
O O12 0.834445 0.797870 0.646684
O O13 0.838790 0.737552 0.499249
O O14 0.837120 0.000000 0.550671
O O15 0.750000 0.818160 0.002996
O O16 0.827529 0.000000 0.972766
O O17 0.750000 0.802234 0.265591
O O18 0.665457 0.748895 0.353055
O O19 0.678534 0.000000 0.292517
O O20 0.750000 0.196543 0.739164
O O21 0.674734 0.000000 0.740643
O O22 0.750000 0.661172 0.427280
O O23 0.661822 0.500000 0.421182
#
# Coordination Sequence:
#
# PCOD9403095 Si02
#       8
#     8   8   8   8   8   8   8   8
#     4  11  22  34  49  69  93 125 163 199 239 286
#     4  10  21  38  53  66  91 125 160 203 249 288
#     4  10  20  33  52  74  92 119 163 205 239 280
#     4   8  14  26  44  65  92 128 162 189 227 279
#     4  10  20  33  49  70  97 125 153 191 240 288
#     4   9  17  30  47  69 100 131 157 192 239 288
#     4   9  18  32  49  71 100 130 159 195 240 287
#     4   9  16  25  40  66  98 130 163 194 225 270
#
# _framework density 15.650755999999999
#
# number of rings (size 3 to 8) (size 9 to 14) (size 15 to 20)
#    0.000    2.500    1.250    2.250    0.000    7.250 
#    0.000    1.250    0.000    2.250    0.000    0.875 
#    0.000    7.000    0.000    0.000    0.000    0.000 
#
# Total GULP energy -356821.158478 kJ/mol
# GULP energy per Si atom -5575.330601 kJ/mol
# Density = 1.561513 g / cm^3
# Si number density = 15.650756 Si / 1000 Ang^3
#
#
#
# Elastic Constant Matrix: (Units=GPa)
#
#
# Indices 1 2 3 4 5 6 
#
# 1 51.2889 34.3152 37.9704 0.0000 0.0000 0.0000
# 2 34.3152 53.9220 64.8466 0.0000 0.0000 0.0000
# 3 37.9704 64.8466 130.0541 0.0000 0.0000 0.0000
# 4 0.0000 0.0000 0.0000 14.9637 0.0000 0.0000
# 5 0.0000 0.0000 0.0000 0.0000 0.4638 0.0000
# 6 0.0000 0.0000 0.0000 0.0000 0.0000 21.4758
#
#
#
# Elastic Compliance Matrix: (Units=1/GPa)
#
#
# Indices 1 2 3 4 5 6 
#
# 1 0.034197 -0.024367 0.002165 0.000000 0.000000 0.000000
# 2 -0.024367 0.063683 -0.024639 0.000000 0.000000 0.000000
# 3 0.002165 -0.024639 0.019342 0.000000 0.000000 0.000000
# 4 0.000000 0.000000 0.000000 0.066828 0.000000 0.000000
# 5 0.000000 0.000000 0.000000 0.000000 2.156074 0.000000
# 6 0.000000 0.000000 0.000000 0.000000 0.000000 0.046564
#
#
# Mechanical properties :
#
#
# Convention : Reuss Voigt Hill
#
# Bulk Modulus (GPa) = 42.47810 56.61438 49.54624
# Shear Modulus (GPa) = 2.00947 13.92285 7.96616
#
# Velocity S-wave (km/s) = 1.13434 2.98585 2.25854
# Velocity P-wave (km/s) = 5.37734 6.93824 6.20705
#
# Compressibility (1/GPa) = 0.02354154
#
# Stress axis : x y z
#
# Youngs Moduli (GPa) = 29.24234 15.70287 51.70048
#
# Poissons Ratio (x) = 0.38263 -0.11195
# Poissons Ratio (y) = 0.71254 1.27384
# Poissons Ratio (z) = -0.06332 0.38690
#
# Static dielectric constant tensor:
#      x y z
#    x 1.493290 0.000000 0.000000 
#    y 0.000000 1.522370 0.000000 
#    z 0.000000 0.000000 1.514940 
# 
# From -- ./inp_files/30834.got.cif
#   From: 2010.05.17/outbox.cif.g08.bks.cpg/sg51_16_cif.got.tgz:30834.got - 2010.06.03 11:52:47.
