data_PCOD9403736
_publ_section_title
;
Structure prediction by ZEFSAII (Michael W. Deem and Ramdas Pophale) SiO2 
 PCOD9403736
Probable space group: P M M A
;
_chemical_formula_sum "Si O2"
_cell_formula_units_Z 56
_cell_length_a 14.706481
_cell_length_b 9.148432
_cell_length_c 21.891311
_cell_angle_alpha 90.000000
_cell_angle_beta 90.000000
_cell_angle_gamma 90.000000
_cell_volume 2945.284158
_symmetry_space_group_name_H-M "P M M A"
_symmetry_group_IT_number 51
_symmetry_cell_setting 'orthorhombic'
loop_
_space_group_symop_operation_xyz
x,y,z
1/2-x,-y,z
1/2+x,-y,-z
-x,y,-z
-x,-y,-z
1/2+x,y,-z
1/2-x,y,z
x,-y,z
loop_
_atom_site_type_symbol
_atom_site_label
_atom_site_fract_x
_atom_site_fract_y
_atom_site_fract_z
Si Si1 0.899260 0.834806 0.027978
Si Si2 0.646531 0.321834 0.522744
Si Si3 0.641854 0.674445 0.152950
Si Si4 0.532291 0.677660 0.405971
Si Si5 0.480403 0.676088 0.730759
Si Si6 0.141674 0.827632 0.207338
Si Si7 0.354932 0.339866 0.088137
O O1 0.893195 0.763386 0.094351
O O2 0.862155 0.000000 0.028744
O O3 0.854122 0.729174 0.978536
O O4 0.000000 0.842868 0.000000
O O5 0.750000 0.271584 0.533186
O O6 0.648474 0.500000 0.523614
O O7 0.568544 0.277306 0.571067
O O8 0.606177 0.277025 0.456603
O O9 0.750000 0.699460 0.159295
O O10 0.628697 0.500000 0.142856
O O11 0.588284 0.716124 0.214575
O O12 0.532822 0.500000 0.406904
O O13 0.550532 0.723453 0.336700
O O14 0.487534 0.500000 0.731068
O O15 0.578756 0.743174 0.745213
O O16 0.250000 0.803726 0.216271
O O17 0.110711 0.767694 0.140694
O O18 0.125746 0.000000 0.209915
O O19 0.250000 0.358125 0.104856
O O20 0.400027 0.500000 0.089244
#
# Coordination Sequence:
#
# PCOD9403736 Si02
#       7
#     8   8   8   8   8   8   8
#     4  11  23  36  52  75 100 128 167 216 268 319
#     4   8  13  23  41  67 102 138 168 206 256 305
#     4  10  22  38  53  73 104 141 181 223 266 314
#     4   8  15  26  41  68 102 134 171 210 253 307
#     4  10  20  34  53  76 105 141 179 221 265 311
#     4  10  21  36  53  75 105 139 175 218 269 325
#     4  10  20  34  53  75  97 123 159 205 257 311
#
# _framework density 19.013445000000001
#
# number of rings (size 3 to 8) (size 9 to 14) (size 15 to 20)
#    0.000    2.429    0.000    3.429    0.000    8.857 
#    0.000    4.286    0.000    0.000    0.000    2.000 
#    0.000    1.143    0.000    0.000    0.000    0.000 
#
# Total GULP energy -312144.842792 kJ/mol
# GULP energy per Si atom -5574.015050 kJ/mol
# Density = 1.897017 g / cm^3
# Si number density = 19.013445 Si / 1000 Ang^3
#
#
#
# Elastic Constant Matrix: (Units=GPa)
#
#
# Indices 1 2 3 4 5 6 
#
# 1 78.7150 12.7474 14.3953 0.0000 0.0000 0.0000
# 2 12.7474 28.7618 13.0477 0.0000 0.0000 0.0000
# 3 14.3953 13.0477 93.3887 0.0000 0.0000 0.0000
# 4 0.0000 0.0000 0.0000 -12.7480 0.0000 0.0000
# 5 0.0000 0.0000 0.0000 0.0000 15.7800 0.0000
# 6 0.0000 0.0000 0.0000 0.0000 0.0000 4.1342
#
#
#
# Elastic Compliance Matrix: (Units=1/GPa)
#
#
# Indices 1 2 3 4 5 6 
#
# 1 0.013847 -0.005519 -0.001363 0.000000 0.000000 0.000000
# 2 -0.005519 0.039320 -0.004643 0.000000 0.000000 0.000000
# 3 -0.001363 -0.004643 0.011567 0.000000 0.000000 0.000000
# 4 0.000000 0.000000 0.000000 -0.078444 0.000000 0.000000
# 5 0.000000 0.000000 0.000000 0.000000 0.063371 0.000000
# 6 0.000000 0.000000 0.000000 0.000000 0.000000 0.241882
#
#
# Mechanical properties :
#
#
# Convention : Reuss Voigt Hill
#
# Bulk Modulus (GPa) = 23.98983 31.24961 27.61972
# Shear Modulus (GPa) = 15.22121 12.14493 13.68307
#
# Velocity S-wave (km/s) = 2.83247 2.53010 2.68554
# Velocity P-wave (km/s) = 4.83134 5.00064 4.91672
#
# Compressibility (1/GPa) = 0.04168433
#
# Stress axis : x y z
#
# Youngs Moduli (GPa) = 72.21728 25.43205 86.45445
#
# Poissons Ratio (x) = 0.14035 0.11787
# Poissons Ratio (y) = 0.39854 0.40141
# Poissons Ratio (z) = 0.09846 0.11808
#
# Static dielectric constant tensor:
#      x y z
#    x 1.635420 0.000000 0.000000 
#    y 0.000000 1.653170 0.000000 
#    z 0.000000 0.000000 1.652110 
# 
# From -- ./inp_files/33386.got.cif
#   From: 2010.05.17/outbox.cif.g08.bks.cpg/sg51_17_cif.got.tgz:33386.got - 2010.06.03 11:52:47.
