data_PCOD9403961
_publ_section_title
;
Structure prediction by ZEFSAII (Michael W. Deem and Ramdas Pophale) SiO2 
 PCOD9403961
Probable space group: P M M A
;
_chemical_formula_sum "Si O2"
_cell_formula_units_Z 40
_cell_length_a 9.183989
_cell_length_b 9.204611
_cell_length_c 26.679340
_cell_angle_alpha 90.000000
_cell_angle_beta 90.000000
_cell_angle_gamma 90.000000
_cell_volume 2255.339239
_symmetry_space_group_name_H-M "P M M A"
_symmetry_group_IT_number 51
_symmetry_cell_setting 'orthorhombic'
loop_
_space_group_symop_operation_xyz
x,y,z
1/2-x,-y,z
1/2+x,-y,-z
-x,y,-z
-x,-y,-z
1/2+x,y,-z
1/2-x,y,z
x,-y,z
loop_
_atom_site_type_symbol
_atom_site_label
_atom_site_fract_x
_atom_site_fract_y
_atom_site_fract_z
Si Si1 0.423910 0.827275 0.847939
Si Si2 0.417697 0.177202 0.050180
Si Si3 0.422209 0.326559 0.447896
Si Si4 0.424089 0.827743 0.644862
Si Si5 0.572718 0.332902 0.253270
O O1 0.250000 0.807014 0.853911
O O2 0.503272 0.778368 0.898587
O O3 0.473679 0.743568 0.798239
O O4 0.448773 0.000000 0.841154
O O5 0.250000 0.222429 0.049508
O O6 0.420973 0.000000 0.049752
O O7 0.500000 0.225982 0.000000
O O8 0.500000 0.286092 0.500000
O O9 0.250000 0.298520 0.451192
O O10 0.443379 0.500000 0.440700
O O11 0.493161 0.242686 0.401683
O O12 0.250000 0.802799 0.639064
O O13 0.471450 0.753750 0.697017
O O14 0.447976 0.000000 0.647120
O O15 0.750000 0.330652 0.252720
O O16 0.525742 0.500000 0.255616
#
# Coordination Sequence:
#
# PCOD9403961 Si02
#       5
#     8   8   8   8   8
#     4   9  16  27  45  69  96 125 159 200 243 288
#     4   9  16  26  42  66  95 125 157 195 241 291
#     4  10  21  37  57  80 106 138 175 213 255 304
#     4  10  20  34  54  80 108 138 173 213 256 302
#     4   9  17  30  50  74  99 130 168 207 247 295
#
# _framework density 17.735692
#
# number of rings (size 3 to 8) (size 9 to 14) (size 15 to 20)
#    0.000    2.600    0.000    2.400    0.000    7.600 
#    0.000    1.000    0.000    4.800    0.000    0.000 
#    0.000    0.000    0.000    0.000    0.000    0.000 
#
# Total GULP energy -223142.875243 kJ/mol
# GULP energy per Si atom -5578.571881 kJ/mol
# Density = 1.769532 g / cm^3
# Si number density = 17.735692 Si / 1000 Ang^3
#
#
#
# Elastic Constant Matrix: (Units=GPa)
#
#
# Indices 1 2 3 4 5 6 
#
# 1 66.4342 55.5673 88.3917 0.0000 0.0000 0.0000
# 2 55.5673 64.2424 90.2494 0.0000 0.0000 0.0000
# 3 88.3917 90.2494 231.1612 0.0000 0.0000 0.0000
# 4 0.0000 0.0000 0.0000 -87.1667 0.0000 0.0000
# 5 0.0000 0.0000 0.0000 0.0000 32.7435 0.0000
# 6 0.0000 0.0000 0.0000 0.0000 0.0000 15.9863
#
#
#
# Elastic Compliance Matrix: (Units=1/GPa)
#
#
# Indices 1 2 3 4 5 6 
#
# 1 0.057643 -0.041845 -0.005704 0.000000 0.000000 0.000000
# 2 -0.041845 0.064851 -0.009318 0.000000 0.000000 0.000000
# 3 -0.005704 -0.009318 0.010145 0.000000 0.000000 0.000000
# 4 0.000000 0.000000 0.000000 -0.011472 0.000000 0.000000
# 5 0.000000 0.000000 0.000000 0.000000 0.030540 0.000000
# 6 0.000000 0.000000 0.000000 0.000000 0.000000 0.062554
#
#
# Mechanical properties :
#
#
# Convention : Reuss Voigt Hill
#
# Bulk Modulus (GPa) = 52.90034 92.25051 72.57543
# Shear Modulus (GPa) = 14.95678 0.82125 7.88902
#
# Velocity S-wave (km/s) = 2.90714 0.68121 2.11134
# Velocity P-wave (km/s) = 6.41564 7.26262 6.85223
#
# Compressibility (1/GPa) = 0.01890347
#
# Stress axis : x y z
#
# Youngs Moduli (GPa) = 17.34829 15.42003 98.56860
#
# Poissons Ratio (x) = 0.64525 0.56228
# Poissons Ratio (y) = 0.72594 0.91847
# Poissons Ratio (z) = 0.09896 0.14369
#
# Static dielectric constant tensor:
#      x y z
#    x 1.594670 0.000000 0.000000 
#    y 0.000000 1.592810 0.000000 
#    z 0.000000 0.000000 1.579670 
# 
# From -- ./inp_files/34306.got.cif
#   From: 2010.05.17/outbox.cif.g08.bks.cpg/sg51_18_cif.got.tgz:34306.got - 2010.06.03 11:52:47.
