data_PCOD9403361
_publ_section_title
;
Structure prediction by ZEFSAII (Michael W. Deem and Ramdas Pophale) SiO2 
 PCOD9403361
Probable space group: P M M A
;
_chemical_formula_sum "Si O2"
_cell_formula_units_Z 48
_cell_length_a 9.402313
_cell_length_b 7.498058
_cell_length_c 31.977493
_cell_angle_alpha 90.000000
_cell_angle_beta 90.000000
_cell_angle_gamma 90.000000
_cell_volume 2254.384100
_symmetry_space_group_name_H-M "P M M A"
_symmetry_group_IT_number 51
_symmetry_cell_setting 'orthorhombic'
loop_
_space_group_symop_operation_xyz
x,y,z
1/2-x,-y,z
1/2+x,-y,-z
-x,y,-z
-x,-y,-z
1/2+x,y,-z
1/2-x,y,z
x,-y,z
loop_
_atom_site_type_symbol
_atom_site_label
_atom_site_fract_x
_atom_site_fract_y
_atom_site_fract_z
Si Si1 0.913257 0.214811 0.132812
Si Si2 0.412139 0.786177 0.377502
Si Si3 0.088733 0.713870 0.706110
Si Si4 0.915497 0.217116 0.040309
Si Si5 0.914358 0.781955 0.458645
Si Si6 0.410317 0.288166 0.215271
O O1 0.750000 0.276653 0.139509
O O2 0.962988 0.275344 0.086677
O O3 0.013859 0.264456 0.170846
O O4 0.908309 0.000000 0.131528
O O5 0.250000 0.718015 0.376580
O O6 0.495768 0.749326 0.334880
O O7 0.502336 0.721353 0.417267
O O8 0.403703 0.000000 0.381784
O O9 0.250000 0.782760 0.702282
O O10 0.098783 0.500000 0.710262
O O11 0.008161 0.783872 0.747257
O O12 0.750000 0.263808 0.036511
O O13 0.924231 0.000000 0.040004
O O14 0.000000 0.282329 0.000000
O O15 0.750000 0.724645 0.459100
O O16 0.000000 0.727415 0.500000
O O17 0.912990 0.000000 0.458346
O O18 0.250000 0.215236 0.215725
O O19 0.399546 0.500000 0.222326
#
# Coordination Sequence:
#
# PCOD9403361 Si02
#       6
#     8   8   8   8   8   8
#     4   9  18  32  50  74 102 130 162 201 244 290
#     4  10  20  33  51  77 106 134 166 205 248 292
#     4  10  21  37  56  75  96 128 168 205 246 299
#     4   8  14  25  42  66  96 127 158 193 235 284
#     4   9  16  27  45  70 101 135 169 205 245 290
#     4  10  21  36  53  73  97 127 164 204 246 294
#
# _framework density 21.291848000000002
#
# number of rings (size 3 to 8) (size 9 to 14) (size 15 to 20)
#    0.000    2.667    0.000    3.000    0.000    6.667 
#    0.000    1.667    0.000    1.000    0.000    0.000 
#    0.000    0.000    0.000    0.000    0.000    0.000 
#
# Total GULP energy -268051.815191 kJ/mol
# GULP energy per Si atom -5584.412816 kJ/mol
# Density = 2.124339 g / cm^3
# Si number density = 21.291848 Si / 1000 Ang^3
#
#
#
# Elastic Constant Matrix: (Units=GPa)
#
#
# Indices 1 2 3 4 5 6 
#
# 1 210.5301 7.2935 146.8953 0.0000 0.0000 0.0000
# 2 7.2935 57.0348 -1.8003 0.0000 0.0000 0.0000
# 3 146.8953 -1.8003 234.8678 0.0000 0.0000 0.0000
# 4 0.0000 0.0000 0.0000 34.6432 0.0000 0.0000
# 5 0.0000 0.0000 0.0000 0.0000 43.6685 0.0000
# 6 0.0000 0.0000 0.0000 0.0000 0.0000 8.5708
#
#
#
# Elastic Compliance Matrix: (Units=1/GPa)
#
#
# Indices 1 2 3 4 5 6 
#
# 1 0.008517 -0.001258 -0.005336 0.000000 0.000000 0.000000
# 2 -0.001258 0.017723 0.000922 0.000000 0.000000 0.000000
# 3 -0.005336 0.000922 0.007602 0.000000 0.000000 0.000000
# 4 0.000000 0.000000 0.000000 0.028866 0.000000 0.000000
# 5 0.000000 0.000000 0.000000 0.000000 0.022900 0.000000
# 6 0.000000 0.000000 0.000000 0.000000 0.000000 0.116675
#
#
# Mechanical properties :
#
#
# Convention : Reuss Voigt Hill
#
# Bulk Modulus (GPa) = 44.44616 89.68998 67.06807
# Shear Modulus (GPa) = 22.61149 40.71277 31.66213
#
# Velocity S-wave (km/s) = 3.26234 4.37753 3.86042
# Velocity P-wave (km/s) = 5.92541 8.23201 7.17204
#
# Compressibility (1/GPa) = 0.02249913
#
# Stress axis : x y z
#
# Youngs Moduli (GPa) = 117.41292 56.42360 131.53714
#
# Poissons Ratio (x) = 0.07096 0.70194
# Poissons Ratio (y) = 0.14766 -0.12133
# Poissons Ratio (z) = 0.62657 -0.05204
#
# Static dielectric constant tensor:
#      x y z
#    x 1.737980 0.000000 0.000000 
#    y 0.000000 1.823680 0.000000 
#    z 0.000000 0.000000 1.732130 
# 
# From -- ./inp_files/37009.got.cif
#   From: 2010.05.17/outbox.cif.g08.bks.cpg/sg51_19_cif.got.tgz:37009.got - 2010.06.03 11:52:47.
