data_PCOD9403569
_publ_section_title
;
Structure prediction by ZEFSAII (Michael W. Deem and Ramdas Pophale) SiO2 
 PCOD9403569
Probable space group: P M M A
;
_chemical_formula_sum "Si O2"
_cell_formula_units_Z 64
_cell_length_a 24.001992
_cell_length_b 7.605874
_cell_length_c 18.982235
_cell_angle_alpha 90.000000
_cell_angle_beta 90.000000
_cell_angle_gamma 90.000000
_cell_volume 3465.323302
_symmetry_space_group_name_H-M "P M M A"
_symmetry_group_IT_number 51
_symmetry_cell_setting 'orthorhombic'
loop_
_space_group_symop_operation_xyz
x,y,z
1/2-x,-y,z
1/2+x,-y,-z
-x,y,-z
-x,-y,-z
1/2+x,y,-z
1/2-x,y,z
x,-y,z
loop_
_atom_site_type_symbol
_atom_site_label
_atom_site_fract_x
_atom_site_fract_y
_atom_site_fract_z
Si Si1 0.682349 0.707879 0.064527
Si Si2 0.990502 0.205234 0.421919
Si Si3 0.185213 0.284569 0.241338
Si Si4 0.875636 0.211752 0.359571
Si Si5 0.686660 0.710244 0.217108
Si Si6 0.890659 0.706563 0.630494
Si Si7 0.316510 0.712050 0.086889
Si Si8 0.312820 0.787313 0.501335
O O1 0.750000 0.719919 0.064561
O O2 0.668472 0.500000 0.063307
O O3 0.665638 0.779875 0.141077
O O4 0.662627 0.781090 0.988834
O O5 0.048269 0.215614 0.380441
O O6 0.000000 0.283993 0.500000
O O7 0.937369 0.277524 0.379967
O O8 0.976814 0.000000 0.433755
O O9 0.250000 0.231435 0.251260
O O10 0.185641 0.500000 0.241768
O O11 0.145877 0.223646 0.304457
O O12 0.164197 0.226977 0.163838
O O13 0.852634 0.258819 0.283239
O O14 0.834746 0.271651 0.422397
O O15 0.875772 0.000000 0.361065
O O16 0.750000 0.776116 0.230567
O O17 0.690961 0.500000 0.208741
O O18 0.898640 0.500000 0.642039
O O19 0.855129 0.731872 0.559445
O O20 0.250000 0.743432 0.087976
O O21 0.323775 0.500000 0.085761
O O22 0.250000 0.725565 0.487491
O O23 0.312332 0.000000 0.501567
#
# Coordination Sequence:
#
# PCOD9403569 Si02
#       8
#     8   8   8   8   8   8   8   8
#     4   7  10  18  34  58  88 121 151 174 203 252
#     4  10  20  38  56  64  79 112 157 202 233 264
#     4   8  14  24  38  62  97 127 146 173 217 266
#     4  10  20  34  51  66  82 113 156 195 225 260
#     4   9  17  28  43  68 101 125 141 175 227 273
#     4  11  21  31  47  71  97 118 144 187 238 280
#     4   7   9  16  33  56  85 122 155 174 197 248
#     4  10  20  34  50  66  88 121 157 185 215 266
#
# _framework density 18.468696000000001
#
# number of rings (size 3 to 8) (size 9 to 14) (size 15 to 20)
#    0.000    3.000    1.250    3.375    0.000    2.750 
#    0.000    0.000    0.000    0.000    0.000    2.625 
#    0.000   13.000    0.000    0.000    0.000    0.000 
#
# Total GULP energy -356455.801910 kJ/mol
# GULP energy per Si atom -5569.621905 kJ/mol
# Density = 1.842666 g / cm^3
# Si number density = 18.468696 Si / 1000 Ang^3
#
#
#
# Elastic Constant Matrix: (Units=GPa)
#
#
# Indices 1 2 3 4 5 6 
#
# 1 59.3394 -4.7848 28.9489 0.0000 0.0000 0.0000
# 2 -4.7848 34.6109 -2.5879 0.0000 0.0000 0.0000
# 3 28.9489 -2.5879 156.2605 0.0000 0.0000 0.0000
# 4 0.0000 0.0000 0.0000 34.5720 0.0000 0.0000
# 5 0.0000 0.0000 0.0000 0.0000 3.2473 0.0000
# 6 0.0000 0.0000 0.0000 0.0000 0.0000 9.0426
#
#
#
# Elastic Compliance Matrix: (Units=1/GPa)
#
#
# Indices 1 2 3 4 5 6 
#
# 1 0.018713 0.002331 -0.003428 0.000000 0.000000 0.000000
# 2 0.002331 0.029219 0.000052 0.000000 0.000000 0.000000
# 3 -0.003428 0.000052 0.007036 0.000000 0.000000 0.000000
# 4 0.000000 0.000000 0.000000 0.028925 0.000000 0.000000
# 5 0.000000 0.000000 0.000000 0.000000 0.307946 0.000000
# 6 0.000000 0.000000 0.000000 0.000000 0.000000 0.110587
#
#
# Mechanical properties :
#
#
# Convention : Reuss Voigt Hill
#
# Bulk Modulus (GPa) = 18.91215 32.59592 25.75404
# Shear Modulus (GPa) = 9.57596 24.61471 17.09533
#
# Velocity S-wave (km/s) = 2.27952 3.65469 3.04573
# Velocity P-wave (km/s) = 4.14616 5.95790 5.13260
#
# Compressibility (1/GPa) = 0.05287606
#
# Stress axis : x y z
#
# Youngs Moduli (GPa) = 53.44014 34.22465 142.13591
#
# Poissons Ratio (x) = -0.07976 0.48725
# Poissons Ratio (y) = -0.12455 -0.00741
# Poissons Ratio (z) = 0.18320 -0.00178
#
# Static dielectric constant tensor:
#      x y z
#    x 1.603390 0.000000 0.000000 
#    y 0.000000 1.703540 0.000000 
#    z 0.000000 0.000000 1.690350 
# 
# From -- ./inp_files/30941.got.cif
#   From: 2010.05.17/outbox.cif.g08.bks.cpg/sg51_16_cif.got.tgz:30941.got - 2010.06.03 11:52:47.
