data_PCOD9403816
_publ_section_title
;
Structure prediction by ZEFSAII (Michael W. Deem and Ramdas Pophale) SiO2 
 PCOD9403816
Probable space group: P M M A
;
_chemical_formula_sum "Si O2"
_cell_formula_units_Z 56
_cell_length_a 8.826933
_cell_length_b 18.899446
_cell_length_c 19.432657
_cell_angle_alpha 90.000000
_cell_angle_beta 90.000000
_cell_angle_gamma 90.000000
_cell_volume 3241.836361
_symmetry_space_group_name_H-M "P M M A"
_symmetry_group_IT_number 51
_symmetry_cell_setting 'orthorhombic'
loop_
_space_group_symop_operation_xyz
x,y,z
1/2-x,-y,z
1/2+x,-y,-z
-x,y,-z
-x,-y,-z
1/2+x,y,-z
1/2-x,y,z
x,-y,z
loop_
_atom_site_type_symbol
_atom_site_label
_atom_site_fract_x
_atom_site_fract_y
_atom_site_fract_z
Si Si1 0.067418 0.081220 0.354765
Si Si2 0.933230 0.845756 0.787045
Si Si3 0.076695 0.586063 0.070548
Si Si4 0.432648 0.083149 0.073287
Si Si5 0.930398 0.417113 0.215422
Si Si6 0.568264 0.708423 0.704540
Si Si7 0.069336 0.784349 0.573973
O O1 0.250000 0.090219 0.361348
O O2 0.027241 0.101775 0.275942
O O3 0.986083 0.137387 0.403506
O O4 0.029848 0.000000 0.369143
O O5 0.750000 0.846096 0.790937
O O6 0.988297 0.872283 0.860954
O O7 0.978348 0.767877 0.761190
O O8 0.250000 0.610399 0.075808
O O9 0.078698 0.500000 0.067503
O O10 0.985324 0.604435 0.139050
O O11 0.000000 0.611018 0.000000
O O12 0.250000 0.088003 0.069959
O O13 0.470567 0.000000 0.083786
O O14 0.500000 0.105587 0.000000
O O15 0.750000 0.409941 0.220291
O O16 0.969326 0.500000 0.224637
O O17 0.011698 0.366974 0.269771
O O18 0.750000 0.710417 0.698601
O O19 0.495309 0.732964 0.633057
O O20 0.250000 0.781479 0.572125
O O21 0.000000 0.767113 0.500000
#
# Coordination Sequence:
#
# PCOD9403816 Si02
#       7
#     8   8   8   8   8   8   8
#     4   9  17  31  52  77 103 133 172 215 257 302
#     4   8  15  29  49  70  94 129 170 210 253 303
#     4   9  16  27  45  70 100 133 168 207 252 301
#     4   9  16  27  44  66  93 127 168 212 255 296
#     4  10  20  34  53  78 107 138 173 213 258 310
#     4  10  20  36  57  79 102 130 169 212 256 308
#     4  11  22  37  56  78 106 138 171 205 248 303
#
# _framework density 17.274160999999999
#
# number of rings (size 3 to 8) (size 9 to 14) (size 15 to 20)
#    0.000    2.571    0.000    3.857    0.000    4.857 
#    0.000    4.286    0.000    5.571    0.000    0.000 
#    0.000    0.000    0.000    0.000    0.000    0.000 
#
# Total GULP energy -312318.358521 kJ/mol
# GULP energy per Si atom -5577.113545 kJ/mol
# Density = 1.723484 g / cm^3
# Si number density = 17.274161 Si / 1000 Ang^3
#
#
#
# Elastic Constant Matrix: (Units=GPa)
#
#
# Indices 1 2 3 4 5 6 
#
# 1 71.8922 45.8177 52.9588 0.0000 0.0000 0.0000
# 2 45.8177 73.7032 63.3505 0.0000 0.0000 0.0000
# 3 52.9588 63.3505 146.9967 0.0000 0.0000 0.0000
# 4 0.0000 0.0000 0.0000 10.6159 0.0000 0.0000
# 5 0.0000 0.0000 0.0000 0.0000 30.4620 0.0000
# 6 0.0000 0.0000 0.0000 0.0000 0.0000 20.2562
#
#
#
# Elastic Compliance Matrix: (Units=1/GPa)
#
#
# Indices 1 2 3 4 5 6 
#
# 1 0.024144 -0.011965 -0.003542 0.000000 0.000000 0.000000
# 2 -0.011965 0.027480 -0.007532 0.000000 0.000000 0.000000
# 3 -0.003542 -0.007532 0.011325 0.000000 0.000000 0.000000
# 4 0.000000 0.000000 0.000000 0.094198 0.000000 0.000000
# 5 0.000000 0.000000 0.000000 0.000000 0.032828 0.000000
# 6 0.000000 0.000000 0.000000 0.000000 0.000000 0.049368
#
#
# Mechanical properties :
#
#
# Convention : Reuss Voigt Hill
#
# Bulk Modulus (GPa) = 59.27302 68.53846 63.90574
# Shear Modulus (GPa) = 17.17945 20.96451 19.07198
#
# Velocity S-wave (km/s) = 3.15702 3.48750 3.32637
# Velocity P-wave (km/s) = 6.90483 7.48197 7.19919
#
# Compressibility (1/GPa) = 0.01687108
#
# Stress axis : x y z
#
# Youngs Moduli (GPa) = 41.41783 36.38980 88.29843
#
# Poissons Ratio (x) = 0.43539 0.31276
# Poissons Ratio (y) = 0.49555 0.66511
# Poissons Ratio (z) = 0.14671 0.27411
#
# Static dielectric constant tensor:
#      x y z
#    x 1.580260 0.000000 0.000000 
#    y 0.000000 1.586800 0.000000 
#    z 0.000000 0.000000 1.576430 
# 
# From -- ./inp_files/28227.got.cif
#   From: 2010.05.17/outbox.cif.g08.bks.cpg/sg51_15_cif.got.tgz:28227.got - 2010.06.03 11:52:47.
