data_PCOD9403318
_publ_section_title
;
Structure prediction by ZEFSAII (Michael W. Deem and Ramdas Pophale) SiO2 
 PCOD9403318
Probable space group: P M M A
;
_chemical_formula_sum "Si O2"
_cell_formula_units_Z 48
_cell_length_a 9.414873
_cell_length_b 7.481150
_cell_length_c 31.913496
_cell_angle_alpha 90.000000
_cell_angle_beta 90.000000
_cell_angle_gamma 90.000000
_cell_volume 2247.797639
_symmetry_space_group_name_H-M "P M M A"
_symmetry_group_IT_number 51
_symmetry_cell_setting 'orthorhombic'
loop_
_space_group_symop_operation_xyz
x,y,z
1/2-x,-y,z
1/2+x,-y,-z
-x,y,-z
-x,-y,-z
1/2+x,y,-z
1/2-x,y,z
x,-y,z
loop_
_atom_site_type_symbol
_atom_site_label
_atom_site_fract_x
_atom_site_fract_y
_atom_site_fract_z
Si Si1 0.412113 0.786162 0.215248
Si Si2 0.088396 0.286061 0.377670
Si Si3 0.089265 0.785434 0.705831
Si Si4 0.085977 0.281471 0.541360
Si Si5 0.411987 0.714048 0.121137
Si Si6 0.087077 0.718692 0.958993
O O1 0.250000 0.716641 0.218592
O O2 0.511996 0.717248 0.252215
O O3 0.464328 0.751302 0.168125
O O4 0.404366 0.000000 0.220015
O O5 0.250000 0.216868 0.377007
O O6 0.097354 0.500000 0.382464
O O7 0.006477 0.251507 0.334588
O O8 0.996678 0.220410 0.417110
O O9 0.250000 0.717192 0.700951
O O10 0.098157 0.000000 0.709575
O O11 0.250000 0.223923 0.540738
O O12 0.087442 0.500000 0.541667
O O13 0.000000 0.226959 0.500000
O O14 0.250000 0.783035 0.117870
O O15 0.404873 0.500000 0.116903
O O16 0.509964 0.779361 0.083483
O O17 0.250000 0.776147 0.960957
O O18 0.087170 0.500000 0.958804
O O19 0.000000 0.774140 0.000000
#
# Coordination Sequence:
#
# PCOD9403318 Si02
#       6
#     8   8   8   8   8   8
#     4   9  18  33  51  69  92 125 161 195 236 288
#     4  10  20  33  51  76 103 131 166 207 249 292
#     4  10  21  36  53  73  98 130 167 205 247 297
#     4   9  16  27  45  70 101 134 166 201 242 289
#     4   9  17  29  46  69  95 121 152 192 235 277
#     4   9  16  26  42  65  93 123 153 186 227 275
#
# _framework density 21.354234000000002
#
# number of rings (size 3 to 8) (size 9 to 14) (size 15 to 20)
#    0.000    2.667    0.000    2.000    0.000    7.333 
#    0.000    1.667    0.000    1.000    0.000    0.000 
#    0.000    0.000    0.000    0.000    0.000    0.000 
#
# Total GULP energy -268119.116042 kJ/mol
# GULP energy per Si atom -5585.814918 kJ/mol
# Density = 2.130563 g / cm^3
# Si number density = 21.354234 Si / 1000 Ang^3
#
#
#
# Elastic Constant Matrix: (Units=GPa)
#
#
# Indices 1 2 3 4 5 6 
#
# 1 209.9446 6.5400 157.6939 0.0000 0.0000 0.0000
# 2 6.5400 60.4932 -1.4903 0.0000 0.0000 0.0000
# 3 157.6939 -1.4903 243.0812 0.0000 0.0000 0.0000
# 4 0.0000 0.0000 0.0000 32.3121 0.0000 0.0000
# 5 0.0000 0.0000 0.0000 0.0000 41.5467 0.0000
# 6 0.0000 0.0000 0.0000 0.0000 0.0000 8.6847
#
#
#
# Elastic Compliance Matrix: (Units=1/GPa)
#
#
# Indices 1 2 3 4 5 6 
#
# 1 0.009371 -0.001163 -0.006086 0.000000 0.000000 0.000000
# 2 -0.001163 0.016678 0.000857 0.000000 0.000000 0.000000
# 3 -0.006086 0.000857 0.008068 0.000000 0.000000 0.000000
# 4 0.000000 0.000000 0.000000 0.030948 0.000000 0.000000
# 5 0.000000 0.000000 0.000000 0.000000 0.024069 0.000000
# 6 0.000000 0.000000 0.000000 0.000000 0.000000 0.115145
#
#
# Mechanical properties :
#
#
# Convention : Reuss Voigt Hill
#
# Bulk Modulus (GPa) = 46.88058 93.22289 70.05173
# Shear Modulus (GPa) = 22.30409 39.89374 31.09891
#
# Velocity S-wave (km/s) = 3.23535 4.32694 3.82034
# Velocity P-wave (km/s) = 5.99650 8.28936 7.23435
#
# Compressibility (1/GPa) = 0.02133079
#
# Stress axis : x y z
#
# Youngs Moduli (GPa) = 106.71235 59.96061 123.95404
#
# Poissons Ratio (x) = 0.06974 0.75443
# Poissons Ratio (y) = 0.12411 -0.10620
# Poissons Ratio (z) = 0.64949 -0.05137
#
# Static dielectric constant tensor:
#      x y z
#    x 1.749790 0.000000 0.000000 
#    y 0.000000 1.817650 0.000000 
#    z 0.000000 0.000000 1.724580 
# 
# From -- ./inp_files/34530.got.cif
#   From: 2010.05.17/outbox.cif.g08.bks.cpg/sg51_18_cif.got.tgz:34530.got - 2010.06.03 11:52:47.
