data_PCOD9403454
_publ_section_title
;
Structure prediction by ZEFSAII (Michael W. Deem and Ramdas Pophale) SiO2 
 PCOD9403454
Probable space group: P M M A
;
_chemical_formula_sum "Si O2"
_cell_formula_units_Z 64
_cell_length_a 21.159059
_cell_length_b 9.529625
_cell_length_c 16.461542
_cell_angle_alpha 90.000000
_cell_angle_beta 90.000000
_cell_angle_gamma 90.000000
_cell_volume 3319.270721
_symmetry_space_group_name_H-M "P M M A"
_symmetry_group_IT_number 51
_symmetry_cell_setting 'orthorhombic'
loop_
_space_group_symop_operation_xyz
x,y,z
1/2-x,-y,z
1/2+x,-y,-z
-x,y,-z
-x,-y,-z
1/2+x,y,-z
1/2-x,y,z
x,-y,z
loop_
_atom_site_type_symbol
_atom_site_label
_atom_site_fract_x
_atom_site_fract_y
_atom_site_fract_z
Si Si1 0.321863 0.656129 0.801385
Si Si2 0.150111 0.337448 0.217644
Si Si3 0.822859 0.332269 0.592532
Si Si4 0.926772 0.167030 0.488015
Si Si5 0.001774 0.335745 0.182270
Si Si6 0.590853 0.835386 0.297158
Si Si7 0.085353 0.660427 0.956276
Si Si8 0.820012 0.832969 0.935570
O O1 0.250000 0.676798 0.825809
O O2 0.327911 0.500000 0.764567
O O3 0.345134 0.771918 0.738951
O O4 0.366343 0.659318 0.879773
O O5 0.168396 0.500000 0.200644
O O6 0.166278 0.308126 0.311186
O O7 0.075239 0.324917 0.201297
O O8 0.180491 0.231206 0.154490
O O9 0.750000 0.293606 0.572172
O O10 0.829721 0.500000 0.579211
O O11 0.875997 0.250000 0.541998
O O12 0.912818 0.187740 0.392938
O O13 0.000000 0.210391 0.500000
O O14 0.922733 0.000000 0.506580
O O15 0.984139 0.500000 0.190686
O O16 0.979578 0.297275 0.090249
O O17 0.963706 0.245160 0.247649
O O18 0.585595 0.000000 0.280929
O O19 0.079906 0.500000 0.988147
O O20 0.121397 0.759765 0.018794
O O21 0.750000 0.802052 0.972088
O O22 0.828104 0.000000 0.934970
#
# Coordination Sequence:
#
# PCOD9403454 Si02
#       8
#     8   8   8   8   8   8   8   8
#     4   9  18  33  53  76 104 141 181 219 264 320
#     4  10  21  39  62  83 107 142 184 232 282 333
#     4  10  22  39  60  88 117 147 190 241 291 343
#     4  10  22  39  58  82 113 150 191 232 279 340
#     4   9  19  36  58  84 111 142 182 225 274 332
#     4  10  20  33  52  79 109 141 177 219 269 325
#     4   9  18  34  55  78 106 140 179 221 266 321
#     4  11  24  38  53  78 110 143 182 226 273 328
#
# _framework density 19.281344000000001
#
# number of rings (size 3 to 8) (size 9 to 14) (size 15 to 20)
#    0.000    2.250    0.000    3.000    0.000    7.750 
#    0.000    5.000    0.000    0.000    0.000    0.000 
#    0.000    0.000    0.000    0.000    0.000    0.000 
#
# Total GULP energy -357211.981819 kJ/mol
# GULP energy per Si atom -5581.437216 kJ/mol
# Density = 1.923746 g / cm^3
# Si number density = 19.281344 Si / 1000 Ang^3
#
#
#
# Elastic Constant Matrix: (Units=GPa)
#
#
# Indices 1 2 3 4 5 6 
#
# 1 127.1259 48.6144 43.9280 0.0000 0.0000 0.0000
# 2 48.6144 78.8814 65.0230 0.0000 0.0000 0.0000
# 3 43.9280 65.0230 82.8592 0.0000 0.0000 0.0000
# 4 0.0000 0.0000 0.0000 23.9042 0.0000 0.0000
# 5 0.0000 0.0000 0.0000 0.0000 21.5707 0.0000
# 6 0.0000 0.0000 0.0000 0.0000 0.0000 23.8444
#
#
#
# Elastic Compliance Matrix: (Units=1/GPa)
#
#
# Indices 1 2 3 4 5 6 
#
# 1 0.010346 -0.005253 -0.001363 0.000000 0.000000 0.000000
# 2 -0.005253 0.038567 -0.027480 0.000000 0.000000 0.000000
# 3 -0.001363 -0.027480 0.034356 0.000000 0.000000 0.000000
# 4 0.000000 0.000000 0.000000 0.041834 0.000000 0.000000
# 5 0.000000 0.000000 0.000000 0.000000 0.046359 0.000000
# 6 0.000000 0.000000 0.000000 0.000000 0.000000 0.041939
#
#
# Mechanical properties :
#
#
# Convention : Reuss Voigt Hill
#
# Bulk Modulus (GPa) = 66.32562 67.11082 66.71822
# Shear Modulus (GPa) = 17.44487 22.61727 20.03107
#
# Velocity S-wave (km/s) = 3.01118 3.42864 3.22667
# Velocity P-wave (km/s) = 6.82372 7.11026 6.96846
#
# Compressibility (1/GPa) = 0.01507713
#
# Stress axis : x y z
#
# Youngs Moduli (GPa) = 96.65715 25.92903 29.10696
#
# Poissons Ratio (x) = 0.13620 0.03967
# Poissons Ratio (y) = 0.50771 0.79987
# Poissons Ratio (z) = 0.13173 0.71254
#
# Static dielectric constant tensor:
#      x y z
#    x 1.726870 0.000000 0.000000 
#    y 0.000000 1.644400 0.000000 
#    z 0.000000 0.000000 1.661310 
# 
# From -- ./inp_files/26335.got.cif
#   From: 2010.05.17/outbox.cif.g08.bks.cpg/sg51_14_cif.got.tgz:26335.got - 2010.06.03 11:52:47.
