data_PCOD9403552
_publ_section_title
;
Structure prediction by ZEFSAII (Michael W. Deem and Ramdas Pophale) SiO2 
 PCOD9403552
Probable space group: P M M A
;
_chemical_formula_sum "Si O2"
_cell_formula_units_Z 58
_cell_length_a 25.310400
_cell_length_b 10.269595
_cell_length_c 12.304360
_cell_angle_alpha 90.000000
_cell_angle_beta 90.000000
_cell_angle_gamma 90.000000
_cell_volume 3198.242239
_symmetry_space_group_name_H-M "P M M A"
_symmetry_group_IT_number 51
_symmetry_cell_setting 'orthorhombic'
loop_
_space_group_symop_operation_xyz
x,y,z
1/2-x,-y,z
1/2+x,-y,-z
-x,y,-z
-x,-y,-z
1/2+x,y,-z
1/2-x,y,z
x,-y,z
loop_
_atom_site_type_symbol
_atom_site_label
_atom_site_fract_x
_atom_site_fract_y
_atom_site_fract_z
Si Si1 0.986552 0.739251 0.669385
Si Si2 0.690015 0.846293 0.157720
Si Si3 0.882308 0.849717 0.585106
Si Si4 0.395187 0.156053 0.661244
Si Si5 0.310821 0.650098 0.282811
Si Si6 0.958971 0.654570 0.910621
Si Si7 0.163075 0.650861 0.032243
Si Si8 0.000000 0.500000 0.500000
O O1 0.944088 0.836154 0.615535
O O2 0.966672 0.712570 0.791507
O O3 0.987505 0.613527 0.592051
O O4 0.046435 0.788795 0.677772
O O5 0.750000 0.835227 0.200492
O O6 0.646659 0.804977 0.246701
O O7 0.681509 0.000000 0.131361
O O8 0.684412 0.754284 0.053348
O O9 0.876224 0.808099 0.459644
O O10 0.848800 0.752165 0.659192
O O11 0.865816 0.000000 0.598052
O O12 0.398503 0.000000 0.663409
O O13 0.250000 0.665486 0.317955
O O14 0.327626 0.500000 0.304551
O O15 0.313576 0.667384 0.152797
O O16 0.968542 0.500000 0.899116
O O17 0.899722 0.670902 0.953815
O O18 0.000000 0.706779 0.000000
O O19 0.172683 0.500000 0.998829
#
# Coordination Sequence:
#
# PCOD9403552 Si02
#       8
#     8   8   8   8   8   8   8   2
#     4  12  21  38  59  88 125 155 204 247 299 360
#     4  10  22  41  63  86 116 156 202 250 298 355
#     4  11  23  38  61  88 121 160 201 248 300 363
#     4  10  22  40  60  84 118 161 199 242 299 359
#     4  10  22  39  61  86 116 155 199 250 304 359
#     4  10  20  33  54  85 120 156 192 237 293 354
#     4  10  20  38  61  85 116 155 193 242 299 361
#     4  12  24  32  64  96 118 172 202 254 300 366
#
# _framework density 18.134962000000002
#
# number of rings (size 3 to 8) (size 9 to 14) (size 15 to 20)
#    0.000    1.517    3.448    1.655    0.966    3.310 
#    1.241    1.379    0.000    2.897    0.000    0.000 
#    0.000    0.000    0.000    0.000    0.000    0.000 
#
# Total GULP energy -323234.868559 kJ/mol
# GULP energy per Si atom -5573.014975 kJ/mol
# Density = 1.809369 g / cm^3
# Si number density = 18.134962 Si / 1000 Ang^3
#
#
#
# Elastic Constant Matrix: (Units=GPa)
#
#
# Indices 1 2 3 4 5 6 
#
# 1 85.3030 49.9154 37.1276 0.0000 0.0000 0.0000
# 2 49.9154 65.2736 49.7060 0.0000 0.0000 0.0000
# 3 37.1276 49.7060 84.8220 0.0000 0.0000 0.0000
# 4 0.0000 0.0000 0.0000 36.8337 0.0000 0.0000
# 5 0.0000 0.0000 0.0000 0.0000 2.5088 0.0000
# 6 0.0000 0.0000 0.0000 0.0000 0.0000 11.3798
#
#
#
# Elastic Compliance Matrix: (Units=1/GPa)
#
#
# Indices 1 2 3 4 5 6 
#
# 1 0.021224 -0.016534 0.000399 0.000000 0.000000 0.000000
# 2 -0.016534 0.040547 -0.016523 0.000000 0.000000 0.000000
# 3 0.000399 -0.016523 0.021297 0.000000 0.000000 0.000000
# 4 0.000000 0.000000 0.000000 0.027149 0.000000 0.000000
# 5 0.000000 0.000000 0.000000 0.000000 0.398602 0.000000
# 6 0.000000 0.000000 0.000000 0.000000 0.000000 0.087875
#
#
# Mechanical properties :
#
#
# Convention : Reuss Voigt Hill
#
# Bulk Modulus (GPa) = 56.33379 56.54408 56.43893
# Shear Modulus (GPa) = 7.48583 16.72109 12.10346
#
# Velocity S-wave (km/s) = 2.03391 3.03980 2.58623
# Velocity P-wave (km/s) = 6.05366 6.60059 6.33303
#
# Compressibility (1/GPa) = 0.01775134
#
# Stress axis : x y z
#
# Youngs Moduli (GPa) = 47.11560 24.66301 46.95416
#
# Poissons Ratio (x) = 0.40779 -0.01874
# Poissons Ratio (y) = 0.77903 0.77583
# Poissons Ratio (z) = -0.01880 0.40751
#
# Static dielectric constant tensor:
#      x y z
#    x 1.635530 0.000000 0.000000 
#    y 0.000000 1.603170 0.000000 
#    z 0.000000 0.000000 1.609460 
# 
# From -- ./inp_files/19156.got.cif
#   From: 2010.05.17/outbox.cif.g08.bks.cpg/sg51_10_cif.got.tgz:19156.got - 2010.06.03 11:52:47.
