data_PCOD9403631
_publ_section_title
;
Structure prediction by ZEFSAII (Michael W. Deem and Ramdas Pophale) SiO2 
 PCOD9403631
Probable space group: P M M A
;
_chemical_formula_sum "Si O2"
_cell_formula_units_Z 32
_cell_length_a 7.455915
_cell_length_b 8.172474
_cell_length_c 24.071327
_cell_angle_alpha 90.000000
_cell_angle_beta 90.000000
_cell_angle_gamma 90.000000
_cell_volume 1466.744703
_symmetry_space_group_name_H-M "P M M A"
_symmetry_group_IT_number 51
_symmetry_cell_setting 'orthorhombic'
loop_
_space_group_symop_operation_xyz
x,y,z
1/2-x,-y,z
1/2+x,-y,-z
-x,y,-z
-x,-y,-z
1/2+x,y,-z
1/2-x,y,z
x,-y,z
loop_
_atom_site_type_symbol
_atom_site_label
_atom_site_fract_x
_atom_site_fract_y
_atom_site_fract_z
Si Si1 0.033746 0.812511 0.761006
Si Si2 0.535496 0.500000 0.434731
Si Si3 0.459352 0.675552 0.122758
Si Si4 0.465092 0.000000 0.065186
Si Si5 0.031062 0.187530 0.634496
O O1 0.250000 0.807772 0.761615
O O2 0.977882 0.773205 0.698113
O O3 0.969105 0.701504 0.811020
O O4 0.977643 0.000000 0.772429
O O5 0.750000 0.500000 0.426609
O O6 0.500000 0.500000 0.500000
O O7 0.469176 0.667372 0.405760
O O8 0.250000 0.670490 0.107228
O O9 0.539574 0.500000 0.107801
O O10 0.538103 0.835675 0.093699
O O11 0.250000 0.000000 0.074420
O O12 0.500000 0.000000 0.000000
O O13 0.250000 0.184848 0.633349
O O14 0.974447 0.000000 0.621467
#
# Coordination Sequence:
#
# PCOD9403631 Si02
#       5
#     8   4   8   4   8
#     4   9  17  31  54  82 108 134 173 219 261 313
#     4  10  20  34  52  72 100 138 175 214 259 306
#     4  10  21  36  54  79 110 144 174 208 264 320
#     4  10  22  40  58  76 106 144 181 220 259 306
#     4   8  16  31  50  74 102 133 169 212 260 306
#
# _framework density 21.817018999999998
#
# number of rings (size 3 to 8) (size 9 to 14) (size 15 to 20)
#    0.000    2.750    1.250    1.500    1.750    2.500 
#    0.000    1.250    0.000    1.500    0.000    0.000 
#    0.000    0.000    0.000    0.000    0.000    0.000 
#
# Total GULP energy -178631.987337 kJ/mol
# GULP energy per Si atom -5582.249604 kJ/mol
# Density = 2.176736 g / cm^3
# Si number density = 21.817019 Si / 1000 Ang^3
#
#
#
# Elastic Constant Matrix: (Units=GPa)
#
#
# Indices 1 2 3 4 5 6 
#
# 1 65.0887 11.6593 -8.1763 0.0000 0.0000 0.0000
# 2 11.6593 222.6740 116.0843 0.0000 0.0000 0.0000
# 3 -8.1763 116.0843 122.2743 0.0000 0.0000 0.0000
# 4 0.0000 0.0000 0.0000 -12.8796 0.0000 0.0000
# 5 0.0000 0.0000 0.0000 0.0000 23.5620 0.0000
# 6 0.0000 0.0000 0.0000 0.0000 0.0000 -0.6253
#
#
#
# Elastic Compliance Matrix: (Units=1/GPa)
#
#
# Indices 1 2 3 4 5 6 
#
# 1 0.016343 -0.002822 0.003772 0.000000 0.000000 0.000000
# 2 -0.002822 0.009379 -0.009093 0.000000 0.000000 0.000000
# 3 0.003772 -0.009093 0.017063 0.000000 0.000000 0.000000
# 4 0.000000 0.000000 0.000000 -0.077642 0.000000 0.000000
# 5 0.000000 0.000000 0.000000 0.000000 0.042441 0.000000
# 6 0.000000 0.000000 0.000000 0.000000 0.000000 -1.599152
#
#
# Mechanical properties :
#
#
# Convention : Reuss Voigt Hill
#
# Bulk Modulus (GPa) = 37.73682 72.13017 54.93349
# Shear Modulus (GPa) = -3.19193 21.37606 9.09206
#
# Velocity S-wave (km/s) = -1.21088 3.13355 2.04364
# Velocity P-wave (km/s) = 3.92168 6.79893 5.55000
#
# Compressibility (1/GPa) = 0.02649932
#
# Stress axis : x y z
#
# Youngs Moduli (GPa) = 61.18806 106.62215 58.60603
#
# Poissons Ratio (x) = 0.30092 -0.22108
# Poissons Ratio (y) = 0.17269 0.53289
# Poissons Ratio (z) = -0.23082 0.96950
#
# Static dielectric constant tensor:
#      x y z
#    x 1.829540 0.000000 0.000000 
#    y 0.000000 1.832210 0.000000 
#    z 0.000000 0.000000 1.738670 
# 
# From -- ./inp_files/34272.got.cif
#   From: 2010.05.17/outbox.cif.g08.bks.cpg/sg51_18_cif.got.tgz:34272.got - 2010.06.03 11:52:47.
