data_PCOD9403951
_publ_section_title
;
Structure prediction by ZEFSAII (Michael W. Deem and Ramdas Pophale) SiO2 
 PCOD9403951
Probable space group: P M M A
;
_chemical_formula_sum "Si O2"
_cell_formula_units_Z 40
_cell_length_a 18.714230
_cell_length_b 8.697571
_cell_length_c 13.988168
_cell_angle_alpha 90.000000
_cell_angle_beta 90.000000
_cell_angle_gamma 90.000000
_cell_volume 2276.830943
_symmetry_space_group_name_H-M "P M M A"
_symmetry_group_IT_number 51
_symmetry_cell_setting 'orthorhombic'
loop_
_space_group_symop_operation_xyz
x,y,z
1/2-x,-y,z
1/2+x,-y,-z
-x,y,-z
-x,-y,-z
1/2+x,y,-z
1/2-x,y,z
x,-y,z
loop_
_atom_site_type_symbol
_atom_site_label
_atom_site_fract_x
_atom_site_fract_y
_atom_site_fract_z
Si Si1 0.030725 0.815620 0.603145
Si Si2 0.667870 0.314534 0.919770
Si Si3 0.463974 0.684336 0.206424
Si Si4 0.396763 0.183501 0.885433
Si Si5 0.331263 0.683986 0.693542
O O1 0.109378 0.747772 0.621602
O O2 0.000000 0.772089 0.500000
O O3 0.982557 0.753336 0.690294
O O4 0.033900 0.000000 0.609661
O O5 0.750000 0.268468 0.903828
O O6 0.665985 0.500000 0.930293
O O7 0.613631 0.274205 0.834420
O O8 0.637310 0.241823 0.016627
O O9 0.470204 0.500000 0.210976
O O10 0.524703 0.747049 0.134303
O O11 0.349548 0.242401 0.796264
O O12 0.400916 0.000000 0.884035
O O13 0.250000 0.719924 0.666184
O O14 0.338785 0.500000 0.701681
#
# Coordination Sequence:
#
# PCOD9403951 Si02
#       5
#     8   8   8   8   8
#     4  10  21  37  57  79 104 135 170 211 261 313
#     4  10  21  36  52  73 104 140 176 212 251 299
#     4  10  20  35  56  77 100 135 175 215 258 303
#     4  11  21  32  51  78 107 139 173 210 254 305
#     4  10  20  34  54  80 107 135 170 214 260 304
#
# _framework density 17.568279
#
# number of rings (size 3 to 8) (size 9 to 14) (size 15 to 20)
#    0.000    1.800    0.000    7.200    0.000   10.000 
#    0.000    1.000    0.000    3.600    0.000    0.000 
#    0.000    0.000    0.000    0.000    0.000    0.000 
#
# Total GULP energy -223425.257354 kJ/mol
# GULP energy per Si atom -5585.631434 kJ/mol
# Density = 1.752829 g / cm^3
# Si number density = 17.568279 Si / 1000 Ang^3
#
#
#
# Elastic Constant Matrix: (Units=GPa)
#
#
# Indices 1 2 3 4 5 6 
#
# 1 162.1960 51.1665 94.5715 0.0000 0.0000 0.0000
# 2 51.1665 57.3919 38.1304 0.0000 0.0000 0.0000
# 3 94.5715 38.1304 99.2295 0.0000 0.0000 0.0000
# 4 0.0000 0.0000 0.0000 29.4635 0.0000 0.0000
# 5 0.0000 0.0000 0.0000 0.0000 16.1273 0.0000
# 6 0.0000 0.0000 0.0000 0.0000 0.0000 -13.9168
#
#
#
# Elastic Compliance Matrix: (Units=1/GPa)
#
#
# Indices 1 2 3 4 5 6 
#
# 1 0.014943 -0.005184 -0.012250 0.000000 0.000000 0.000000
# 2 -0.005184 0.025196 -0.004741 0.000000 0.000000 0.000000
# 3 -0.012250 -0.004741 0.023574 0.000000 0.000000 0.000000
# 4 0.000000 0.000000 0.000000 0.033940 0.000000 0.000000
# 5 0.000000 0.000000 0.000000 0.000000 0.062007 0.000000
# 6 0.000000 0.000000 0.000000 0.000000 0.000000 -0.071855
#
#
# Mechanical properties :
#
#
# Convention : Reuss Voigt Hill
#
# Bulk Modulus (GPa) = 51.64405 76.28381 63.96393
# Shear Modulus (GPa) = 36.07284 15.33140 25.70212
#
# Velocity S-wave (km/s) = 4.53624 2.95731 3.82905
# Velocity P-wave (km/s) = 7.54299 7.42809 7.48576
#
# Compressibility (1/GPa) = 0.01936331
#
# Stress axis : x y z
#
# Youngs Moduli (GPa) = 66.92084 39.68954 42.41900
#
# Poissons Ratio (x) = 0.20573 0.51962
# Poissons Ratio (y) = 0.34689 0.20113
# Poissons Ratio (z) = 0.81976 0.18819
#
# Static dielectric constant tensor:
#      x y z
#    x 1.606530 0.000000 0.000000 
#    y 0.000000 1.589380 0.000000 
#    z 0.000000 0.000000 1.566600 
# 
# From -- ./inp_files/24538.got.cif
#   From: 2010.05.17/outbox.cif.g08.bks.cpg/sg51_13_cif.got.tgz:24538.got - 2010.06.03 11:52:47.
