data_PCOD9403810
_publ_section_title
;
Structure prediction by ZEFSAII (Michael W. Deem and Ramdas Pophale) SiO2 
 PCOD9403810
Probable space group: P M M A
;
_chemical_formula_sum "Si O2"
_cell_formula_units_Z 48
_cell_length_a 9.034931
_cell_length_b 16.791953
_cell_length_c 16.193220
_cell_angle_alpha 90.000000
_cell_angle_beta 90.000000
_cell_angle_gamma 90.000000
_cell_volume 2456.740393
_symmetry_space_group_name_H-M "P M M A"
_symmetry_group_IT_number 51
_symmetry_cell_setting 'orthorhombic'
loop_
_space_group_symop_operation_xyz
x,y,z
1/2-x,-y,z
1/2+x,-y,-z
-x,y,-z
-x,-y,-z
1/2+x,y,-z
1/2-x,y,z
x,-y,z
loop_
_atom_site_type_symbol
_atom_site_label
_atom_site_fract_x
_atom_site_fract_y
_atom_site_fract_z
Si Si1 0.072677 0.857192 0.583343
Si Si2 0.920978 0.902533 0.084898
Si Si3 0.074296 0.407118 0.249190
Si Si4 0.921083 0.402782 0.083263
Si Si5 0.927920 0.682623 0.580829
Si Si6 0.083459 0.094568 0.250190
O O1 0.250000 0.859401 0.577633
O O2 0.000000 0.893253 0.500000
O O3 0.009407 0.767397 0.586676
O O4 0.014180 0.894121 0.668262
O O5 0.750000 0.877743 0.086420
O O6 0.006136 0.874180 0.166963
O O7 0.922350 0.000000 0.085756
O O8 0.000000 0.877907 0.000000
O O9 0.250000 0.402969 0.234255
O O10 0.033990 0.500000 0.258748
O O11 0.042819 0.363064 0.334401
O O12 0.993484 0.374366 0.168329
O O13 0.750000 0.381963 0.080702
O O14 0.933281 0.500000 0.083935
O O15 0.000000 0.374760 0.000000
O O16 0.750000 0.691898 0.570698
O O17 0.000000 0.642302 0.500000
O O18 0.250000 0.127800 0.261780
O O19 0.097111 0.000000 0.238117
#
# Coordination Sequence:
#
# PCOD9403810 Si02
#       6
#     8   8   8   8   8   8
#     4  11  22  37  56  75  99 132 170 209 251 303
#     4   9  16  27  45  71 103 137 171 206 246 293
#     4   9  18  32  50  74 103 133 166 206 250 293
#     4   9  16  26  43  68  98 131 165 202 244 292
#     4  10  20  35  54  74  99 132 169 207 249 299
#     4  10  20  34  53  78 106 134 167 209 254 298
#
# _framework density 19.538084999999999
#
# number of rings (size 3 to 8) (size 9 to 14) (size 15 to 20)
#    0.000    2.333    0.000    4.500    0.000    7.000 
#    0.000    0.000    0.000    1.000    0.000    2.333 
#    0.000    0.000    0.000    0.000    0.000    0.000 
#
# Total GULP energy -267806.265974 kJ/mol
# GULP energy per Si atom -5579.297208 kJ/mol
# Density = 1.949362 g / cm^3
# Si number density = 19.538085 Si / 1000 Ang^3
#
#
#
# Elastic Constant Matrix: (Units=GPa)
#
#
# Indices 1 2 3 4 5 6 
#
# 1 146.9366 18.1730 108.8387 0.0000 0.0000 0.0000
# 2 18.1730 6.3716 18.5321 0.0000 0.0000 0.0000
# 3 108.8387 18.5321 203.2027 0.0000 0.0000 0.0000
# 4 0.0000 0.0000 0.0000 62.8707 0.0000 0.0000
# 5 0.0000 0.0000 0.0000 0.0000 37.4220 0.0000
# 6 0.0000 0.0000 0.0000 0.0000 0.0000 14.8841
#
#
#
# Elastic Compliance Matrix: (Units=1/GPa)
#
#
# Indices 1 2 3 4 5 6 
#
# 1 0.013493 -0.023769 -0.005059 0.000000 0.000000 0.000000
# 2 -0.023769 0.255482 -0.010569 0.000000 0.000000 0.000000
# 3 -0.005059 -0.010569 0.008595 0.000000 0.000000 0.000000
# 4 0.000000 0.000000 0.000000 0.015906 0.000000 0.000000
# 5 0.000000 0.000000 0.000000 0.000000 0.026722 0.000000
# 6 0.000000 0.000000 0.000000 0.000000 0.000000 0.067186
#
#
# Mechanical properties :
#
#
# Convention : Reuss Voigt Hill
#
# Bulk Modulus (GPa) = 5.03081 71.95539 38.49310
# Shear Modulus (GPa) = 9.39079 37.09984 23.24531
#
# Velocity S-wave (km/s) = 2.19473 4.36230 3.45301
# Velocity P-wave (km/s) = 3.00049 7.89184 5.97009
#
# Compressibility (1/GPa) = 0.19877517
#
# Stress axis : x y z
#
# Youngs Moduli (GPa) = 74.11276 3.91417 116.34828
#
# Poissons Ratio (x) = 0.09304 0.58864
# Poissons Ratio (y) = 1.76162 1.22964
# Poissons Ratio (z) = 0.37496 0.04137
#
# Static dielectric constant tensor:
#      x y z
#    x 1.666410 0.000000 0.000000 
#    y 0.000000 1.710560 0.000000 
#    z 0.000000 0.000000 1.697930 
# 
# From -- ./inp_files/21057.got.cif
#   From: 2010.05.17/outbox.cif.g08.bks.cpg/sg51_11_cif.got.tgz:21057.got - 2010.06.03 11:52:47.
