data_PCOD9403926
_publ_section_title
;
Structure prediction by ZEFSAII (Michael W. Deem and Ramdas Pophale) SiO2 
 PCOD9403926
Probable space group: P M M A
;
_chemical_formula_sum "Si O2"
_cell_formula_units_Z 48
_cell_length_a 9.386431
_cell_length_b 7.742752
_cell_length_c 35.421731
_cell_angle_alpha 90.000000
_cell_angle_beta 90.000000
_cell_angle_gamma 90.000000
_cell_volume 2574.338322
_symmetry_space_group_name_H-M "P M M A"
_symmetry_group_IT_number 51
_symmetry_cell_setting 'orthorhombic'
loop_
_space_group_symop_operation_xyz
x,y,z
1/2-x,-y,z
1/2+x,-y,-z
-x,y,-z
-x,-y,-z
1/2+x,y,-z
1/2-x,y,z
x,-y,z
loop_
_atom_site_type_symbol
_atom_site_label
_atom_site_fract_x
_atom_site_fract_y
_atom_site_fract_z
Si Si1 0.912192 0.292135 0.819443
Si Si2 0.576800 0.301917 0.902979
Si Si3 0.422624 0.000000 0.039960
Si Si4 0.417675 0.697441 0.597272
Si Si5 0.414285 0.790181 0.327388
Si Si6 0.588963 0.792920 0.254533
Si Si7 0.079181 0.000000 0.539637
O O1 0.750000 0.227459 0.813568
O O2 0.905153 0.500000 0.821194
O O3 0.965638 0.238863 0.861022
O O4 0.010902 0.243477 0.784744
O O5 0.750000 0.305740 0.901738
O O6 0.528787 0.500000 0.909185
O O7 0.536637 0.168452 0.935435
O O8 0.250000 0.000000 0.035568
O O9 0.500000 0.000000 0.000000
O O10 0.250000 0.726642 0.606127
O O11 0.434522 0.500000 0.584603
O O12 0.507705 0.728042 0.634951
O O13 0.457940 0.833131 0.564954
O O14 0.250000 0.735377 0.326364
O O15 0.497419 0.729031 0.290098
O O16 0.416926 0.000000 0.327785
O O17 0.750000 0.724696 0.254999
O O18 0.596244 0.000000 0.258441
O O19 0.000000 0.000000 0.500000
O O20 0.250000 0.000000 0.533765
#
# Coordination Sequence:
#
# PCOD9403926 Si02
#       7
#     8   8   4   8   8   8   4
#     4   9  18  33  53  76 101 133 178 228 270 313
#     4   8  16  32  53  77 104 135 174 217 262 316
#     4  10  20  34  54  79 104 135 170 211 264 319
#     4  10  21  38  61  87 115 151 190 228 278 334
#     4  10  20  35  56  81 110 147 191 236 279 323
#     4  10  21  34  50  76 110 148 185 222 268 321
#     4  10  22  40  62  87 118 151 184 227 276 333
#
# _framework density 18.645568000000001
#
# number of rings (size 3 to 8) (size 9 to 14) (size 15 to 20)
#    0.000    2.500    0.833    2.000    1.167    4.333 
#    0.000    0.833    0.000    1.000    0.000    0.000 
#    0.000    0.000    0.000    0.000    0.000    0.000 
#
# Total GULP energy -267876.503592 kJ/mol
# GULP energy per Si atom -5580.760492 kJ/mol
# Density = 1.860313 g / cm^3
# Si number density = 18.645568 Si / 1000 Ang^3
#
#
#
# Elastic Constant Matrix: (Units=GPa)
#
#
# Indices 1 2 3 4 5 6 
#
# 1 88.7878 43.8814 90.0039 0.0000 0.0000 0.0000
# 2 43.8814 77.6242 69.8020 0.0000 0.0000 0.0000
# 3 90.0039 69.8020 203.3249 0.0000 0.0000 0.0000
# 4 0.0000 0.0000 0.0000 -79.6511 0.0000 0.0000
# 5 0.0000 0.0000 0.0000 0.0000 37.6142 0.0000
# 6 0.0000 0.0000 0.0000 0.0000 0.0000 15.7183
#
#
#
# Elastic Compliance Matrix: (Units=1/GPa)
#
#
# Indices 1 2 3 4 5 6 
#
# 1 0.021831 -0.005282 -0.007851 0.000000 0.000000 0.000000
# 2 -0.005282 0.019913 -0.004498 0.000000 0.000000 0.000000
# 3 -0.007851 -0.004498 0.009938 0.000000 0.000000 0.000000
# 4 0.000000 0.000000 0.000000 -0.012555 0.000000 0.000000
# 5 0.000000 0.000000 0.000000 0.000000 0.026586 0.000000
# 6 0.000000 0.000000 0.000000 0.000000 0.000000 0.063620
#
#
# Mechanical properties :
#
#
# Convention : Reuss Voigt Hill
#
# Bulk Modulus (GPa) = 60.89778 86.34573 73.62176
# Shear Modulus (GPa) = 29.39990 5.80627 17.60309
#
# Velocity S-wave (km/s) = 3.97517 1.76657 3.07594
# Velocity P-wave (km/s) = 7.33491 7.11130 7.22397
#
# Compressibility (1/GPa) = 0.01642096
#
# Stress axis : x y z
#
# Youngs Moduli (GPa) = 45.80556 50.21730 100.62743
#
# Poissons Ratio (x) = 0.26524 0.78999
# Poissons Ratio (y) = 0.24194 0.45265
# Poissons Ratio (z) = 0.35960 0.22589
#
# Static dielectric constant tensor:
#      x y z
#    x 1.634690 0.000000 0.000000 
#    y 0.000000 1.673300 0.000000 
#    z 0.000000 0.000000 1.609630 
# 
# From -- ./inp_files/37084.got.cif
#   From: 2010.05.17/outbox.cif.g08.bks.cpg/sg51_19_cif.got.tgz:37084.got - 2010.06.03 11:52:47.
