data_PCOD9403868
_publ_section_title
;
Structure prediction by ZEFSAII (Michael W. Deem and Ramdas Pophale) SiO2 
 PCOD9403868
Probable space group: P M M A
;
_chemical_formula_sum "Si O2"
_cell_formula_units_Z 64
_cell_length_a 16.316807
_cell_length_b 20.777301
_cell_length_c 9.823764
_cell_angle_alpha 90.000000
_cell_angle_beta 90.000000
_cell_angle_gamma 90.000000
_cell_volume 3330.444714
_symmetry_space_group_name_H-M "P M M A"
_symmetry_group_IT_number 51
_symmetry_cell_setting 'orthorhombic'
loop_
_space_group_symop_operation_xyz
x,y,z
1/2-x,-y,z
1/2+x,-y,-z
-x,y,-z
-x,-y,-z
1/2+x,y,-z
1/2-x,y,z
x,-y,z
loop_
_atom_site_type_symbol
_atom_site_label
_atom_site_fract_x
_atom_site_fract_y
_atom_site_fract_z
Si Si1 0.920330 0.811979 0.899028
Si Si2 0.848396 0.675577 0.548358
Si Si3 0.594486 0.071194 0.055977
Si Si4 0.848051 0.862900 0.319609
Si Si5 0.347042 0.715211 0.732492
Si Si6 0.917093 0.815600 0.584444
Si Si7 0.403358 0.328140 0.020203
Si Si8 0.348504 0.427081 0.236454
O O1 0.934004 0.832778 0.742163
O O2 0.885586 0.739578 0.902423
O O3 0.868832 0.868509 0.972011
O O4 0.000000 0.805644 0.000000
O O5 0.750000 0.668705 0.548544
O O6 0.881196 0.675122 0.394246
O O7 0.868516 0.748367 0.592037
O O8 0.881401 0.619643 0.644364
O O9 0.606058 0.089517 0.215056
O O10 0.629309 0.000000 0.032513
O O11 0.500000 0.068372 0.000000
O O12 0.750000 0.870652 0.303085
O O13 0.873075 0.789969 0.274042
O O14 0.869698 0.864095 0.481134
O O15 0.250000 0.718371 0.715002
O O16 0.366972 0.682343 0.872329
O O17 0.000000 0.804158 0.500000
O O18 0.368534 0.388624 0.099578
O O19 0.500000 0.335904 0.000000
O O20 0.250000 0.430289 0.248885
O O21 0.380029 0.500000 0.240321
#
# Coordination Sequence:
#
# PCOD9403868 Si02
#       8
#     8   8   8   8   8   8   8   8
#     4  10  20  34  53  87 119 151 192 243 295 344
#     4   9  19  34  53  79 107 141 186 238 293 348
#     4  10  20  37  61  86 121 161 200 243 292 357
#     4  10  21  37  56  84 120 157 199 249 307 357
#     4   9  18  33  54  80 109 139 185 239 285 340
#     4  11  20  32  59  85 115 151 194 256 295 350
#     4  11  21  33  56  83 113 148 186 241 285 339
#     4  10  21  38  56  77 110 148 185 229 290 356
#
# _framework density 19.216653000000001
#
# number of rings (size 3 to 8) (size 9 to 14) (size 15 to 20)
#    0.000    2.000    2.500    3.000    5.250    0.500 
#    0.000    2.500    0.000    9.375    0.000    0.000 
#    0.000    0.000    0.000    0.000    0.000    0.000 
#
# Total GULP energy -356392.842420 kJ/mol
# GULP energy per Si atom -5568.638163 kJ/mol
# Density = 1.917292 g / cm^3
# Si number density = 19.216653 Si / 1000 Ang^3
#
#
#
# Elastic Constant Matrix: (Units=GPa)
#
#
# Indices 1 2 3 4 5 6 
#
# 1 22.0297 19.2217 15.8942 0.0000 0.0000 0.0000
# 2 19.2217 73.7004 25.5298 0.0000 0.0000 0.0000
# 3 15.8942 25.5298 152.8048 0.0000 0.0000 0.0000
# 4 0.0000 0.0000 0.0000 23.5639 0.0000 0.0000
# 5 0.0000 0.0000 0.0000 0.0000 20.0758 0.0000
# 6 0.0000 0.0000 0.0000 0.0000 0.0000 4.1448
#
#
#
# Elastic Compliance Matrix: (Units=1/GPa)
#
#
# Indices 1 2 3 4 5 6 
#
# 1 0.060887 -0.014527 -0.003906 0.000000 0.000000 0.000000
# 2 -0.014527 0.017868 -0.001474 0.000000 0.000000 0.000000
# 3 -0.003906 -0.001474 0.007197 0.000000 0.000000 0.000000
# 4 0.000000 0.000000 0.000000 0.042438 0.000000 0.000000
# 5 0.000000 0.000000 0.000000 0.000000 0.049811 0.000000
# 6 0.000000 0.000000 0.000000 0.000000 0.000000 0.241265
#
#
# Mechanical properties :
#
#
# Convention : Reuss Voigt Hill
#
# Bulk Modulus (GPa) = 21.67450 41.09180 31.38315
# Shear Modulus (GPa) = 10.53388 22.08284 16.30836
#
# Velocity S-wave (km/s) = 2.34383 3.39359 2.91633
# Velocity P-wave (km/s) = 4.31604 6.06507 5.26371
#
# Compressibility (1/GPa) = 0.04613716
#
# Stress axis : x y z
#
# Youngs Moduli (GPa) = 16.42400 55.96660 138.94850
#
# Poissons Ratio (x) = 0.81301 0.54275
# Poissons Ratio (y) = 0.23859 0.20484
# Poissons Ratio (z) = 0.06415 0.08251
#
# Static dielectric constant tensor:
#      x y z
#    x 1.707770 0.000000 0.000000 
#    y 0.000000 1.683290 0.000000 
#    z 0.000000 0.000000 1.709020 
# 
# From -- ./inp_files/11259.got.cif
#   From: 2010.05.17/outbox.cif.g08.bks.cpg/sg51_6_cif.got.tgz:11259.got - 2010.06.03 11:52:47.
