data_PCOD9403201
_publ_section_title
;
Structure prediction by ZEFSAII (Michael W. Deem and Ramdas Pophale) SiO2 
 PCOD9403201
Probable space group: P M M A
;
_chemical_formula_sum "Si O2"
_cell_formula_units_Z 40
_cell_length_a 18.493345
_cell_length_b 12.782130
_cell_length_c 8.543226
_cell_angle_alpha 90.000000
_cell_angle_beta 90.000000
_cell_angle_gamma 90.000000
_cell_volume 2019.484839
_symmetry_space_group_name_H-M "P M M A"
_symmetry_group_IT_number 51
_symmetry_cell_setting 'orthorhombic'
loop_
_space_group_symop_operation_xyz
x,y,z
1/2-x,-y,z
1/2+x,-y,-z
-x,y,-z
-x,-y,-z
1/2+x,y,-z
1/2-x,y,z
x,-y,z
loop_
_atom_site_type_symbol
_atom_site_label
_atom_site_fract_x
_atom_site_fract_y
_atom_site_fract_z
Si Si1 0.162756 0.379146 0.379865
Si Si2 0.933016 0.777071 0.413168
Si Si3 0.035233 0.616801 0.839704
Si Si4 0.665125 0.880813 0.153152
Si Si5 0.665735 0.327378 0.979174
O O1 0.250000 0.367114 0.397016
O O2 0.144668 0.500000 0.422744
O O3 0.120725 0.292073 0.479518
O O4 0.145427 0.361343 0.195767
O O5 0.973589 0.692245 0.303855
O O6 0.885363 0.848472 0.298277
O O7 0.000000 0.832293 0.500000
O O8 0.008997 0.500000 0.809861
O O9 0.119433 0.616179 0.887806
O O10 0.000000 0.657488 0.000000
O O11 0.750000 0.872444 0.198320
O O12 0.654003 0.795751 0.015648
O O13 0.651189 0.000000 0.104882
O O14 0.750000 0.350620 0.997849
#
# Coordination Sequence:
#
# PCOD9403201 Si02
#       5
#     8   8   8   8   8
#     4  10  20  34  53  80 114 146 175 212 261 318
#     4  11  22  34  52  78 111 143 176 217 266 320
#     4  10  20  33  50  73 104 143 183 217 254 307
#     4   9  19  38  60  78 100 134 178 226 270 312
#     4   9  18  33  54  77 100 131 174 221 265 311
#
# _framework density 19.807030999999998
#
# number of rings (size 3 to 8) (size 9 to 14) (size 15 to 20)
#    0.000    2.200    0.000    3.000    0.000    5.600 
#    0.000    1.000    0.000   24.000    0.000    0.000 
#    0.000    0.000    0.000    0.000    0.000    0.000 
#
# Total GULP energy -223206.718239 kJ/mol
# GULP energy per Si atom -5580.167956 kJ/mol
# Density = 1.976195 g / cm^3
# Si number density = 19.807031 Si / 1000 Ang^3
#
#
#
# Elastic Constant Matrix: (Units=GPa)
#
#
# Indices 1 2 3 4 5 6 
#
# 1 49.5926 20.2705 4.1113 0.0000 0.0000 0.0000
# 2 20.2705 73.4587 2.2110 0.0000 0.0000 0.0000
# 3 4.1113 2.2110 22.9505 0.0000 0.0000 0.0000
# 4 0.0000 0.0000 0.0000 -44.1858 0.0000 0.0000
# 5 0.0000 0.0000 0.0000 0.0000 34.3893 0.0000
# 6 0.0000 0.0000 0.0000 0.0000 0.0000 11.5084
#
#
#
# Elastic Compliance Matrix: (Units=1/GPa)
#
#
# Indices 1 2 3 4 5 6 
#
# 1 0.023008 -0.006243 -0.003520 0.000000 0.000000 0.000000
# 2 -0.006243 0.015347 -0.000360 0.000000 0.000000 0.000000
# 3 -0.003520 -0.000360 0.044237 0.000000 0.000000 0.000000
# 4 0.000000 0.000000 0.000000 -0.022632 0.000000 0.000000
# 5 0.000000 0.000000 0.000000 0.000000 0.029079 0.000000
# 6 0.000000 0.000000 0.000000 0.000000 0.000000 0.086893
#
#
# Mechanical properties :
#
#
# Convention : Reuss Voigt Hill
#
# Bulk Modulus (GPa) = 16.03967 22.13193 19.08580
# Shear Modulus (GPa) = 23.04570 8.30299 15.67434
#
# Velocity S-wave (km/s) = 3.41473 2.04964 2.81615
# Velocity P-wave (km/s) = 4.86443 4.09871 4.49790
#
# Compressibility (1/GPa) = 0.06234543
#
# Stress axis : x y z
#
# Youngs Moduli (GPa) = 43.46338 65.16085 22.60535
#
# Poissons Ratio (x) = 0.40680 0.07957
# Poissons Ratio (y) = 0.27134 0.00814
# Poissons Ratio (z) = 0.15300 0.02346
#
# Static dielectric constant tensor:
#      x y z
#    x 1.771480 0.000000 0.000000 
#    y 0.000000 1.682070 0.000000 
#    z 0.000000 0.000000 1.671810 
# 
# From -- ./inp_files/9256.got.cif
#   From: 2010.05.17/outbox.cif.g08.bks.cpg/sg51_5_cif.got.tgz:9256.got - 2010.06.03 11:52:47.
