data_PCOD9403907
_publ_section_title
;
Structure prediction by ZEFSAII (Michael W. Deem and Ramdas Pophale) SiO2 
 PCOD9403907
Probable space group: P M M A
;
_chemical_formula_sum "Si O2"
_cell_formula_units_Z 52
_cell_length_a 14.033644
_cell_length_b 28.691135
_cell_length_c 5.559240
_cell_angle_alpha 90.000000
_cell_angle_beta 90.000000
_cell_angle_gamma 90.000000
_cell_volume 2238.378923
_symmetry_space_group_name_H-M "P M M A"
_symmetry_group_IT_number 51
_symmetry_cell_setting 'orthorhombic'
loop_
_space_group_symop_operation_xyz
x,y,z
1/2-x,-y,z
1/2+x,-y,-z
-x,y,-z
-x,-y,-z
1/2+x,y,-z
1/2-x,y,z
x,-y,z
loop_
_atom_site_type_symbol
_atom_site_label
_atom_site_fract_x
_atom_site_fract_y
_atom_site_fract_z
Si Si1 0.600880 0.858804 0.364519
Si Si2 0.633850 0.602436 0.867010
Si Si3 0.866476 0.554073 0.366858
Si Si4 0.000000 0.912551 0.000000
Si Si5 0.647839 0.949368 0.647961
Si Si6 0.633263 0.710979 0.872789
Si Si7 0.641588 0.247600 0.374005
O O1 0.500000 0.853476 0.500000
O O2 0.579566 0.877586 0.100096
O O3 0.648654 0.903269 0.487632
O O4 0.645260 0.808268 0.367366
O O5 0.750000 0.600114 0.867456
O O6 0.602981 0.579735 0.120673
O O7 0.603031 0.577048 0.620248
O O8 0.607876 0.656708 0.860478
O O9 0.750000 0.555726 0.367411
O O10 0.894351 0.500000 0.358148
O O11 0.946138 0.943659 0.807140
O O12 0.750000 0.949385 0.782836
O O13 0.642675 0.000000 0.522005
O O14 0.750000 0.714694 0.875316
O O15 0.599706 0.736413 0.629375
O O16 0.599742 0.733260 0.124408
O O17 0.750000 0.266244 0.377058
#
# Coordination Sequence:
#
# PCOD9403907 Si02
#       7
#     8   8   8   4   8   8   8
#     4  10  23  39  57  81 114 152 192 244 300 365
#     4   9  15  24  36  53  84 120 166 223 274 326
#     4   9  15  21  32  51  79 121 171 219 266 325
#     4  10  23  40  62  90 122 160 204 252 309 378
#     4  10  22  40  63  92 125 161 203 251 309 372
#     4   9  18  30  47  71  97 133 179 235 291 342
#     4  10  20  34  54  78 105 138 187 239 289 350
#
# _framework density 23.231099
#
# number of rings (size 3 to 8) (size 9 to 14) (size 15 to 20)
#    0.000    2.462    0.000    2.077    4.308   10.154 
#    0.000    1.538    0.000    0.000    0.000    0.000 
#    0.000    0.000    0.000    0.000    0.000   53.846 
#
# Total GULP energy -290372.207590 kJ/mol
# GULP energy per Si atom -5584.080915 kJ/mol
# Density = 2.317822 g / cm^3
# Si number density = 23.231099 Si / 1000 Ang^3
#
#
#
# Elastic Constant Matrix: (Units=GPa)
#
#
# Indices 1 2 3 4 5 6 
#
# 1 64.5162 11.9829 27.2510 0.0000 0.0000 0.0000
# 2 11.9829 205.7357 125.1742 0.0000 0.0000 0.0000
# 3 27.2510 125.1742 195.6945 0.0000 0.0000 0.0000
# 4 0.0000 0.0000 0.0000 98.3238 0.0000 0.0000
# 5 0.0000 0.0000 0.0000 0.0000 24.8791 0.0000
# 6 0.0000 0.0000 0.0000 0.0000 0.0000 5.7301
#
#
#
# Elastic Compliance Matrix: (Units=1/GPa)
#
#
# Indices 1 2 3 4 5 6 
#
# 1 0.016533 0.000717 -0.002761 0.000000 0.000000 0.000000
# 2 0.000717 0.007988 -0.005210 0.000000 0.000000 0.000000
# 3 -0.002761 -0.005210 0.008827 0.000000 0.000000 0.000000
# 4 0.000000 0.000000 0.000000 0.010170 0.000000 0.000000
# 5 0.000000 0.000000 0.000000 0.000000 0.040194 0.000000
# 6 0.000000 0.000000 0.000000 0.000000 0.000000 0.174517
#
#
# Mechanical properties :
#
#
# Convention : Reuss Voigt Hill
#
# Bulk Modulus (GPa) = 53.07560 88.30694 70.69127
# Shear Modulus (GPa) = 17.92002 45.88915 31.90458
#
# Velocity S-wave (km/s) = 2.78039 4.44929 3.70990
# Velocity P-wave (km/s) = 5.76227 8.03056 6.98905
#
# Compressibility (1/GPa) = 0.01884105
#
# Stress axis : x y z
#
# Youngs Moduli (GPa) = 60.48521 125.18039 113.29277
#
# Poissons Ratio (x) = -0.08972 0.31277
# Poissons Ratio (y) = -0.04335 0.59021
# Poissons Ratio (z) = 0.16698 0.65213
#
# Static dielectric constant tensor:
#      x y z
#    x 1.988530 0.000000 0.000000 
#    y 0.000000 1.789310 0.000000 
#    z 0.000000 0.000000 1.875970 
# 
# From -- ./inp_files/2069.got.cif
#   From: 2010.05.17/outbox.cif.g08.bks.cpg/sg51_2_cif.got.tgz:2069.got - 2010.06.03 11:52:47.
