data_PCOD9403943
_publ_section_title
;
Structure prediction by ZEFSAII (Michael W. Deem and Ramdas Pophale) SiO2 
 PCOD9403943
Probable space group: P M M A
;
_chemical_formula_sum "Si O2"
_cell_formula_units_Z 40
_cell_length_a 9.762744
_cell_length_b 14.139058
_cell_length_c 15.602974
_cell_angle_alpha 90.000000
_cell_angle_beta 90.000000
_cell_angle_gamma 90.000000
_cell_volume 2153.772176
_symmetry_space_group_name_H-M "P M M A"
_symmetry_group_IT_number 51
_symmetry_cell_setting 'orthorhombic'
loop_
_space_group_symop_operation_xyz
x,y,z
1/2-x,-y,z
1/2+x,-y,-z
-x,y,-z
-x,-y,-z
1/2+x,y,-z
1/2-x,y,z
x,-y,z
loop_
_atom_site_type_symbol
_atom_site_label
_atom_site_fract_x
_atom_site_fract_y
_atom_site_fract_z
Si Si1 0.595010 0.895014 0.265485
Si Si2 0.090305 0.612716 0.583471
Si Si3 0.902104 0.112077 0.572459
Si Si4 0.908992 0.688075 0.228391
Si Si5 0.593345 0.613457 0.921175
O O1 0.750000 0.891870 0.303872
O O2 0.481762 0.885204 0.338488
O O3 0.584462 0.800556 0.210260
O O4 0.580895 0.000000 0.225889
O O5 0.250000 0.631128 0.564277
O O6 0.075402 0.500000 0.601555
O O7 0.057357 0.667599 0.671641
O O8 0.000000 0.633416 0.500000
O O9 0.750000 0.153416 0.575156
O O10 0.000000 0.153742 0.500000
O O11 0.887422 0.000000 0.552622
O O12 0.750000 0.656999 0.215645
O O13 0.014131 0.637490 0.165991
O O14 0.750000 0.649302 0.923201
O O15 0.600333 0.500000 0.928623
O O16 0.500000 0.648886 0.000000
#
# Coordination Sequence:
#
# PCOD9403943 Si02
#       5
#     8   8   8   8   8
#     4   9  18  32  48  68  97 133 173 217 265 314
#     4   9  18  32  49  70  99 136 176 217 261 311
#     4   9  16  26  41  60  84 119 165 217 269 315
#     4  10  20  34  54  79 107 141 179 220 267 316
#     4  10  21  37  59  87 115 140 167 206 259 317
#
# _framework density 18.572066
#
# number of rings (size 3 to 8) (size 9 to 14) (size 15 to 20)
#    0.000    2.600    0.000    1.800    0.000    6.800 
#    0.000    4.000    0.000    0.600    0.000    0.000 
#    0.000    0.000    0.000    0.000    0.000    0.000 
#
# Total GULP energy -222926.090641 kJ/mol
# GULP energy per Si atom -5573.152266 kJ/mol
# Density = 1.852979 g / cm^3
# Si number density = 18.572066 Si / 1000 Ang^3
#
#
#
# Elastic Constant Matrix: (Units=GPa)
#
#
# Indices 1 2 3 4 5 6 
#
# 1 124.0933 18.7163 52.2752 0.0000 0.0000 0.0000
# 2 18.7163 56.4961 12.1465 0.0000 0.0000 0.0000
# 3 52.2752 12.1465 73.6794 0.0000 0.0000 0.0000
# 4 0.0000 0.0000 0.0000 0.7596 0.0000 0.0000
# 5 0.0000 0.0000 0.0000 0.0000 21.1923 0.0000
# 6 0.0000 0.0000 0.0000 0.0000 0.0000 10.1041
#
#
#
# Elastic Compliance Matrix: (Units=1/GPa)
#
#
# Indices 1 2 3 4 5 6 
#
# 1 0.011746 -0.002177 -0.007975 0.000000 0.000000 0.000000
# 2 -0.002177 0.018754 -0.001547 0.000000 0.000000 0.000000
# 3 -0.007975 -0.001547 0.019486 0.000000 0.000000 0.000000
# 4 0.000000 0.000000 0.000000 1.316403 0.000000 0.000000
# 5 0.000000 0.000000 0.000000 0.000000 0.047187 0.000000
# 6 0.000000 0.000000 0.000000 0.000000 0.000000 0.098970
#
#
# Mechanical properties :
#
#
# Convention : Reuss Voigt Hill
#
# Bulk Modulus (GPa) = 37.61129 46.72721 42.16925
# Shear Modulus (GPa) = 3.23665 17.81993 10.52829
#
# Velocity S-wave (km/s) = 1.32157 3.10094 2.38353
# Velocity P-wave (km/s) = 4.75649 6.16731 5.50726
#
# Compressibility (1/GPa) = 0.02658776
#
# Stress axis : x y z
#
# Youngs Moduli (GPa) = 85.13295 53.32155 51.31968
#
# Poissons Ratio (x) = 0.11607 0.40928
# Poissons Ratio (y) = 0.18531 0.07941
# Poissons Ratio (z) = 0.67894 0.08251
#
# Static dielectric constant tensor:
#      x y z
#    x 1.654700 0.000000 0.000000 
#    y 0.000000 1.691250 0.000000 
#    z 0.000000 0.000000 1.603390 
# 
# From -- ./inp_files/20487.got.cif
#   From: 2010.05.17/outbox.cif.g08.bks.cpg/sg51_11_cif.got.tgz:20487.got - 2010.06.03 11:52:47.
