data_PCOD9403574
_publ_section_title
;
Structure prediction by ZEFSAII (Michael W. Deem and Ramdas Pophale) SiO2 
 PCOD9403574
Probable space group: P M M A
;
_chemical_formula_sum "Si O2"
_cell_formula_units_Z 40
_cell_length_a 8.227250
_cell_length_b 27.040780
_cell_length_c 9.986271
_cell_angle_alpha 90.000000
_cell_angle_beta 90.000000
_cell_angle_gamma 90.000000
_cell_volume 2221.658265
_symmetry_space_group_name_H-M "P M M A"
_symmetry_group_IT_number 51
_symmetry_cell_setting 'orthorhombic'
loop_
_space_group_symop_operation_xyz
x,y,z
1/2-x,-y,z
1/2+x,-y,-z
-x,y,-z
-x,-y,-z
1/2+x,y,-z
1/2-x,y,z
x,-y,z
loop_
_atom_site_type_symbol
_atom_site_label
_atom_site_fract_x
_atom_site_fract_y
_atom_site_fract_z
Si Si1 0.946432 0.555731 0.151942
Si Si2 0.944463 0.248585 0.652794
Si Si3 0.553147 0.161343 0.845621
Si Si4 0.555487 0.358143 0.347574
Si Si5 0.946262 0.053065 0.844698
O O1 0.750000 0.555858 0.155688
O O2 0.001282 0.500000 0.188313
O O3 0.005975 0.598286 0.251478
O O4 0.000000 0.565358 0.000000
O O5 0.750000 0.247748 0.653974
O O6 0.005663 0.205819 0.751935
O O7 0.000000 0.240510 0.500000
O O8 0.999390 0.303450 0.694538
O O9 0.750000 0.161760 0.844113
O O10 0.498597 0.106861 0.793899
O O11 0.500000 0.167123 0.000000
O O12 0.500000 0.365972 0.500000
O O13 0.750000 0.358564 0.345472
O O14 0.750000 0.052933 0.839203
O O15 0.002958 0.000000 0.786394
O O16 0.000000 0.052826 0.000000
#
# Coordination Sequence:
#
# PCOD9403574 Si02
#       5
#     8   8   8   8   8
#     4   9  19  35  53  74 100 128 157 190 230 276
#     4  10  20  34  50  68  93 125 160 194 232 278
#     4   9  18  30  46  70  95 120 153 192 233 278
#     4  10  20  34  52  73  96 123 158 196 233 275
#     4   8  13  23  40  62  88 116 146 183 227 272
#
# _framework density 18.004569
#
# number of rings (size 3 to 8) (size 9 to 14) (size 15 to 20)
#    0.000    2.800    0.000    2.400    0.000    4.400 
#    0.000    4.000    0.000    0.600    0.000    0.000 
#    0.000    0.000    0.000    0.000    0.000    0.800 
#
# Total GULP energy -222790.707426 kJ/mol
# GULP energy per Si atom -5569.767686 kJ/mol
# Density = 1.796359 g / cm^3
# Si number density = 18.004569 Si / 1000 Ang^3
#
#
#
# Elastic Constant Matrix: (Units=GPa)
#
#
# Indices 1 2 3 4 5 6 
#
# 1 20.2751 19.9845 7.6045 0.0000 0.0000 0.0000
# 2 19.9845 228.3852 106.5361 0.0000 0.0000 0.0000
# 3 7.6045 106.5361 63.8968 0.0000 0.0000 0.0000
# 4 0.0000 0.0000 0.0000 4.5497 0.0000 0.0000
# 5 0.0000 0.0000 0.0000 0.0000 20.8040 0.0000
# 6 0.0000 0.0000 0.0000 0.0000 0.0000 22.5995
#
#
#
# Elastic Compliance Matrix: (Units=1/GPa)
#
#
# Indices 1 2 3 4 5 6 
#
# 1 0.054589 -0.007857 0.006603 0.000000 0.000000 0.000000
# 2 -0.007857 0.020833 -0.033800 0.000000 0.000000 0.000000
# 3 0.006603 -0.033800 0.071219 0.000000 0.000000 0.000000
# 4 0.000000 0.000000 0.000000 0.219796 0.000000 0.000000
# 5 0.000000 0.000000 0.000000 0.000000 0.048068 0.000000
# 6 0.000000 0.000000 0.000000 0.000000 0.000000 0.044249
#
#
# Mechanical properties :
#
#
# Convention : Reuss Voigt Hill
#
# Bulk Modulus (GPa) = 13.06602 64.53414 38.80008
# Shear Modulus (GPa) = 9.01920 21.48609 15.25265
#
# Velocity S-wave (km/s) = 2.24060 3.45826 2.91375
# Velocity P-wave (km/s) = 3.73718 7.20188 5.73732
#
# Compressibility (1/GPa) = 0.07653438
#
# Stress axis : x y z
#
# Youngs Moduli (GPa) = 18.31861 48.00092 14.04110
#
# Poissons Ratio (x) = 0.37714 -0.09272
# Poissons Ratio (y) = 0.14393 0.47459
# Poissons Ratio (z) = -0.12096 1.62243
#
# Static dielectric constant tensor:
#      x y z
#    x 1.630660 0.000000 0.000000 
#    y 0.000000 1.677030 0.000000 
#    z 0.000000 0.000000 1.578380 
# 
# From -- ./inp_files/5476.got.cif
#   From: 2010.05.17/outbox.cif.g08.bks.cpg/sg51_3_cif.got.tgz:5476.got - 2010.06.03 11:52:47.
