data_PCOD9403256
_publ_section_title
;
Structure prediction by ZEFSAII (Michael W. Deem and Ramdas Pophale) SiO2 
 PCOD9403256
Probable space group: P M M A
;
_chemical_formula_sum "Si O2"
_cell_formula_units_Z 40
_cell_length_a 18.181801
_cell_length_b 7.842278
_cell_length_c 15.927061
_cell_angle_alpha 90.000000
_cell_angle_beta 90.000000
_cell_angle_gamma 90.000000
_cell_volume 2270.987674
_symmetry_space_group_name_H-M "P M M A"
_symmetry_group_IT_number 51
_symmetry_cell_setting 'orthorhombic'
loop_
_space_group_symop_operation_xyz
x,y,z
1/2-x,-y,z
1/2+x,-y,-z
-x,y,-z
-x,-y,-z
1/2+x,y,-z
1/2-x,y,z
x,-y,z
loop_
_atom_site_type_symbol
_atom_site_label
_atom_site_fract_x
_atom_site_fract_y
_atom_site_fract_z
Si Si1 0.164823 0.704912 0.009337
Si Si2 0.834536 0.799489 0.175646
Si Si3 0.887127 0.699550 0.809062
Si Si4 0.485891 0.000000 0.401524
Si Si5 0.963624 0.310709 0.290504
Si Si6 0.332598 0.000000 0.307834
O O1 0.250000 0.758852 0.020678
O O2 0.163236 0.500000 0.002273
O O3 0.121934 0.750475 0.093819
O O4 0.138753 0.775432 0.920230
O O5 0.750000 0.737052 0.178461
O O6 0.887591 0.710364 0.241337
O O7 0.834843 0.000000 0.194487
O O8 0.862836 0.500000 0.800812
O O9 0.970975 0.708080 0.777776
O O10 0.843781 0.832591 0.750640
O O11 0.500000 0.000000 0.500000
O O12 0.522435 0.834940 0.358344
O O13 0.399539 0.000000 0.374613
O O14 0.969466 0.500000 0.327273
O O15 0.250000 0.000000 0.342894
#
# Coordination Sequence:
#
# PCOD9403256 Si02
#       6
#     8   8   8   4   8   4
#     4   9  17  29  45  69 105 147 186 223 260 299
#     4  10  20  33  50  75 109 147 187 229 266 304
#     4   9  19  33  51  78 110 144 182 222 261 309
#     4  10  22  42  61  83 113 135 169 218 272 334
#     4  10  20  37  59  80 105 140 179 219 271 326
#     4  10  20  34  57  83 107 141 175 213 267 320
#
# _framework density 17.613482000000001
#
# number of rings (size 3 to 8) (size 9 to 14) (size 15 to 20)
#    0.000    2.400    1.000    1.200    1.400    3.600 
#    0.000    5.000    0.000    0.000    0.000    0.000 
#    0.000    0.000    0.000    0.000    0.000    0.000 
#
# Total GULP energy -223098.628732 kJ/mol
# GULP energy per Si atom -5577.465718 kJ/mol
# Density = 1.757339 g / cm^3
# Si number density = 17.613482 Si / 1000 Ang^3
#
#
#
# Elastic Constant Matrix: (Units=GPa)
#
#
# Indices 1 2 3 4 5 6 
#
# 1 68.7286 40.3217 56.1455 0.0000 0.0000 0.0000
# 2 40.3217 91.2108 53.5856 0.0000 0.0000 0.0000
# 3 56.1455 53.5856 113.1534 0.0000 0.0000 0.0000
# 4 0.0000 0.0000 0.0000 -58.5923 0.0000 0.0000
# 5 0.0000 0.0000 0.0000 0.0000 10.5001 0.0000
# 6 0.0000 0.0000 0.0000 0.0000 0.0000 15.1829
#
#
#
# Elastic Compliance Matrix: (Units=1/GPa)
#
#
# Indices 1 2 3 4 5 6 
#
# 1 0.026312 -0.005489 -0.010457 0.000000 0.000000 0.000000
# 2 -0.005489 0.016335 -0.005012 0.000000 0.000000 0.000000
# 3 -0.010457 -0.005012 0.016400 0.000000 0.000000 0.000000
# 4 0.000000 0.000000 0.000000 -0.017067 0.000000 0.000000
# 5 0.000000 0.000000 0.000000 0.000000 0.095238 0.000000
# 6 0.000000 0.000000 0.000000 0.000000 0.000000 0.065864
#
#
# Mechanical properties :
#
#
# Convention : Reuss Voigt Hill
#
# Bulk Modulus (GPa) = 58.37154 63.68869 61.03012
# Shear Modulus (GPa) = 19.94371 1.62080 10.78225
#
# Velocity S-wave (km/s) = 3.36861 0.96031 2.47687
# Velocity P-wave (km/s) = 6.95286 6.12104 6.55017
#
# Compressibility (1/GPa) = 0.01713164
#
# Stress axis : x y z
#
# Youngs Moduli (GPa) = 38.00507 61.21986 60.97735
#
# Poissons Ratio (x) = 0.33602 0.63761
# Poissons Ratio (y) = 0.20860 0.30562
# Poissons Ratio (z) = 0.39740 0.30684
#
# Static dielectric constant tensor:
#      x y z
#    x 1.610210 0.000000 0.000000 
#    y 0.000000 1.628790 0.000000 
#    z 0.000000 0.000000 1.553670 
# 
# From -- ./inp_files/23836.got.cif
#   From: 2010.05.17/outbox.cif.g08.bks.cpg/sg51_12_cif.got.tgz:23836.got - 2010.06.03 11:52:47.
