data_PCOD9403795
_publ_section_title
;
Structure prediction by ZEFSAII (Michael W. Deem and Ramdas Pophale) SiO2 
 PCOD9403795
Probable space group: P M M A
;
_chemical_formula_sum "Si O2"
_cell_formula_units_Z 48
_cell_length_a 32.166809
_cell_length_b 7.780560
_cell_length_c 9.279287
_cell_angle_alpha 90.000000
_cell_angle_beta 90.000000
_cell_angle_gamma 90.000000
_cell_volume 2322.380861
_symmetry_space_group_name_H-M "P M M A"
_symmetry_group_IT_number 51
_symmetry_cell_setting 'orthorhombic'
loop_
_space_group_symop_operation_xyz
x,y,z
1/2-x,-y,z
1/2+x,-y,-z
-x,y,-z
-x,-y,-z
1/2+x,y,-z
1/2-x,y,z
x,-y,z
loop_
_atom_site_type_symbol
_atom_site_label
_atom_site_fract_x
_atom_site_fract_y
_atom_site_fract_z
Si Si1 0.458983 0.793534 0.080507
Si Si2 0.203340 0.207540 0.423101
Si Si3 0.121043 0.702736 0.595296
Si Si4 0.623330 0.203082 0.074177
Si Si5 0.796283 0.789977 0.910753
Si Si6 0.041377 0.292332 0.416661
O O1 0.459625 0.758127 0.249953
O O2 0.458924 0.000000 0.061682
O O3 0.500000 0.726218 0.000000
O O4 0.417121 0.724444 0.006159
O O5 0.250000 0.264500 0.466393
O O6 0.165404 0.267500 0.520382
O O7 0.196760 0.258986 0.256212
O O8 0.203343 0.000000 0.426890
O O9 0.114695 0.500000 0.610893
O O10 0.120148 0.777501 0.755190
O O11 0.083254 0.770278 0.496177
O O12 0.624119 0.000000 0.041529
O O13 0.666434 0.273514 0.010370
O O14 0.750000 0.733052 0.954112
O O15 0.795673 0.000000 0.914223
O O16 0.041539 0.500000 0.421761
O O17 0.000000 0.232313 0.500000
#
# Coordination Sequence:
#
# PCOD9403795 Si02
#       6
#     8   8   8   8   8   8
#     4  10  21  36  56  83 109 134 173 226 276 318
#     4   9  18  35  59  82 105 139 180 220 269 327
#     4  11  23  36  52  78 111 144 181 225 268 313
#     4  10  20  34  53  77 106 139 175 217 267 322
#     4   8  15  30  53  78 100 127 170 217 256 305
#     4  10  22  39  57  78 107 146 187 222 264 323
#
# _framework density 20.668443
#
# number of rings (size 3 to 8) (size 9 to 14) (size 15 to 20)
#    0.000    2.333    0.000    3.500    0.000    5.000 
#    0.000    2.500    0.000    1.000    0.000    0.000 
#    0.000    0.000    0.000    0.000    0.000    0.000 
#
# Total GULP energy -268065.568312 kJ/mol
# GULP energy per Si atom -5584.699340 kJ/mol
# Density = 2.062140 g / cm^3
# Si number density = 20.668443 Si / 1000 Ang^3
#
#
#
# Elastic Constant Matrix: (Units=GPa)
#
#
# Indices 1 2 3 4 5 6 
#
# 1 212.7168 2.6000 119.7071 0.0000 0.0000 0.0000
# 2 2.6000 21.3993 -16.9197 0.0000 0.0000 0.0000
# 3 119.7071 -16.9197 137.5922 0.0000 0.0000 0.0000
# 4 0.0000 0.0000 0.0000 53.9020 0.0000 0.0000
# 5 0.0000 0.0000 0.0000 0.0000 42.1832 0.0000
# 6 0.0000 0.0000 0.0000 0.0000 0.0000 -4.5570
#
#
#
# Elastic Compliance Matrix: (Units=1/GPa)
#
#
# Indices 1 2 3 4 5 6 
#
# 1 0.010748 -0.009636 -0.010536 0.000000 0.000000 0.000000
# 2 -0.009636 0.060403 0.015811 0.000000 0.000000 0.000000
# 3 -0.010536 0.015811 0.018378 0.000000 0.000000 0.000000
# 4 0.000000 0.000000 0.000000 0.018552 0.000000 0.000000
# 5 0.000000 0.000000 0.000000 0.000000 0.023706 0.000000
# 6 0.000000 0.000000 0.000000 0.000000 0.000000 -0.219443
#
#
# Mechanical properties :
#
#
# Convention : Reuss Voigt Hill
#
# Bulk Modulus (GPa) = 12.37505 64.72034 38.54769
# Shear Modulus (GPa) = -96.15650 36.06036 -30.04807
#
# Velocity S-wave (km/s) = -6.82820 4.18150 -3.81703
# Velocity P-wave (km/s) = 7.49436 7.39560 0.85748
#
# Compressibility (1/GPa) = 0.08080779
#
# Stress axis : x y z
#
# Youngs Moduli (GPa) = 93.04136 16.55555 54.41160
#
# Poissons Ratio (x) = 0.15953 0.57327
# Poissons Ratio (y) = 0.89656 -0.86032
# Poissons Ratio (z) = 0.98026 -0.26176
#
# Static dielectric constant tensor:
#      x y z
#    x 1.831310 0.000000 0.000000 
#    y 0.000000 1.757490 0.000000 
#    z 0.000000 0.000000 1.674110 
# 
# From -- ./inp_files/12732.got.cif
#   From: 2010.05.17/outbox.cif.g08.bks.cpg/sg51_7_cif.got.tgz:12732.got - 2010.06.03 11:52:47.
