data_PCOD9403059
_publ_section_title
;
Structure prediction by ZEFSAII (Michael W. Deem and Ramdas Pophale) SiO2 
 PCOD9403059
Probable space group: P M M A
;
_chemical_formula_sum "Si O2"
_cell_formula_units_Z 48
_cell_length_a 8.869425
_cell_length_b 14.293729
_cell_length_c 20.053819
_cell_angle_alpha 90.000000
_cell_angle_beta 90.000000
_cell_angle_gamma 90.000000
_cell_volume 2542.366167
_symmetry_space_group_name_H-M "P M M A"
_symmetry_group_IT_number 51
_symmetry_cell_setting 'orthorhombic'
loop_
_space_group_symop_operation_xyz
x,y,z
1/2-x,-y,z
1/2+x,-y,-z
-x,y,-z
-x,-y,-z
1/2+x,y,-z
1/2-x,y,z
x,-y,z
loop_
_atom_site_type_symbol
_atom_site_label
_atom_site_fract_x
_atom_site_fract_y
_atom_site_fract_z
Si Si1 0.427377 0.227945 0.686812
Si Si2 0.934057 0.391746 0.217278
Si Si3 0.069635 0.106429 0.426538
Si Si4 0.425532 0.613449 0.930743
Si Si5 0.077540 0.886443 0.931829
Si Si6 0.579275 0.887723 0.796343
O O1 0.250000 0.235689 0.673165
O O2 0.480803 0.324123 0.722346
O O3 0.509505 0.186765 0.622230
O O4 0.461961 0.152187 0.743924
O O5 0.750000 0.389240 0.215086
O O6 0.978323 0.500000 0.227047
O O7 0.985059 0.359145 0.143031
O O8 0.250000 0.110966 0.429993
O O9 0.000000 0.116429 0.500000
O O10 0.029989 0.000000 0.402591
O O11 0.250000 0.638285 0.933800
O O12 0.435064 0.500000 0.929815
O O13 0.500000 0.644599 0.000000
O O14 0.250000 0.854507 0.925131
O O15 0.975398 0.859696 0.869545
O O16 0.081989 0.000000 0.932773
O O17 0.000000 0.856498 0.000000
O O18 0.750000 0.855532 0.781809
O O19 0.579855 0.000000 0.793377
#
# Coordination Sequence:
#
# PCOD9403059 Si02
#       6
#     8   8   8   8   8   8
#     4  11  21  33  54  81 107 137 174 216 261 311
#     4   8  16  32  52  74 103 141 182 222 268 321
#     4  10  21  38  60  86 116 146 173 205 250 307
#     4   8  13  24  44  68  94 126 167 216 267 316
#     4   9  16  27  44  65  90 124 168 215 261 310
#     4  10  20  33  48  68  98 135 172 212 259 310
#
# _framework density 18.880050000000001
#
# number of rings (size 3 to 8) (size 9 to 14) (size 15 to 20)
#    0.000    2.667    0.000    3.500    0.000    6.000 
#    0.000    2.500    0.000    6.500    0.000    0.000 
#    0.000    0.000    0.000    0.000    0.000    0.000 
#
# Total GULP energy -267732.906668 kJ/mol
# GULP energy per Si atom -5577.768889 kJ/mol
# Density = 1.883708 g / cm^3
# Si number density = 18.880050 Si / 1000 Ang^3
#
#
#
# Elastic Constant Matrix: (Units=GPa)
#
#
# Indices 1 2 3 4 5 6 
#
# 1 39.6240 24.2587 23.0069 0.0000 0.0000 0.0000
# 2 24.2587 109.5594 56.2643 0.0000 0.0000 0.0000
# 3 23.0069 56.2643 116.0498 0.0000 0.0000 0.0000
# 4 0.0000 0.0000 0.0000 54.2997 0.0000 0.0000
# 5 0.0000 0.0000 0.0000 0.0000 32.6336 0.0000
# 6 0.0000 0.0000 0.0000 0.0000 0.0000 8.0105
#
#
#
# Elastic Compliance Matrix: (Units=1/GPa)
#
#
# Indices 1 2 3 4 5 6 
#
# 1 0.030325 -0.004830 -0.003670 0.000000 0.000000 0.000000
# 2 -0.004830 0.012923 -0.005308 0.000000 0.000000 0.000000
# 3 -0.003670 -0.005308 0.011918 0.000000 0.000000 0.000000
# 4 0.000000 0.000000 0.000000 0.018416 0.000000 0.000000
# 5 0.000000 0.000000 0.000000 0.000000 0.030643 0.000000
# 6 0.000000 0.000000 0.000000 0.000000 0.000000 0.124837
#
#
# Mechanical properties :
#
#
# Convention : Reuss Voigt Hill
#
# Bulk Modulus (GPa) = 36.29748 52.47699 44.38724
# Shear Modulus (GPa) = 18.80681 29.76897 24.28789
#
# Velocity S-wave (km/s) = 3.15956 3.97513 3.59058
# Velocity P-wave (km/s) = 5.70767 6.99458 6.38364
#
# Compressibility (1/GPa) = 0.02755012
#
# Stress axis : x y z
#
# Youngs Moduli (GPa) = 32.97590 77.38331 83.90650
#
# Poissons Ratio (x) = 0.37374 0.30797
# Poissons Ratio (y) = 0.15926 0.44536
# Poissons Ratio (z) = 0.12103 0.41074
#
# Static dielectric constant tensor:
#      x y z
#    x 1.662350 0.000000 0.000000 
#    y 0.000000 1.712970 0.000000 
#    z 0.000000 0.000000 1.577890 
# 
# From -- ./inp_files/27535.got.cif
#   From: 2010.05.17/outbox.cif.g08.bks.cpg/sg51_14_cif.got.tgz:27535.got - 2010.06.03 11:52:47.
