data_PCOD9403746
_publ_section_title
;
Structure prediction by ZEFSAII (Michael W. Deem and Ramdas Pophale) SiO2 
 PCOD9403746
Probable space group: P M M A
;
_chemical_formula_sum "Si O2"
_cell_formula_units_Z 64
_cell_length_a 15.267568
_cell_length_b 21.079353
_cell_length_c 9.832873
_cell_angle_alpha 90.000000
_cell_angle_beta 90.000000
_cell_angle_gamma 90.000000
_cell_volume 3164.517995
_symmetry_space_group_name_H-M "P M M A"
_symmetry_group_IT_number 51
_symmetry_cell_setting 'orthorhombic'
loop_
_space_group_symop_operation_xyz
x,y,z
1/2-x,-y,z
1/2+x,-y,-z
-x,y,-z
-x,-y,-z
1/2+x,y,-z
1/2-x,y,z
x,-y,z
loop_
_atom_site_type_symbol
_atom_site_label
_atom_site_fract_x
_atom_site_fract_y
_atom_site_fract_z
Si Si1 0.853368 0.792294 0.605215
Si Si2 0.857537 0.321502 0.420337
Si Si3 0.098314 0.572138 0.057681
Si Si4 0.648767 0.689458 0.116627
Si Si5 0.644233 0.573337 0.635515
Si Si6 0.588013 0.931102 0.912668
Si Si7 0.413121 0.931262 0.409675
Si Si8 0.146736 0.791606 0.090200
O O1 0.750000 0.780024 0.615351
O O2 0.886909 0.742865 0.494825
O O3 0.864131 0.865565 0.563920
O O4 0.890588 0.781908 0.757476
O O5 0.750000 0.323889 0.417418
O O6 0.890121 0.322398 0.265625
O O7 0.884333 0.380008 0.515680
O O8 0.133406 0.500000 0.043508
O O9 0.103451 0.588330 0.217380
O O10 0.146575 0.625505 0.971229
O O11 0.000000 0.572117 0.000000
O O12 0.750000 0.707675 0.141189
O O13 0.608511 0.745640 0.025006
O O14 0.750000 0.579376 0.651590
O O15 0.625017 0.500000 0.602709
O O16 0.567109 0.929946 0.751664
O O17 0.638326 0.866143 0.942830
O O18 0.631735 0.000000 0.938877
O O19 0.500000 0.929457 0.000000
O O20 0.500000 0.930093 0.500000
O O21 0.368741 0.000000 0.435602
O O22 0.250000 0.776458 0.098763
#
# Coordination Sequence:
#
# PCOD9403746 Si02
#       8
#     8   8   8   8   8   8   8   8
#     4   9  17  31  50  70  96 129 162 199 244 293
#     4   9  18  32  51  76 103 129 162 206 248 289
#     4  10  21  36  53  75 103 133 166 205 248 294
#     4  10  20  34  53  76 101 130 166 207 249 295
#     4   9  17  32  55  78 100 131 168 202 241 293
#     4   9  18  32  50  72  98 130 166 203 246 296
#     4   9  18  32  49  70  96 125 160 203 246 289
#     4   9  18  32  51  74  99 129 165 206 249 292
#
# _framework density 20.224247999999999
#
# number of rings (size 3 to 8) (size 9 to 14) (size 15 to 20)
#    0.000    2.750    0.000    1.125    0.000    5.250 
#    0.000    6.875    0.000    2.250    0.000    7.000 
#    0.000    0.000    0.000    0.000    0.000    0.000 
#
# Total GULP energy -356696.926665 kJ/mol
# GULP energy per Si atom -5573.389479 kJ/mol
# Density = 2.017822 g / cm^3
# Si number density = 20.224248 Si / 1000 Ang^3
#
#
#
# Elastic Constant Matrix: (Units=GPa)
#
#
# Indices 1 2 3 4 5 6 
#
# 1 19.2584 2.7695 10.4601 0.0000 0.0000 0.0000
# 2 2.7695 139.0558 108.4624 0.0000 0.0000 0.0000
# 3 10.4601 108.4624 131.6060 0.0000 0.0000 0.0000
# 4 0.0000 0.0000 0.0000 3.1135 0.0000 0.0000
# 5 0.0000 0.0000 0.0000 0.0000 12.6895 0.0000
# 6 0.0000 0.0000 0.0000 0.0000 0.0000 -6.4360
#
#
#
# Elastic Compliance Matrix: (Units=1/GPa)
#
#
# Indices 1 2 3 4 5 6 
#
# 1 0.056377 0.006642 -0.009955 0.000000 0.000000 0.000000
# 2 0.006642 0.020916 -0.017766 0.000000 0.000000 0.000000
# 3 -0.009955 -0.017766 0.023031 0.000000 0.000000 0.000000
# 4 0.000000 0.000000 0.000000 0.321185 0.000000 0.000000
# 5 0.000000 0.000000 0.000000 0.000000 0.078805 0.000000
# 6 0.000000 0.000000 0.000000 0.000000 0.000000 -0.155375
#
#
# Mechanical properties :
#
#
# Convention : Reuss Voigt Hill
#
# Bulk Modulus (GPa) = 17.19190 59.25601 38.22395
# Shear Modulus (GPa) = 12.30053 13.08861 12.69457
#
# Velocity S-wave (km/s) = 2.46886 2.54672 2.50809
# Velocity P-wave (km/s) = 4.07997 6.16529 5.22766
#
# Compressibility (1/GPa) = 0.05816694
#
# Stress axis : x y z
#
# Youngs Moduli (GPa) = 17.73774 47.80917 43.41887
#
# Poissons Ratio (x) = -0.31753 0.43221
# Poissons Ratio (y) = -0.11781 0.77138
# Poissons Ratio (z) = 0.17657 0.84938
#
# Static dielectric constant tensor:
#      x y z
#    x 1.734290 0.000000 0.000000 
#    y 0.000000 1.739740 0.000000 
#    z 0.000000 0.000000 1.709070 
# 
# From -- ./inp_files/11192.got.cif
#   From: 2010.05.17/outbox.cif.g08.bks.cpg/sg51_6_cif.got.tgz:11192.got - 2010.06.03 11:52:47.
