data_PCOD9403866
_publ_section_title
;
Structure prediction by ZEFSAII (Michael W. Deem and Ramdas Pophale) SiO2 
 PCOD9403866
Probable space group: P M M A
;
_chemical_formula_sum "Si O2"
_cell_formula_units_Z 48
_cell_length_a 14.472131
_cell_length_b 15.584425
_cell_length_c 12.114027
_cell_angle_alpha 90.000000
_cell_angle_beta 90.000000
_cell_angle_gamma 90.000000
_cell_volume 2732.195713
_symmetry_space_group_name_H-M "P M M A"
_symmetry_group_IT_number 51
_symmetry_cell_setting 'orthorhombic'
loop_
_space_group_symop_operation_xyz
x,y,z
1/2-x,-y,z
1/2+x,-y,-z
-x,y,-z
-x,-y,-z
1/2+x,y,-z
1/2-x,y,z
x,-y,z
loop_
_atom_site_type_symbol
_atom_site_label
_atom_site_fract_x
_atom_site_fract_y
_atom_site_fract_z
Si Si1 0.918365 0.902059 0.312793
Si Si2 0.051722 0.403979 0.616956
Si Si3 0.000000 0.768610 0.000000
Si Si4 0.045556 0.743687 0.245733
Si Si5 0.355847 0.906871 0.937012
Si Si6 0.750000 0.398022 0.480446
Si Si7 0.750000 0.897718 0.480631
Si Si8 0.250000 0.250006 0.336264
O O1 0.865571 0.903672 0.195346
O O2 0.842412 0.881467 0.406697
O O3 0.997685 0.831171 0.293293
O O4 0.953053 0.000000 0.332575
O O5 0.047774 0.500000 0.665484
O O6 0.158064 0.382091 0.590888
O O7 0.000000 0.406694 0.500000
O O8 0.999736 0.333682 0.687215
O O9 0.912870 0.830682 0.013375
O O10 0.017443 0.726453 0.118390
O O11 0.155255 0.748846 0.266365
O O12 0.250000 0.900712 0.968108
O O13 0.391559 0.000000 0.973627
O O14 0.750000 0.500000 0.511629
O O15 0.750000 0.334108 0.584216
O O16 0.750000 0.833579 0.583863
O O17 0.750000 0.000000 0.507619
#
# Coordination Sequence:
#
# PCOD9403866 Si02
#       8
#     8   8   4   8   8   4   4   4
#     4   9  18  34  56  79 111 152 195 232 282 347
#     4  10  20  38  63  91 119 148 186 234 285 346
#     4  10  23  38  53  76 112 150 196 240 290 334
#     4  11  24  39  57  83 116 156 198 238 290 341
#     4   9  16  31  55  78  99 138 197 251 287 326
#     4  10  20  36  63  95 119 143 184 235 289 340
#     4  10  20  34  53  83 119 155 190 233 290 356
#     4  12  24  36  54  82 120 150 188 234 289 356
#
# _framework density 17.568286000000001
#
# number of rings (size 3 to 8) (size 9 to 14) (size 15 to 20)
#    0.000    2.000    2.500    1.250    1.167    1.333 
#    1.500    2.083    0.000    0.000    0.000    0.000 
#    0.000    0.000    0.000    0.000    0.000    0.000 
#
# Total GULP energy -267627.434254 kJ/mol
# GULP energy per Si atom -5575.571547 kJ/mol
# Density = 1.752830 g / cm^3
# Si number density = 17.568286 Si / 1000 Ang^3
#
#
#
# Elastic Constant Matrix: (Units=GPa)
#
#
# Indices 1 2 3 4 5 6 
#
# 1 136.3617 47.0419 31.5586 0.0000 0.0000 0.0000
# 2 47.0419 75.6051 46.0845 0.0000 0.0000 0.0000
# 3 31.5586 46.0845 70.4981 0.0000 0.0000 0.0000
# 4 0.0000 0.0000 0.0000 -37.4162 0.0000 0.0000
# 5 0.0000 0.0000 0.0000 0.0000 18.0982 0.0000
# 6 0.0000 0.0000 0.0000 0.0000 0.0000 17.4960
#
#
#
# Elastic Compliance Matrix: (Units=1/GPa)
#
#
# Indices 1 2 3 4 5 6 
#
# 1 0.009355 -0.005433 -0.000636 0.000000 0.000000 0.000000
# 2 -0.005433 0.025143 -0.014004 0.000000 0.000000 0.000000
# 3 -0.000636 -0.014004 0.023624 0.000000 0.000000 0.000000
# 4 0.000000 0.000000 0.000000 -0.026726 0.000000 0.000000
# 5 0.000000 0.000000 0.000000 0.000000 0.055254 0.000000
# 6 0.000000 0.000000 0.000000 0.000000 0.000000 0.057156
#
#
# Mechanical properties :
#
#
# Convention : Reuss Voigt Hill
#
# Bulk Modulus (GPa) = 55.63049 59.09275 57.36162
# Shear Modulus (GPa) = 26.32364 10.15426 18.23895
#
# Velocity S-wave (km/s) = 3.87507 2.40675 3.22557
# Velocity P-wave (km/s) = 7.19413 6.43679 6.82597
#
# Compressibility (1/GPa) = 0.01797575
#
# Stress axis : x y z
#
# Youngs Moduli (GPa) = 106.89568 39.77265 42.32995
#
# Poissons Ratio (x) = 0.21608 0.02694
# Poissons Ratio (y) = 0.58075 0.59278
# Poissons Ratio (z) = 0.06802 0.55697
#
# Static dielectric constant tensor:
#      x y z
#    x 1.614970 0.000000 0.000000 
#    y 0.000000 1.603040 0.000000 
#    z 0.000000 0.000000 1.593150 
# 
# From -- ./inp_files/16560.got.cif
#   From: 2010.05.17/outbox.cif.g08.bks.cpg/sg51_9_cif.got.tgz:16560.got - 2010.06.03 11:52:47.
