data_PCOD9403612
_publ_section_title
;
Structure prediction by ZEFSAII (Michael W. Deem and Ramdas Pophale) SiO2 
 PCOD9403612
Probable space group: P M M A
;
_chemical_formula_sum "Si O2"
_cell_formula_units_Z 64
_cell_length_a 20.365821
_cell_length_b 7.946717
_cell_length_c 20.829339
_cell_angle_alpha 90.000000
_cell_angle_beta 90.000000
_cell_angle_gamma 90.000000
_cell_volume 3371.049717
_symmetry_space_group_name_H-M "P M M A"
_symmetry_group_IT_number 51
_symmetry_cell_setting 'orthorhombic'
loop_
_space_group_symop_operation_xyz
x,y,z
1/2-x,-y,z
1/2+x,-y,-z
-x,y,-z
-x,-y,-z
1/2+x,y,-z
1/2-x,y,z
x,-y,z
loop_
_atom_site_type_symbol
_atom_site_label
_atom_site_fract_x
_atom_site_fract_y
_atom_site_fract_z
Si Si1 0.829744 0.193313 0.025007
Si Si2 0.047047 0.203350 0.594178
Si Si3 0.824415 0.798257 0.163799
Si Si4 0.594850 0.202890 0.540947
Si Si5 0.081862 0.702785 0.232922
Si Si6 0.677405 0.298805 0.656251
Si Si7 0.325492 0.796059 0.115653
Si Si8 0.436637 0.699052 0.739603
O O1 0.750000 0.187680 0.026034
O O2 0.847959 0.269844 0.093967
O O3 0.854089 0.000000 0.023981
O O4 0.845788 0.268272 0.955403
O O5 0.090917 0.257503 0.533185
O O6 0.067612 0.265330 0.663756
O O7 0.972870 0.258030 0.575888
O O8 0.047114 0.000000 0.595655
O O9 0.750000 0.736752 0.176951
O O10 0.875718 0.765361 0.219720
O O11 0.819936 0.000000 0.155990
O O12 0.654342 0.263553 0.584162
O O13 0.594667 0.000000 0.541040
O O14 0.078286 0.500000 0.238153
O O15 0.123552 0.768218 0.293831
O O16 0.123391 0.744504 0.169819
O O17 0.007273 0.767618 0.236082
O O18 0.750000 0.230665 0.669325
O O19 0.679589 0.500000 0.664780
O O20 0.250000 0.741000 0.129612
O O21 0.323785 0.000000 0.112583
O O22 0.437117 0.500000 0.748877
#
# Coordination Sequence:
#
# PCOD9403612 Si02
#       8
#     8   8   8   8   8   8   8   8
#     4   7  12  27  51  76 100 127 165 212 259 309
#     4   9  18  34  55  77 101 130 165 208 257 307
#     4   9  18  35  59  81 101 130 166 209 267 323
#     4   9  18  33  54  78 100 125 166 216 258 299
#     4  10  21  35  48  69 105 146 179 207 251 306
#     4  10  20  34  51  72 104 144 180 213 251 301
#     4   9  17  30  51  78 103 131 174 223 260 295
#     4  11  22  35  53  78 106 138 174 213 253 300
#
# _framework density 18.985184
#
# number of rings (size 3 to 8) (size 9 to 14) (size 15 to 20)
#    0.000    2.750    1.250    3.000    0.000    3.250 
#    0.000    3.125    0.000    6.750    0.000    0.000 
#    0.000    0.000    0.000    0.000    0.000    0.000 
#
# Total GULP energy -356657.712965 kJ/mol
# GULP energy per Si atom -5572.776765 kJ/mol
# Density = 1.894197 g / cm^3
# Si number density = 18.985184 Si / 1000 Ang^3
#
#
#
# Elastic Constant Matrix: (Units=GPa)
#
#
# Indices 1 2 3 4 5 6 
#
# 1 103.9616 8.7850 76.6803 0.0000 0.0000 0.0000
# 2 8.7850 13.8414 -2.1723 0.0000 0.0000 0.0000
# 3 76.6803 -2.1723 154.0328 0.0000 0.0000 0.0000
# 4 0.0000 0.0000 0.0000 28.0406 0.0000 0.0000
# 5 0.0000 0.0000 0.0000 0.0000 27.8917 0.0000
# 6 0.0000 0.0000 0.0000 0.0000 0.0000 15.8294
#
#
#
# Elastic Compliance Matrix: (Units=1/GPa)
#
#
# Indices 1 2 3 4 5 6 
#
# 1 0.017024 -0.012162 -0.008646 0.000000 0.000000 0.000000
# 2 -0.012162 0.081096 0.007198 0.000000 0.000000 0.000000
# 3 -0.008646 0.007198 0.010898 0.000000 0.000000 0.000000
# 4 0.000000 0.000000 0.000000 0.035663 0.000000 0.000000
# 5 0.000000 0.000000 0.000000 0.000000 0.035853 0.000000
# 6 0.000000 0.000000 0.000000 0.000000 0.000000 0.063173
#
#
# Mechanical properties :
#
#
# Convention : Reuss Voigt Hill
#
# Bulk Modulus (GPa) = 12.22534 48.71356 30.46945
# Shear Modulus (GPa) = 16.76764 26.92186 21.84475
#
# Velocity S-wave (km/s) = 2.97509 3.76978 3.39576
# Velocity P-wave (km/s) = 4.27258 6.68302 5.60882
#
# Compressibility (1/GPa) = 0.08179734
#
# Stress axis : x y z
#
# Youngs Moduli (GPa) = 58.74021 12.33109 91.76008
#
# Poissons Ratio (x) = 0.14997 0.79340
# Poissons Ratio (y) = 0.71440 -0.66050
# Poissons Ratio (z) = 0.50789 -0.08876
#
# Static dielectric constant tensor:
#      x y z
#    x 1.652820 0.000000 0.000000 
#    y 0.000000 1.687810 0.000000 
#    z 0.000000 0.000000 1.680080 
# 
# From -- ./inp_files/30533.got.cif
#   From: 2010.05.17/outbox.cif.g08.bks.cpg/sg51_16_cif.got.tgz:30533.got - 2010.06.03 11:52:47.
