data_PCOD9403194
_publ_section_title
;
Structure prediction by ZEFSAII (Michael W. Deem and Ramdas Pophale) SiO2 
 PCOD9403194
Probable space group: P M M A
;
_chemical_formula_sum "Si O2"
_cell_formula_units_Z 56
_cell_length_a 14.106745
_cell_length_b 8.991075
_cell_length_c 22.218282
_cell_angle_alpha 90.000000
_cell_angle_beta 90.000000
_cell_angle_gamma 90.000000
_cell_volume 2818.051405
_symmetry_space_group_name_H-M "P M M A"
_symmetry_group_IT_number 51
_symmetry_cell_setting 'orthorhombic'
loop_
_space_group_symop_operation_xyz
x,y,z
1/2-x,-y,z
1/2+x,-y,-z
-x,y,-z
-x,-y,-z
1/2+x,y,-z
1/2-x,y,z
x,-y,z
loop_
_atom_site_type_symbol
_atom_site_label
_atom_site_fract_x
_atom_site_fract_y
_atom_site_fract_z
Si Si1 0.450686 0.180917 0.591674
Si Si2 0.365953 0.328335 0.967700
Si Si3 0.862503 0.822886 0.155639
Si Si4 0.638422 0.323611 0.783829
Si Si5 0.365505 0.830223 0.090325
Si Si6 0.854900 0.181299 0.530652
Si Si7 0.530286 0.179689 0.275718
O O1 0.381214 0.226881 0.537748
O O2 0.557118 0.227022 0.572334
O O3 0.429814 0.228494 0.659632
O O4 0.449148 0.000000 0.591377
O O5 0.250000 0.322157 0.967541
O O6 0.393461 0.500000 0.969713
O O7 0.397403 0.253746 0.905454
O O8 0.396802 0.244990 0.028258
O O9 0.750000 0.796548 0.160243
O O10 0.910483 0.771207 0.217395
O O11 0.876741 0.000000 0.149933
O O12 0.750000 0.294032 0.775246
O O13 0.623349 0.500000 0.782717
O O14 0.610721 0.259411 0.849428
O O15 0.574563 0.242228 0.734759
O O16 0.250000 0.833023 0.088270
O O17 0.398826 0.000000 0.094944
O O18 0.750000 0.232534 0.547942
O O19 0.854389 0.000000 0.531610
O O20 0.528081 0.000000 0.275251
#
# Coordination Sequence:
#
# PCOD9403194 Si02
#       7
#     8   8   8   8   8   8   8
#     4   8  15  26  40  65  99 130 162 199 241 290
#     4   9  16  27  46  71  97 127 165 209 257 306
#     4   9  18  32  48  68  97 132 169 209 254 303
#     4  10  21  36  52  71  98 132 169 209 254 305
#     4   9  16  28  49  74  98 126 162 207 259 309
#     4   8  13  23  41  66  98 132 162 197 242 288
#     4  10  20  33  50  73 102 135 170 209 251 296
#
# _framework density 19.871887000000001
#
# number of rings (size 3 to 8) (size 9 to 14) (size 15 to 20)
#    0.000    3.000    0.000    2.143    0.000    6.000 
#    0.000    5.000    0.000    4.286    0.000    2.000 
#    0.000    1.143    0.000    0.000    0.000    0.000 
#
# Total GULP energy -312485.384918 kJ/mol
# GULP energy per Si atom -5580.096159 kJ/mol
# Density = 1.982666 g / cm^3
# Si number density = 19.871887 Si / 1000 Ang^3
#
#
#
# Elastic Constant Matrix: (Units=GPa)
#
#
# Indices 1 2 3 4 5 6 
#
# 1 42.4304 -1.3659 -7.2213 0.0000 0.0000 0.0000
# 2 -1.3659 12.5641 1.5946 0.0000 0.0000 0.0000
# 3 -7.2213 1.5946 67.5039 0.0000 0.0000 0.0000
# 4 0.0000 0.0000 0.0000 -32.4458 0.0000 0.0000
# 5 0.0000 0.0000 0.0000 0.0000 15.5966 0.0000
# 6 0.0000 0.0000 0.0000 0.0000 0.0000 9.8224
#
#
#
# Elastic Compliance Matrix: (Units=1/GPa)
#
#
# Indices 1 2 3 4 5 6 
#
# 1 0.024071 0.002297 0.002521 0.000000 0.000000 0.000000
# 2 0.002297 0.080050 -0.001645 0.000000 0.000000 0.000000
# 3 0.002521 -0.001645 0.015122 0.000000 0.000000 0.000000
# 4 0.000000 0.000000 0.000000 -0.030821 0.000000 0.000000
# 5 0.000000 0.000000 0.000000 0.000000 0.064116 0.000000
# 6 0.000000 0.000000 0.000000 0.000000 0.000000 0.101809
#
#
# Mechanical properties :
#
#
# Convention : Reuss Voigt Hill
#
# Bulk Modulus (GPa) = 7.96250 12.05702 10.00976
# Shear Modulus (GPa) = 17.24933 7.22737 12.23835
#
# Velocity S-wave (km/s) = 2.94943 1.90916 2.48435
# Velocity P-wave (km/s) = 3.95151 3.30763 3.64382
#
# Compressibility (1/GPa) = 0.12558865
#
# Stress axis : x y z
#
# Youngs Moduli (GPa) = 41.54384 12.49212 66.12673
#
# Poissons Ratio (x) = -0.02869 -0.16669
# Poissons Ratio (y) = -0.09542 0.10879
# Poissons Ratio (z) = -0.10472 0.02055
#
# Static dielectric constant tensor:
#      x y z
#    x 1.753620 0.000000 0.000000 
#    y 0.000000 1.662230 0.000000 
#    z 0.000000 0.000000 1.683580 
# 
# From -- ./inp_files/33338.got.cif
#   From: 2010.05.17/outbox.cif.g08.bks.cpg/sg51_17_cif.got.tgz:33338.got - 2010.06.03 11:52:47.
