data_PCOD9403662
_publ_section_title
;
Structure prediction by ZEFSAII (Michael W. Deem and Ramdas Pophale) SiO2 
 PCOD9403662
Probable space group: P M M A
;
_chemical_formula_sum "Si O2"
_cell_formula_units_Z 64
_cell_length_a 17.108955
_cell_length_b 9.285909
_cell_length_c 21.290802
_cell_angle_alpha 90.000000
_cell_angle_beta 90.000000
_cell_angle_gamma 90.000000
_cell_volume 3382.516537
_symmetry_space_group_name_H-M "P M M A"
_symmetry_group_IT_number 51
_symmetry_cell_setting 'orthorhombic'
loop_
_space_group_symop_operation_xyz
x,y,z
1/2-x,-y,z
1/2+x,-y,-z
-x,y,-z
-x,-y,-z
1/2+x,y,-z
1/2-x,y,z
x,-y,z
loop_
_atom_site_type_symbol
_atom_site_label
_atom_site_fract_x
_atom_site_fract_y
_atom_site_fract_z
Si Si1 0.844042 0.664473 0.789985
Si Si2 0.660213 0.332409 0.007333
Si Si3 0.416934 0.670130 0.863558
Si Si4 0.658060 0.327723 0.268246
Si Si5 0.159083 0.175462 0.470577
Si Si6 0.573628 0.828723 0.901276
Si Si7 0.654301 0.832497 0.666571
Si Si8 0.345575 0.167788 0.606866
O O1 0.750000 0.661899 0.788726
O O2 0.871914 0.500000 0.797111
O O3 0.871102 0.762069 0.847457
O O4 0.871286 0.734115 0.724302
O O5 0.750000 0.303563 0.990652
O O6 0.642954 0.500000 0.991653
O O7 0.647498 0.316150 0.081721
O O8 0.603943 0.231619 0.967523
O O9 0.438102 0.500000 0.861160
O O10 0.386491 0.714100 0.795160
O O11 0.489329 0.764369 0.885482
O O12 0.750000 0.290993 0.260916
O O13 0.652939 0.500000 0.274396
O O14 0.628716 0.254573 0.332108
O O15 0.250000 0.221497 0.470190
O O16 0.125697 0.216332 0.402541
O O17 0.125600 0.220161 0.538215
O O18 0.159110 0.000000 0.471113
O O19 0.574297 0.000000 0.900263
O O20 0.750000 0.829641 0.664690
O O21 0.632581 0.000000 0.676640
O O22 0.250000 0.174967 0.604629
O O23 0.366367 0.000000 0.613840
#
# Coordination Sequence:
#
# PCOD9403662 Si02
#       8
#     8   8   8   8   8   8   8   8
#     4  10  20  34  52  74 101 134 172 212 255 306
#     4  10  21  39  63  86 106 133 169 205 245 298
#     4  10  21  38  58  78 104 138 172 207 249 298
#     4   9  17  30  49  74 102 132 169 212 255 298
#     4   7  10  18  34  58  90 128 166 202 245 298
#     4  12  25  38  54  78 107 137 170 209 252 298
#     4   8  13  23  41  65  94 128 166 209 254 298
#     4   8  13  22  38  62  94 132 170 206 247 297
#
# _framework density 18.920822999999999
#
# number of rings (size 3 to 8) (size 9 to 14) (size 15 to 20)
#    0.000    2.750    0.000    4.125    0.000    6.500 
#    0.000    0.625    0.000    6.000    0.000    0.875 
#    0.000    7.000    0.000    0.000    0.000    0.000 
#
# Total GULP energy -356784.305040 kJ/mol
# GULP energy per Si atom -5574.754766 kJ/mol
# Density = 1.887776 g / cm^3
# Si number density = 18.920823 Si / 1000 Ang^3
#
#
#
# Elastic Constant Matrix: (Units=GPa)
#
#
# Indices 1 2 3 4 5 6 
#
# 1 15.2595 14.4448 6.4536 0.0000 0.0000 0.0000
# 2 14.4448 42.3004 20.0941 0.0000 0.0000 0.0000
# 3 6.4536 20.0941 102.1337 0.0000 0.0000 0.0000
# 4 0.0000 0.0000 0.0000 33.6483 0.0000 0.0000
# 5 0.0000 0.0000 0.0000 0.0000 -11.2818 0.0000
# 6 0.0000 0.0000 0.0000 0.0000 0.0000 12.0528
#
#
#
# Elastic Compliance Matrix: (Units=1/GPa)
#
#
# Indices 1 2 3 4 5 6 
#
# 1 0.096852 -0.033276 0.000427 0.000000 0.000000 0.000000
# 2 -0.033276 0.037511 -0.005277 0.000000 0.000000 0.000000
# 3 0.000427 -0.005277 0.010802 0.000000 0.000000 0.000000
# 4 0.000000 0.000000 0.000000 0.029719 0.000000 0.000000
# 5 0.000000 0.000000 0.000000 0.000000 -0.088638 0.000000
# 6 0.000000 0.000000 0.000000 0.000000 0.000000 0.082968
#
#
# Mechanical properties :
#
#
# Convention : Reuss Voigt Hill
#
# Bulk Modulus (GPa) = 14.51123 26.85318 20.68221
# Shear Modulus (GPa) = 18.62632 14.79726 16.71179
#
# Velocity S-wave (km/s) = 3.14097 2.79957 2.97517
# Velocity P-wave (km/s) = 4.56513 4.96723 4.77042
#
# Compressibility (1/GPa) = 0.06891212
#
# Stress axis : x y z
#
# Youngs Moduli (GPa) = 10.32504 26.65918 92.57222
#
# Poissons Ratio (x) = 0.88711 -0.03953
# Poissons Ratio (y) = 0.34358 0.48853
# Poissons Ratio (z) = -0.00441 0.14069
#
# Static dielectric constant tensor:
#      x y z
#    x 1.675960 0.000000 0.000000 
#    y 0.000000 1.627050 0.000000 
#    z 0.000000 0.000000 1.687280 
# 
# From -- ./inp_files/33806.got.cif
#   From: 2010.05.17/outbox.cif.g08.bks.cpg/sg51_17_cif.got.tgz:33806.got - 2010.06.03 11:52:47.
