data_PCOD9403519
_publ_section_title
;
Structure prediction by ZEFSAII (Michael W. Deem and Ramdas Pophale) SiO2 
 PCOD9403519
Probable space group: P M M A
;
_chemical_formula_sum "Si O2"
_cell_formula_units_Z 64
_cell_length_a 14.755819
_cell_length_b 7.555914
_cell_length_c 25.324612
_cell_angle_alpha 90.000000
_cell_angle_beta 90.000000
_cell_angle_gamma 90.000000
_cell_volume 2823.534677
_symmetry_space_group_name_H-M "P M M A"
_symmetry_group_IT_number 51
_symmetry_cell_setting 'orthorhombic'
loop_
_space_group_symop_operation_xyz
x,y,z
1/2-x,-y,z
1/2+x,-y,-z
-x,y,-z
-x,-y,-z
1/2+x,y,-z
1/2-x,y,z
x,-y,z
loop_
_atom_site_type_symbol
_atom_site_label
_atom_site_fract_x
_atom_site_fract_y
_atom_site_fract_z
Si Si1 0.348408 0.787776 0.885698
Si Si2 0.046358 0.705383 0.372734
Si Si3 0.473554 0.299203 0.055965
Si Si4 0.644335 0.716422 0.847959
Si Si5 0.143900 0.708593 0.475403
Si Si6 0.448179 0.705280 0.259595
Si Si7 0.348410 0.212173 0.760405
Si Si8 0.851394 0.796835 0.404094
O O1 0.250000 0.734067 0.907098
O O2 0.432713 0.696876 0.912250
O O3 0.348313 0.753637 0.823224
O O4 0.357361 0.000000 0.892383
O O5 0.075464 0.500000 0.372835
O O6 0.937634 0.709890 0.377245
O O7 0.086561 0.782768 0.426734
O O8 0.077592 0.783929 0.316690
O O9 0.441670 0.500000 0.044035
O O10 0.402370 0.219876 0.097727
O O11 0.500000 0.213578 0.000000
O O12 0.750000 0.761666 0.845223
O O13 0.636679 0.500000 0.849047
O O14 0.592069 0.779570 0.795041
O O15 0.250000 0.722841 0.461859
O O16 0.121508 0.500000 0.482702
O O17 0.131696 0.791954 0.532841
O O18 0.419544 0.500000 0.260198
O O19 0.557229 0.711516 0.258810
O O20 0.250000 0.273075 0.739281
O O21 0.352045 0.000000 0.752827
O O22 0.750000 0.721857 0.395745
O O23 0.850088 0.000000 0.386203
#
# Coordination Sequence:
#
# PCOD9403519 Si02
#       8
#     8   8   8   8   8   8   8   8
#     4   9  18  33  53  76 103 136 172 211 260 316
#     4  10  21  34  51  78 107 134 172 220 265 313
#     4  10  20  33  53  82 111 140 177 220 266 315
#     4   9  18  34  54  75 104 141 178 217 262 311
#     4   9  18  34  55  77 104 137 172 215 266 314
#     4  10  20  34  53  77 103 136 179 221 261 310
#     4   9  18  33  53  75 100 133 170 210 261 317
#     4  10  21  36  54  77 105 139 177 213 256 315
#
# _framework density 22.666625
#
# number of rings (size 3 to 8) (size 9 to 14) (size 15 to 20)
#    0.000    2.500    1.250    1.500    0.000    5.500 
#    0.000    7.500    0.000    1.500    0.000    1.750 
#    0.000    0.000    0.000    0.000    0.000    0.000 
#
# Total GULP energy -357159.612534 kJ/mol
# GULP energy per Si atom -5580.618946 kJ/mol
# Density = 2.261503 g / cm^3
# Si number density = 22.666625 Si / 1000 Ang^3
#
#
#
# Elastic Constant Matrix: (Units=GPa)
#
#
# Indices 1 2 3 4 5 6 
#
# 1 95.9739 -4.0417 56.8455 0.0000 0.0000 0.0000
# 2 -4.0417 46.6971 2.8656 0.0000 0.0000 0.0000
# 3 56.8455 2.8656 144.6453 0.0000 0.0000 0.0000
# 4 0.0000 0.0000 0.0000 -14.5259 0.0000 0.0000
# 5 0.0000 0.0000 0.0000 0.0000 -6.1410 0.0000
# 6 0.0000 0.0000 0.0000 0.0000 0.0000 41.0847
#
#
#
# Elastic Compliance Matrix: (Units=1/GPa)
#
#
# Indices 1 2 3 4 5 6 
#
# 1 0.013687 0.001517 -0.005409 0.000000 0.000000 0.000000
# 2 0.001517 0.021609 -0.001024 0.000000 0.000000 0.000000
# 3 -0.005409 -0.001024 0.009060 0.000000 0.000000 0.000000
# 4 0.000000 0.000000 0.000000 -0.068843 0.000000 0.000000
# 5 0.000000 0.000000 0.000000 0.000000 -0.162840 0.000000
# 6 0.000000 0.000000 0.000000 0.000000 0.000000 0.024340
#
#
# Mechanical properties :
#
#
# Convention : Reuss Voigt Hill
#
# Bulk Modulus (GPa) = 28.96688 44.29501 36.63095
# Shear Modulus (GPa) = -35.29912 19.52670 -7.88621
#
# Velocity S-wave (km/s) = -3.95057 2.93827 -1.86729
# Velocity P-wave (km/s) = 2.82879 5.57635 3.39806
#
# Compressibility (1/GPa) = 0.03452219
#
# Stress axis : x y z
#
# Youngs Moduli (GPa) = 73.06110 46.27758 110.38114
#
# Poissons Ratio (x) = -0.07018 0.59706
# Poissons Ratio (y) = -0.11080 0.11304
# Poissons Ratio (z) = 0.39519 0.04739
#
# Static dielectric constant tensor:
#      x y z
#    x 1.813450 0.000000 0.000000 
#    y 0.000000 1.965870 0.000000 
#    z 0.000000 0.000000 1.873320 
# 
# From -- ./inp_files/35866.got.cif
#   From: 2010.05.17/outbox.cif.g08.bks.cpg/sg51_18_cif.got.tgz:35866.got - 2010.06.03 11:52:47.
