data_PCOD9403591
_publ_section_title
;
Structure prediction by ZEFSAII (Michael W. Deem and Ramdas Pophale) SiO2 
 PCOD9403591
Probable space group: P M M A
;
_chemical_formula_sum "Si O2"
_cell_formula_units_Z 64
_cell_length_a 23.129472
_cell_length_b 8.819738
_cell_length_c 17.938275
_cell_angle_alpha 90.000000
_cell_angle_beta 90.000000
_cell_angle_gamma 90.000000
_cell_volume 3659.334250
_symmetry_space_group_name_H-M "P M M A"
_symmetry_group_IT_number 51
_symmetry_cell_setting 'orthorhombic'
loop_
_space_group_symop_operation_xyz
x,y,z
1/2-x,-y,z
1/2+x,-y,-z
-x,y,-z
-x,-y,-z
1/2+x,y,-z
1/2-x,y,z
x,-y,z
loop_
_atom_site_type_symbol
_atom_site_label
_atom_site_fract_x
_atom_site_fract_y
_atom_site_fract_z
Si Si1 0.068854 0.672865 0.516289
Si Si2 0.088322 0.318942 0.816170
Si Si3 0.353238 0.181488 0.090370
Si Si4 0.477685 0.319695 0.083185
Si Si5 0.454907 0.820562 0.667693
Si Si6 0.582753 0.317318 0.649245
Si Si7 0.183330 0.817107 0.925538
Si Si8 0.814560 0.183556 0.748218
O O1 0.087408 0.500000 0.532277
O O2 0.074257 0.774350 0.589208
O O3 0.094999 0.724603 0.437478
O O4 0.000000 0.667968 0.500000
O O5 0.092773 0.500000 0.809430
O O6 0.082360 0.243771 0.735723
O O7 0.140100 0.256710 0.866710
O O8 0.028762 0.283614 0.859862
O O9 0.419596 0.229593 0.098670
O O10 0.320669 0.231352 0.165079
O O11 0.348160 0.000000 0.088130
O O12 0.330852 0.236523 0.009998
O O13 0.465643 0.500000 0.087247
O O14 0.500000 0.285989 0.000000
O O15 0.519422 0.747484 0.669979
O O16 0.460880 0.000000 0.672984
O O17 0.579406 0.500000 0.653091
O O18 0.633359 0.255675 0.701592
O O19 0.250000 0.783066 0.908887
O O20 0.175921 0.000000 0.923607
O O21 0.750000 0.224088 0.721478
O O22 0.819897 0.000000 0.745209
#
# Coordination Sequence:
#
# PCOD9403591 Si02
#       8
#     8   8   8   8   8   8   8   8
#     4   8  16  32  53  78 109 140 169 205 254 312
#     4  11  22  36  54  76 107 142 176 218 267 317
#     4  10  20  34  54  77 103 138 179 221 266 317
#     4  10  20  34  50  73 104 136 172 217 267 315
#     4  11  21  33  54  84 113 139 174 218 268 323
#     4  10  20  35  55  80 111 145 178 215 264 320
#     4  10  21  37  55  74  99 134 178 225 268 312
#     4  10  21  36  53  76 108 146 187 228 268 315
#
# _framework density 17.489519999999999
#
# number of rings (size 3 to 8) (size 9 to 14) (size 15 to 20)
#    0.000    2.000    1.250    3.750    0.000    8.500 
#    0.000    0.000    0.000    3.000    0.000    3.500 
#    0.000    0.000    0.000    0.000    0.000    0.000 
#
# Total GULP energy -357173.805594 kJ/mol
# GULP energy per Si atom -5580.840712 kJ/mol
# Density = 1.744971 g / cm^3
# Si number density = 17.489520 Si / 1000 Ang^3
#
#
#
# Elastic Constant Matrix: (Units=GPa)
#
#
# Indices 1 2 3 4 5 6 
#
# 1 75.5853 29.1276 57.2193 0.0000 0.0000 0.0000
# 2 29.1276 40.2801 48.3301 0.0000 0.0000 0.0000
# 3 57.2193 48.3301 139.6134 0.0000 0.0000 0.0000
# 4 0.0000 0.0000 0.0000 26.0744 0.0000 0.0000
# 5 0.0000 0.0000 0.0000 0.0000 9.3022 0.0000
# 6 0.0000 0.0000 0.0000 0.0000 0.0000 -134.4896
#
#
#
# Elastic Compliance Matrix: (Units=1/GPa)
#
#
# Indices 1 2 3 4 5 6 
#
# 1 0.020642 -0.008169 -0.005632 0.000000 0.000000 0.000000
# 2 -0.008169 0.045697 -0.012471 0.000000 0.000000 0.000000
# 3 -0.005632 -0.012471 0.013788 0.000000 0.000000 0.000000
# 4 0.000000 0.000000 0.000000 0.038352 0.000000 0.000000
# 5 0.000000 0.000000 0.000000 0.000000 0.107501 0.000000
# 6 0.000000 0.000000 0.000000 0.000000 0.000000 -0.007436
#
#
# Mechanical properties :
#
#
# Convention : Reuss Voigt Hill
#
# Bulk Modulus (GPa) = 36.25489 58.31476 47.28483
# Shear Modulus (GPa) = 17.83922 -11.76916 3.03503
#
# Velocity S-wave (km/s) = 3.19720 -2.59690 1.31875
# Velocity P-wave (km/s) = 5.86549 4.94199 5.42343
#
# Compressibility (1/GPa) = 0.02758248
#
# Stress axis : x y z
#
# Youngs Moduli (GPa) = 48.44602 21.88345 72.52764
#
# Poissons Ratio (x) = 0.17877 0.40846
# Poissons Ratio (y) = 0.39576 0.90448
# Poissons Ratio (z) = 0.27284 0.27291
#
# Static dielectric constant tensor:
#      x y z
#    x 1.543850 0.000000 0.000000 
#    y 0.000000 1.587670 0.000000 
#    z 0.000000 0.000000 1.616130 
# 
# From -- ./inp_files/30678.got.cif
#   From: 2010.05.17/outbox.cif.g08.bks.cpg/sg51_16_cif.got.tgz:30678.got - 2010.06.03 11:52:47.
