data_PCOD9403717
_publ_section_title
;
Structure prediction by ZEFSAII (Michael W. Deem and Ramdas Pophale) SiO2 
 PCOD9403717
Probable space group: P M M A
;
_chemical_formula_sum "Si O2"
_cell_formula_units_Z 52
_cell_length_a 9.278848
_cell_length_b 15.107927
_cell_length_c 23.491830
_cell_angle_alpha 90.000000
_cell_angle_beta 90.000000
_cell_angle_gamma 90.000000
_cell_volume 3293.182414
_symmetry_space_group_name_H-M "P M M A"
_symmetry_group_IT_number 51
_symmetry_cell_setting 'orthorhombic'
loop_
_space_group_symop_operation_xyz
x,y,z
1/2-x,-y,z
1/2+x,-y,-z
-x,y,-z
-x,-y,-z
1/2+x,y,-z
1/2-x,y,z
x,-y,z
loop_
_atom_site_type_symbol
_atom_site_label
_atom_site_fract_x
_atom_site_fract_y
_atom_site_fract_z
Si Si1 0.582981 0.758095 0.770900
Si Si2 0.419477 0.399043 0.825089
Si Si3 0.588854 0.159920 0.896448
Si Si4 0.081688 0.000000 0.940539
Si Si5 0.080369 0.354422 0.057890
Si Si6 0.415297 0.892596 0.556020
Si Si7 0.576536 0.103113 0.673050
O O1 0.750000 0.732260 0.760338
O O2 0.486615 0.671747 0.781539
O O3 0.581224 0.808423 0.831405
O O4 0.537629 0.827230 0.722287
O O5 0.250000 0.380496 0.834386
O O6 0.434629 0.500000 0.805005
O O7 0.503115 0.390487 0.885384
O O8 0.750000 0.123506 0.906994
O O9 0.470528 0.087276 0.908312
O O10 0.571760 0.247715 0.934581
O O11 0.250000 0.000000 0.949147
O O12 0.000000 0.000000 0.000000
O O13 0.250000 0.378154 0.056992
O O14 0.000000 0.381170 0.000000
O O15 0.500000 0.861254 0.500000
O O16 0.250000 0.861825 0.556860
O O17 0.498899 0.872208 0.614203
O O18 0.412044 0.000000 0.552935
O O19 0.750000 0.105957 0.665840
O O20 0.539999 0.000000 0.687081
#
# Coordination Sequence:
#
# PCOD9403717 Si02
#       7
#     8   8   8   4   8   8   8
#     4   9  19  34  53  73  94 125 159 195 239 282
#     4  10  21  36  53  72  95 123 153 191 240 289
#     4   9  19  34  50  66  87 116 150 189 233 278
#     4  12  24  34  46  64  84 114 153 192 233 276
#     4  10  20  34  53  73  92 116 145 184 234 289
#     4   9  16  26  41  63  94 132 171 207 240 273
#     4   9  17  29  47  71  99 132 167 200 236 280
#
# _framework density 15.790196999999999
#
# number of rings (size 3 to 8) (size 9 to 14) (size 15 to 20)
#    0.000    2.462    0.000    3.462    1.077    8.308 
#    0.000    0.000    0.000    0.000    0.000    0.000 
#    0.000    0.615    0.000    2.000    0.000    2.923 
#
# Total GULP energy -289968.246140 kJ/mol
# GULP energy per Si atom -5576.312426 kJ/mol
# Density = 1.575426 g / cm^3
# Si number density = 15.790197 Si / 1000 Ang^3
#
#
#
# Elastic Constant Matrix: (Units=GPa)
#
#
# Indices 1 2 3 4 5 6 
#
# 1 106.3326 56.2336 48.9357 0.0000 0.0000 0.0000
# 2 56.2336 73.3725 40.3926 0.0000 0.0000 0.0000
# 3 48.9357 40.3926 98.0494 0.0000 0.0000 0.0000
# 4 0.0000 0.0000 0.0000 7.2121 0.0000 0.0000
# 5 0.0000 0.0000 0.0000 0.0000 26.2140 0.0000
# 6 0.0000 0.0000 0.0000 0.0000 0.0000 22.0374
#
#
#
# Elastic Compliance Matrix: (Units=1/GPa)
#
#
# Indices 1 2 3 4 5 6 
#
# 1 0.016957 -0.010783 -0.004021 0.000000 0.000000 0.000000
# 2 -0.010783 0.024483 -0.004704 0.000000 0.000000 0.000000
# 3 -0.004021 -0.004704 0.014144 0.000000 0.000000 0.000000
# 4 0.000000 0.000000 0.000000 0.138656 0.000000 0.000000
# 5 0.000000 0.000000 0.000000 0.000000 0.038148 0.000000
# 6 0.000000 0.000000 0.000000 0.000000 0.000000 0.045377
#
#
# Mechanical properties :
#
#
# Convention : Reuss Voigt Hill
#
# Bulk Modulus (GPa) = 60.35901 63.20869 61.78385
# Shear Modulus (GPa) = 15.51327 19.90554 17.70940
#
# Velocity S-wave (km/s) = 3.13783 3.55438 3.35258
# Velocity P-wave (km/s) = 7.17193 7.54732 7.36202
#
# Compressibility (1/GPa) = 0.01656753
#
# Stress axis : x y z
#
# Youngs Moduli (GPa) = 58.97104 40.84482 70.70126
#
# Poissons Ratio (x) = 0.44041 0.28431
# Poissons Ratio (y) = 0.63586 0.33261
# Poissons Ratio (z) = 0.23714 0.19215
#
# Static dielectric constant tensor:
#      x y z
#    x 1.539060 0.000000 0.000000 
#    y 0.000000 1.521930 0.000000 
#    z 0.000000 0.000000 1.506720 
# 
# From -- ./inp_files/34686.got.cif
#   From: 2010.05.17/outbox.cif.g08.bks.cpg/sg51_18_cif.got.tgz:34686.got - 2010.06.03 11:52:47.
