data_PCOD9403090
_publ_section_title
;
Structure prediction by ZEFSAII (Michael W. Deem and Ramdas Pophale) SiO2 
 PCOD9403090
Probable space group: P M M A
;
_chemical_formula_sum "Si O2"
_cell_formula_units_Z 56
_cell_length_a 8.225023
_cell_length_b 20.616247
_cell_length_c 15.940521
_cell_angle_alpha 90.000000
_cell_angle_beta 90.000000
_cell_angle_gamma 90.000000
_cell_volume 2703.019891
_symmetry_space_group_name_H-M "P M M A"
_symmetry_group_IT_number 51
_symmetry_cell_setting 'orthorhombic'
loop_
_space_group_symop_operation_xyz
x,y,z
1/2-x,-y,z
1/2+x,-y,-z
-x,y,-z
-x,-y,-z
1/2+x,y,-z
1/2-x,y,z
x,-y,z
loop_
_atom_site_type_symbol
_atom_site_label
_atom_site_fract_x
_atom_site_fract_y
_atom_site_fract_z
Si Si1 0.435608 0.928962 0.106809
Si Si2 0.552845 0.216156 0.910339
Si Si3 0.562330 0.162344 0.589196
Si Si4 0.430360 0.929891 0.719920
Si Si5 0.444127 0.576068 0.905807
Si Si6 0.442477 0.307627 0.588406
Si Si7 0.558030 0.679820 0.773111
O O1 0.250000 0.929069 0.075401
O O2 0.510373 0.858465 0.087816
O O3 0.438907 0.928025 0.207212
O O4 0.510503 0.000000 0.085887
O O5 0.750000 0.214468 0.907223
O O6 0.499457 0.257273 0.828262
O O7 0.500000 0.245785 0.000000
O O8 0.500000 0.138125 0.500000
O O9 0.750000 0.146649 0.602229
O O10 0.455696 0.129137 0.659329
O O11 0.536157 0.239120 0.590216
O O12 0.250000 0.927184 0.758624
O O13 0.443672 0.000000 0.675974
O O14 0.250000 0.584542 0.900041
O O15 0.482519 0.500000 0.892885
O O16 0.527843 0.620558 0.836489
O O17 0.500000 0.592852 0.000000
O O18 0.500000 0.340436 0.500000
O O19 0.250000 0.296936 0.580840
O O20 0.477945 0.333894 0.682272
O O21 0.750000 0.688911 0.758283
#
# Coordination Sequence:
#
# PCOD9403090 Si02
#       7
#     8   8   8   8   8   8   8
#     4   9  18  34  53  71  96 135 181 228 281 339
#     4  10  22  36  52  78 111 146 187 237 289 344
#     4  11  21  34  51  71  98 132 172 220 279 343
#     4  10  20  33  49  70  94 123 166 220 278 342
#     4  10  21  38  61  91 127 166 207 249 295 351
#     4  11  22  38  60  86 116 150 191 238 289 343
#     4  11  22  37  59  88 122 158 198 244 295 351
#
# _framework density 20.717569000000001
#
# number of rings (size 3 to 8) (size 9 to 14) (size 15 to 20)
#    0.000    1.714    0.000    6.000    0.000    6.286 
#    0.000    0.000    0.000    0.429    0.000    0.000 
#    0.000    0.000    0.000    0.000    0.000    0.000 
#
# Total GULP energy -312276.173120 kJ/mol
# GULP energy per Si atom -5576.360234 kJ/mol
# Density = 2.067042 g / cm^3
# Si number density = 20.717569 Si / 1000 Ang^3
#
#
#
# Elastic Constant Matrix: (Units=GPa)
#
#
# Indices 1 2 3 4 5 6 
#
# 1 62.7885 8.5896 16.7030 0.0000 0.0000 0.0000
# 2 8.5896 64.8113 34.4277 0.0000 0.0000 0.0000
# 3 16.7030 34.4277 139.9705 0.0000 0.0000 0.0000
# 4 0.0000 0.0000 0.0000 39.0338 0.0000 0.0000
# 5 0.0000 0.0000 0.0000 0.0000 30.9018 0.0000
# 6 0.0000 0.0000 0.0000 0.0000 0.0000 -146.0222
#
#
#
# Elastic Compliance Matrix: (Units=1/GPa)
#
#
# Indices 1 2 3 4 5 6 
#
# 1 0.016546 -0.001316 -0.001651 0.000000 0.000000 0.000000
# 2 -0.001316 0.017853 -0.004234 0.000000 0.000000 0.000000
# 3 -0.001651 -0.004234 0.008383 0.000000 0.000000 0.000000
# 4 0.000000 0.000000 0.000000 0.025619 0.000000 0.000000
# 5 0.000000 0.000000 0.000000 0.000000 0.032361 0.000000
# 6 0.000000 0.000000 0.000000 0.000000 0.000000 -0.006848
#
#
# Mechanical properties :
#
#
# Convention : Reuss Voigt Hill
#
# Bulk Modulus (GPa) = 35.23644 43.00120 39.11882
# Shear Modulus (GPa) = 42.45411 -1.36066 20.54673
#
# Velocity S-wave (km/s) = 4.53170 -0.81129 3.15263
# Velocity P-wave (km/s) = 6.66534 4.46356 5.67230
#
# Compressibility (1/GPa) = 0.02837971
#
# Stress axis : x y z
#
# Youngs Moduli (GPa) = 60.43889 56.01302 119.29197
#
# Poissons Ratio (x) = 0.07371 0.19692
# Poissons Ratio (y) = 0.07954 0.50510
# Poissons Ratio (z) = 0.09977 0.23717
#
# Static dielectric constant tensor:
#      x y z
#    x 1.745140 0.000000 0.000000 
#    y 0.000000 1.756530 0.000000 
#    z 0.000000 0.000000 1.766450 
# 
# From -- ./inp_files/21824.got.cif
#   From: 2010.05.17/outbox.cif.g08.bks.cpg/sg51_11_cif.got.tgz:21824.got - 2010.06.03 11:52:47.
