data_PCOD9403793
_publ_section_title
;
Structure prediction by ZEFSAII (Michael W. Deem and Ramdas Pophale) SiO2 
 PCOD9403793
Probable space group: P M M A
;
_chemical_formula_sum "Si O2"
_cell_formula_units_Z 40
_cell_length_a 7.538012
_cell_length_b 8.144559
_cell_length_c 29.730920
_cell_angle_alpha 90.000000
_cell_angle_beta 90.000000
_cell_angle_gamma 90.000000
_cell_volume 1825.293665
_symmetry_space_group_name_H-M "P M M A"
_symmetry_group_IT_number 51
_symmetry_cell_setting 'orthorhombic'
loop_
_space_group_symop_operation_xyz
x,y,z
1/2-x,-y,z
1/2+x,-y,-z
-x,y,-z
-x,-y,-z
1/2+x,y,-z
1/2-x,y,z
x,-y,z
loop_
_atom_site_type_symbol
_atom_site_label
_atom_site_fract_x
_atom_site_fract_y
_atom_site_fract_z
Si Si1 0.456959 0.822102 0.644982
Si Si2 0.960735 0.311156 0.550054
Si Si3 0.037812 0.688393 0.950525
Si Si4 0.466965 0.181361 0.855380
Si Si5 0.533528 0.500000 0.200466
Si Si6 0.532188 0.500000 0.304429
O O1 0.250000 0.828650 0.657738
O O2 0.465760 0.789884 0.591642
O O3 0.531716 0.663171 0.670081
O O4 0.536409 0.000000 0.655519
O O5 0.750000 0.315416 0.555448
O O6 0.028642 0.500000 0.552455
O O7 0.000000 0.248139 0.500000
O O8 0.250000 0.679442 0.946586
O O9 0.969354 0.500000 0.949046
O O10 0.975644 0.785909 0.906866
O O11 0.000000 0.757485 0.000000
O O12 0.250000 0.182157 0.854704
O O13 0.524483 0.335136 0.825233
O O14 0.523525 0.000000 0.840417
O O15 0.750000 0.500000 0.199163
O O16 0.480975 0.500000 0.252405
O O17 0.750000 0.500000 0.306581
#
# Coordination Sequence:
#
# PCOD9403793 Si02
#       6
#     8   8   8   8   4   4
#     4  10  20  34  53  77 106 139 171 206 252 301
#     4  10  20  34  55  81 108 141 177 211 251 298
#     4   9  16  27  43  64  92 125 159 195 237 286
#     4   9  16  26  42  65  94 126 159 196 241 293
#     4   9  16  28  45  67  95 126 158 199 250 295
#     4   9  18  32  50  71 100 132 165 209 254 299
#
# _framework density 21.914280999999999
#
# number of rings (size 3 to 8) (size 9 to 14) (size 15 to 20)
#    0.000    2.600    2.000    0.600    0.000    2.800 
#    0.000    4.000    0.000    0.000    0.000    2.800 
#    0.000    0.000    0.000    0.000    0.000    0.000 
#
# Total GULP energy -223332.680514 kJ/mol
# GULP energy per Si atom -5583.317013 kJ/mol
# Density = 2.186440 g / cm^3
# Si number density = 21.914281 Si / 1000 Ang^3
#
#
#
# Elastic Constant Matrix: (Units=GPa)
#
#
# Indices 1 2 3 4 5 6 
#
# 1 55.0854 6.5142 -6.3411 0.0000 0.0000 0.0000
# 2 6.5142 198.4065 107.1043 0.0000 0.0000 0.0000
# 3 -6.3411 107.1043 149.4240 0.0000 0.0000 0.0000
# 4 0.0000 0.0000 0.0000 4.3592 0.0000 0.0000
# 5 0.0000 0.0000 0.0000 0.0000 12.3572 0.0000
# 6 0.0000 0.0000 0.0000 0.0000 0.0000 -3.1329
#
#
#
# Elastic Compliance Matrix: (Units=1/GPa)
#
#
# Indices 1 2 3 4 5 6 
#
# 1 0.018584 -0.001690 0.002000 0.000000 0.000000 0.000000
# 2 -0.001690 0.008375 -0.006075 0.000000 0.000000 0.000000
# 3 0.002000 -0.006075 0.011131 0.000000 0.000000 0.000000
# 4 0.000000 0.000000 0.000000 0.229400 0.000000 0.000000
# 5 0.000000 0.000000 0.000000 0.000000 0.080925 0.000000
# 6 0.000000 0.000000 0.000000 0.000000 0.000000 -0.319195
#
#
# Mechanical properties :
#
#
# Convention : Reuss Voigt Hill
#
# Bulk Modulus (GPa) = 37.64945 68.60785 53.12865
# Shear Modulus (GPa) = 100.80201 22.42592 61.61397
#
# Velocity S-wave (km/s) = 6.78956 3.20245 5.30819
# Velocity P-wave (km/s) = 8.87028 6.71190 7.86548
#
# Compressibility (1/GPa) = 0.02656081
#
# Stress axis : x y z
#
# Youngs Moduli (GPa) = 53.81076 119.40484 89.83573
#
# Poissons Ratio (x) = 0.20175 -0.17965
# Poissons Ratio (y) = 0.09092 0.54572
# Poissons Ratio (z) = -0.10761 0.72534
#
# Static dielectric constant tensor:
#      x y z
#    x 1.850230 0.000000 0.000000 
#    y 0.000000 1.811990 0.000000 
#    z 0.000000 0.000000 1.760490 
# 
# From -- ./inp_files/36038.got.cif
#   From: 2010.05.17/outbox.cif.g08.bks.cpg/sg51_19_cif.got.tgz:36038.got - 2010.06.03 11:52:47.
