data_PCOD9403869
_publ_section_title
;
Structure prediction by ZEFSAII (Michael W. Deem and Ramdas Pophale) SiO2 
 PCOD9403869
Probable space group: P M M A
;
_chemical_formula_sum "Si O2"
_cell_formula_units_Z 48
_cell_length_a 9.382381
_cell_length_b 18.529797
_cell_length_c 16.113721
_cell_angle_alpha 90.000000
_cell_angle_beta 90.000000
_cell_angle_gamma 90.000000
_cell_volume 2801.428652
_symmetry_space_group_name_H-M "P M M A"
_symmetry_group_IT_number 51
_symmetry_cell_setting 'orthorhombic'
loop_
_space_group_symop_operation_xyz
x,y,z
1/2-x,-y,z
1/2+x,-y,-z
-x,y,-z
-x,-y,-z
1/2+x,y,-z
1/2-x,y,z
x,-y,z
loop_
_atom_site_type_symbol
_atom_site_label
_atom_site_fract_x
_atom_site_fract_y
_atom_site_fract_z
Si Si1 0.418672 0.500000 0.864318
Si Si2 0.085155 0.154897 0.842045
Si Si3 0.581526 0.265090 0.729989
Si Si4 0.421874 0.500000 0.672444
Si Si5 0.595810 0.367707 0.885576
Si Si6 0.921145 0.000000 0.088319
Si Si7 0.000000 0.245534 0.000000
Si Si8 0.423035 0.652542 0.588173
O O1 0.250000 0.500000 0.866388
O O2 0.470762 0.500000 0.768019
O O3 0.477758 0.426960 0.903432
O O4 0.250000 0.158276 0.814761
O O5 0.044045 0.072496 0.861000
O O6 0.073118 0.196342 0.930484
O O7 0.984880 0.195973 0.776850
O O8 0.750000 0.255906 0.711911
O O9 0.568716 0.330231 0.796801
O O10 0.488866 0.288883 0.651229
O O11 0.250000 0.500000 0.676289
O O12 0.461796 0.573215 0.624980
O O13 0.750000 0.403558 0.885235
O O14 0.596319 0.300999 0.948640
O O15 0.750000 0.000000 0.073949
O O16 0.000000 0.000000 0.000000
O O17 0.500000 0.660211 0.500000
O O18 0.250000 0.657620 0.583001
#
# Coordination Sequence:
#
# PCOD9403869 Si02
#       8
#     4   8   8   4   8   4   4   8
#     4  11  21  35  53  70  92 133 180 225 274 325
#     4  10  20  35  56  80 110 146 179 217 264 316
#     4  10  21  36  54  78 106 140 179 220 268 320
#     4   9  19  34  51  75 104 137 175 217 269 326
#     4  10  21  35  51  72  97 130 177 229 273 317
#     4  10  20  34  54  84 117 148 181 218 264 314
#     4  10  20  34  54  74 102 136 182 222 270 316
#     4  11  21  36  56  81 110 140 177 221 270 323
#
# _framework density 17.134115000000001
#
# number of rings (size 3 to 8) (size 9 to 14) (size 15 to 20)
#    0.000    1.833    2.500    2.000    0.000    5.000 
#    0.000    1.250    0.000    0.000    0.000    0.583 
#    0.000    0.000    0.000    0.000    0.000    0.000 
#
# Total GULP energy -267802.257474 kJ/mol
# GULP energy per Si atom -5579.213697 kJ/mol
# Density = 1.709512 g / cm^3
# Si number density = 17.134115 Si / 1000 Ang^3
#
#
#
# Elastic Constant Matrix: (Units=GPa)
#
#
# Indices 1 2 3 4 5 6 
#
# 1 96.2632 58.6217 41.8280 0.0000 0.0000 0.0000
# 2 58.6217 127.8945 47.8885 0.0000 0.0000 0.0000
# 3 41.8280 47.8885 106.4223 0.0000 0.0000 0.0000
# 4 0.0000 0.0000 0.0000 15.5982 0.0000 0.0000
# 5 0.0000 0.0000 0.0000 0.0000 11.1064 0.0000
# 6 0.0000 0.0000 0.0000 0.0000 0.0000 21.5324
#
#
#
# Elastic Compliance Matrix: (Units=1/GPa)
#
#
# Indices 1 2 3 4 5 6 
#
# 1 0.015402 -0.005764 -0.003460 0.000000 0.000000 0.000000
# 2 -0.005764 0.011561 -0.002937 0.000000 0.000000 0.000000
# 3 -0.003460 -0.002937 0.012078 0.000000 0.000000 0.000000
# 4 0.000000 0.000000 0.000000 0.064110 0.000000 0.000000
# 5 0.000000 0.000000 0.000000 0.000000 0.090038 0.000000
# 6 0.000000 0.000000 0.000000 0.000000 0.000000 0.046442
#
#
# Mechanical properties :
#
#
# Convention : Reuss Voigt Hill
#
# Bulk Modulus (GPa) = 67.93823 69.69516 68.81669
# Shear Modulus (GPa) = 18.59728 21.79687 20.19708
#
# Velocity S-wave (km/s) = 3.29811 3.57057 3.43704
# Velocity P-wave (km/s) = 7.36480 7.60021 7.48343
#
# Compressibility (1/GPa) = 0.01471925
#
# Stress axis : x y z
#
# Youngs Moduli (GPa) = 64.92823 86.50141 82.79701
#
# Poissons Ratio (x) = 0.49860 0.28645
# Poissons Ratio (y) = 0.37425 0.24314
# Poissons Ratio (z) = 0.22463 0.25402
#
# Static dielectric constant tensor:
#      x y z
#    x 1.589240 0.000000 0.000000 
#    y 0.000000 1.568050 0.000000 
#    z 0.000000 0.000000 1.588960 
# 
# From -- ./inp_files/21282.got.cif
#   From: 2010.05.17/outbox.cif.g08.bks.cpg/sg51_11_cif.got.tgz:21282.got - 2010.06.03 11:52:47.
