data_PCOD9403609
_publ_section_title
;
Structure prediction by ZEFSAII (Michael W. Deem and Ramdas Pophale) SiO2 
 PCOD9403609
Probable space group: P M M A
;
_chemical_formula_sum "Si O2"
_cell_formula_units_Z 64
_cell_length_a 18.539956
_cell_length_b 7.549842
_cell_length_c 21.660742
_cell_angle_alpha 90.000000
_cell_angle_beta 90.000000
_cell_angle_gamma 90.000000
_cell_volume 3031.935036
_symmetry_space_group_name_H-M "P M M A"
_symmetry_group_IT_number 51
_symmetry_cell_setting 'orthorhombic'
loop_
_space_group_symop_operation_xyz
x,y,z
1/2-x,-y,z
1/2+x,-y,-z
-x,y,-z
-x,-y,-z
1/2+x,y,-z
1/2-x,y,z
x,-y,z
loop_
_atom_site_type_symbol
_atom_site_label
_atom_site_fract_x
_atom_site_fract_y
_atom_site_fract_z
Si Si1 0.581576 0.786397 0.754528
Si Si2 0.334626 0.283898 0.633389
Si Si3 0.412739 0.288956 0.756031
Si Si4 0.666497 0.287297 0.500962
Si Si5 0.581336 0.788774 0.996450
Si Si6 0.166922 0.783060 0.123816
Si Si7 0.667497 0.286274 0.121282
Si Si8 0.667469 0.210729 0.635765
O O1 0.497863 0.740086 0.758565
O O2 0.625087 0.725446 0.814778
O O3 0.619075 0.720007 0.691700
O O4 0.585760 0.000000 0.754103
O O5 0.250000 0.236209 0.638924
O O6 0.336953 0.500000 0.633558
O O7 0.378912 0.219146 0.692229
O O8 0.362454 0.226318 0.565559
O O9 0.400140 0.500000 0.755478
O O10 0.373002 0.219981 0.817302
O O11 0.750000 0.225383 0.502871
O O12 0.667196 0.500000 0.499202
O O13 0.635092 0.238535 0.567399
O O14 0.623831 0.759435 0.059784
O O15 0.575485 0.000000 0.987385
O O16 0.500000 0.717108 0.000000
O O17 0.625790 0.721412 0.937584
O O18 0.250000 0.726961 0.124186
O O19 0.167042 0.000000 0.123648
O O20 0.750000 0.222659 0.118409
O O21 0.669652 0.500000 0.124540
O O22 0.750000 0.281994 0.637646
O O23 0.672994 0.000000 0.644097
#
# Coordination Sequence:
#
# PCOD9403609 Si02
#       8
#     8   8   8   8   8   8   8   8
#     4  10  20  34  51  71  97 128 163 204 247 290
#     4   8  14  28  51  74  94 122 163 204 238 280
#     4  10  20  34  52  73  98 129 164 202 246 295
#     4   8  14  26  47  73  96 120 156 202 244 281
#     4  10  20  34  54  80 107 134 165 203 247 294
#     4   9  17  31  52  74  95 126 169 207 236 277
#     4  10  21  36  54  77 104 134 168 206 249 297
#     4   9  17  30  49  72  97 127 162 199 243 295
#
# _framework density 21.108630000000002
#
# number of rings (size 3 to 8) (size 9 to 14) (size 15 to 20)
#    0.000    2.750    0.000    2.625    0.000    6.000 
#    0.000    1.875    0.000    7.500    0.000    0.000 
#    0.000    0.000    0.000    0.000    0.000    0.000 
#
# Total GULP energy -357178.236239 kJ/mol
# GULP energy per Si atom -5580.909941 kJ/mol
# Density = 2.106059 g / cm^3
# Si number density = 21.108630 Si / 1000 Ang^3
#
#
#
# Elastic Constant Matrix: (Units=GPa)
#
#
# Indices 1 2 3 4 5 6 
#
# 1 156.7463 -4.6400 122.7188 0.0000 0.0000 0.0000
# 2 -4.6400 45.6167 -1.2565 0.0000 0.0000 0.0000
# 3 122.7188 -1.2565 251.2633 0.0000 0.0000 0.0000
# 4 0.0000 0.0000 0.0000 19.9356 0.0000 0.0000
# 5 0.0000 0.0000 0.0000 0.0000 -38.2782 0.0000
# 6 0.0000 0.0000 0.0000 0.0000 0.0000 16.2343
#
#
#
# Elastic Compliance Matrix: (Units=1/GPa)
#
#
# Indices 1 2 3 4 5 6 
#
# 1 0.010368 0.000915 -0.005059 0.000000 0.000000 0.000000
# 2 0.000915 0.022006 -0.000337 0.000000 0.000000 0.000000
# 3 -0.005059 -0.000337 0.006449 0.000000 0.000000 0.000000
# 4 0.000000 0.000000 0.000000 0.050162 0.000000 0.000000
# 5 0.000000 0.000000 0.000000 0.000000 -0.026124 0.000000
# 6 0.000000 0.000000 0.000000 0.000000 0.000000 0.061598
#
#
# Mechanical properties :
#
#
# Convention : Reuss Voigt Hill
#
# Bulk Modulus (GPa) = 33.48880 76.36345 54.92613
# Shear Modulus (GPa) = 34.87417 22.03192 28.45305
#
# Velocity S-wave (km/s) = 4.06905 3.23420 3.67541
# Velocity P-wave (km/s) = 6.16244 7.08532 6.63993
#
# Compressibility (1/GPa) = 0.02986073
#
# Stress axis : x y z
#
# Youngs Moduli (GPa) = 96.45414 45.44297 155.06094
#
# Poissons Ratio (x) = -0.04159 0.78446
# Poissons Ratio (y) = -0.08827 0.05225
# Poissons Ratio (z) = 0.48797 0.01531
#
# Static dielectric constant tensor:
#      x y z
#    x 1.711170 0.000000 0.000000 
#    y 0.000000 1.812570 0.000000 
#    z 0.000000 0.000000 1.763040 
# 
# From -- ./inp_files/29849.got.cif
#   From: 2010.05.17/outbox.cif.g08.bks.cpg/sg51_15_cif.got.tgz:29849.got - 2010.06.03 11:52:47.
