data_PCOD9403421
_publ_section_title
;
Structure prediction by ZEFSAII (Michael W. Deem and Ramdas Pophale) SiO2 
 PCOD9403421
Probable space group: P M M A
;
_chemical_formula_sum "Si O2"
_cell_formula_units_Z 64
_cell_length_a 14.968864
_cell_length_b 7.788686
_cell_length_c 24.895586
_cell_angle_alpha 90.000000
_cell_angle_beta 90.000000
_cell_angle_gamma 90.000000
_cell_volume 2902.521140
_symmetry_space_group_name_H-M "P M M A"
_symmetry_group_IT_number 51
_symmetry_cell_setting 'orthorhombic'
loop_
_space_group_symop_operation_xyz
x,y,z
1/2-x,-y,z
1/2+x,-y,-z
-x,y,-z
-x,-y,-z
1/2+x,y,-z
1/2-x,y,z
x,-y,z
loop_
_atom_site_type_symbol
_atom_site_label
_atom_site_fract_x
_atom_site_fract_y
_atom_site_fract_z
Si Si1 0.846736 0.206154 0.870077
Si Si2 0.105174 0.306394 0.514253
Si Si3 0.544728 0.204480 0.373034
Si Si4 0.346538 0.802186 0.401619
Si Si5 0.013795 0.207221 0.939286
Si Si6 0.040779 0.705335 0.742241
Si Si7 0.345617 0.301459 0.251871
Si Si8 0.648248 0.706378 0.152773
O O1 0.750000 0.235372 0.896069
O O2 0.847226 0.296027 0.812761
O O3 0.928418 0.266162 0.905337
O O4 0.855000 0.000000 0.860943
O O5 0.138028 0.500000 0.508571
O O6 0.105911 0.253903 0.576266
O O7 0.148795 0.199903 0.466546
O O8 0.000000 0.301219 0.500000
O O9 0.442062 0.274775 0.382164
O O10 0.583316 0.262980 0.315871
O O11 0.537757 0.000000 0.373645
O O12 0.250000 0.723009 0.386429
O O13 0.345623 0.000000 0.383626
O O14 0.099352 0.254461 0.903439
O O15 0.012077 0.000000 0.941513
O O16 0.000000 0.270480 0.000000
O O17 0.031411 0.500000 0.749668
O O18 0.091334 0.770736 0.795413
O O19 0.940693 0.780671 0.734913
O O20 0.250000 0.221866 0.267712
O O21 0.345281 0.500000 0.269934
O O22 0.750000 0.770990 0.154047
O O23 0.651382 0.500000 0.157758
#
# Coordination Sequence:
#
# PCOD9403421 Si02
#       8
#     8   8   8   8   8   8   8   8
#     4   9  17  30  49  74 105 138 172 212 260 319
#     4   9  17  31  51  74 101 136 179 223 267 317
#     4  10  20  33  52  77 105 141 183 225 272 329
#     4   9  18  33  52  76 108 142 175 217 271 330
#     4  10  21  36  57  86 116 146 181 225 277 333
#     4  10  20  35  54  77 108 145 183 232 285 332
#     4   9  17  30  50  75 101 133 174 218 269 327
#     4  10  22  41  62  83 110 148 193 238 284 332
#
# _framework density 22.049797000000002
#
# number of rings (size 3 to 8) (size 9 to 14) (size 15 to 20)
#    0.000    2.500    1.250    0.750    0.000    4.750 
#    0.000    1.875    0.000    3.750    0.000    0.000 
#    0.000    0.000    0.000    0.000    0.000    0.000 
#
# Total GULP energy -356851.884208 kJ/mol
# GULP energy per Si atom -5575.810691 kJ/mol
# Density = 2.199961 g / cm^3
# Si number density = 22.049797 Si / 1000 Ang^3
#
#
#
# Elastic Constant Matrix: (Units=GPa)
#
#
# Indices 1 2 3 4 5 6 
#
# 1 90.0373 6.0207 52.2000 0.0000 0.0000 0.0000
# 2 6.0207 38.8256 -1.8162 0.0000 0.0000 0.0000
# 3 52.2000 -1.8162 161.0318 0.0000 0.0000 0.0000
# 4 0.0000 0.0000 0.0000 23.7800 0.0000 0.0000
# 5 0.0000 0.0000 0.0000 0.0000 -2.4781 0.0000
# 6 0.0000 0.0000 0.0000 0.0000 0.0000 5.8807
#
#
#
# Elastic Compliance Matrix: (Units=1/GPa)
#
#
# Indices 1 2 3 4 5 6 
#
# 1 0.013891 -0.002366 -0.004529 0.000000 0.000000 0.000000
# 2 -0.002366 0.026173 0.001062 0.000000 0.000000 0.000000
# 3 -0.004529 0.001062 0.007690 0.000000 0.000000 0.000000
# 4 0.000000 0.000000 0.000000 0.042052 0.000000 0.000000
# 5 0.000000 0.000000 0.000000 0.000000 -0.403530 0.000000
# 6 0.000000 0.000000 0.000000 0.000000 0.000000 0.170048
#
#
# Mechanical properties :
#
#
# Convention : Reuss Voigt Hill
#
# Bulk Modulus (GPa) = 27.71073 44.74486 36.22779
# Shear Modulus (GPa) = -41.67333 21.00254 -10.33540
#
# Velocity S-wave (km/s) = -4.35209 3.08962 -2.16737
# Velocity P-wave (km/s) = 3.55803 5.75016 3.19411
#
# Compressibility (1/GPa) = 0.03608711
#
# Stress axis : x y z
#
# Youngs Moduli (GPa) = 71.99046 38.20769 130.03537
#
# Poissons Ratio (x) = 0.09040 0.58900
# Poissons Ratio (y) = 0.17032 -0.13811
# Poissons Ratio (z) = 0.32608 -0.04058
#
# Static dielectric constant tensor:
#      x y z
#    x 1.854530 0.000000 0.000000 
#    y 0.000000 1.807380 0.000000 
#    z 0.000000 0.000000 1.809870 
# 
# From -- ./inp_files/35660.got.cif
#   From: 2010.05.17/outbox.cif.g08.bks.cpg/sg51_18_cif.got.tgz:35660.got - 2010.06.03 11:52:47.
