data_PCOD9403828
_publ_section_title
;
Structure prediction by ZEFSAII (Michael W. Deem and Ramdas Pophale) SiO2 
 PCOD9403828
Probable space group: P M M A
;
_chemical_formula_sum "Si O2"
_cell_formula_units_Z 64
_cell_length_a 28.368741
_cell_length_b 9.187150
_cell_length_c 13.334874
_cell_angle_alpha 90.000000
_cell_angle_beta 90.000000
_cell_angle_gamma 90.000000
_cell_volume 3475.439926
_symmetry_space_group_name_H-M "P M M A"
_symmetry_group_IT_number 51
_symmetry_cell_setting 'orthorhombic'
loop_
_space_group_symop_operation_xyz
x,y,z
1/2-x,-y,z
1/2+x,-y,-z
-x,y,-z
-x,-y,-z
1/2+x,y,-z
1/2-x,y,z
x,-y,z
loop_
_atom_site_type_symbol
_atom_site_label
_atom_site_fract_x
_atom_site_fract_y
_atom_site_fract_z
Si Si1 0.194987 0.325757 0.108301
Si Si2 0.851310 0.825663 0.305050
Si Si3 0.136518 0.675225 0.306066
Si Si4 0.556205 0.173105 0.200119
Si Si5 0.946382 0.173641 0.789309
Si Si6 0.804847 0.675351 0.495703
Si Si7 0.442779 0.665625 0.004257
Si Si8 0.806735 0.830068 0.093249
O O1 0.250000 0.284084 0.120434
O O2 0.193039 0.500000 0.099510
O O3 0.166696 0.283808 0.207498
O O4 0.177109 0.256232 0.004978
O O5 0.906698 0.795166 0.287830
O O6 0.828163 0.745860 0.398189
O O7 0.827095 0.781453 0.199846
O O8 0.844998 0.000000 0.316086
O O9 0.130238 0.500000 0.304959
O O10 0.086692 0.754495 0.293953
O O11 0.165554 0.714807 0.405230
O O12 0.501919 0.207127 0.224978
O O13 0.558800 0.000000 0.178785
O O14 0.570893 0.257475 0.099307
O O15 0.931839 0.243075 0.896345
O O16 0.940835 0.000000 0.792044
O O17 0.750000 0.718715 0.505114
O O18 0.806083 0.500000 0.487122
O O19 0.425071 0.500000 0.012366
O O20 0.500000 0.660092 0.000000
O O21 0.750000 0.817851 0.098148
O O22 0.819122 0.000000 0.080789
#
# Coordination Sequence:
#
# PCOD9403828 Si02
#       8
#     8   8   8   8   8   8   8   8
#     4   9  18  33  53  77 106 139 174 217 273 335
#     4  10  21  37  58  82 110 145 187 231 279 330
#     4  10  21  37  57  81 109 142 185 232 281 332
#     4   9  19  35  53  78 113 152 190 230 275 326
#     4  10  20  34  53  78 112 151 191 230 273 328
#     4  10  22  41  63  85 110 142 183 233 286 341
#     4   9  17  30  50  77 110 148 187 228 273 322
#     4   9  18  32  50  76 110 141 170 214 272 329
#
# _framework density 18.414936000000001
#
# number of rings (size 3 to 8) (size 9 to 14) (size 15 to 20)
#    0.000    2.500    0.000    1.500    1.750    6.250 
#    0.000    1.875    0.000    6.000    0.000    0.000 
#    0.000    0.000    0.000    0.000    0.000    0.000 
#
# Total GULP energy -357260.045461 kJ/mol
# GULP energy per Si atom -5582.188210 kJ/mol
# Density = 1.837302 g / cm^3
# Si number density = 18.414936 Si / 1000 Ang^3
#
#
#
# Elastic Constant Matrix: (Units=GPa)
#
#
# Indices 1 2 3 4 5 6 
#
# 1 88.9537 35.3701 60.0324 0.0000 0.0000 0.0000
# 2 35.3701 32.6190 43.2640 0.0000 0.0000 0.0000
# 3 60.0324 43.2640 132.6014 0.0000 0.0000 0.0000
# 4 0.0000 0.0000 0.0000 53.4592 0.0000 0.0000
# 5 0.0000 0.0000 0.0000 0.0000 35.6406 0.0000
# 6 0.0000 0.0000 0.0000 0.0000 0.0000 23.1531
#
#
#
# Elastic Compliance Matrix: (Units=1/GPa)
#
#
# Indices 1 2 3 4 5 6 
#
# 1 0.020699 -0.017656 -0.003610 0.000000 0.000000 0.000000
# 2 -0.017656 0.069105 -0.014554 0.000000 0.000000 0.000000
# 3 -0.003610 -0.014554 0.013924 0.000000 0.000000 0.000000
# 4 0.000000 0.000000 0.000000 0.018706 0.000000 0.000000
# 5 0.000000 0.000000 0.000000 0.000000 0.028058 0.000000
# 6 0.000000 0.000000 0.000000 0.000000 0.000000 0.043191
#
#
# Mechanical properties :
#
#
# Convention : Reuss Voigt Hill
#
# Bulk Modulus (GPa) = 31.16388 59.05635 45.11011
# Shear Modulus (GPa) = 18.11471 30.15109 24.13290
#
# Velocity S-wave (km/s) = 3.13980 4.05077 3.62402
# Velocity P-wave (km/s) = 5.48674 7.34967 6.48545
#
# Compressibility (1/GPa) = 0.03208843
#
# Stress axis : x y z
#
# Youngs Moduli (GPa) = 48.31220 14.47067 71.81683
#
# Poissons Ratio (x) = 0.25549 0.25928
# Poissons Ratio (y) = 0.85300 1.04520
# Poissons Ratio (z) = 0.17442 0.21060
#
# Static dielectric constant tensor:
#      x y z
#    x 1.680570 0.000000 0.000000 
#    y 0.000000 1.616150 0.000000 
#    z 0.000000 0.000000 1.593480 
# 
# From -- ./inp_files/19558.got.cif
#   From: 2010.05.17/outbox.cif.g08.bks.cpg/sg51_10_cif.got.tgz:19558.got - 2010.06.03 11:52:47.
