data_PCOD9403403
_publ_section_title
;
Structure prediction by ZEFSAII (Michael W. Deem and Ramdas Pophale) SiO2 
 PCOD9403403
Probable space group: P M M A
;
_chemical_formula_sum "Si O2"
_cell_formula_units_Z 52
_cell_length_a 9.353962
_cell_length_b 10.507962
_cell_length_c 29.937644
_cell_angle_alpha 90.000000
_cell_angle_beta 90.000000
_cell_angle_gamma 90.000000
_cell_volume 2942.603279
_symmetry_space_group_name_H-M "P M M A"
_symmetry_group_IT_number 51
_symmetry_cell_setting 'orthorhombic'
loop_
_space_group_symop_operation_xyz
x,y,z
1/2-x,-y,z
1/2+x,-y,-z
-x,y,-z
-x,-y,-z
1/2+x,y,-z
1/2-x,y,z
x,-y,z
loop_
_atom_site_type_symbol
_atom_site_label
_atom_site_fract_x
_atom_site_fract_y
_atom_site_fract_z
Si Si1 0.913904 0.347836 0.195432
Si Si2 0.578343 0.849310 0.635907
Si Si3 0.585513 0.845993 0.456374
Si Si4 0.081661 0.740454 0.111905
Si Si5 0.906986 0.147814 0.040212
Si Si6 0.079192 0.649772 0.699485
Si Si7 0.418234 0.500000 0.046896
O O1 0.750000 0.307798 0.186220
O O2 0.920821 0.500000 0.188733
O O3 0.944167 0.325974 0.247687
O O4 0.021836 0.284819 0.160982
O O5 0.750000 0.834991 0.633158
O O6 0.503249 0.819728 0.588468
O O7 0.510151 0.751081 0.671070
O O8 0.549540 0.000000 0.646109
O O9 0.500000 0.799695 0.500000
O O10 0.750000 0.800265 0.454376
O O11 0.592271 0.000000 0.459777
O O12 0.250000 0.765620 0.112258
O O13 0.053259 0.619428 0.079548
O O14 0.990982 0.845534 0.086337
O O15 0.750000 0.207942 0.043018
O O16 0.888752 0.000000 0.029085
O O17 0.000000 0.204774 0.000000
O O18 0.250000 0.664437 0.691088
O O19 0.044020 0.500000 0.690642
O O20 0.250000 0.500000 0.036615
O O21 0.500000 0.500000 0.000000
#
# Coordination Sequence:
#
# PCOD9403403 Si02
#       7
#     8   8   8   8   8   8   4
#     4   9  18  34  55  77 101 133 171 211 257 308
#     4  10  20  33  51  79 113 146 183 227 274 324
#     4   9  16  27  46  73 106 144 184 226 273 324
#     4  11  21  34  52  76 104 130 162 201 245 297
#     4  10  21  37  55  74  97 128 167 205 243 292
#     4   9  19  36  57  80 105 137 182 228 272 328
#     4  10  22  34  46  72 104 130 154 188 235 290
#
# _framework density 17.671429
#
# number of rings (size 3 to 8) (size 9 to 14) (size 15 to 20)
#    0.000    2.308    0.769    3.231    0.000    7.077 
#    0.000    2.308    0.000    1.385    0.000    0.000 
#    0.000    0.000    0.000    0.000    0.000    0.000 
#
# Total GULP energy -289846.713402 kJ/mol
# GULP energy per Si atom -5573.975258 kJ/mol
# Density = 1.763121 g / cm^3
# Si number density = 17.671429 Si / 1000 Ang^3
#
#
#
# Elastic Constant Matrix: (Units=GPa)
#
#
# Indices 1 2 3 4 5 6 
#
# 1 139.3571 46.8444 88.2838 0.0000 0.0000 0.0000
# 2 46.8444 48.2449 39.7780 0.0000 0.0000 0.0000
# 3 88.2838 39.7780 113.7748 0.0000 0.0000 0.0000
# 4 0.0000 0.0000 0.0000 68.4638 0.0000 0.0000
# 5 0.0000 0.0000 0.0000 0.0000 37.5387 0.0000
# 6 0.0000 0.0000 0.0000 0.0000 0.0000 18.0135
#
#
#
# Elastic Compliance Matrix: (Units=1/GPa)
#
#
# Indices 1 2 3 4 5 6 
#
# 1 0.015768 -0.007338 -0.009670 0.000000 0.000000 0.000000
# 2 -0.007338 0.032537 -0.005682 0.000000 0.000000 0.000000
# 3 -0.009670 -0.005682 0.018279 0.000000 0.000000 0.000000
# 4 0.000000 0.000000 0.000000 0.014606 0.000000 0.000000
# 5 0.000000 0.000000 0.000000 0.000000 0.026639 0.000000
# 6 0.000000 0.000000 0.000000 0.000000 0.000000 0.055514
#
#
# Mechanical properties :
#
#
# Convention : Reuss Voigt Hill
#
# Bulk Modulus (GPa) = 47.15790 72.35435 59.75612
# Shear Modulus (GPa) = 23.17044 33.23457 28.20250
#
# Velocity S-wave (km/s) = 3.62495 4.34140 3.99925
# Velocity P-wave (km/s) = 6.65314 8.13410 7.43060
#
# Compressibility (1/GPa) = 0.02120535
#
# Stress axis : x y z
#
# Youngs Moduli (GPa) = 63.41770 30.73421 54.70637
#
# Poissons Ratio (x) = 0.22552 0.52902
# Poissons Ratio (y) = 0.46534 0.31084
# Poissons Ratio (z) = 0.61326 0.17463
#
# Static dielectric constant tensor:
#      x y z
#    x 1.623650 0.000000 0.000000 
#    y 0.000000 1.754170 0.000000 
#    z 0.000000 0.000000 1.583080 
# 
# From -- ./inp_files/36221.got.cif
#   From: 2010.05.17/outbox.cif.g08.bks.cpg/sg51_19_cif.got.tgz:36221.got - 2010.06.03 11:52:47.
