data_PCOD9403415
_publ_section_title
;
Structure prediction by ZEFSAII (Michael W. Deem and Ramdas Pophale) SiO2 
 PCOD9403415
Probable space group: P M M A
;
_chemical_formula_sum "Si O2"
_cell_formula_units_Z 64
_cell_length_a 9.102105
_cell_length_b 14.391067
_cell_length_c 31.945998
_cell_angle_alpha 90.000000
_cell_angle_beta 90.000000
_cell_angle_gamma 90.000000
_cell_volume 4184.574425
_symmetry_space_group_name_H-M "P M M A"
_symmetry_group_IT_number 51
_symmetry_cell_setting 'orthorhombic'
loop_
_space_group_symop_operation_xyz
x,y,z
1/2-x,-y,z
1/2+x,-y,-z
-x,y,-z
-x,-y,-z
1/2+x,y,-z
1/2-x,y,z
x,-y,z
loop_
_atom_site_type_symbol
_atom_site_label
_atom_site_fract_x
_atom_site_fract_y
_atom_site_fract_z
Si Si1 0.574652 0.199828 0.543306
Si Si2 0.575876 0.607229 0.328532
Si Si3 0.580641 0.886734 0.957563
Si Si4 0.580648 0.113112 0.127073
Si Si5 0.426261 0.784948 0.297835
Si Si6 0.576140 0.395660 0.581682
Si Si7 0.925741 0.891309 0.787357
Si Si8 0.423348 0.888901 0.624304
O O1 0.500000 0.170995 0.500000
O O2 0.750000 0.184861 0.542314
O O3 0.547094 0.309934 0.551170
O O4 0.502808 0.147349 0.582524
O O5 0.750000 0.625286 0.327405
O O6 0.550105 0.500000 0.316425
O O7 0.488743 0.681120 0.300979
O O8 0.516769 0.617453 0.376048
O O9 0.750000 0.858476 0.957874
O O10 0.501520 0.855895 0.914999
O O11 0.577198 0.000000 0.957482
O O12 0.500000 0.856663 0.000000
O O13 0.750000 0.141342 0.126209
O O14 0.503603 0.141574 0.170236
O O15 0.575878 0.000000 0.126767
O O16 0.250000 0.785871 0.302955
O O17 0.463545 0.833086 0.253794
O O18 0.500428 0.841185 0.335857
O O19 0.750000 0.391245 0.592624
O O20 0.546609 0.500000 0.565266
O O21 0.750000 0.886875 0.793367
O O22 0.964134 0.000000 0.780393
O O23 0.250000 0.865128 0.623105
O O24 0.437101 0.000000 0.627280
#
# Coordination Sequence:
#
# PCOD9403415 Si02
#       8
#     8   8   8   8   8   8   8   8
#     4  11  23  38  57  78 101 129 156 188 226 269
#     4  10  20  33  52  77 102 127 153 184 223 268
#     4   9  15  22  33  49  71 102 143 191 239 283
#     4   9  16  25  37  54  78 109 147 191 237 280
#     4  11  21  34  54  77  99 125 155 191 232 277
#     4   9  18  34  55  78 102 127 153 180 217 266
#     4   9  18  31  45  63  89 121 156 192 232 277
#     4  11  24  40  57  76  98 124 156 195 233 271
#
# _framework density 15.294267
#
# number of rings (size 3 to 8) (size 9 to 14) (size 15 to 20)
#    0.000    2.125    1.250    2.625    0.000    7.250 
#    0.000    1.250    0.000    0.000    0.000    0.000 
#    0.000    0.000    0.000    0.000    0.000    0.625 
#
# Total GULP energy -357040.046694 kJ/mol
# GULP energy per Si atom -5578.750730 kJ/mol
# Density = 1.525946 g / cm^3
# Si number density = 15.294267 Si / 1000 Ang^3
#
#
#
# Elastic Constant Matrix: (Units=GPa)
#
#
# Indices 1 2 3 4 5 6 
#
# 1 91.4098 39.7627 79.3925 0.0000 0.0000 0.0000
# 2 39.7627 49.4202 41.8566 0.0000 0.0000 0.0000
# 3 79.3925 41.8566 146.9481 0.0000 0.0000 0.0000
# 4 0.0000 0.0000 0.0000 3.7791 0.0000 0.0000
# 5 0.0000 0.0000 0.0000 0.0000 28.5648 0.0000
# 6 0.0000 0.0000 0.0000 0.0000 0.0000 19.4499
#
#
#
# Elastic Compliance Matrix: (Units=1/GPa)
#
#
# Indices 1 2 3 4 5 6 
#
# 1 0.024586 -0.011244 -0.010081 0.000000 0.000000 0.000000
# 2 -0.011244 0.031810 -0.002986 0.000000 0.000000 0.000000
# 3 -0.010081 -0.002986 0.013102 0.000000 0.000000 0.000000
# 4 0.000000 0.000000 0.000000 0.264616 0.000000 0.000000
# 5 0.000000 0.000000 0.000000 0.000000 0.035008 0.000000
# 6 0.000000 0.000000 0.000000 0.000000 0.000000 0.051414
#
#
# Mechanical properties :
#
#
# Convention : Reuss Voigt Hill
#
# Bulk Modulus (GPa) = 47.89859 67.75572 57.82715
# Shear Modulus (GPa) = 10.50164 18.80983 14.65574
#
# Velocity S-wave (km/s) = 2.62322 3.51074 3.09892
# Velocity P-wave (km/s) = 6.36876 7.79944 7.12013
#
# Compressibility (1/GPa) = 0.02087744
#
# Stress axis : x y z
#
# Youngs Moduli (GPa) = 40.67354 31.43640 76.32442
#
# Poissons Ratio (x) = 0.35346 0.76939
# Poissons Ratio (y) = 0.45732 0.22791
# Poissons Ratio (z) = 0.41001 0.09387
#
# Static dielectric constant tensor:
#      x y z
#    x 1.510650 0.000000 0.000000 
#    y 0.000000 1.505720 0.000000 
#    z 0.000000 0.000000 1.487290 
# 
# From -- ./inp_files/37587.got.cif
#   From: 2010.05.17/outbox.cif.g08.bks.cpg/sg51_19_cif.got.tgz:37587.got - 2010.06.03 11:52:47.
