data_PCOD9403291
_publ_section_title
;
Structure prediction by ZEFSAII (Michael W. Deem and Ramdas Pophale) SiO2 
 PCOD9403291
Probable space group: P M M A
;
_chemical_formula_sum "Si O2"
_cell_formula_units_Z 48
_cell_length_a 9.367946
_cell_length_b 8.109746
_cell_length_c 32.278452
_cell_angle_alpha 90.000000
_cell_angle_beta 90.000000
_cell_angle_gamma 90.000000
_cell_volume 2452.247665
_symmetry_space_group_name_H-M "P M M A"
_symmetry_group_IT_number 51
_symmetry_cell_setting 'orthorhombic'
loop_
_space_group_symop_operation_xyz
x,y,z
1/2-x,-y,z
1/2+x,-y,-z
-x,y,-z
-x,-y,-z
1/2+x,y,-z
1/2-x,y,z
x,-y,z
loop_
_atom_site_type_symbol
_atom_site_label
_atom_site_fract_x
_atom_site_fract_y
_atom_site_fract_z
Si Si1 0.423313 0.307854 0.130462
Si Si2 0.913312 0.194190 0.779779
Si Si3 0.413298 0.300654 0.378081
Si Si4 0.085927 0.199326 0.540578
Si Si5 0.915375 0.298101 0.959565
Si Si6 0.411334 0.302848 0.701363
O O1 0.250000 0.298831 0.128458
O O2 0.462597 0.500000 0.133774
O O3 0.465502 0.223373 0.173237
O O4 0.472515 0.243316 0.085558
O O5 0.750000 0.260591 0.776684
O O6 0.013235 0.269980 0.744987
O O7 0.907614 0.000000 0.772474
O O8 0.250000 0.240767 0.380473
O O9 0.408701 0.500000 0.376375
O O10 0.503314 0.251540 0.418211
O O11 0.492202 0.239532 0.336562
O O12 0.250000 0.257783 0.540523
O O13 0.000000 0.257108 0.500000
O O14 0.088705 0.000000 0.539370
O O15 0.750000 0.249999 0.963347
O O16 0.919154 0.500000 0.958543
O O17 0.000000 0.243232 0.000000
O O18 0.250000 0.236293 0.700034
O O19 0.402809 0.500000 0.696251
#
# Coordination Sequence:
#
# PCOD9403291 Si02
#       6
#     8   8   8   8   8   8
#     4   8  14  26  45  67  92 124 160 199 245 294
#     4  10  20  33  51  75 100 129 167 208 250 298
#     4  10  21  37  58  83 108 136 172 214 259 305
#     4  10  21  37  57  81 110 145 182 218 257 301
#     4   8  13  22  38  61  87 115 150 194 242 288
#     4  10  21  37  56  77 102 133 168 207 254 306
#
# _framework density 19.573879999999999
#
# number of rings (size 3 to 8) (size 9 to 14) (size 15 to 20)
#    0.000    2.667    0.000    3.000    0.000    5.000 
#    0.000    0.833    0.000    3.500    0.000    0.000 
#    0.000    0.000    0.000    0.000    0.000    0.000 
#
# Total GULP energy -267713.499891 kJ/mol
# GULP energy per Si atom -5577.364581 kJ/mol
# Density = 1.952933 g / cm^3
# Si number density = 19.573880 Si / 1000 Ang^3
#
#
#
# Elastic Constant Matrix: (Units=GPa)
#
#
# Indices 1 2 3 4 5 6 
#
# 1 137.8272 10.3708 98.8355 0.0000 0.0000 0.0000
# 2 10.3708 6.4620 4.3321 0.0000 0.0000 0.0000
# 3 98.8355 4.3321 183.8127 0.0000 0.0000 0.0000
# 4 0.0000 0.0000 0.0000 72.3642 0.0000 0.0000
# 5 0.0000 0.0000 0.0000 0.0000 33.8858 0.0000
# 6 0.0000 0.0000 0.0000 0.0000 0.0000 13.2914
#
#
#
# Elastic Compliance Matrix: (Units=1/GPa)
#
#
# Indices 1 2 3 4 5 6 
#
# 1 0.013420 -0.016968 -0.006816 0.000000 0.000000 0.000000
# 2 -0.016968 0.178690 0.004912 0.000000 0.000000 0.000000
# 3 -0.006816 0.004912 0.008989 0.000000 0.000000 0.000000
# 4 0.000000 0.000000 0.000000 0.013819 0.000000 0.000000
# 5 0.000000 0.000000 0.000000 0.000000 0.029511 0.000000
# 6 0.000000 0.000000 0.000000 0.000000 0.000000 0.075237
#
#
# Mechanical properties :
#
#
# Convention : Reuss Voigt Hill
#
# Bulk Modulus (GPa) = 6.12161 61.68652 33.90406
# Shear Modulus (GPa) = 12.14001 38.21251 25.17626
#
# Velocity S-wave (km/s) = 2.49311 4.42319 3.59028
# Velocity P-wave (km/s) = 3.37960 7.59403 5.87754
#
# Compressibility (1/GPa) = 0.16335571
#
# Stress axis : x y z
#
# Youngs Moduli (GPa) = 74.51610 5.59629 111.24142
#
# Poissons Ratio (x) = 0.09496 0.75822
# Poissons Ratio (y) = 1.26440 -0.54646
# Poissons Ratio (z) = 0.50790 -0.02749
#
# Static dielectric constant tensor:
#      x y z
#    x 1.680900 0.000000 0.000000 
#    y 0.000000 1.698310 0.000000 
#    z 0.000000 0.000000 1.677580 
# 
# From -- ./inp_files/36985.got.cif
#   From: 2010.05.17/outbox.cif.g08.bks.cpg/sg51_19_cif.got.tgz:36985.got - 2010.06.03 11:52:47.
