data_PCOD9403530
_publ_section_title
;
Structure prediction by ZEFSAII (Michael W. Deem and Ramdas Pophale) SiO2 
 PCOD9403530
Probable space group: P M M A
;
_chemical_formula_sum "Si O2"
_cell_formula_units_Z 56
_cell_length_a 14.309271
_cell_length_b 8.866329
_cell_length_c 21.411381
_cell_angle_alpha 90.000000
_cell_angle_beta 90.000000
_cell_angle_gamma 90.000000
_cell_volume 2716.476990
_symmetry_space_group_name_H-M "P M M A"
_symmetry_group_IT_number 51
_symmetry_cell_setting 'orthorhombic'
loop_
_space_group_symop_operation_xyz
x,y,z
1/2-x,-y,z
1/2+x,-y,-z
-x,y,-z
-x,-y,-z
1/2+x,y,-z
1/2-x,y,z
x,-y,z
loop_
_atom_site_type_symbol
_atom_site_label
_atom_site_fract_x
_atom_site_fract_y
_atom_site_fract_z
Si Si1 0.363783 0.674244 0.470400
Si Si2 0.035232 0.819441 0.723690
Si Si3 0.890120 0.672275 0.016466
Si Si4 0.641043 0.682521 0.669147
Si Si5 0.048757 0.680707 0.851321
Si Si6 0.648076 0.178927 0.889986
Si Si7 0.140567 0.180777 0.598502
O O1 0.250000 0.678724 0.471512
O O2 0.391907 0.500000 0.473290
O O3 0.386950 0.733879 0.401365
O O4 0.396853 0.755634 0.532923
O O5 0.929642 0.759295 0.716502
O O6 0.079340 0.751304 0.786090
O O7 0.088106 0.768401 0.660807
O O8 0.036268 0.000000 0.726746
O O9 0.854774 0.500000 0.010992
O O10 0.888781 0.723557 0.088370
O O11 0.849939 0.779616 0.963608
O O12 0.000000 0.664603 0.000000
O O13 0.750000 0.719260 0.679387
O O14 0.632715 0.500000 0.671250
O O15 0.048332 0.500000 0.848622
O O16 0.942550 0.737189 0.863385
O O17 0.750000 0.223885 0.863580
O O18 0.636292 0.000000 0.881713
O O19 0.250000 0.222729 0.603496
O O20 0.134975 0.000000 0.595741
#
# Coordination Sequence:
#
# PCOD9403530 Si02
#       7
#     8   8   8   8   8   8   8
#     4   8  15  30  53  78 101 130 172 221 271 319
#     4  11  23  36  53  78 107 142 182 222 265 316
#     4   8  16  32  53  75  98 127 164 204 245 290
#     4   9  19  36  55  76 106 142 178 218 266 321
#     4  10  21  37  55  74 101 139 177 212 255 306
#     4  10  20  33  53  83 112 136 167 207 251 302
#     4   9  19  36  55  75 102 136 174 219 273 328
#
# _framework density 20.614936
#
# number of rings (size 3 to 8) (size 9 to 14) (size 15 to 20)
#    0.000    2.714    0.000    3.000    0.000    7.429 
#    0.000    5.000    0.000    2.571    0.000    0.000 
#    0.000    0.000    0.000    0.000    0.000    0.000 
#
# Total GULP energy -312474.895561 kJ/mol
# GULP energy per Si atom -5579.908849 kJ/mol
# Density = 2.056802 g / cm^3
# Si number density = 20.614936 Si / 1000 Ang^3
#
#
#
# Elastic Constant Matrix: (Units=GPa)
#
#
# Indices 1 2 3 4 5 6 
#
# 1 34.0325 1.5168 -3.0985 0.0000 0.0000 0.0000
# 2 1.5168 20.5781 12.0519 0.0000 0.0000 0.0000
# 3 -3.0985 12.0519 106.2266 0.0000 0.0000 0.0000
# 4 0.0000 0.0000 0.0000 55.9484 0.0000 0.0000
# 5 0.0000 0.0000 0.0000 0.0000 11.5133 0.0000
# 6 0.0000 0.0000 0.0000 0.0000 0.0000 19.4716
#
#
#
# Elastic Compliance Matrix: (Units=1/GPa)
#
#
# Indices 1 2 3 4 5 6 
#
# 1 0.029620 -0.002881 0.001191 0.000000 0.000000 0.000000
# 2 -0.002881 0.052334 -0.006022 0.000000 0.000000 0.000000
# 3 0.001191 -0.006022 0.010132 0.000000 0.000000 0.000000
# 4 0.000000 0.000000 0.000000 0.017874 0.000000 0.000000
# 5 0.000000 0.000000 0.000000 0.000000 0.086856 0.000000
# 6 0.000000 0.000000 0.000000 0.000000 0.000000 0.051357
#
#
# Mechanical properties :
#
#
# Convention : Reuss Voigt Hill
#
# Bulk Modulus (GPa) = 13.04403 20.19752 16.62078
# Shear Modulus (GPa) = 17.29205 27.41113 22.35159
#
# Velocity S-wave (km/s) = 2.89937 3.65042 3.29636
# Velocity P-wave (km/s) = 4.18923 5.25226 4.75057
#
# Compressibility (1/GPa) = 0.07666342
#
# Stress axis : x y z
#
# Youngs Moduli (GPa) = 33.76044 19.10796 98.69957
#
# Poissons Ratio (x) = 0.05505 -0.11753
# Poissons Ratio (y) = 0.09726 0.59433
# Poissons Ratio (z) = -0.04020 0.11506
#
# Static dielectric constant tensor:
#      x y z
#    x 1.772460 0.000000 0.000000 
#    y 0.000000 1.684910 0.000000 
#    z 0.000000 0.000000 1.767870 
# 
# From -- ./inp_files/33437.got.cif
#   From: 2010.05.17/outbox.cif.g08.bks.cpg/sg51_17_cif.got.tgz:33437.got - 2010.06.03 11:52:47.
