data_PCOD9403560
_publ_section_title
;
Structure prediction by ZEFSAII (Michael W. Deem and Ramdas Pophale) SiO2 
 PCOD9403560
Probable space group: P M M A
;
_chemical_formula_sum "Si O2"
_cell_formula_units_Z 58
_cell_length_a 27.328307
_cell_length_b 9.789431
_cell_length_c 11.584845
_cell_angle_alpha 90.000000
_cell_angle_beta 90.000000
_cell_angle_gamma 90.000000
_cell_volume 3099.277083
_symmetry_space_group_name_H-M "P M M A"
_symmetry_group_IT_number 51
_symmetry_cell_setting 'orthorhombic'
loop_
_space_group_symop_operation_xyz
x,y,z
1/2-x,-y,z
1/2+x,-y,-z
-x,y,-z
-x,-y,-z
1/2+x,y,-z
1/2-x,y,z
x,-y,z
loop_
_atom_site_type_symbol
_atom_site_label
_atom_site_fract_x
_atom_site_fract_y
_atom_site_fract_z
Si Si1 0.609759 0.156736 0.893269
Si Si2 0.425027 0.159395 0.370053
Si Si3 0.664931 0.770913 0.225240
Si Si4 0.382913 0.654191 0.554370
Si Si5 0.694383 0.657424 0.986169
Si Si6 0.986061 0.342643 0.310330
Si Si7 0.250000 0.000000 0.760263
Si Si8 0.558928 0.844317 0.124272
O O1 0.591955 0.166392 0.762815
O O2 0.624740 0.000000 0.916472
O O3 0.655355 0.253554 0.917547
O O4 0.568164 0.185645 0.989404
O O5 0.386629 0.233271 0.454403
O O6 0.473999 0.249778 0.373250
O O7 0.432465 0.000000 0.400812
O O8 0.654763 0.695456 0.345523
O O9 0.680554 0.671983 0.120886
O O10 0.612972 0.835029 0.183024
O O11 0.706906 0.882043 0.237386
O O12 0.374135 0.500000 0.511438
O O13 0.435887 0.654863 0.617348
O O14 0.750000 0.706793 0.970238
O O15 0.691481 0.500000 0.951803
O O16 0.002458 0.500000 0.296139
O O17 0.973336 0.266603 0.190517
O O18 0.540071 0.000000 0.138291
#
# Coordination Sequence:
#
# PCOD9403560 Si02
#       8
#     8   8   8   8   8   8   2   8
#     4   9  21  37  55  80 111 148 185 230 281 329
#     4  11  23  38  57  81 110 148 195 235 275 331
#     4  10  20  33  57  87 118 142 179 228 281 329
#     4  10  22  39  58  80 115 151 185 231 284 334
#     4  10  20  34  57  86 114 143 180 226 278 340
#     4  10  21  36  56  83 112 145 186 230 280 333
#     4  12  20  32  58  96 116 146 186 230 282 346
#     4   9  17  33  55  80 113 145 178 221 277 325
#
# _framework density 18.714043
#
# number of rings (size 3 to 8) (size 9 to 14) (size 15 to 20)
#    0.000    2.069    1.379    1.655    1.931    8.000 
#    0.000    2.759    1.517    0.000    0.000    0.000 
#    0.000    0.000    0.000    0.000    0.000    0.000 
#
# Total GULP energy -323236.747151 kJ/mol
# GULP energy per Si atom -5573.047365 kJ/mol
# Density = 1.867145 g / cm^3
# Si number density = 18.714043 Si / 1000 Ang^3
#
#
#
# Elastic Constant Matrix: (Units=GPa)
#
#
# Indices 1 2 3 4 5 6 
#
# 1 48.1701 29.6819 7.0870 0.0000 0.0000 0.0000
# 2 29.6819 119.3819 40.0584 0.0000 0.0000 0.0000
# 3 7.0870 40.0584 66.0109 0.0000 0.0000 0.0000
# 4 0.0000 0.0000 0.0000 13.8612 0.0000 0.0000
# 5 0.0000 0.0000 0.0000 0.0000 13.1751 0.0000
# 6 0.0000 0.0000 0.0000 0.0000 0.0000 29.7056
#
#
#
# Elastic Compliance Matrix: (Units=1/GPa)
#
#
# Indices 1 2 3 4 5 6 
#
# 1 0.024610 -0.006570 0.001345 0.000000 0.000000 0.000000
# 2 -0.006570 0.012272 -0.006742 0.000000 0.000000 0.000000
# 3 0.001345 -0.006742 0.019096 0.000000 0.000000 0.000000
# 4 0.000000 0.000000 0.000000 0.072144 0.000000 0.000000
# 5 0.000000 0.000000 0.000000 0.000000 0.075901 0.000000
# 6 0.000000 0.000000 0.000000 0.000000 0.000000 0.033664
#
#
# Mechanical properties :
#
#
# Convention : Reuss Voigt Hill
#
# Bulk Modulus (GPa) = 31.20703 43.02417 37.11560
# Shear Modulus (GPa) = 18.36190 21.79741 20.07965
#
# Velocity S-wave (km/s) = 3.13578 3.41656 3.27918
# Velocity P-wave (km/s) = 5.46102 6.21322 5.84923
#
# Compressibility (1/GPa) = 0.03204407
#
# Stress axis : x y z
#
# Youngs Moduli (GPa) = 40.63332 81.48442 52.36705
#
# Poissons Ratio (x) = 0.53536 -0.07043
# Poissons Ratio (y) = 0.26697 0.35306
# Poissons Ratio (z) = -0.05465 0.54937
#
# Static dielectric constant tensor:
#      x y z
#    x 1.648690 0.000000 0.000000 
#    y 0.000000 1.641220 0.000000 
#    z 0.000000 0.000000 1.660310 
# 
# From -- ./inp_files/19120.got.cif
#   From: 2010.05.17/outbox.cif.g08.bks.cpg/sg51_10_cif.got.tgz:19120.got - 2010.06.03 11:52:47.
