data_PCOD9403248
_publ_section_title
;
Structure prediction by ZEFSAII (Michael W. Deem and Ramdas Pophale) SiO2 
 PCOD9403248
Probable space group: P M M A
;
_chemical_formula_sum "Si O2"
_cell_formula_units_Z 56
_cell_length_a 8.839596
_cell_length_b 14.708341
_cell_length_c 24.073196
_cell_angle_alpha 90.000000
_cell_angle_beta 90.000000
_cell_angle_gamma 90.000000
_cell_volume 3129.895650
_symmetry_space_group_name_H-M "P M M A"
_symmetry_group_IT_number 51
_symmetry_cell_setting 'orthorhombic'
loop_
_space_group_symop_operation_xyz
x,y,z
1/2-x,-y,z
1/2+x,-y,-z
-x,y,-z
-x,-y,-z
1/2+x,y,-z
1/2-x,y,z
x,-y,z
loop_
_atom_site_type_symbol
_atom_site_label
_atom_site_fract_x
_atom_site_fract_y
_atom_site_fract_z
Si Si1 0.932090 0.396342 0.218203
Si Si2 0.068528 0.784222 0.838508
Si Si3 0.430913 0.606520 0.336887
Si Si4 0.572741 0.891101 0.735526
Si Si5 0.930469 0.893665 0.384703
Si Si6 0.431041 0.105438 0.060634
Si Si7 0.931207 0.272896 0.557934
O O1 0.750000 0.397459 0.220683
O O2 0.984290 0.500000 0.207292
O O3 0.976145 0.320462 0.173437
O O4 0.992888 0.367665 0.278719
O O5 0.250000 0.789753 0.841730
O O6 0.010294 0.840699 0.785416
O O7 0.996990 0.828016 0.893114
O O8 0.250000 0.616585 0.330752
O O9 0.464068 0.500000 0.346510
O O10 0.479083 0.665271 0.389706
O O11 0.750000 0.865873 0.734078
O O12 0.497236 0.871126 0.676155
O O13 0.562973 0.000000 0.744097
O O14 0.750000 0.880895 0.384657
O O15 0.007909 0.827507 0.428563
O O16 0.962604 0.000000 0.395320
O O17 0.250000 0.112922 0.058544
O O18 0.468544 0.000000 0.075077
O O19 0.500000 0.123607 0.000000
O O20 0.750000 0.273154 0.554861
O O21 0.000000 0.305500 0.500000
#
# Coordination Sequence:
#
# PCOD9403248 Si02
#       7
#     8   8   8   8   8   8   8
#     4   9  19  35  54  78 107 138 172 211 258 310
#     4  11  21  32  52  80 109 142 179 220 262 305
#     4   9  19  36  56  78 104 133 166 207 258 313
#     4  10  20  33  50  75 107 139 170 208 257 312
#     4  10  21  37  55  74  99 132 169 211 259 310
#     4  10  21  37  56  79 110 147 184 221 261 307
#     4  11  23  37  54  75 100 131 168 211 256 307
#
# _framework density 17.891970000000001
#
# number of rings (size 3 to 8) (size 9 to 14) (size 15 to 20)
#    0.000    2.000    0.000    3.429    0.000    9.429 
#    0.000    0.000    0.000    0.429    0.000    0.000 
#    0.000    0.000    0.000    0.000    0.000    0.000 
#
# Total GULP energy -312807.887519 kJ/mol
# GULP energy per Si atom -5585.855134 kJ/mol
# Density = 1.785125 g / cm^3
# Si number density = 17.891970 Si / 1000 Ang^3
#
#
#
# Elastic Constant Matrix: (Units=GPa)
#
#
# Indices 1 2 3 4 5 6 
#
# 1 48.4945 40.2258 37.4947 0.0000 0.0000 0.0000
# 2 40.2258 88.6573 77.6528 0.0000 0.0000 0.0000
# 3 37.4947 77.6528 109.6306 0.0000 0.0000 0.0000
# 4 0.0000 0.0000 0.0000 23.8778 0.0000 0.0000
# 5 0.0000 0.0000 0.0000 0.0000 35.6965 0.0000
# 6 0.0000 0.0000 0.0000 0.0000 0.0000 21.2183
#
#
#
# Elastic Compliance Matrix: (Units=1/GPa)
#
#
# Indices 1 2 3 4 5 6 
#
# 1 0.033200 -0.013483 -0.001804 0.000000 0.000000 0.000000
# 2 -0.013483 0.035189 -0.020314 0.000000 0.000000 0.000000
# 3 -0.001804 -0.020314 0.024127 0.000000 0.000000 0.000000
# 4 0.000000 0.000000 0.000000 0.041880 0.000000 0.000000
# 5 0.000000 0.000000 0.000000 0.000000 0.028014 0.000000
# 6 0.000000 0.000000 0.000000 0.000000 0.000000 0.047129
#
#
# Mechanical properties :
#
#
# Convention : Reuss Voigt Hill
#
# Bulk Modulus (GPa) = 46.91753 61.94767 54.43260
# Shear Modulus (GPa) = 17.37035 22.25246 19.81140
#
# Velocity S-wave (km/s) = 3.11922 3.53046 3.33119
# Velocity P-wave (km/s) = 6.26517 7.16360 6.72939
#
# Compressibility (1/GPa) = 0.02131400
#
# Stress axis : x y z
#
# Youngs Moduli (GPa) = 30.12020 28.41776 41.44719
#
# Poissons Ratio (x) = 0.38316 0.07479
# Poissons Ratio (y) = 0.40612 0.84194
# Poissons Ratio (z) = 0.05435 0.57727
#
# Static dielectric constant tensor:
#      x y z
#    x 1.595580 0.000000 0.000000 
#    y 0.000000 1.635800 0.000000 
#    z 0.000000 0.000000 1.576590 
# 
# From -- ./inp_files/31872.got.cif
#   From: 2010.05.17/outbox.cif.g08.bks.cpg/sg51_16_cif.got.tgz:31872.got - 2010.06.03 11:52:47.
