data_PCOD9403885
_publ_section_title
;
Structure prediction by ZEFSAII (Michael W. Deem and Ramdas Pophale) SiO2 
 PCOD9403885
Probable space group: P M M A
;
_chemical_formula_sum "Si O2"
_cell_formula_units_Z 56
_cell_length_a 14.244788
_cell_length_b 22.612073
_cell_length_c 9.599145
_cell_angle_alpha 90.000000
_cell_angle_beta 90.000000
_cell_angle_gamma 90.000000
_cell_volume 3091.924788
_symmetry_space_group_name_H-M "P M M A"
_symmetry_group_IT_number 51
_symmetry_cell_setting 'orthorhombic'
loop_
_space_group_symop_operation_xyz
x,y,z
1/2-x,-y,z
1/2+x,-y,-z
-x,y,-z
-x,-y,-z
1/2+x,y,-z
1/2-x,y,z
x,-y,z
loop_
_atom_site_type_symbol
_atom_site_label
_atom_site_fract_x
_atom_site_fract_y
_atom_site_fract_z
Si Si1 0.019562 0.068369 0.661410
Si Si2 0.639678 0.067398 0.886507
Si Si3 0.362757 0.714388 0.850018
Si Si4 0.977289 0.500000 0.337322
Si Si5 0.862638 0.149508 0.146044
Si Si6 0.478194 0.369754 0.664174
Si Si7 0.138654 0.370442 0.106123
Si Si8 0.859160 0.500000 0.882199
O O1 0.092279 0.113903 0.727156
O O2 0.000000 0.079259 0.500000
O O3 0.924703 0.074387 0.751815
O O4 0.051902 0.000000 0.676715
O O5 0.750000 0.074298 0.853959
O O6 0.626005 0.000000 0.939721
O O7 0.613342 0.113763 0.005553
O O8 0.250000 0.713054 0.836013
O O9 0.393440 0.782432 0.859568
O O10 0.410392 0.680543 0.722239
O O11 0.385784 0.677794 0.990196
O O12 0.073949 0.500000 0.250972
O O13 0.000000 0.500000 0.500000
O O14 0.934088 0.564544 0.308934
O O15 0.750000 0.148545 0.157526
O O16 0.500000 0.364303 0.500000
O O17 0.572845 0.365554 0.758386
O O18 0.250000 0.364848 0.139076
O O19 0.123530 0.437073 0.044839
O O20 0.750000 0.500000 0.841101
#
# Coordination Sequence:
#
# PCOD9403885 Si02
#       8
#     8   8   8   4   8   8   8   4
#     4  10  21  35  54  83 114 140 168 208 259 310
#     4   9  18  34  56  80 105 136 175 215 254 302
#     4  10  22  38  53  74 104 137 176 219 259 304
#     4   8  16  31  47  71 103 132 166 207 255 313
#     4  10  21  37  56  76 102 139 180 218 255 300
#     4  10  20  34  54  77 104 137 172 213 262 313
#     4   9  18  33  53  76 102 133 171 214 263 315
#     4   8  14  27  49  73  96 126 165 211 260 311
#
# _framework density 18.111695999999998
#
# number of rings (size 3 to 8) (size 9 to 14) (size 15 to 20)
#    0.000    2.571    0.000    1.286    0.000    6.571 
#    0.000    6.786    0.000    3.429    0.000    0.000 
#    0.000    0.000    0.000    0.000    0.000    0.000 
#
# Total GULP energy -312238.203670 kJ/mol
# GULP energy per Si atom -5575.682208 kJ/mol
# Density = 1.807047 g / cm^3
# Si number density = 18.111696 Si / 1000 Ang^3
#
#
#
# Elastic Constant Matrix: (Units=GPa)
#
#
# Indices 1 2 3 4 5 6 
#
# 1 44.3941 50.0990 30.0510 0.0000 0.0000 0.0000
# 2 50.0990 173.7841 90.0465 0.0000 0.0000 0.0000
# 3 30.0510 90.0465 118.9520 0.0000 0.0000 0.0000
# 4 0.0000 0.0000 0.0000 22.7931 0.0000 0.0000
# 5 0.0000 0.0000 0.0000 0.0000 -2.0739 0.0000
# 6 0.0000 0.0000 0.0000 0.0000 0.0000 16.7152
#
#
#
# Elastic Compliance Matrix: (Units=1/GPa)
#
#
# Indices 1 2 3 4 5 6 
#
# 1 0.033648 -0.008713 -0.001905 0.000000 0.000000 0.000000
# 2 -0.008713 0.011724 -0.006674 0.000000 0.000000 0.000000
# 3 -0.001905 -0.006674 0.013940 0.000000 0.000000 0.000000
# 4 0.000000 0.000000 0.000000 0.043873 0.000000 0.000000
# 5 0.000000 0.000000 0.000000 0.000000 -0.482191 0.000000
# 6 0.000000 0.000000 0.000000 0.000000 0.000000 0.059826
#
#
# Mechanical properties :
#
#
# Convention : Reuss Voigt Hill
#
# Bulk Modulus (GPa) = 40.43926 75.28035 57.85980
# Shear Modulus (GPa) = -18.09277 18.61581 0.26152
#
# Velocity S-wave (km/s) = -3.16405 3.20946 0.38040
# Velocity P-wave (km/s) = 3.00464 7.44237 5.67524
#
# Compressibility (1/GPa) = 0.02472844
#
# Stress axis : x y z
#
# Youngs Moduli (GPa) = 29.71980 85.29306 71.73519
#
# Poissons Ratio (x) = 0.74317 0.13663
# Poissons Ratio (y) = 0.25895 0.47876
# Poissons Ratio (z) = 0.05660 0.56925
#
# Static dielectric constant tensor:
#      x y z
#    x 1.631120 0.000000 0.000000 
#    y 0.000000 1.650750 0.000000 
#    z 0.000000 0.000000 1.583970 
# 
# From -- ./inp_files/8609.got.cif
#   From: 2010.05.17/outbox.cif.g08.bks.cpg/sg51_5_cif.got.tgz:8609.got - 2010.06.03 11:52:47.
