data_PCOD9403142
_publ_section_title
;
Structure prediction by ZEFSAII (Michael W. Deem and Ramdas Pophale) SiO2 
 PCOD9403142
Probable space group: P M M A
;
_chemical_formula_sum "Si O2"
_cell_formula_units_Z 52
_cell_length_a 9.097937
_cell_length_b 15.573362
_cell_length_c 24.001849
_cell_angle_alpha 90.000000
_cell_angle_beta 90.000000
_cell_angle_gamma 90.000000
_cell_volume 3400.713169
_symmetry_space_group_name_H-M "P M M A"
_symmetry_group_IT_number 51
_symmetry_cell_setting 'orthorhombic'
loop_
_space_group_symop_operation_xyz
x,y,z
1/2-x,-y,z
1/2+x,-y,-z
-x,y,-z
-x,-y,-z
1/2+x,y,-z
1/2-x,y,z
x,-y,z
loop_
_atom_site_type_symbol
_atom_site_label
_atom_site_fract_x
_atom_site_fract_y
_atom_site_fract_z
Si Si1 0.426984 0.225630 0.778871
Si Si2 0.581959 0.104293 0.444718
Si Si3 0.574855 0.404470 0.172726
Si Si4 0.423722 0.000000 0.940722
Si Si5 0.070943 0.099177 0.678807
Si Si6 0.422959 0.652048 0.058149
Si Si7 0.922204 0.162968 0.890859
O O1 0.250000 0.214266 0.786891
O O2 0.456763 0.327937 0.783517
O O3 0.468426 0.170350 0.724580
O O4 0.517749 0.189383 0.830702
O O5 0.500000 0.134568 0.500000
O O6 0.750000 0.134137 0.446931
O O7 0.518951 0.123949 0.383427
O O8 0.583825 0.000000 0.446423
O O9 0.750000 0.400550 0.161772
O O10 0.538271 0.500000 0.193047
O O11 0.494483 0.388464 0.113670
O O12 0.480387 0.084347 0.910241
O O13 0.250000 0.000000 0.945864
O O14 0.500000 0.000000 0.000000
O O15 0.250000 0.096964 0.676258
O O16 0.025491 0.000000 0.691744
O O17 0.250000 0.631578 0.055818
O O18 0.438569 0.754593 0.068842
O O19 0.500000 0.628143 0.000000
O O20 0.750000 0.140356 0.889291
#
# Coordination Sequence:
#
# PCOD9403142 Si02
#       7
#     8   8   8   4   8   8   8
#     4   9  17  30  48  67  87 115 149 181 217 265
#     4   8  13  22  36  55  82 115 147 179 211 247
#     4   9  18  32  48  66  88 112 139 175 219 265
#     4  12  24  36  50  66  84 112 149 184 219 262
#     4   8  14  24  40  63  89 116 149 183 214 253
#     4  10  20  33  50  68  87 110 136 171 217 269
#     4  10  21  35  48  65  89 114 142 181 223 261
#
# _framework density 15.290908999999999
#
# number of rings (size 3 to 8) (size 9 to 14) (size 15 to 20)
#    0.000    2.769    0.000    3.000    1.077    3.692 
#    0.000    0.769    0.000    0.923    0.000    0.000 
#    0.000    0.615    0.000    0.462    0.000    0.923 
#
# Total GULP energy -289558.161274 kJ/mol
# GULP energy per Si atom -5568.426178 kJ/mol
# Density = 1.525611 g / cm^3
# Si number density = 15.290909 Si / 1000 Ang^3
#
#
#
# Elastic Constant Matrix: (Units=GPa)
#
#
# Indices 1 2 3 4 5 6 
#
# 1 48.4595 36.6495 29.3517 0.0000 0.0000 0.0000
# 2 36.6495 91.5381 50.7040 0.0000 0.0000 0.0000
# 3 29.3517 50.7040 104.4938 0.0000 0.0000 0.0000
# 4 0.0000 0.0000 0.0000 3.9967 0.0000 0.0000
# 5 0.0000 0.0000 0.0000 0.0000 19.8467 0.0000
# 6 0.0000 0.0000 0.0000 0.0000 0.0000 12.4032
#
#
#
# Elastic Compliance Matrix: (Units=1/GPa)
#
#
# Indices 1 2 3 4 5 6 
#
# 1 0.030568 -0.010233 -0.003621 0.000000 0.000000 0.000000
# 2 -0.010233 0.018366 -0.006037 0.000000 0.000000 0.000000
# 3 -0.003621 -0.006037 0.013517 0.000000 0.000000 0.000000
# 4 0.000000 0.000000 0.000000 0.250205 0.000000 0.000000
# 5 0.000000 0.000000 0.000000 0.000000 0.050386 0.000000
# 6 0.000000 0.000000 0.000000 0.000000 0.000000 0.080624
#
#
# Mechanical properties :
#
#
# Convention : Reuss Voigt Hill
#
# Bulk Modulus (GPa) = 44.11547 53.10020 48.60783
# Shear Modulus (GPa) = 10.18323 15.76841 12.97582
#
# Velocity S-wave (km/s) = 2.58343 3.21476 2.91623
# Velocity P-wave (km/s) = 6.14917 6.97005 6.57244
#
# Compressibility (1/GPa) = 0.02266779
#
# Stress axis : x y z
#
# Youngs Moduli (GPa) = 32.71381 54.44988 73.98351
#
# Poissons Ratio (x) = 0.55719 0.26789
# Poissons Ratio (y) = 0.33476 0.44665
# Poissons Ratio (z) = 0.11846 0.32872
#
# Static dielectric constant tensor:
#      x y z
#    x 1.512100 0.000000 0.000000 
#    y 0.000000 1.518450 0.000000 
#    z 0.000000 0.000000 1.468150 
# 
# From -- ./inp_files/34668.got.cif
#   From: 2010.05.17/outbox.cif.g08.bks.cpg/sg51_18_cif.got.tgz:34668.got - 2010.06.03 11:52:47.
