data_PCOD9403109
_publ_section_title
;
Structure prediction by ZEFSAII (Michael W. Deem and Ramdas Pophale) SiO2 
 PCOD9403109
Probable space group: P M M A
;
_chemical_formula_sum "Si O2"
_cell_formula_units_Z 48
_cell_length_a 17.231373
_cell_length_b 7.709526
_cell_length_c 18.586158
_cell_angle_alpha 90.000000
_cell_angle_beta 90.000000
_cell_angle_gamma 90.000000
_cell_volume 2469.091507
_symmetry_space_group_name_H-M "P M M A"
_symmetry_group_IT_number 51
_symmetry_cell_setting 'orthorhombic'
loop_
_space_group_symop_operation_xyz
x,y,z
1/2-x,-y,z
1/2+x,-y,-z
-x,y,-z
-x,-y,-z
1/2+x,y,-z
1/2-x,y,z
x,-y,z
loop_
_atom_site_type_symbol
_atom_site_label
_atom_site_fract_x
_atom_site_fract_y
_atom_site_fract_z
Si Si1 0.837007 0.293410 0.186489
Si Si2 0.664027 0.000000 0.666754
Si Si3 0.069492 0.195537 0.953264
Si Si4 0.662091 0.292944 0.916142
Si Si5 0.604229 0.699762 0.765137
Si Si6 0.998978 0.000000 0.585490
Si Si7 0.559775 0.297763 0.315217
O O1 0.750000 0.225526 0.171602
O O2 0.831587 0.500000 0.194169
O O3 0.896528 0.265732 0.120859
O O4 0.872390 0.231980 0.262293
O O5 0.653427 0.168137 0.717509
O O6 0.590447 0.000000 0.613311
O O7 0.750000 0.000000 0.633983
O O8 0.043887 0.000000 0.937492
O O9 0.138874 0.200930 0.010827
O O10 0.000000 0.282458 0.000000
O O11 0.750000 0.252794 0.894628
O O12 0.656779 0.500000 0.929272
O O13 0.607916 0.248579 0.848718
O O14 0.632413 0.500000 0.760831
O O15 0.517538 0.704720 0.734338
O O16 0.000000 0.000000 0.500000
O O17 0.041109 0.831300 0.619636
O O18 0.572746 0.500000 0.336320
#
# Coordination Sequence:
#
# PCOD9403109 Si02
#       7
#     8   4   8   8   8   4   8
#     4  10  21  38  59  82 109 145 195 251 299 344
#     4  10  20  34  56  83 113 145 179 224 272 322
#     4  11  24  36  48  70 104 146 192 240 289 340
#     4  10  20  33  49  71 100 134 175 225 278 326
#     4   9  18  33  54  79 109 146 185 224 273 334
#     4  10  22  40  62  89 119 149 184 220 266 342
#     4   9  19  37  61  86 113 147 185 227 276 333
#
# _framework density 19.440349000000001
#
# number of rings (size 3 to 8) (size 9 to 14) (size 15 to 20)
#    0.000    2.167    0.000    2.500    2.333    6.667 
#    0.000    0.833    0.000    0.000    0.000    0.000 
#    0.000    0.000    0.000    0.000    0.000    0.000 
#
# Total GULP energy -267799.783487 kJ/mol
# GULP energy per Si atom -5579.162156 kJ/mol
# Density = 1.939610 g / cm^3
# Si number density = 19.440349 Si / 1000 Ang^3
#
#
#
# Elastic Constant Matrix: (Units=GPa)
#
#
# Indices 1 2 3 4 5 6 
#
# 1 75.3066 25.6757 35.1976 0.0000 0.0000 0.0000
# 2 25.6757 69.0463 45.1554 0.0000 0.0000 0.0000
# 3 35.1976 45.1554 141.0895 0.0000 0.0000 0.0000
# 4 0.0000 0.0000 0.0000 21.8917 0.0000 0.0000
# 5 0.0000 0.0000 0.0000 0.0000 12.7852 0.0000
# 6 0.0000 0.0000 0.0000 0.0000 0.0000 13.0356
#
#
#
# Elastic Compliance Matrix: (Units=1/GPa)
#
#
# Indices 1 2 3 4 5 6 
#
# 1 0.015943 -0.004208 -0.002630 0.000000 0.000000 0.000000
# 2 -0.004208 0.019428 -0.005168 0.000000 0.000000 0.000000
# 3 -0.002630 -0.005168 0.009398 0.000000 0.000000 0.000000
# 4 0.000000 0.000000 0.000000 0.045680 0.000000 0.000000
# 5 0.000000 0.000000 0.000000 0.000000 0.078216 0.000000
# 6 0.000000 0.000000 0.000000 0.000000 0.000000 0.076713
#
#
# Mechanical properties :
#
#
# Convention : Reuss Voigt Hill
#
# Bulk Modulus (GPa) = 48.18036 55.27772 51.72904
# Shear Modulus (GPa) = 18.09564 21.50339 19.79952
#
# Velocity S-wave (km/s) = 3.05426 3.32945 3.19482
# Velocity P-wave (km/s) = 6.10537 6.57849 6.34634
#
# Compressibility (1/GPa) = 0.02075535
#
# Stress axis : x y z
#
# Youngs Moduli (GPa) = 62.72198 51.47276 106.40659
#
# Poissons Ratio (x) = 0.21662 0.27990
# Poissons Ratio (y) = 0.26396 0.54990
# Poissons Ratio (z) = 0.16499 0.26601
#
# Static dielectric constant tensor:
#      x y z
#    x 1.743050 0.000000 0.000000 
#    y 0.000000 1.712060 0.000000 
#    z 0.000000 0.000000 1.637220 
# 
# From -- ./inp_files/24866.got.cif
#   From: 2010.05.17/outbox.cif.g08.bks.cpg/sg51_13_cif.got.tgz:24866.got - 2010.06.03 11:52:47.
