data_PCOD9403338
_publ_section_title
;
Structure prediction by ZEFSAII (Michael W. Deem and Ramdas Pophale) SiO2 
 PCOD9403338
Probable space group: P M M A
;
_chemical_formula_sum "Si O2"
_cell_formula_units_Z 40
_cell_length_a 9.491193
_cell_length_b 7.609909
_cell_length_c 26.465523
_cell_angle_alpha 90.000000
_cell_angle_beta 90.000000
_cell_angle_gamma 90.000000
_cell_volume 1911.528374
_symmetry_space_group_name_H-M "P M M A"
_symmetry_group_IT_number 51
_symmetry_cell_setting 'orthorhombic'
loop_
_space_group_symop_operation_xyz
x,y,z
1/2-x,-y,z
1/2+x,-y,-z
-x,y,-z
-x,-y,-z
1/2+x,y,-z
1/2-x,y,z
x,-y,z
loop_
_atom_site_type_symbol
_atom_site_label
_atom_site_fract_x
_atom_site_fract_y
_atom_site_fract_z
Si Si1 0.410201 0.291402 0.741265
Si Si2 0.410492 0.789125 0.855316
Si Si3 0.587835 0.784918 0.450616
Si Si4 0.588340 0.784862 0.950944
Si Si5 0.091274 0.792144 0.355412
O O1 0.250000 0.220009 0.735098
O O2 0.402617 0.500000 0.736358
O O3 0.457428 0.250553 0.798318
O O4 0.514440 0.227531 0.698109
O O5 0.250000 0.721942 0.861057
O O6 0.511588 0.725371 0.899721
O O7 0.404500 0.000000 0.859973
O O8 0.500000 0.732444 0.500000
O O9 0.750000 0.726962 0.452191
O O10 0.507485 0.722678 0.400326
O O11 0.590598 0.000000 0.450127
O O12 0.750000 0.727866 0.953612
O O13 0.588921 0.000000 0.950742
O O14 0.500000 0.730483 0.000000
O O15 0.250000 0.718953 0.355382
O O16 0.103298 0.000000 0.365095
#
# Coordination Sequence:
#
# PCOD9403338 Si02
#       5
#     8   8   8   8   8
#     4  10  21  36  53  73  99 133 171 210 254 303
#     4   9  17  30  49  72  98 128 162 201 245 293
#     4   9  16  27  46  73 104 134 164 202 248 296
#     4   9  16  26  43  69  99 127 156 194 241 291
#     4  10  20  33  51  76 104 134 170 210 250 295
#
# _framework density 20.925663
#
# number of rings (size 3 to 8) (size 9 to 14) (size 15 to 20)
#    0.000    2.600    0.000    2.400    0.000    8.000 
#    0.000    2.000    0.000    1.200    0.000    0.000 
#    0.000    0.000    0.000    0.000    0.000    0.000 
#
# Total GULP energy -223373.900207 kJ/mol
# GULP energy per Si atom -5584.347505 kJ/mol
# Density = 2.087804 g / cm^3
# Si number density = 20.925663 Si / 1000 Ang^3
#
#
#
# Elastic Constant Matrix: (Units=GPa)
#
#
# Indices 1 2 3 4 5 6 
#
# 1 201.6882 5.6577 153.1307 0.0000 0.0000 0.0000
# 2 5.6577 42.3053 -5.1734 0.0000 0.0000 0.0000
# 3 153.1307 -5.1734 203.2404 0.0000 0.0000 0.0000
# 4 0.0000 0.0000 0.0000 -56.7902 0.0000 0.0000
# 5 0.0000 0.0000 0.0000 0.0000 40.8794 0.0000
# 6 0.0000 0.0000 0.0000 0.0000 0.0000 -2.3156
#
#
#
# Elastic Compliance Matrix: (Units=1/GPa)
#
#
# Indices 1 2 3 4 5 6 
#
# 1 0.011884 -0.002693 -0.009022 0.000000 0.000000 0.000000
# 2 -0.002693 0.024322 0.002648 0.000000 0.000000 0.000000
# 3 -0.009022 0.002648 0.011786 0.000000 0.000000 0.000000
# 4 0.000000 0.000000 0.000000 -0.017609 0.000000 0.000000
# 5 0.000000 0.000000 0.000000 0.000000 0.024462 0.000000
# 6 0.000000 0.000000 0.000000 0.000000 0.000000 -0.431847
#
#
# Mechanical properties :
#
#
# Convention : Reuss Voigt Hill
#
# Bulk Modulus (GPa) = 33.49334 83.82932 58.66133
# Shear Modulus (GPa) = -14.33011 15.92932 0.79961
#
# Velocity S-wave (km/s) = -2.61973 2.76204 0.61883
# Velocity P-wave (km/s) = 2.62488 7.09361 5.34833
#
# Compressibility (1/GPa) = 0.02985668
#
# Stress axis : x y z
#
# Youngs Moduli (GPa) = 84.14738 41.11572 84.84937
#
# Poissons Ratio (x) = 0.11071 0.76555
# Poissons Ratio (y) = 0.22658 -0.22467
# Poissons Ratio (z) = 0.75921 -0.10887
#
# Static dielectric constant tensor:
#      x y z
#    x 1.733280 0.000000 0.000000 
#    y 0.000000 1.768930 0.000000 
#    z 0.000000 0.000000 1.710470 
# 
# From -- ./inp_files/34333.got.cif
#   From: 2010.05.17/outbox.cif.g08.bks.cpg/sg51_18_cif.got.tgz:34333.got - 2010.06.03 11:52:47.
