data_PCOD9403998
_publ_section_title
;
Structure prediction by ZEFSAII (Michael W. Deem and Ramdas Pophale) SiO2 
 PCOD9403998
Probable space group: P M M A
;
_chemical_formula_sum "Si O2"
_cell_formula_units_Z 48
_cell_length_a 8.824567
_cell_length_b 31.617395
_cell_length_c 9.619222
_cell_angle_alpha 90.000000
_cell_angle_beta 90.000000
_cell_angle_gamma 90.000000
_cell_volume 2683.857404
_symmetry_space_group_name_H-M "P M M A"
_symmetry_group_IT_number 51
_symmetry_cell_setting 'orthorhombic'
loop_
_space_group_symop_operation_xyz
x,y,z
1/2-x,-y,z
1/2+x,-y,-z
-x,y,-z
-x,-y,-z
1/2+x,y,-z
1/2-x,y,z
x,-y,z
loop_
_atom_site_type_symbol
_atom_site_label
_atom_site_fract_x
_atom_site_fract_y
_atom_site_fract_z
Si Si1 0.431359 0.285941 0.655383
Si Si2 0.431507 0.880522 0.153078
Si Si3 0.068667 0.199725 0.345146
Si Si4 0.068494 0.379584 0.654689
Si Si5 0.068742 0.548124 0.153589
Si Si6 0.569156 0.950228 0.349916
O O1 0.500000 0.287154 0.500000
O O2 0.250000 0.281282 0.648977
O O3 0.503871 0.243611 0.717183
O O4 0.466431 0.332494 0.714673
O O5 0.250000 0.883548 0.144833
O O6 0.469874 0.839744 0.247590
O O7 0.497269 0.921297 0.231778
O O8 0.500000 0.876639 0.000000
O O9 0.250000 0.202869 0.357817
O O10 0.000000 0.193951 0.500000
O O11 0.250000 0.383202 0.646265
O O12 0.000000 0.382029 0.500000
O O13 0.000655 0.416697 0.746946
O O14 0.250000 0.552453 0.147574
O O15 0.033684 0.500000 0.200819
O O16 0.000000 0.552937 0.000000
O O17 0.500000 0.938502 0.500000
O O18 0.750000 0.944526 0.353784
O O19 0.537003 0.000000 0.326977
#
# Coordination Sequence:
#
# PCOD9403998 Si02
#       6
#     8   8   8   8   8   8
#     4   9  17  30  51  78 106 137 173 215 263 313
#     4  11  24  39  56  80 111 147 184 224 272 322
#     4  10  20  34  55  81 106 138 179 220 264 315
#     4  10  20  34  54  81 110 140 176 219 267 317
#     4  10  21  37  56  77 103 138 178 219 265 318
#     4  10  21  38  61  87 113 143 181 224 268 317
#
# _framework density 17.884705
#
# number of rings (size 3 to 8) (size 9 to 14) (size 15 to 20)
#    0.000    2.000    0.000    4.500    0.000    8.667 
#    0.000    0.833    0.000    2.000    0.000    0.000 
#    0.000    0.000    0.000    0.000    0.000    0.000 
#
# Total GULP energy -267911.437917 kJ/mol
# GULP energy per Si atom -5581.488290 kJ/mol
# Density = 1.784400 g / cm^3
# Si number density = 17.884705 Si / 1000 Ang^3
#
#
#
# Elastic Constant Matrix: (Units=GPa)
#
#
# Indices 1 2 3 4 5 6 
#
# 1 77.6161 72.1703 49.1590 0.0000 0.0000 0.0000
# 2 72.1703 146.1311 86.7618 0.0000 0.0000 0.0000
# 3 49.1590 86.7618 95.2501 0.0000 0.0000 0.0000
# 4 0.0000 0.0000 0.0000 -16.1326 0.0000 0.0000
# 5 0.0000 0.0000 0.0000 0.0000 32.1194 0.0000
# 6 0.0000 0.0000 0.0000 0.0000 0.0000 540.4396
#
#
#
# Elastic Compliance Matrix: (Units=1/GPa)
#
#
# Indices 1 2 3 4 5 6 
#
# 1 0.024353 -0.009941 -0.003513 0.000000 0.000000 0.000000
# 2 -0.009941 0.018961 -0.012141 0.000000 0.000000 0.000000
# 3 -0.003513 -0.012141 0.023371 0.000000 0.000000 0.000000
# 4 0.000000 0.000000 0.000000 -0.061986 0.000000 0.000000
# 5 0.000000 0.000000 0.000000 0.000000 0.031134 0.000000
# 6 0.000000 0.000000 0.000000 0.000000 0.000000 0.001850
#
#
# Mechanical properties :
#
#
# Convention : Reuss Voigt Hill
#
# Bulk Modulus (GPa) = 64.54026 81.68661 73.11344
# Shear Modulus (GPa) = 53.17014 118.67901 85.92458
#
# Velocity S-wave (km/s) = 5.45838 8.15487 6.93887
# Velocity P-wave (km/s) = 8.71151 11.59493 10.25507
#
# Compressibility (1/GPa) = 0.01549420
#
# Stress axis : x y z
#
# Youngs Moduli (GPa) = 41.06292 52.73939 42.78881
#
# Poissons Ratio (x) = 0.52430 0.15033
# Poissons Ratio (y) = 0.40822 0.51948
# Poissons Ratio (z) = 0.14426 0.64029
#
# Static dielectric constant tensor:
#      x y z
#    x 1.594930 0.000000 0.000000 
#    y 0.000000 1.640840 0.000000 
#    z 0.000000 0.000000 1.568210 
# 
# From -- ./inp_files/6023.got.cif
#   From: 2010.05.17/outbox.cif.g08.bks.cpg/sg51_4_cif.got.tgz:6023.got - 2010.06.03 11:52:47.
