data_PCOD9403268
_publ_section_title
;
Structure prediction by ZEFSAII (Michael W. Deem and Ramdas Pophale) SiO2 
 PCOD9403268
Probable space group: P M M A
;
_chemical_formula_sum "Si O2"
_cell_formula_units_Z 48
_cell_length_a 14.060579
_cell_length_b 19.313505
_cell_length_c 8.515414
_cell_angle_alpha 90.000000
_cell_angle_beta 90.000000
_cell_angle_gamma 90.000000
_cell_volume 2312.437845
_symmetry_space_group_name_H-M "P M M A"
_symmetry_group_IT_number 51
_symmetry_cell_setting 'orthorhombic'
loop_
_space_group_symop_operation_xyz
x,y,z
1/2-x,-y,z
1/2+x,-y,-z
-x,y,-z
-x,-y,-z
1/2+x,y,-z
1/2-x,y,z
x,-y,z
loop_
_atom_site_type_symbol
_atom_site_label
_atom_site_fract_x
_atom_site_fract_y
_atom_site_fract_z
Si Si1 0.858774 0.190794 0.163496
Si Si2 0.462938 0.924383 0.673883
Si Si3 0.853779 0.922446 0.891583
Si Si4 0.133889 0.581216 0.230067
Si Si5 0.134513 0.581117 0.582265
Si Si6 0.633109 0.655654 0.093732
O O1 0.750000 0.203897 0.207033
O O2 0.904761 0.145062 0.298461
O O3 0.899019 0.264912 0.114852
O O4 0.861746 0.137617 0.018201
O O5 0.500000 0.925757 0.500000
O O6 0.555599 0.919366 0.782549
O O7 0.415590 0.000000 0.703086
O O8 0.750000 0.915154 0.811897
O O9 0.854833 0.000000 0.961908
O O10 0.250000 0.583833 0.231457
O O11 0.108050 0.500000 0.213482
O O12 0.103377 0.605349 0.406459
O O13 0.103056 0.622680 0.073733
O O14 0.250000 0.586584 0.581552
O O15 0.110550 0.500000 0.591005
O O16 0.103657 0.616543 0.745458
O O17 0.750000 0.653705 0.089220
#
# Coordination Sequence:
#
# PCOD9403268 Si02
#       6
#     8   8   8   8   8   8
#     4  10  20  33  50  78 112 148 185 220 268 328
#     4  10  21  37  57  80 107 141 180 226 275 324
#     4   9  18  35  59  82 103 134 178 224 271 325
#     4   8  13  22  38  60  89 131 181 227 269 314
#     4   8  13  22  38  60  90 134 183 227 270 313
#     4   9  16  26  39  63 102 141 178 220 268 320
#
# _framework density 20.757314999999998
#
# number of rings (size 3 to 8) (size 9 to 14) (size 15 to 20)
#    0.000    3.000    0.000    2.500    0.000    5.000 
#    3.000    1.667    0.000    0.000    0.000    0.000 
#    0.000   13.333    0.000    2.667    0.000    2.000 
#
# Total GULP energy -267561.974499 kJ/mol
# GULP energy per Si atom -5574.207802 kJ/mol
# Density = 2.071007 g / cm^3
# Si number density = 20.757315 Si / 1000 Ang^3
#
#
#
# Elastic Constant Matrix: (Units=GPa)
#
#
# Indices 1 2 3 4 5 6 
#
# 1 29.0608 18.3247 29.8104 0.0000 0.0000 0.0000
# 2 18.3247 129.4930 82.6422 0.0000 0.0000 0.0000
# 3 29.8104 82.6422 148.4182 0.0000 0.0000 0.0000
# 4 0.0000 0.0000 0.0000 33.4745 0.0000 0.0000
# 5 0.0000 0.0000 0.0000 0.0000 69.6933 0.0000
# 6 0.0000 0.0000 0.0000 0.0000 0.0000 5.0248
#
#
#
# Elastic Compliance Matrix: (Units=1/GPa)
#
#
# Indices 1 2 3 4 5 6 
#
# 1 0.043407 -0.000897 -0.008219 0.000000 0.000000 0.000000
# 2 -0.000897 0.011998 -0.006500 0.000000 0.000000 0.000000
# 3 -0.008219 -0.006500 0.012008 0.000000 0.000000 0.000000
# 4 0.000000 0.000000 0.000000 0.029874 0.000000 0.000000
# 5 0.000000 0.000000 0.000000 0.000000 0.014349 0.000000
# 6 0.000000 0.000000 0.000000 0.000000 0.000000 0.199014
#
#
# Mechanical properties :
#
#
# Convention : Reuss Voigt Hill
#
# Bulk Modulus (GPa) = 27.63959 63.16962 45.40460
# Shear Modulus (GPa) = 14.12655 33.38483 23.75569
#
# Velocity S-wave (km/s) = 2.61158 4.01476 3.38664
# Velocity P-wave (km/s) = 4.73691 7.21038 6.10032
#
# Compressibility (1/GPa) = 0.03617999
#
# Stress axis : x y z
#
# Youngs Moduli (GPa) = 23.03761 83.34713 83.27703
#
# Poissons Ratio (x) = 0.07479 0.68444
# Poissons Ratio (y) = 0.02067 0.54134
# Poissons Ratio (z) = 0.18934 0.54180
#
# Static dielectric constant tensor:
#      x y z
#    x 1.820870 0.000000 0.000000 
#    y 0.000000 1.743230 0.000000 
#    z 0.000000 0.000000 1.753770 
# 
# From -- ./inp_files/8248.got.cif
#   From: 2010.05.17/outbox.cif.g08.bks.cpg/sg51_5_cif.got.tgz:8248.got - 2010.06.03 11:52:47.
