data_PCOD9403368
_publ_section_title
;
Structure prediction by ZEFSAII (Michael W. Deem and Ramdas Pophale) SiO2 
 PCOD9403368
Probable space group: P M M A
;
_chemical_formula_sum "Si O2"
_cell_formula_units_Z 64
_cell_length_a 18.667126
_cell_length_b 9.105844
_cell_length_c 21.265099
_cell_angle_alpha 90.000000
_cell_angle_beta 90.000000
_cell_angle_gamma 90.000000
_cell_volume 3614.640194
_symmetry_space_group_name_H-M "P M M A"
_symmetry_group_IT_number 51
_symmetry_cell_setting 'orthorhombic'
loop_
_space_group_symop_operation_xyz
x,y,z
1/2-x,-y,z
1/2+x,-y,-z
-x,y,-z
-x,-y,-z
1/2+x,y,-z
1/2-x,y,z
x,-y,z
loop_
_atom_site_type_symbol
_atom_site_label
_atom_site_fract_x
_atom_site_fract_y
_atom_site_fract_z
Si Si1 0.413288 0.673018 0.126372
Si Si2 0.836344 0.172741 0.758699
Si Si3 0.665050 0.325094 0.378989
Si Si4 0.664374 0.826467 0.246502
Si Si5 0.915161 0.673838 0.130883
Si Si6 0.587134 0.830997 0.001967
Si Si7 0.915661 0.823767 0.494551
Si Si8 0.832346 0.178658 0.619055
O O1 0.400792 0.500000 0.119568
O O2 0.372887 0.737011 0.186369
O O3 0.498820 0.695269 0.134800
O O4 0.389615 0.754895 0.062679
O O5 0.750000 0.183982 0.761592
O O6 0.858029 0.223717 0.688464
O O7 0.854587 0.000000 0.765540
O O8 0.750000 0.297129 0.389815
O O9 0.654687 0.500000 0.375078
O O10 0.645614 0.249870 0.312699
O O11 0.620142 0.256482 0.435736
O O12 0.750000 0.808189 0.237591
O O13 0.622965 0.752397 0.188992
O O14 0.648860 0.000000 0.249418
O O15 0.900920 0.500000 0.131590
O O16 0.891270 0.743918 0.064544
O O17 0.610361 0.000000 0.005039
O O18 0.500000 0.829135 0.000000
O O19 0.878677 0.775424 0.559684
O O20 0.000000 0.796665 0.500000
O O21 0.904732 0.000000 0.487561
O O22 0.750000 0.225793 0.610785
O O23 0.832206 0.000000 0.620395
#
# Coordination Sequence:
#
# PCOD9403368 Si02
#       8
#     8   8   8   8   8   8   8   8
#     4  10  20  33  51  77 107 138 171 210 261 316
#     4   9  18  33  52  73  98 133 178 222 261 304
#     4  10  21  37  56  77 104 141 180 216 261 317
#     4  10  21  37  57  80 105 136 177 222 264 310
#     4  10  20  34  53  78 108 139 171 211 261 316
#     4   9  17  31  52  76 102 136 177 216 254 301
#     4  10  20  33  52  81 111 137 171 217 265 311
#     4   8  15  30  51  71  95 132 173 210 251 301
#
# _framework density 17.705773000000001
#
# number of rings (size 3 to 8) (size 9 to 14) (size 15 to 20)
#    0.000    2.500    0.000    3.000    0.000    6.500 
#    0.000    2.500    0.000    4.500    0.000    0.000 
#    0.000    0.000    0.000    0.000    0.000    0.000 
#
# Total GULP energy -357097.696881 kJ/mol
# GULP energy per Si atom -5579.651514 kJ/mol
# Density = 1.766547 g / cm^3
# Si number density = 17.705773 Si / 1000 Ang^3
#
#
#
# Elastic Constant Matrix: (Units=GPa)
#
#
# Indices 1 2 3 4 5 6 
#
# 1 39.0632 51.4084 72.0983 0.0000 0.0000 0.0000
# 2 51.4084 97.5414 93.9783 0.0000 0.0000 0.0000
# 3 72.0983 93.9783 209.9590 0.0000 0.0000 0.0000
# 4 0.0000 0.0000 0.0000 11.4776 0.0000 0.0000
# 5 0.0000 0.0000 0.0000 0.0000 36.2167 0.0000
# 6 0.0000 0.0000 0.0000 0.0000 0.0000 18.5714
#
#
#
# Elastic Compliance Matrix: (Units=1/GPa)
#
#
# Indices 1 2 3 4 5 6 
#
# 1 0.129806 -0.044777 -0.024532 0.000000 0.000000 0.000000
# 2 -0.044777 0.033472 0.000394 0.000000 0.000000 0.000000
# 3 -0.024532 0.000394 0.013010 0.000000 0.000000 0.000000
# 4 0.000000 0.000000 0.000000 0.087126 0.000000 0.000000
# 5 0.000000 0.000000 0.000000 0.000000 0.027612 0.000000
# 6 0.000000 0.000000 0.000000 0.000000 0.000000 0.053846
#
#
# Mechanical properties :
#
#
# Convention : Reuss Voigt Hill
#
# Bulk Modulus (GPa) = 26.00237 86.83707 56.41972
# Shear Modulus (GPa) = 10.09037 21.85840 15.97438
#
# Velocity S-wave (km/s) = 2.38983 3.51741 3.00695
# Velocity P-wave (km/s) = 4.72575 8.10229 6.63249
#
# Compressibility (1/GPa) = 0.03845803
#
# Stress axis : x y z
#
# Youngs Moduli (GPa) = 7.70380 29.87580 76.86101
#
# Poissons Ratio (x) = 1.33776 1.88555
# Poissons Ratio (y) = 0.34496 -0.03029
# Poissons Ratio (z) = 0.18899 -0.01177
#
# Static dielectric constant tensor:
#      x y z
#    x 1.589180 0.000000 0.000000 
#    y 0.000000 1.589240 0.000000 
#    z 0.000000 0.000000 1.581240 
# 
# From -- ./inp_files/33868.got.cif
#   From: 2010.05.17/outbox.cif.g08.bks.cpg/sg51_17_cif.got.tgz:33868.got - 2010.06.03 11:52:47.
