data_PCOD9403906
_publ_section_title
;
Structure prediction by ZEFSAII (Michael W. Deem and Ramdas Pophale) SiO2 
 PCOD9403906
Probable space group: P M M A
;
_chemical_formula_sum "Si O2"
_cell_formula_units_Z 44
_cell_length_a 9.676918
_cell_length_b 7.781656
_cell_length_c 31.119316
_cell_angle_alpha 90.000000
_cell_angle_beta 90.000000
_cell_angle_gamma 90.000000
_cell_volume 2343.360644
_symmetry_space_group_name_H-M "P M M A"
_symmetry_group_IT_number 51
_symmetry_cell_setting 'orthorhombic'
loop_
_space_group_symop_operation_xyz
x,y,z
1/2-x,-y,z
1/2+x,-y,-z
-x,y,-z
-x,-y,-z
1/2+x,y,-z
1/2-x,y,z
x,-y,z
loop_
_atom_site_type_symbol
_atom_site_label
_atom_site_fract_x
_atom_site_fract_y
_atom_site_fract_z
Si Si1 0.582010 0.197579 0.609402
Si Si2 0.094291 0.205783 0.296552
Si Si3 0.082731 0.500000 0.455755
Si Si4 0.093452 0.205238 0.038976
Si Si5 0.093339 0.293197 0.783881
Si Si6 0.590988 0.292420 0.119893
O O1 0.750000 0.194140 0.611752
O O2 0.536898 0.261119 0.656864
O O3 0.545834 0.331775 0.572460
O O4 0.536508 0.000000 0.601814
O O5 0.250000 0.274601 0.290945
O O6 0.003805 0.244615 0.255229
O O7 0.103394 0.000000 0.300406
O O8 0.250000 0.500000 0.462228
O O9 0.000000 0.500000 0.500000
O O10 0.250000 0.274235 0.039139
O O11 0.013625 0.234586 0.083419
O O12 0.103457 0.000000 0.032814
O O13 0.000000 0.275367 0.000000
O O14 0.250000 0.231958 0.776355
O O15 0.096769 0.500000 0.785530
O O16 0.051455 0.234661 0.831827
O O17 0.750000 0.236335 0.111476
O O18 0.591933 0.500000 0.119699
#
# Coordination Sequence:
#
# PCOD9403906 Si02
#       6
#     8   8   4   8   8   8
#     4   8  16  32  52  75 104 137 175 219 263 313
#     4   9  18  32  51  76 102 130 171 216 253 299
#     4  10  20  34  54  78 104 138 178 218 267 320
#     4  10  21  36  54  76 100 127 163 207 254 304
#     4   9  19  34  50  72 103 137 169 204 250 303
#     4   9  19  36  54  72  99 134 170 205 246 300
#
# _framework density 18.776451999999999
#
# number of rings (size 3 to 8) (size 9 to 14) (size 15 to 20)
#    0.000    2.909    0.000    2.727    1.273    4.364 
#    0.000    6.364    0.000    1.091    0.000    0.000 
#    0.000    0.000    0.000    0.000    0.000    0.000 
#
# Total GULP energy -245269.493943 kJ/mol
# GULP energy per Si atom -5574.306681 kJ/mol
# Density = 1.873372 g / cm^3
# Si number density = 18.776452 Si / 1000 Ang^3
#
#
#
# Elastic Constant Matrix: (Units=GPa)
#
#
# Indices 1 2 3 4 5 6 
#
# 1 92.4937 24.7249 103.9847 0.0000 0.0000 0.0000
# 2 24.7249 45.1927 39.1515 0.0000 0.0000 0.0000
# 3 103.9847 39.1515 202.5896 0.0000 0.0000 0.0000
# 4 0.0000 0.0000 0.0000 33.0686 0.0000 0.0000
# 5 0.0000 0.0000 0.0000 0.0000 37.0392 0.0000
# 6 0.0000 0.0000 0.0000 0.0000 0.0000 13.2270
#
#
#
# Elastic Compliance Matrix: (Units=1/GPa)
#
#
# Indices 1 2 3 4 5 6 
#
# 1 0.025940 -0.003191 -0.012697 0.000000 0.000000 0.000000
# 2 -0.003191 0.026970 -0.003574 0.000000 0.000000 0.000000
# 3 -0.012697 -0.003574 0.012144 0.000000 0.000000 0.000000
# 4 0.000000 0.000000 0.000000 0.030240 0.000000 0.000000
# 5 0.000000 0.000000 0.000000 0.000000 0.026998 0.000000
# 6 0.000000 0.000000 0.000000 0.000000 0.000000 0.075603
#
#
# Mechanical properties :
#
#
# Convention : Reuss Voigt Hill
#
# Bulk Modulus (GPa) = 38.27355 75.11091 56.69223
# Shear Modulus (GPa) = 20.36415 28.16130 24.26273
#
# Velocity S-wave (km/s) = 3.29684 3.87695 3.59860
# Velocity P-wave (km/s) = 5.90933 7.75439 6.89387
#
# Compressibility (1/GPa) = 0.02612770
#
# Stress axis : x y z
#
# Youngs Moduli (GPa) = 38.55117 37.07864 82.34474
#
# Poissons Ratio (x) = 0.11834 1.04557
# Poissons Ratio (y) = 0.12303 0.29429
# Poissons Ratio (z) = 0.48950 0.13252
#
# Static dielectric constant tensor:
#      x y z
#    x 1.640420 0.000000 0.000000 
#    y 0.000000 1.686560 0.000000 
#    z 0.000000 0.000000 1.651400 
# 
# From -- ./inp_files/36814.got.cif
#   From: 2010.05.17/outbox.cif.g08.bks.cpg/sg51_19_cif.got.tgz:36814.got - 2010.06.03 11:52:47.
