data_PCOD9403225
_publ_section_title
;
Structure prediction by ZEFSAII (Michael W. Deem and Ramdas Pophale) SiO2 
 PCOD9403225
Probable space group: P M M A
;
_chemical_formula_sum "Si O2"
_cell_formula_units_Z 64
_cell_length_a 21.379120
_cell_length_b 9.432317
_cell_length_c 17.500902
_cell_angle_alpha 90.000000
_cell_angle_beta 90.000000
_cell_angle_gamma 90.000000
_cell_volume 3529.138040
_symmetry_space_group_name_H-M "P M M A"
_symmetry_group_IT_number 51
_symmetry_cell_setting 'orthorhombic'
loop_
_space_group_symop_operation_xyz
x,y,z
1/2-x,-y,z
1/2+x,-y,-z
-x,y,-z
-x,-y,-z
1/2+x,y,-z
1/2-x,y,z
x,-y,z
loop_
_atom_site_type_symbol
_atom_site_label
_atom_site_fract_x
_atom_site_fract_y
_atom_site_fract_z
Si Si1 0.180365 0.838129 0.014229
Si Si2 0.423084 0.670962 0.414612
Si Si3 0.005646 0.664453 0.911015
Si Si4 0.176225 0.170794 0.311159
Si Si5 0.848893 0.663639 0.131462
Si Si6 0.320102 0.672994 0.696180
Si Si7 0.436608 0.328703 0.594633
Si Si8 0.398790 0.170593 0.156900
O O1 0.250000 0.839937 0.047194
O O2 0.179667 0.752330 0.936802
O O3 0.161889 0.000000 0.997364
O O4 0.135552 0.780695 0.079393
O O5 0.417458 0.500000 0.405034
O O6 0.366325 0.749843 0.373440
O O7 0.492412 0.716782 0.384944
O O8 0.424230 0.701292 0.505378
O O9 0.984704 0.500000 0.910527
O O10 0.076952 0.669398 0.883574
O O11 0.965079 0.754199 0.851440
O O12 0.000000 0.714206 0.000000
O O13 0.250000 0.209050 0.312680
O O14 0.143471 0.205435 0.229935
O O15 0.172482 0.000000 0.321208
O O16 0.829076 0.500000 0.125701
O O17 0.830982 0.714394 0.215761
O O18 0.250000 0.716450 0.671387
O O19 0.321313 0.500000 0.693870
O O20 0.378706 0.723445 0.645544
O O21 0.437911 0.500000 0.601339
O O22 0.405017 0.000000 0.155096
#
# Coordination Sequence:
#
# PCOD9403225 Si02
#       8
#     8   8   8   8   8   8   8   8
#     4  10  20  34  52  71  95 133 176 217 261 306
#     4   9  18  34  58  84 109 138 177 219 265 318
#     4  10  20  34  51  75 104 133 169 219 276 318
#     4  10  22  39  56  78 111 146 181 225 276 325
#     4  10  20  33  50  74 103 134 170 213 260 313
#     4   9  17  29  48  75 105 138 173 207 253 314
#     4   8  16  32  53  81 113 141 170 215 266 312
#     4  10  21  36  54  74 100 137 181 221 261 317
#
# _framework density 18.134740000000001
#
# number of rings (size 3 to 8) (size 9 to 14) (size 15 to 20)
#    0.000    2.500    1.250    1.500    1.750    4.250 
#    0.000    2.500    0.000    3.000    0.000    1.750 
#    0.000    0.000    0.000    0.000    0.000    0.000 
#
# Total GULP energy -356657.893050 kJ/mol
# GULP energy per Si atom -5572.779579 kJ/mol
# Density = 1.809346 g / cm^3
# Si number density = 18.134740 Si / 1000 Ang^3
#
#
#
# Elastic Constant Matrix: (Units=GPa)
#
#
# Indices 1 2 3 4 5 6 
#
# 1 122.4780 28.2109 46.9224 0.0000 0.0000 0.0000
# 2 28.2109 13.6526 21.3539 0.0000 0.0000 0.0000
# 3 46.9224 21.3539 60.2583 0.0000 0.0000 0.0000
# 4 0.0000 0.0000 0.0000 22.7982 0.0000 0.0000
# 5 0.0000 0.0000 0.0000 0.0000 21.7681 0.0000
# 6 0.0000 0.0000 0.0000 0.0000 0.0000 9.2425
#
#
#
# Elastic Compliance Matrix: (Units=1/GPa)
#
#
# Indices 1 2 3 4 5 6 
#
# 1 0.015651 -0.029791 -0.001630 0.000000 0.000000 0.000000
# 2 -0.029791 0.221033 -0.055130 0.000000 0.000000 0.000000
# 3 -0.001630 -0.055130 0.037401 0.000000 0.000000 0.000000
# 4 0.000000 0.000000 0.000000 0.043863 0.000000 0.000000
# 5 0.000000 0.000000 0.000000 0.000000 0.045939 0.000000
# 6 0.000000 0.000000 0.000000 0.000000 0.000000 0.108195
#
#
# Mechanical properties :
#
#
# Convention : Reuss Voigt Hill
#
# Bulk Modulus (GPa) = 9.90268 43.26257 26.58262
# Shear Modulus (GPa) = 7.36544 17.42188 12.39366
#
# Velocity S-wave (km/s) = 2.01750 3.10286 2.61707
# Velocity P-wave (km/s) = 3.30145 6.06177 4.88081
#
# Compressibility (1/GPa) = 0.10098280
#
# Stress axis : x y z
#
# Youngs Moduli (GPa) = 63.89298 4.52421 26.73695
#
# Poissons Ratio (x) = 0.13478 0.04359
# Poissons Ratio (y) = 1.90342 1.47402
# Poissons Ratio (z) = 0.10417 0.24942
#
# Static dielectric constant tensor:
#      x y z
#    x 1.647470 0.000000 0.000000 
#    y 0.000000 1.615580 0.000000 
#    z 0.000000 0.000000 1.612860 
# 
# From -- ./inp_files/30582.got.cif
#   From: 2010.05.17/outbox.cif.g08.bks.cpg/sg51_16_cif.got.tgz:30582.got - 2010.06.03 11:52:47.
