data_PCOD9403400
_publ_section_title
;
Structure prediction by ZEFSAII (Michael W. Deem and Ramdas Pophale) SiO2 
 PCOD9403400
Probable space group: P M M A
;
_chemical_formula_sum "Si O2"
_cell_formula_units_Z 56
_cell_length_a 17.128363
_cell_length_b 11.761490
_cell_length_c 14.077204
_cell_angle_alpha 90.000000
_cell_angle_beta 90.000000
_cell_angle_gamma 90.000000
_cell_volume 2835.924119
_symmetry_space_group_name_H-M "P M M A"
_symmetry_group_IT_number 51
_symmetry_cell_setting 'orthorhombic'
loop_
_space_group_symop_operation_xyz
x,y,z
1/2-x,-y,z
1/2+x,-y,-z
-x,y,-z
-x,-y,-z
1/2+x,y,-z
1/2-x,y,z
x,-y,z
loop_
_atom_site_type_symbol
_atom_site_label
_atom_site_fract_x
_atom_site_fract_y
_atom_site_fract_z
Si Si1 0.656017 0.369990 0.488383
Si Si2 0.553276 0.873903 0.082489
Si Si3 0.843953 0.872637 0.587814
Si Si4 0.843079 0.626023 0.891578
Si Si5 0.938318 0.199347 0.762850
Si Si6 0.341292 0.674553 0.889247
Si Si7 0.060727 0.376466 0.703332
O O1 0.750000 0.370171 0.486794
O O2 0.633422 0.500000 0.524294
O O3 0.633260 0.249296 0.538639
O O4 0.621009 0.362433 0.382644
O O5 0.497269 0.873609 0.173458
O O6 0.630977 0.804723 0.103275
O O7 0.573262 0.000000 0.050716
O O8 0.500000 0.818753 0.000000
O O9 0.750000 0.870243 0.593027
O O10 0.882222 0.865760 0.691721
O O11 0.864802 0.000000 0.546806
O O12 0.750000 0.642219 0.879445
O O13 0.864111 0.500000 0.856244
O O14 0.888899 0.721233 0.834186
O O15 0.857693 0.628592 0.004995
O O16 0.995470 0.281042 0.703466
O O17 0.250000 0.658742 0.869343
O O18 0.393638 0.627641 0.803845
O O19 0.023525 0.500000 0.693324
#
# Coordination Sequence:
#
# PCOD9403400 Si02
#       7
#     8   8   8   8   8   8   8
#     4   9  19  38  62  87 115 149 191 242 297 352
#     4  10  20  36  54  74 106 147 187 234 285 335
#     4  10  22  41  64  88 114 149 194 242 294 353
#     4  10  20  33  51  78 113 150 188 232 281 335
#     4  11  21  36  55  83 115 151 188 234 283 345
#     4  10  20  35  55  81 111 148 194 240 285 340
#     4  10  21  35  57  86 116 152 191 235 289 350
#
# _framework density 19.746649000000001
#
# number of rings (size 3 to 8) (size 9 to 14) (size 15 to 20)
#    0.000    2.000    1.429    2.143    0.000    3.429 
#    0.000    9.286    0.000    3.429    0.000    0.000 
#    0.000    0.000    0.000    0.000    0.000    0.000 
#
# Total GULP energy -311975.148360 kJ/mol
# GULP energy per Si atom -5570.984792 kJ/mol
# Density = 1.970170 g / cm^3
# Si number density = 19.746649 Si / 1000 Ang^3
#
#
#
# Elastic Constant Matrix: (Units=GPa)
#
#
# Indices 1 2 3 4 5 6 
#
# 1 27.2802 25.8657 11.9911 0.0000 0.0000 0.0000
# 2 25.8657 124.9283 27.8982 0.0000 0.0000 0.0000
# 3 11.9911 27.8982 52.1561 0.0000 0.0000 0.0000
# 4 0.0000 0.0000 0.0000 26.5587 0.0000 0.0000
# 5 0.0000 0.0000 0.0000 0.0000 34.0611 0.0000
# 6 0.0000 0.0000 0.0000 0.0000 0.0000 -14.2486
#
#
#
# Elastic Compliance Matrix: (Units=1/GPa)
#
#
# Indices 1 2 3 4 5 6 
#
# 1 0.047430 -0.008387 -0.006418 0.000000 0.000000 0.000000
# 2 -0.008387 0.010573 -0.003728 0.000000 0.000000 0.000000
# 3 -0.006418 -0.003728 0.022643 0.000000 0.000000 0.000000
# 4 0.000000 0.000000 0.000000 0.037652 0.000000 0.000000
# 5 0.000000 0.000000 0.000000 0.000000 0.029359 0.000000
# 6 0.000000 0.000000 0.000000 0.000000 0.000000 -0.070182
#
#
# Mechanical properties :
#
#
# Convention : Reuss Voigt Hill
#
# Bulk Modulus (GPa) = 22.94606 37.31938 30.13272
# Shear Modulus (GPa) = 38.73953 18.51487 28.62720
#
# Velocity S-wave (km/s) = 4.43406 3.06538 3.81166
# Velocity P-wave (km/s) = 6.15304 5.60971 5.88765
#
# Compressibility (1/GPa) = 0.04358047
#
# Stress axis : x y z
#
# Youngs Moduli (GPa) = 21.08386 94.57683 44.16430
#
# Poissons Ratio (x) = 0.79319 0.28347
# Poissons Ratio (y) = 0.17682 0.16462
# Poissons Ratio (z) = 0.13533 0.35254
#
# Static dielectric constant tensor:
#      x y z
#    x 1.658910 0.000000 0.000000 
#    y 0.000000 1.746860 0.000000 
#    z 0.000000 0.000000 1.690300 
# 
# From -- ./inp_files/24151.got.cif
#   From: 2010.05.17/outbox.cif.g08.bks.cpg/sg51_13_cif.got.tgz:24151.got - 2010.06.03 11:52:47.
