data_PCOD9403136
_publ_section_title
;
Structure prediction by ZEFSAII (Michael W. Deem and Ramdas Pophale) SiO2 
 PCOD9403136
Probable space group: P M M A
;
_chemical_formula_sum "Si O2"
_cell_formula_units_Z 40
_cell_length_a 7.391619
_cell_length_b 8.260434
_cell_length_c 29.479547
_cell_angle_alpha 90.000000
_cell_angle_beta 90.000000
_cell_angle_gamma 90.000000
_cell_volume 1799.961618
_symmetry_space_group_name_H-M "P M M A"
_symmetry_group_IT_number 51
_symmetry_cell_setting 'orthorhombic'
loop_
_space_group_symop_operation_xyz
x,y,z
1/2-x,-y,z
1/2+x,-y,-z
-x,y,-z
-x,-y,-z
1/2+x,y,-z
1/2-x,y,z
x,-y,z
loop_
_atom_site_type_symbol
_atom_site_label
_atom_site_fract_x
_atom_site_fract_y
_atom_site_fract_z
Si Si1 0.966285 0.179869 0.553562
Si Si2 0.970846 0.177066 0.238819
Si Si3 0.470344 0.682662 0.855040
Si Si4 0.466117 0.815458 0.950605
Si Si5 0.033145 0.500000 0.395926
Si Si6 0.534567 0.500000 0.289211
O O1 0.750000 0.175382 0.560131
O O2 0.036519 0.334837 0.580917
O O3 0.000000 0.202504 0.500000
O O4 0.035898 0.000000 0.566203
O O5 0.750000 0.177704 0.240200
O O6 0.023987 0.202697 0.186269
O O7 0.033966 0.333515 0.266766
O O8 0.029718 0.000000 0.255212
O O9 0.250000 0.685319 0.856004
O O10 0.524773 0.500000 0.844019
O O11 0.533717 0.730165 0.905201
O O12 0.250000 0.823327 0.946224
O O13 0.536411 0.000000 0.951693
O O14 0.500000 0.739509 0.000000
O O15 0.250000 0.500000 0.402648
O O16 0.996812 0.500000 0.342655
O O17 0.750000 0.500000 0.280700
#
# Coordination Sequence:
#
# PCOD9403136 Si02
#       6
#     8   8   8   8   4   4
#     4   9  18  33  53  77 104 135 172 209 243 283
#     4   9  16  28  47  70  96 122 152 199 252 290
#     4   9  15  25  43  66  90 115 148 191 235 282
#     4   9  17  28  42  62  88 117 148 182 224 277
#     4  10  21  35  51  72 104 141 169 198 244 296
#     4  10  20  33  49  74 100 123 161 208 247 286
#
# _framework density 22.222698000000001
#
# number of rings (size 3 to 8) (size 9 to 14) (size 15 to 20)
#    0.000    2.800    1.000    0.900    0.000    4.400 
#    0.000    0.000    0.000    1.200    0.000    0.000 
#    0.000    0.000    0.000    0.000    0.000    0.000 
#
# Total GULP energy -223268.723998 kJ/mol
# GULP energy per Si atom -5581.718100 kJ/mol
# Density = 2.217212 g / cm^3
# Si number density = 22.222698 Si / 1000 Ang^3
#
#
#
# Elastic Constant Matrix: (Units=GPa)
#
#
# Indices 1 2 3 4 5 6 
#
# 1 77.0431 9.1121 -5.7703 0.0000 0.0000 0.0000
# 2 9.1121 206.8997 109.3894 0.0000 0.0000 0.0000
# 3 -5.7703 109.3894 133.3682 0.0000 0.0000 0.0000
# 4 0.0000 0.0000 0.0000 29.1982 0.0000 0.0000
# 5 0.0000 0.0000 0.0000 0.0000 15.8373 0.0000
# 6 0.0000 0.0000 0.0000 0.0000 0.0000 -16.7528
#
#
#
# Elastic Compliance Matrix: (Units=1/GPa)
#
#
# Indices 1 2 3 4 5 6 
#
# 1 0.013305 -0.001572 0.001865 0.000000 0.000000 0.000000
# 2 -0.001572 0.008720 -0.007220 0.000000 0.000000 0.000000
# 3 0.001865 -0.007220 0.013501 0.000000 0.000000 0.000000
# 4 0.000000 0.000000 0.000000 0.034249 0.000000 0.000000
# 5 0.000000 0.000000 0.000000 0.000000 0.063142 0.000000
# 6 0.000000 0.000000 0.000000 0.000000 0.000000 -0.059691
#
#
# Mechanical properties :
#
#
# Convention : Reuss Voigt Hill
#
# Bulk Modulus (GPa) = 46.14302 71.41929 58.78115
# Shear Modulus (GPa) = 53.02066 25.96187 39.49126
#
# Velocity S-wave (km/s) = 4.88984 3.42169 4.22010
# Velocity P-wave (km/s) = 7.25877 6.91508 7.08901
#
# Compressibility (1/GPa) = 0.02167175
#
# Stress axis : x y z
#
# Youngs Moduli (GPa) = 75.15768 114.68192 74.07062
#
# Poissons Ratio (x) = 0.18029 -0.13815
# Poissons Ratio (y) = 0.11815 0.53479
# Poissons Ratio (z) = -0.14018 0.82801
#
# Static dielectric constant tensor:
#      x y z
#    x 1.857860 0.000000 0.000000 
#    y 0.000000 1.822270 0.000000 
#    z 0.000000 0.000000 1.770010 
# 
# From -- ./inp_files/36025.got.cif
#   From: 2010.05.17/outbox.cif.g08.bks.cpg/sg51_19_cif.got.tgz:36025.got - 2010.06.03 11:52:47.
