data_PCOD9403508
_publ_section_title
;
Structure prediction by ZEFSAII (Michael W. Deem and Ramdas Pophale) SiO2 
 PCOD9403508
Probable space group: P M M A
;
_chemical_formula_sum "Si O2"
_cell_formula_units_Z 52
_cell_length_a 10.367282
_cell_length_b 13.939783
_cell_length_c 18.833278
_cell_angle_alpha 90.000000
_cell_angle_beta 90.000000
_cell_angle_gamma 90.000000
_cell_volume 2721.741293
_symmetry_space_group_name_H-M "P M M A"
_symmetry_group_IT_number 51
_symmetry_cell_setting 'orthorhombic'
loop_
_space_group_symop_operation_xyz
x,y,z
1/2-x,-y,z
1/2+x,-y,-z
-x,y,-z
-x,-y,-z
1/2+x,y,-z
1/2-x,y,z
x,-y,z
loop_
_atom_site_type_symbol
_atom_site_label
_atom_site_fract_x
_atom_site_fract_y
_atom_site_fract_z
Si Si1 0.890253 0.111393 0.094363
Si Si2 0.405929 0.387978 0.130142
Si Si3 0.500000 0.739996 0.000000
Si Si4 0.906449 0.302823 0.562879
Si Si5 0.594683 0.107687 0.632571
Si Si6 0.395914 0.883740 0.209510
Si Si7 0.100441 0.615559 0.285869
O O1 0.750000 0.117401 0.129799
O O2 0.895036 0.185287 0.029795
O O3 0.004510 0.138246 0.147753
O O4 0.907355 0.000000 0.072172
O O5 0.250000 0.384937 0.131242
O O6 0.442865 0.500000 0.121341
O O7 0.452701 0.354147 0.208625
O O8 0.455811 0.326229 0.064808
O O9 0.750000 0.317774 0.551783
O O10 0.930964 0.189433 0.575710
O O11 0.947921 0.350285 0.637848
O O12 0.000000 0.336714 0.500000
O O13 0.750000 0.100854 0.637451
O O14 0.556765 0.142988 0.711619
O O15 0.544665 0.000000 0.618639
O O16 0.250000 0.848117 0.196266
O O17 0.388732 0.000000 0.212218
O O18 0.250000 0.647133 0.286332
O O19 0.097830 0.500000 0.284612
#
# Coordination Sequence:
#
# PCOD9403508 Si02
#       7
#     8   8   4   8   8   8   8
#     4  10  22  37  49  71 112 152 184 224 275 326
#     4   9  19  36  57  81 107 136 180 234 280 328
#     4  12  22  32  54  80 106 144 190 228 272 326
#     4  10  20  33  53  80 111 140 173 215 262 313
#     4   8  15  29  50  76 104 136 178 223 261 303
#     4   8  15  30  53  76  96 129 183 235 269 306
#     4   8  16  33  56  79 102 132 171 217 267 318
#
# _framework density 19.105416000000002
#
# number of rings (size 3 to 8) (size 9 to 14) (size 15 to 20)
#    0.000    2.923    0.000    2.769    2.154    1.846 
#    0.000    2.308    0.000    0.923    0.000    4.308 
#    0.000    0.000    0.000    0.000    0.000    0.000 
#
# Total GULP energy -289630.741460 kJ/mol
# GULP energy per Si atom -5569.821951 kJ/mol
# Density = 1.906193 g / cm^3
# Si number density = 19.105416 Si / 1000 Ang^3
#
#
#
# Elastic Constant Matrix: (Units=GPa)
#
#
# Indices 1 2 3 4 5 6 
#
# 1 57.5270 17.2808 45.5885 0.0000 0.0000 0.0000
# 2 17.2808 70.7085 52.7913 0.0000 0.0000 0.0000
# 3 45.5885 52.7913 153.7656 0.0000 0.0000 0.0000
# 4 0.0000 0.0000 0.0000 27.5464 0.0000 0.0000
# 5 0.0000 0.0000 0.0000 0.0000 21.7525 0.0000
# 6 0.0000 0.0000 0.0000 0.0000 0.0000 -8.4723
#
#
#
# Elastic Compliance Matrix: (Units=1/GPa)
#
#
# Indices 1 2 3 4 5 6 
#
# 1 0.022748 -0.000705 -0.006502 0.000000 0.000000 0.000000
# 2 -0.000705 0.019039 -0.006328 0.000000 0.000000 0.000000
# 3 -0.006502 -0.006328 0.010604 0.000000 0.000000 0.000000
# 4 0.000000 0.000000 0.000000 0.036302 0.000000 0.000000
# 5 0.000000 0.000000 0.000000 0.000000 0.045972 0.000000
# 6 0.000000 0.000000 0.000000 0.000000 0.000000 -0.118032
#
#
# Mechanical properties :
#
#
# Convention : Reuss Voigt Hill
#
# Bulk Modulus (GPa) = 39.49283 57.03580 48.26432
# Shear Modulus (GPa) = 95.89162 19.25469 57.57315
#
# Velocity S-wave (km/s) = 7.09223 3.17805 5.49544
# Velocity P-wave (km/s) = 9.36922 6.58671 8.09836
#
# Compressibility (1/GPa) = 0.02532105
#
# Stress axis : x y z
#
# Youngs Moduli (GPa) = 43.96043 52.52367 94.30749
#
# Poissons Ratio (x) = 0.03702 0.61321
# Poissons Ratio (y) = 0.03098 0.59674
# Poissons Ratio (z) = 0.28584 0.33235
#
# Static dielectric constant tensor:
#      x y z
#    x 1.645320 0.000000 0.000000 
#    y 0.000000 1.732310 0.000000 
#    z 0.000000 0.000000 1.700420 
# 
# From -- ./inp_files/23317.got.cif
#   From: 2010.05.17/outbox.cif.g08.bks.cpg/sg51_12_cif.got.tgz:23317.got - 2010.06.03 11:52:47.
