data_PCOD9403439
_publ_section_title
;
Structure prediction by ZEFSAII (Michael W. Deem and Ramdas Pophale) SiO2 
 PCOD9403439
Probable space group: P M M A
;
_chemical_formula_sum "Si O2"
_cell_formula_units_Z 64
_cell_length_a 8.557244
_cell_length_b 14.599584
_cell_length_c 27.088328
_cell_angle_alpha 90.000000
_cell_angle_beta 90.000000
_cell_angle_gamma 90.000000
_cell_volume 3384.204481
_symmetry_space_group_name_H-M "P M M A"
_symmetry_group_IT_number 51
_symmetry_cell_setting 'orthorhombic'
loop_
_space_group_symop_operation_xyz
x,y,z
1/2-x,-y,z
1/2+x,-y,-z
-x,y,-z
-x,-y,-z
1/2+x,y,-z
1/2-x,y,z
x,-y,z
loop_
_atom_site_type_symbol
_atom_site_label
_atom_site_fract_x
_atom_site_fract_y
_atom_site_fract_z
Si Si1 0.563360 0.714843 0.051583
Si Si2 0.563201 0.897075 0.307735
Si Si3 0.060824 0.286942 0.649921
Si Si4 0.560576 0.894527 0.906029
Si Si5 0.438605 0.393810 0.553056
Si Si6 0.072414 0.111175 0.203358
Si Si7 0.063473 0.392451 0.254662
Si Si8 0.938198 0.607629 0.149339
O O1 0.750000 0.712311 0.050724
O O2 0.505892 0.819196 0.057645
O O3 0.508259 0.660276 0.100278
O O4 0.500000 0.676789 0.000000
O O5 0.750000 0.902124 0.311893
O O6 0.506316 0.817938 0.344069
O O7 0.523206 0.866033 0.251989
O O8 0.499661 0.000000 0.315333
O O9 0.250000 0.287615 0.649364
O O10 0.006384 0.335348 0.599837
O O11 0.007266 0.340913 0.698558
O O12 0.750000 0.892516 0.905930
O O13 0.508181 0.865499 0.850584
O O14 0.513431 0.000000 0.915570
O O15 0.500000 0.361717 0.500000
O O16 0.250000 0.391794 0.552170
O O17 0.487452 0.500000 0.559368
O O18 0.250000 0.145765 0.208508
O O19 0.080142 0.000000 0.202034
O O20 0.250000 0.386348 0.256613
O O21 0.017748 0.500000 0.257442
O O22 0.006618 0.357187 0.201220
O O23 0.750000 0.614113 0.152067
O O24 0.979929 0.500000 0.145053
#
# Coordination Sequence:
#
# PCOD9403439 Si02
#       8
#     8   8   8   8   8   8   8   8
#     4  11  24  39  57  80 103 132 173 218 264 314
#     4   9  18  31  47  71 104 140 179 219 255 299
#     4  10  20  33  52  78 109 146 182 216 263 317
#     4   9  19  36  56  77 104 138 172 210 260 315
#     4   9  18  33  53  76 103 138 179 223 269 316
#     4   8  15  29  48  70  97 131 168 206 254 306
#     4  10  21  35  53  81 112 139 170 211 260 313
#     4   9  20  40  61  79 104 138 172 209 259 319
#
# _framework density 18.911386
#
# number of rings (size 3 to 8) (size 9 to 14) (size 15 to 20)
#    0.000    2.625    0.000    1.875    1.750    4.500 
#    0.000    2.500    0.000    0.375    0.000    0.000 
#    0.000    0.000    0.000    0.000    0.000    0.000 
#
# Total GULP energy -357081.261387 kJ/mol
# GULP energy per Si atom -5579.394709 kJ/mol
# Density = 1.886834 g / cm^3
# Si number density = 18.911386 Si / 1000 Ang^3
#
#
#
# Elastic Constant Matrix: (Units=GPa)
#
#
# Indices 1 2 3 4 5 6 
#
# 1 5.5333 16.2407 20.3883 0.0000 0.0000 0.0000
# 2 16.2407 79.3595 74.1747 0.0000 0.0000 0.0000
# 3 20.3883 74.1747 163.8427 0.0000 0.0000 0.0000
# 4 0.0000 0.0000 0.0000 32.5736 0.0000 0.0000
# 5 0.0000 0.0000 0.0000 0.0000 28.5444 0.0000
# 6 0.0000 0.0000 0.0000 0.0000 0.0000 14.8045
#
#
#
# Elastic Compliance Matrix: (Units=1/GPa)
#
#
# Indices 1 2 3 4 5 6 
#
# 1 0.520120 -0.079650 -0.028664 0.000000 0.000000 0.000000
# 2 -0.079650 0.034041 -0.005500 0.000000 0.000000 0.000000
# 3 -0.028664 -0.005500 0.012160 0.000000 0.000000 0.000000
# 4 0.000000 0.000000 0.000000 0.030700 0.000000 0.000000
# 5 0.000000 0.000000 0.000000 0.000000 0.035033 0.000000
# 6 0.000000 0.000000 0.000000 0.000000 0.000000 0.067547
#
#
# Mechanical properties :
#
#
# Convention : Reuss Voigt Hill
#
# Bulk Modulus (GPa) = 2.95251 52.26032 27.60642
# Shear Modulus (GPa) = 4.80711 24.37996 14.59354
#
# Velocity S-wave (km/s) = 1.59607 3.59439 2.78093
# Velocity P-wave (km/s) = 2.22738 6.70228 4.99408
#
# Compressibility (1/GPa) = 0.33869474
#
# Stress axis : x y z
#
# Youngs Moduli (GPa) = 1.92263 29.37612 82.23618
#
# Poissons Ratio (x) = 2.33980 2.35720
# Poissons Ratio (y) = 0.15314 0.45227
# Poissons Ratio (z) = 0.05511 0.16156
#
# Static dielectric constant tensor:
#      x y z
#    x 1.645360 0.000000 0.000000 
#    y 0.000000 1.694980 0.000000 
#    z 0.000000 0.000000 1.646540 
# 
# From -- ./inp_files/34952.got.cif
#   From: 2010.05.17/outbox.cif.g08.bks.cpg/sg51_18_cif.got.tgz:34952.got - 2010.06.03 11:52:47.
