data_PCOD9403839
_publ_section_title
;
Structure prediction by ZEFSAII (Michael W. Deem and Ramdas Pophale) SiO2 
 PCOD9403839
Probable space group: P M M A
;
_chemical_formula_sum "Si O2"
_cell_formula_units_Z 48
_cell_length_a 9.617382
_cell_length_b 9.375068
_cell_length_c 29.874360
_cell_angle_alpha 90.000000
_cell_angle_beta 90.000000
_cell_angle_gamma 90.000000
_cell_volume 2693.580151
_symmetry_space_group_name_H-M "P M M A"
_symmetry_group_IT_number 51
_symmetry_cell_setting 'orthorhombic'
loop_
_space_group_symop_operation_xyz
x,y,z
1/2-x,-y,z
1/2+x,-y,-z
-x,y,-z
-x,-y,-z
1/2+x,y,-z
1/2-x,y,z
x,-y,z
loop_
_atom_site_type_symbol
_atom_site_label
_atom_site_fract_x
_atom_site_fract_y
_atom_site_fract_z
Si Si1 0.480410 0.164312 0.101621
Si Si2 0.915548 0.834250 0.799811
Si Si3 0.750000 0.331869 0.950757
Si Si4 0.085629 0.670397 0.291010
Si Si5 0.914820 0.171710 0.367766
Si Si6 0.250000 0.158117 0.959403
Si Si7 0.411589 0.173396 0.456806
O O1 0.493398 0.200116 0.154026
O O2 0.379044 0.270347 0.076575
O O3 0.619636 0.168340 0.073160
O O4 0.427195 0.000000 0.100492
O O5 0.750000 0.822199 0.809532
O O6 0.946651 0.733479 0.758068
O O7 0.942905 0.000000 0.787792
O O8 0.750000 0.500000 0.951949
O O9 0.750000 0.269814 0.000770
O O10 0.250000 0.702401 0.299991
O O11 0.068648 0.500000 0.292070
O O12 0.987535 0.747091 0.326881
O O13 0.750000 0.203919 0.372035
O O14 0.001791 0.210520 0.412356
O O15 0.926928 0.000000 0.361655
O O16 0.250000 0.000000 0.980903
O O17 0.500000 0.221294 0.500000
O O18 0.250000 0.221823 0.456377
O O19 0.407001 0.000000 0.458538
#
# Coordination Sequence:
#
# PCOD9403839 Si02
#       7
#     8   8   4   8   8   4   8
#     4  10  20  38  60  83 109 141 182 226 273 326
#     4   9  17  33  58  83 106 136 179 227 272 323
#     4  12  24  36  56  82 112 148 186 224 267 322
#     4  10  21  36  55  79 108 141 179 223 275 333
#     4  10  20  34  53  79 110 146 189 232 274 325
#     4  10  22  38  58  82 110 144 180 224 275 328
#     4   9  16  27  47  77 112 147 184 232 285 331
#
# _framework density 17.820149000000001
#
# number of rings (size 3 to 8) (size 9 to 14) (size 15 to 20)
#    0.000    2.167    0.833    2.750    0.000    7.333 
#    1.500    0.000    0.000    0.500    0.000    0.000 
#    0.000    0.000    0.000    0.000    0.000    0.000 
#
# Total GULP energy -267784.679983 kJ/mol
# GULP energy per Si atom -5578.847500 kJ/mol
# Density = 1.777959 g / cm^3
# Si number density = 17.820149 Si / 1000 Ang^3
#
#
#
# Elastic Constant Matrix: (Units=GPa)
#
#
# Indices 1 2 3 4 5 6 
#
# 1 113.3615 61.8916 71.6358 0.0000 0.0000 0.0000
# 2 61.8916 74.9584 70.6946 0.0000 0.0000 0.0000
# 3 71.6358 70.6946 152.7464 0.0000 0.0000 0.0000
# 4 0.0000 0.0000 0.0000 -9.9864 0.0000 0.0000
# 5 0.0000 0.0000 0.0000 0.0000 -94.9765 0.0000
# 6 0.0000 0.0000 0.0000 0.0000 0.0000 -32.4011
#
#
#
# Elastic Compliance Matrix: (Units=1/GPa)
#
#
# Indices 1 2 3 4 5 6 
#
# 1 0.016607 -0.011299 -0.002559 0.000000 0.000000 0.000000
# 2 -0.011299 0.031362 -0.009216 0.000000 0.000000 0.000000
# 3 -0.002559 -0.009216 0.012012 0.000000 0.000000 0.000000
# 4 0.000000 0.000000 0.000000 -0.100136 0.000000 0.000000
# 5 0.000000 0.000000 0.000000 0.000000 -0.010529 0.000000
# 6 0.000000 0.000000 0.000000 0.000000 0.000000 -0.030863
#
#
# Mechanical properties :
#
#
# Convention : Reuss Voigt Hill
#
# Bulk Modulus (GPa) = 72.28827 83.27893 77.78360
# Shear Modulus (GPa) = -162.39969 -18.34986 -90.37477
#
# Velocity S-wave (km/s) = -9.55670 -3.21241 -7.12917
# Velocity P-wave (km/s) = 9.00669 5.75109 4.90130
#
# Compressibility (1/GPa) = 0.01383350
#
# Stress axis : x y z
#
# Youngs Moduli (GPa) = 60.21461 31.88622 83.24685
#
# Poissons Ratio (x) = 0.36027 0.21306
# Poissons Ratio (y) = 0.68034 0.76720
# Poissons Ratio (z) = 0.15411 0.29386
#
# Static dielectric constant tensor:
#      x y z
#    x 1.622090 0.000000 0.000000 
#    y 0.000000 1.589560 0.000000 
#    z 0.000000 0.000000 1.592240 
# 
# From -- ./inp_files/37108.got.cif
#   From: 2010.05.17/outbox.cif.g08.bks.cpg/sg51_19_cif.got.tgz:37108.got - 2010.06.03 11:52:47.
