data_PCOD9403554
_publ_section_title
;
Structure prediction by ZEFSAII (Michael W. Deem and Ramdas Pophale) SiO2 
 PCOD9403554
Probable space group: P M M A
;
_chemical_formula_sum "Si O2"
_cell_formula_units_Z 52
_cell_length_a 30.708607
_cell_length_b 11.245570
_cell_length_c 7.756140
_cell_angle_alpha 90.000000
_cell_angle_beta 90.000000
_cell_angle_gamma 90.000000
_cell_volume 2678.472731
_symmetry_space_group_name_H-M "P M M A"
_symmetry_group_IT_number 51
_symmetry_cell_setting 'orthorhombic'
loop_
_space_group_symop_operation_xyz
x,y,z
1/2-x,-y,z
1/2+x,-y,-z
-x,y,-z
-x,-y,-z
1/2+x,y,-z
1/2-x,y,z
x,-y,z
loop_
_atom_site_type_symbol
_atom_site_label
_atom_site_fract_x
_atom_site_fract_y
_atom_site_fract_z
Si Si1 0.947841 0.134893 0.540890
Si Si2 0.802336 0.860361 0.241266
Si Si3 0.500000 0.312768 0.000000
Si Si4 0.924082 0.371566 0.756466
Si Si5 0.642119 0.770749 0.944002
Si Si6 0.563945 0.130186 0.156458
Si Si7 0.700417 0.142540 0.631562
O O1 0.932143 0.249852 0.647710
O O2 0.923206 0.137764 0.356689
O O3 0.000000 0.143556 0.500000
O O4 0.940921 0.000000 0.614943
O O5 0.750000 0.858802 0.225422
O O6 0.824070 0.774967 0.101480
O O7 0.812842 0.823619 0.437274
O O8 0.815632 0.000000 0.213085
O O9 0.465681 0.378052 0.118682
O O10 0.528307 0.228830 0.122586
O O11 0.920150 0.500000 0.664751
O O12 0.882051 0.346992 0.876507
O O13 0.602770 0.849340 0.022601
O O14 0.667347 0.820411 0.778894
O O15 0.544719 0.000000 0.130729
O O16 0.750000 0.185559 0.665460
O O17 0.702334 0.000000 0.629899
#
# Coordination Sequence:
#
# PCOD9403554 Si02
#       7
#     8   8   4   8   8   8   8
#     4  10  21  39  60  85 116 154 205 260 309 361
#     4   9  18  33  55  87 124 157 194 238 290 357
#     4  10  20  38  58  78 109 158 203 250 297 362
#     4  11  25  42  59  84 117 158 206 251 301 363
#     4  11  22  34  56  82 120 160 197 241 296 353
#     4  10  20  33  54  88 121 153 196 249 304 360
#     4   9  18  33  56  88 125 160 193 236 295 363
#
# _framework density 19.414048999999999
#
# number of rings (size 3 to 8) (size 9 to 14) (size 15 to 20)
#    0.000    2.000    1.538    3.231    2.154    5.231 
#    0.000    0.769    0.000    1.846    0.000    2.154 
#    0.000    0.000    0.000    0.000    0.000    0.000 
#
# Total GULP energy -289856.311238 kJ/mol
# GULP energy per Si atom -5574.159832 kJ/mol
# Density = 1.936986 g / cm^3
# Si number density = 19.414049 Si / 1000 Ang^3
#
#
#
# Elastic Constant Matrix: (Units=GPa)
#
#
# Indices 1 2 3 4 5 6 
#
# 1 76.6939 26.9855 54.8693 0.0000 0.0000 0.0000
# 2 26.9855 115.6075 56.1556 0.0000 0.0000 0.0000
# 3 54.8693 56.1556 103.3981 0.0000 0.0000 0.0000
# 4 0.0000 0.0000 0.0000 -4.2252 0.0000 0.0000
# 5 0.0000 0.0000 0.0000 0.0000 17.2609 0.0000
# 6 0.0000 0.0000 0.0000 0.0000 0.0000 -13.2496
#
#
#
# Elastic Compliance Matrix: (Units=1/GPa)
#
#
# Indices 1 2 3 4 5 6 
#
# 1 0.021060 0.000696 -0.011554 0.000000 0.000000 0.000000
# 2 0.000696 0.011773 -0.006763 0.000000 0.000000 0.000000
# 3 -0.011554 -0.006763 0.019476 0.000000 0.000000 0.000000
# 4 0.000000 0.000000 0.000000 -0.236676 0.000000 0.000000
# 5 0.000000 0.000000 0.000000 0.000000 0.057934 0.000000
# 6 0.000000 0.000000 0.000000 0.000000 0.000000 -0.075474
#
#
# Mechanical properties :
#
#
# Convention : Reuss Voigt Hill
#
# Bulk Modulus (GPa) = 58.59380 63.52447 61.05914
# Shear Modulus (GPa) = -31.06028 10.46985 -10.29522
#
# Velocity S-wave (km/s) = -4.00420 2.32479 -2.30532
# Velocity P-wave (km/s) = 2.97801 6.32440 4.94301
#
# Compressibility (1/GPa) = 0.01706665
#
# Stress axis : x y z
#
# Youngs Moduli (GPa) = 47.48386 84.94297 51.34632
#
# Poissons Ratio (x) = -0.05915 0.59324
# Poissons Ratio (y) = -0.03306 0.34727
# Poissons Ratio (z) = 0.54862 0.57449
#
# Static dielectric constant tensor:
#      x y z
#    x 1.712570 0.000000 0.000000 
#    y 0.000000 -1.294860 0.000000 
#    z 0.000000 0.000000 1.708390 
# 
# From -- ./inp_files/13092.got.cif
#   From: 2010.05.17/outbox.cif.g08.bks.cpg/sg51_7_cif.got.tgz:13092.got - 2010.06.03 11:52:47.
