data_PCOD9403186
_publ_section_title
;
Structure prediction by ZEFSAII (Michael W. Deem and Ramdas Pophale) SiO2 
 PCOD9403186
Probable space group: P M M A
;
_chemical_formula_sum "Si O2"
_cell_formula_units_Z 44
_cell_length_a 9.605368
_cell_length_b 7.435842
_cell_length_c 31.000612
_cell_angle_alpha 90.000000
_cell_angle_beta 90.000000
_cell_angle_gamma 90.000000
_cell_volume 2214.187674
_symmetry_space_group_name_H-M "P M M A"
_symmetry_group_IT_number 51
_symmetry_cell_setting 'orthorhombic'
loop_
_space_group_symop_operation_xyz
x,y,z
1/2-x,-y,z
1/2+x,-y,-z
-x,y,-z
-x,-y,-z
1/2+x,y,-z
1/2-x,y,z
x,-y,z
loop_
_atom_site_type_symbol
_atom_site_label
_atom_site_fract_x
_atom_site_fract_y
_atom_site_fract_z
Si Si1 0.090584 0.716463 0.136542
Si Si2 0.413233 0.786475 0.616545
Si Si3 0.084870 0.500000 0.543898
Si Si4 0.909990 0.219536 0.700233
Si Si5 0.407192 0.212938 0.780392
Si Si6 0.911177 0.719031 0.959565
O O1 0.250000 0.778867 0.144632
O O2 0.095930 0.500000 0.135328
O O3 0.045792 0.777116 0.088598
O O4 0.986501 0.765802 0.174462
O O5 0.250000 0.754745 0.627464
O O6 0.445715 0.672174 0.574088
O O7 0.509693 0.731270 0.656511
O O8 0.430262 0.000000 0.609311
O O9 0.250000 0.500000 0.534678
O O10 0.000000 0.500000 0.500000
O O11 0.750000 0.279394 0.701157
O O12 0.996956 0.283917 0.741627
O O13 0.907886 0.000000 0.701330
O O14 0.250000 0.286214 0.781136
O O15 0.395543 0.000000 0.772527
O O16 0.750000 0.768254 0.964915
O O17 0.917961 0.500000 0.959760
O O18 0.000000 0.783485 0.000000
#
# Coordination Sequence:
#
# PCOD9403186 Si02
#       6
#     8   8   4   8   8   8
#     4   9  18  32  48  69  98 127 160 205 253 302
#     4   9  18  35  57  79 107 143 181 223 270 318
#     4  10  22  38  56  82 114 146 182 224 269 318
#     4   9  17  31  53  78 101 130 171 213 252 301
#     4  10  20  33  50  73 101 134 170 207 251 306
#     4   8  14  25  42  64  89 118 153 196 246 299
#
# _framework density 19.871849000000001
#
# number of rings (size 3 to 8) (size 9 to 14) (size 15 to 20)
#    0.000    2.909    0.000    2.182    0.000    5.455 
#    1.636    1.818    0.000    0.545    0.000    0.000 
#    0.000    0.000    0.000    0.000    0.000    0.000 
#
# Total GULP energy -245566.313169 kJ/mol
# GULP energy per Si atom -5581.052572 kJ/mol
# Density = 1.982662 g / cm^3
# Si number density = 19.871849 Si / 1000 Ang^3
#
#
#
# Elastic Constant Matrix: (Units=GPa)
#
#
# Indices 1 2 3 4 5 6 
#
# 1 154.7352 27.9344 144.0315 0.0000 0.0000 0.0000
# 2 27.9344 64.1388 28.7618 0.0000 0.0000 0.0000
# 3 144.0315 28.7618 218.4048 0.0000 0.0000 0.0000
# 4 0.0000 0.0000 0.0000 22.7290 0.0000 0.0000
# 5 0.0000 0.0000 0.0000 0.0000 43.3268 0.0000
# 6 0.0000 0.0000 0.0000 0.0000 0.0000 10.3714
#
#
#
# Elastic Compliance Matrix: (Units=1/GPa)
#
#
# Indices 1 2 3 4 5 6 
#
# 1 0.017118 -0.002543 -0.010954 0.000000 0.000000 0.000000
# 2 -0.002543 0.016948 -0.000555 0.000000 0.000000 0.000000
# 3 -0.010954 -0.000555 0.011875 0.000000 0.000000 0.000000
# 4 0.000000 0.000000 0.000000 0.043997 0.000000 0.000000
# 5 0.000000 0.000000 0.000000 0.000000 0.023080 0.000000
# 6 0.000000 0.000000 0.000000 0.000000 0.000000 0.096419
#
#
# Mechanical properties :
#
#
# Convention : Reuss Voigt Hill
#
# Bulk Modulus (GPa) = 56.06192 93.19267 74.62730
# Shear Modulus (GPa) = 20.53507 31.05553 25.79530
#
# Velocity S-wave (km/s) = 3.21810 3.95750 3.60680
# Velocity P-wave (km/s) = 6.48700 8.23900 7.41493
#
# Compressibility (1/GPa) = 0.01783742
#
# Stress axis : x y z
#
# Youngs Moduli (GPa) = 58.41839 59.00553 84.20765
#
# Poissons Ratio (x) = 0.15007 0.92240
# Poissons Ratio (y) = 0.14858 0.04670
# Poissons Ratio (z) = 0.63990 0.03272
#
# Static dielectric constant tensor:
#      x y z
#    x 1.674390 0.000000 0.000000 
#    y 0.000000 1.865830 0.000000 
#    z 0.000000 0.000000 1.661920 
# 
# From -- ./inp_files/36735.got.cif
#   From: 2010.05.17/outbox.cif.g08.bks.cpg/sg51_19_cif.got.tgz:36735.got - 2010.06.03 11:52:47.
