data_PCOD9403193
_publ_section_title
;
Structure prediction by ZEFSAII (Michael W. Deem and Ramdas Pophale) SiO2 
 PCOD9403193
Probable space group: P M M A
;
_chemical_formula_sum "Si O2"
_cell_formula_units_Z 64
_cell_length_a 14.370426
_cell_length_b 9.248348
_cell_length_c 26.154529
_cell_angle_alpha 90.000000
_cell_angle_beta 90.000000
_cell_angle_gamma 90.000000
_cell_volume 3476.007536
_symmetry_space_group_name_H-M "P M M A"
_symmetry_group_IT_number 51
_symmetry_cell_setting 'orthorhombic'
loop_
_space_group_symop_operation_xyz
x,y,z
1/2-x,-y,z
1/2+x,-y,-z
-x,y,-z
-x,-y,-z
1/2+x,y,-z
1/2-x,y,z
x,-y,z
loop_
_atom_site_type_symbol
_atom_site_label
_atom_site_fract_x
_atom_site_fract_y
_atom_site_fract_z
Si Si1 0.360497 0.669774 0.867636
Si Si2 0.360805 0.329210 0.182398
Si Si3 0.355650 0.675333 0.471717
Si Si4 0.141060 0.173594 0.674630
Si Si5 0.642550 0.158841 0.916817
Si Si6 0.607259 0.336809 0.014930
Si Si7 0.954032 0.674677 0.421258
Si Si8 0.470362 0.172437 0.778245
O O1 0.250000 0.682321 0.859271
O O2 0.386504 0.500000 0.862286
O O3 0.380174 0.710281 0.926674
O O4 0.414672 0.764081 0.826587
O O5 0.250000 0.305095 0.190417
O O6 0.376648 0.500000 0.184722
O O7 0.391116 0.270347 0.126170
O O8 0.427846 0.245135 0.221016
O O9 0.250000 0.727337 0.462466
O O10 0.353246 0.500000 0.469606
O O11 0.392223 0.711844 0.528647
O O12 0.439130 0.719511 0.433579
O O13 0.250000 0.215300 0.677258
O O14 0.089805 0.251644 0.627997
O O15 0.088010 0.207296 0.727392
O O16 0.137175 0.000000 0.667565
O O17 0.750000 0.140944 0.902902
O O18 0.596920 0.000000 0.914846
O O19 0.643185 0.225839 0.973004
O O20 0.646590 0.500000 0.009963
O O21 0.500000 0.346840 0.000000
O O22 0.952324 0.500000 0.416171
O O23 0.479293 0.000000 0.782589
#
# Coordination Sequence:
#
# PCOD9403193 Si02
#       8
#     8   8   8   8   8   8   8   8
#     4  10  21  36  54  78 109 144 182 225 274 328
#     4  10  21  38  60  83 107 136 171 215 269 328
#     4   8  14  27  49  80 118 152 182 224 277 323
#     4  10  22  39  56  77 109 146 181 222 275 325
#     4  10  20  33  51  76 102 128 162 203 249 309
#     4  10  20  33  50  73 102 135 169 209 261 319
#     4   9  17  30  53  83 110 144 191 233 268 314
#     4  11  23  39  59  80 105 139 180 227 276 327
#
# _framework density 18.411929000000001
#
# number of rings (size 3 to 8) (size 9 to 14) (size 15 to 20)
#    0.000    2.250    0.000    3.750    0.000    6.250 
#    0.000    1.875    0.000    3.375    0.000    0.000 
#    0.000    0.000    0.000    0.000    0.000    0.000 
#
# Total GULP energy -356926.826708 kJ/mol
# GULP energy per Si atom -5576.981667 kJ/mol
# Density = 1.837002 g / cm^3
# Si number density = 18.411929 Si / 1000 Ang^3
#
#
#
# Elastic Constant Matrix: (Units=GPa)
#
#
# Indices 1 2 3 4 5 6 
#
# 1 143.3839 54.7611 79.0299 0.0000 0.0000 0.0000
# 2 54.7611 64.3307 59.8666 0.0000 0.0000 0.0000
# 3 79.0299 59.8666 121.1166 0.0000 0.0000 0.0000
# 4 0.0000 0.0000 0.0000 43.4054 0.0000 0.0000
# 5 0.0000 0.0000 0.0000 0.0000 26.6576 0.0000
# 6 0.0000 0.0000 0.0000 0.0000 0.0000 24.5545
#
#
#
# Elastic Compliance Matrix: (Units=1/GPa)
#
#
# Indices 1 2 3 4 5 6 
#
# 1 0.011803 -0.005333 -0.005065 0.000000 0.000000 0.000000
# 2 -0.005333 0.031196 -0.011940 0.000000 0.000000 0.000000
# 3 -0.005065 -0.011940 0.017463 0.000000 0.000000 0.000000
# 4 0.000000 0.000000 0.000000 0.023039 0.000000 0.000000
# 5 0.000000 0.000000 0.000000 0.000000 0.037513 0.000000
# 6 0.000000 0.000000 0.000000 0.000000 0.000000 0.040726
#
#
# Mechanical properties :
#
#
# Convention : Reuss Voigt Hill
#
# Bulk Modulus (GPa) = 63.34980 79.57182 71.46081
# Shear Modulus (GPa) = 23.62074 27.93506 25.77790
#
# Velocity S-wave (km/s) = 3.58565 3.89938 3.74580
# Velocity P-wave (km/s) = 7.18499 7.97402 7.58977
#
# Compressibility (1/GPa) = 0.01578537
#
# Stress axis : x y z
#
# Youngs Moduli (GPa) = 84.72288 32.05554 57.26262
#
# Poissons Ratio (x) = 0.17097 0.29006
# Poissons Ratio (y) = 0.45187 0.68370
# Poissons Ratio (z) = 0.42916 0.38273
#
# Static dielectric constant tensor:
#      x y z
#    x 1.663120 0.000000 0.000000 
#    y 0.000000 1.639440 0.000000 
#    z 0.000000 0.000000 1.607460 
# 
# From -- ./inp_files/35773.got.cif
#   From: 2010.05.17/outbox.cif.g08.bks.cpg/sg51_18_cif.got.tgz:35773.got - 2010.06.03 11:52:47.
