data_PCOD9403436
_publ_section_title
;
Structure prediction by ZEFSAII (Michael W. Deem and Ramdas Pophale) SiO2 
 PCOD9403436
Probable space group: P M M A
;
_chemical_formula_sum "Si O2"
_cell_formula_units_Z 40
_cell_length_a 8.697921
_cell_length_b 26.728108
_cell_length_c 9.343431
_cell_angle_alpha 90.000000
_cell_angle_beta 90.000000
_cell_angle_gamma 90.000000
_cell_volume 2172.151233
_symmetry_space_group_name_H-M "P M M A"
_symmetry_group_IT_number 51
_symmetry_cell_setting 'orthorhombic'
loop_
_space_group_symop_operation_xyz
x,y,z
1/2-x,-y,z
1/2+x,-y,-z
-x,y,-z
-x,-y,-z
1/2+x,y,-z
1/2-x,y,z
x,-y,z
loop_
_atom_site_type_symbol
_atom_site_label
_atom_site_fract_x
_atom_site_fract_y
_atom_site_fract_z
Si Si1 0.933878 0.342433 0.339315
Si Si2 0.934293 0.445480 0.661925
Si Si3 0.935350 0.943334 0.842275
Si Si4 0.565344 0.243893 0.159580
Si Si5 0.565122 0.151792 0.659013
O O1 0.750000 0.345661 0.349594
O O2 0.975889 0.294745 0.243960
O O3 0.000000 0.336390 0.500000
O O4 0.997294 0.394569 0.275209
O O5 0.750000 0.441683 0.656223
O O6 0.974287 0.500000 0.726586
O O7 0.000000 0.446351 0.500000
O O8 0.750000 0.942648 0.850074
O O9 0.983149 0.900753 0.731311
O O10 0.983600 0.000000 0.803299
O O11 0.000000 0.932273 0.000000
O O12 0.750000 0.240049 0.155754
O O13 0.497413 0.196896 0.244730
O O14 0.500000 0.244910 0.000000
O O15 0.500000 0.156083 0.500000
O O16 0.750000 0.153803 0.655399
#
# Coordination Sequence:
#
# PCOD9403436 Si02
#       5
#     8   8   8   8   8
#     4  10  20  33  52  78 106 138 175 217 265 315
#     4   9  16  26  44  72 104 137 172 212 259 310
#     4   9  19  36  57  82 112 146 184 224 267 318
#     4  11  24  40  58  80 107 141 181 224 273 327
#     4  11  23  38  58  83 112 145 182 226 274 323
#
# _framework density 18.414923000000002
#
# number of rings (size 3 to 8) (size 9 to 14) (size 15 to 20)
#    0.000    2.000    0.000    4.800    0.000    9.600 
#    0.000    0.000    0.000    0.600    0.000    0.000 
#    0.000    0.000    0.000    0.000    0.000    0.000 
#
# Total GULP energy -223273.736010 kJ/mol
# GULP energy per Si atom -5581.843400 kJ/mol
# Density = 1.837301 g / cm^3
# Si number density = 18.414923 Si / 1000 Ang^3
#
#
#
# Elastic Constant Matrix: (Units=GPa)
#
#
# Indices 1 2 3 4 5 6 
#
# 1 50.7727 58.4479 38.1300 0.0000 0.0000 0.0000
# 2 58.4479 183.2630 100.2174 0.0000 0.0000 0.0000
# 3 38.1300 100.2174 114.9473 0.0000 0.0000 0.0000
# 4 0.0000 0.0000 0.0000 2114.9099 0.0000 0.0000
# 5 0.0000 0.0000 0.0000 0.0000 28.9478 0.0000
# 6 0.0000 0.0000 0.0000 0.0000 0.0000 71.3228
#
#
#
# Elastic Compliance Matrix: (Units=1/GPa)
#
#
# Indices 1 2 3 4 5 6 
#
# 1 0.031747 -0.008345 -0.003256 0.000000 0.000000 0.000000
# 2 -0.008345 0.012622 -0.008237 0.000000 0.000000 0.000000
# 3 -0.003256 -0.008237 0.016961 0.000000 0.000000 0.000000
# 4 0.000000 0.000000 0.000000 0.000473 0.000000 0.000000
# 5 0.000000 0.000000 0.000000 0.000000 0.034545 0.000000
# 6 0.000000 0.000000 0.000000 0.000000 0.000000 0.014021
#
#
# Mechanical properties :
#
#
# Convention : Reuss Voigt Hill
#
# Bulk Modulus (GPa) = 46.17709 82.50818 64.34263
# Shear Modulus (GPa) = 31.79440 453.18197 242.48818
#
# Velocity S-wave (km/s) = 4.15969 15.70443 11.48765
# Velocity P-wave (km/s) = 6.94270 19.33239 14.52485
#
# Compressibility (1/GPa) = 0.02165576
#
# Stress axis : x y z
#
# Youngs Moduli (GPa) = 31.49950 79.22559 58.95950
#
# Poissons Ratio (x) = 0.66110 0.19195
# Poissons Ratio (y) = 0.26285 0.48563
# Poissons Ratio (z) = 0.10255 0.65256
#
# Static dielectric constant tensor:
#      x y z
#    x 1.618980 0.000000 0.000000 
#    y 0.000000 1.671420 0.000000 
#    z 0.000000 0.000000 1.590040 
# 
# From -- ./inp_files/5228.got.cif
#   From: 2010.05.17/outbox.cif.g08.bks.cpg/sg51_3_cif.got.tgz:5228.got - 2010.06.03 11:52:47.
