data_PCOD9403675
_publ_section_title
;
Structure prediction by ZEFSAII (Michael W. Deem and Ramdas Pophale) SiO2 
 PCOD9403675
Probable space group: P M M A
;
_chemical_formula_sum "Si O2"
_cell_formula_units_Z 56
_cell_length_a 22.441937
_cell_length_b 7.491170
_cell_length_c 14.522718
_cell_angle_alpha 90.000000
_cell_angle_beta 90.000000
_cell_angle_gamma 90.000000
_cell_volume 2441.506563
_symmetry_space_group_name_H-M "P M M A"
_symmetry_group_IT_number 51
_symmetry_cell_setting 'orthorhombic'
loop_
_space_group_symop_operation_xyz
x,y,z
1/2-x,-y,z
1/2+x,-y,-z
-x,y,-z
-x,-y,-z
1/2+x,y,-z
1/2-x,y,z
x,-y,z
loop_
_atom_site_type_symbol
_atom_site_label
_atom_site_fract_x
_atom_site_fract_y
_atom_site_fract_z
Si Si1 0.563780 0.715495 0.041427
Si Si2 0.515099 0.205486 0.601391
Si Si3 0.579391 0.284334 0.248184
Si Si4 0.683247 0.282081 0.364400
Si Si5 0.319839 0.213153 0.083809
Si Si6 0.820152 0.295841 0.558493
Si Si7 0.119007 0.799875 0.269246
O O1 0.561650 0.500000 0.040690
O O2 0.563832 0.778065 0.146934
O O3 0.500000 0.777238 0.000000
O O4 0.626997 0.758824 0.991310
O O5 0.500000 0.282597 0.500000
O O6 0.458793 0.211243 0.667749
O O7 0.565343 0.284882 0.670660
O O8 0.534378 0.000000 0.584238
O O9 0.573025 0.500000 0.249921
O O10 0.646218 0.236064 0.275316
O O11 0.750000 0.216387 0.356114
O O12 0.684220 0.500000 0.370797
O O13 0.654765 0.223434 0.462059
O O14 0.250000 0.276811 0.069239
O O15 0.350538 0.282928 0.179040
O O16 0.314120 0.000000 0.094365
O O17 0.750000 0.301241 0.542291
O O18 0.840252 0.500000 0.571509
O O19 0.831985 0.192423 0.651065
O O20 0.098659 0.000000 0.242216
#
# Coordination Sequence:
#
# PCOD9403675 Si02
#       7
#     8   8   8   8   8   8   8
#     4  10  22  39  58  83 113 143 183 236 290 346
#     4  10  21  35  52  79 114 148 183 225 273 326
#     4  10  20  34  55  79 101 134 177 216 261 319
#     4   8  15  29  48  71  99 128 162 205 251 307
#     4  10  22  39  58  82 111 146 193 243 291 351
#     4   9  17  29  47  72 100 130 165 207 255 306
#     4  10  20  34  52  74 105 145 183 221 269 324
#
# _framework density 22.936657
#
# number of rings (size 3 to 8) (size 9 to 14) (size 15 to 20)
#    0.000    2.429    0.000    3.000    0.000    4.000 
#    0.000    1.429    0.000    1.286    0.000    0.000 
#    0.000    0.000    0.000    0.000    0.000    0.000 
#
# Total GULP energy -311923.255938 kJ/mol
# GULP energy per Si atom -5570.058142 kJ/mol
# Density = 2.288445 g / cm^3
# Si number density = 22.936657 Si / 1000 Ang^3
#
#
#
# Elastic Constant Matrix: (Units=GPa)
#
#
# Indices 1 2 3 4 5 6 
#
# 1 135.5304 4.5397 77.0063 0.0000 0.0000 0.0000
# 2 4.5397 62.9824 4.1139 0.0000 0.0000 0.0000
# 3 77.0063 4.1139 177.6587 0.0000 0.0000 0.0000
# 4 0.0000 0.0000 0.0000 21.9840 0.0000 0.0000
# 5 0.0000 0.0000 0.0000 0.0000 39.8577 0.0000
# 6 0.0000 0.0000 0.0000 0.0000 0.0000 11.2807
#
#
#
# Elastic Compliance Matrix: (Units=1/GPa)
#
#
# Indices 1 2 3 4 5 6 
#
# 1 0.009801 -0.000430 -0.004238 0.000000 0.000000 0.000000
# 2 -0.000430 0.015920 -0.000182 0.000000 0.000000 0.000000
# 3 -0.004238 -0.000182 0.007470 0.000000 0.000000 0.000000
# 4 0.000000 0.000000 0.000000 0.045488 0.000000 0.000000
# 5 0.000000 0.000000 0.000000 0.000000 0.025089 0.000000
# 6 0.000000 0.000000 0.000000 0.000000 0.000000 0.088647
#
#
# Mechanical properties :
#
#
# Convention : Reuss Voigt Hill
#
# Bulk Modulus (GPa) = 42.57004 60.83237 51.70121
# Shear Modulus (GPa) = 23.81563 33.99191 28.90377
#
# Velocity S-wave (km/s) = 3.22580 3.85384 3.55372
# Velocity P-wave (km/s) = 5.69864 6.81045 6.27920
#
# Compressibility (1/GPa) = 0.02349070
#
# Stress axis : x y z
#
# Youngs Moduli (GPa) = 102.03115 62.81278 133.86741
#
# Poissons Ratio (x) = 0.02698 0.56737
# Poissons Ratio (y) = 0.04383 0.02442
# Poissons Ratio (z) = 0.43244 0.01146
#
# Static dielectric constant tensor:
#      x y z
#    x 2.003490 0.000000 0.000000 
#    y 0.000000 1.928410 0.000000 
#    z 0.000000 0.000000 1.852660 
# 
# From -- ./inp_files/25749.got.cif
#   From: 2010.05.17/outbox.cif.g08.bks.cpg/sg51_13_cif.got.tgz:25749.got - 2010.06.03 11:52:47.
