data_PCOD9403626
_publ_section_title
;
Structure prediction by ZEFSAII (Michael W. Deem and Ramdas Pophale) SiO2 
 PCOD9403626
Probable space group: P M M A
;
_chemical_formula_sum "Si O2"
_cell_formula_units_Z 36
_cell_length_a 8.523986
_cell_length_b 19.085101
_cell_length_c 14.638252
_cell_angle_alpha 90.000000
_cell_angle_beta 90.000000
_cell_angle_gamma 90.000000
_cell_volume 2381.367431
_symmetry_space_group_name_H-M "P M M A"
_symmetry_group_IT_number 51
_symmetry_cell_setting 'orthorhombic'
loop_
_space_group_symop_operation_xyz
x,y,z
1/2-x,-y,z
1/2+x,-y,-z
-x,y,-z
-x,-y,-z
1/2+x,y,-z
1/2-x,y,z
x,-y,z
loop_
_atom_site_type_symbol
_atom_site_label
_atom_site_fract_x
_atom_site_fract_y
_atom_site_fract_z
Si Si1 0.437247 0.500000 0.603104
Si Si2 0.062169 0.581870 0.900748
Si Si3 0.060190 0.228710 0.396175
Si Si4 0.439552 0.924704 0.395740
Si Si5 0.061699 0.365709 0.286848
O O1 0.250000 0.500000 0.602681
O O2 0.500000 0.500000 0.500000
O O3 0.496730 0.568721 0.655847
O O4 0.250000 0.584676 0.899719
O O5 0.014786 0.500000 0.887486
O O6 0.994904 0.625572 0.816798
O O7 0.000000 0.603733 0.000000
O O8 0.250000 0.229838 0.399342
O O9 0.010508 0.151629 0.359557
O O10 0.008317 0.293469 0.334070
O O11 0.000000 0.236839 0.500000
O O12 0.500000 0.924978 0.500000
O O13 0.250000 0.924820 0.396160
O O14 0.490721 0.000000 0.354625
O O15 0.250000 0.368226 0.289250
#
# Coordination Sequence:
#
# PCOD9403626 Si02
#       5
#     4   8   8   8   8
#     4  12  24  36  47  62  85 118 158 192 222 260
#     4  10  20  34  52  71  89 111 142 183 227 273
#     4   9  18  29  42  63  89 120 153 184 219 257
#     4   8  13  23  39  58  82 112 146 181 215 253
#     4  11  21  33  48  66  90 118 149 186 224 265
#
# _framework density 15.117364
#
# number of rings (size 3 to 8) (size 9 to 14) (size 15 to 20)
#    0.000    2.222    1.111    3.000    0.000    4.444 
#    0.000    0.000    0.000    0.000    0.000    0.000 
#    0.000    0.889    0.000    1.556    0.000    2.667 
#
# Total GULP energy -200601.502260 kJ/mol
# GULP energy per Si atom -5572.263952 kJ/mol
# Density = 1.508296 g / cm^3
# Si number density = 15.117364 Si / 1000 Ang^3
#
#
#
# Elastic Constant Matrix: (Units=GPa)
#
#
# Indices 1 2 3 4 5 6 
#
# 1 32.4534 26.8494 22.5320 0.0000 0.0000 0.0000
# 2 26.8494 164.4853 70.2897 0.0000 0.0000 0.0000
# 3 22.5320 70.2897 98.1017 0.0000 0.0000 0.0000
# 4 0.0000 0.0000 0.0000 -6.0052 0.0000 0.0000
# 5 0.0000 0.0000 0.0000 0.0000 23.2712 0.0000
# 6 0.0000 0.0000 0.0000 0.0000 0.0000 8.1361
#
#
#
# Elastic Compliance Matrix: (Units=1/GPa)
#
#
# Indices 1 2 3 4 5 6 
#
# 1 0.038060 -0.003570 -0.006184 0.000000 0.000000 0.000000
# 2 -0.003570 0.009097 -0.005698 0.000000 0.000000 0.000000
# 3 -0.006184 -0.005698 0.015697 0.000000 0.000000 0.000000
# 4 0.000000 0.000000 0.000000 -0.166523 0.000000 0.000000
# 5 0.000000 0.000000 0.000000 0.000000 0.042972 0.000000
# 6 0.000000 0.000000 0.000000 0.000000 0.000000 0.122909
#
#
# Mechanical properties :
#
#
# Convention : Reuss Voigt Hill
#
# Bulk Modulus (GPa) = 31.29889 59.37584 45.33737
# Shear Modulus (GPa) = 48.18545 16.77171 32.47858
#
# Velocity S-wave (km/s) = 5.65185 3.33443 4.64014
# Velocity P-wave (km/s) = 7.95865 7.36114 7.66572
#
# Compressibility (1/GPa) = 0.03195002
#
# Stress axis : x y z
#
# Youngs Moduli (GPa) = 26.27409 109.92163 63.70821
#
# Poissons Ratio (x) = 0.39244 0.39395
# Poissons Ratio (y) = 0.09380 0.36303
# Poissons Ratio (z) = 0.16247 0.62636
#
# Static dielectric constant tensor:
#      x y z
#    x 1.507540 0.000000 0.000000 
#    y 0.000000 1.550090 0.000000 
#    z 0.000000 0.000000 1.464320 
# 
# From -- ./inp_files/20765.got.cif
#   From: 2010.05.17/outbox.cif.g08.bks.cpg/sg51_11_cif.got.tgz:20765.got - 2010.06.03 11:52:47.
