data_PCOD9403753
_publ_section_title
;
Structure prediction by ZEFSAII (Michael W. Deem and Ramdas Pophale) SiO2 
 PCOD9403753
Probable space group: P M M A
;
_chemical_formula_sum "Si O2"
_cell_formula_units_Z 56
_cell_length_a 8.987640
_cell_length_b 14.491456
_cell_length_c 26.599740
_cell_angle_alpha 90.000000
_cell_angle_beta 90.000000
_cell_angle_gamma 90.000000
_cell_volume 3464.456260
_symmetry_space_group_name_H-M "P M M A"
_symmetry_group_IT_number 51
_symmetry_cell_setting 'orthorhombic'
loop_
_space_group_symop_operation_xyz
x,y,z
1/2-x,-y,z
1/2+x,-y,-z
-x,y,-z
-x,-y,-z
1/2+x,y,-z
1/2-x,y,z
x,-y,z
loop_
_atom_site_type_symbol
_atom_site_label
_atom_site_fract_x
_atom_site_fract_y
_atom_site_fract_z
Si Si1 0.572023 0.894567 0.092301
Si Si2 0.574162 0.106096 0.797552
Si Si3 0.571173 0.607288 0.344719
Si Si4 0.072355 0.714199 0.050669
Si Si5 0.928464 0.280161 0.245399
Si Si6 0.072275 0.391191 0.153934
Si Si7 0.578498 0.387716 0.551198
O O1 0.750000 0.881779 0.092496
O O2 0.508170 0.884525 0.148810
O O3 0.493912 0.816060 0.059879
O O4 0.540024 0.000000 0.076014
O O5 0.750000 0.123886 0.804843
O O6 0.503785 0.180594 0.760583
O O7 0.556052 0.000000 0.780996
O O8 0.750000 0.609109 0.349238
O O9 0.527245 0.500000 0.336263
O O10 0.528594 0.668378 0.296874
O O11 0.501459 0.639838 0.397209
O O12 0.250000 0.718671 0.045659
O O13 0.036348 0.654470 0.100186
O O14 0.000000 0.675517 0.000000
O O15 0.750000 0.272251 0.243611
O O16 0.985036 0.340260 0.198230
O O17 0.250000 0.378823 0.162030
O O18 0.040306 0.500000 0.153674
O O19 0.500000 0.355852 0.500000
O O20 0.750000 0.359934 0.551572
O O21 0.572934 0.500000 0.550493
#
# Coordination Sequence:
#
# PCOD9403753 Si02
#       7
#     8   8   8   8   8   8   8
#     4  10  20  35  56  80 103 126 155 194 242 298
#     4  10  20  34  53  76 102 132 163 197 243 299
#     4   9  18  31  45  67 101 137 173 211 248 289
#     4  11  23  38  56  76 100 129 162 203 247 294
#     4  11  21  33  53  78 104 133 167 207 251 296
#     4  10  22  39  56  74  98 130 167 205 247 296
#     4   9  16  26  42  64  92 131 175 215 254 293
#
# _framework density 16.164154
#
# number of rings (size 3 to 8) (size 9 to 14) (size 15 to 20)
#    0.000    2.000    1.429    2.571    0.000    6.571 
#    0.000    1.429    0.000    0.000    0.000    0.000 
#    0.000    0.571    0.000    1.857    0.000    2.714 
#
# Total GULP energy -312580.752178 kJ/mol
# GULP energy per Si atom -5581.799146 kJ/mol
# Density = 1.612736 g / cm^3
# Si number density = 16.164154 Si / 1000 Ang^3
#
#
#
# Elastic Constant Matrix: (Units=GPa)
#
#
# Indices 1 2 3 4 5 6 
#
# 1 56.2716 34.6725 52.6231 0.0000 0.0000 0.0000
# 2 34.6725 71.5748 47.2728 0.0000 0.0000 0.0000
# 3 52.6231 47.2728 128.4214 0.0000 0.0000 0.0000
# 4 0.0000 0.0000 0.0000 13.5557 0.0000 0.0000
# 5 0.0000 0.0000 0.0000 0.0000 30.1345 0.0000
# 6 0.0000 0.0000 0.0000 0.0000 0.0000 21.7037
#
#
#
# Elastic Compliance Matrix: (Units=1/GPa)
#
#
# Indices 1 2 3 4 5 6 
#
# 1 0.032910 -0.009295 -0.010064 0.000000 0.000000 0.000000
# 2 -0.009295 0.021085 -0.003952 0.000000 0.000000 0.000000
# 3 -0.010064 -0.003952 0.013366 0.000000 0.000000 0.000000
# 4 0.000000 0.000000 0.000000 0.073770 0.000000 0.000000
# 5 0.000000 0.000000 0.000000 0.000000 0.033185 0.000000
# 6 0.000000 0.000000 0.000000 0.000000 0.000000 0.046075
#
#
# Mechanical properties :
#
#
# Convention : Reuss Voigt Hill
#
# Bulk Modulus (GPa) = 48.22331 58.37827 53.30079
# Shear Modulus (GPa) = 18.25320 21.19209 19.72265
#
# Velocity S-wave (km/s) = 3.36406 3.62478 3.49685
# Velocity P-wave (km/s) = 6.70727 7.32891 7.02497
#
# Compressibility (1/GPa) = 0.02073686
#
# Stress axis : x y z
#
# Youngs Moduli (GPa) = 30.38627 47.42752 74.81934
#
# Poissons Ratio (x) = 0.44086 0.75295
# Poissons Ratio (y) = 0.28246 0.29572
# Poissons Ratio (z) = 0.30579 0.18746
#
# Static dielectric constant tensor:
#      x y z
#    x 1.537990 0.000000 0.000000 
#    y 0.000000 1.538920 0.000000 
#    z 0.000000 0.000000 1.528880 
# 
# From -- ./inp_files/31971.got.cif
#   From: 2010.05.17/outbox.cif.g08.bks.cpg/sg51_16_cif.got.tgz:31971.got - 2010.06.03 11:52:47.
