data_PCOD9403883
_publ_section_title
;
Structure prediction by ZEFSAII (Michael W. Deem and Ramdas Pophale) SiO2 
 PCOD9403883
Probable space group: P M M A
;
_chemical_formula_sum "Si O2"
_cell_formula_units_Z 64
_cell_length_a 20.884590
_cell_length_b 7.711001
_cell_length_c 19.330449
_cell_angle_alpha 90.000000
_cell_angle_beta 90.000000
_cell_angle_gamma 90.000000
_cell_volume 3112.996662
_symmetry_space_group_name_H-M "P M M A"
_symmetry_group_IT_number 51
_symmetry_cell_setting 'orthorhombic'
loop_
_space_group_symop_operation_xyz
x,y,z
1/2-x,-y,z
1/2+x,-y,-z
-x,y,-z
-x,-y,-z
1/2+x,y,-z
1/2-x,y,z
x,-y,z
loop_
_atom_site_type_symbol
_atom_site_label
_atom_site_fract_x
_atom_site_fract_y
_atom_site_fract_z
Si Si1 0.822156 0.207190 0.045859
Si Si2 0.440634 0.793203 0.703259
Si Si3 0.057409 0.793755 0.547333
Si Si4 0.322585 0.706969 0.454878
Si Si5 0.177513 0.707005 0.797551
Si Si6 0.677729 0.207998 0.703380
Si Si7 0.439262 0.212450 0.045615
Si Si8 0.440507 0.212894 0.204699
O O1 0.750000 0.277838 0.037616
O O2 0.842628 0.238155 0.125132
O O3 0.818715 0.000000 0.036477
O O4 0.874546 0.272756 0.992127
O O5 0.442084 0.722456 0.625264
O O6 0.373346 0.764019 0.740963
O O7 0.498226 0.727090 0.751384
O O8 0.449826 0.000000 0.698870
O O9 0.124628 0.770081 0.508510
O O10 0.000000 0.721589 0.500000
O O11 0.046390 0.000000 0.553226
O O12 0.250000 0.773390 0.467133
O O13 0.320730 0.500000 0.459329
O O14 0.340582 0.754870 0.376116
O O15 0.250000 0.773891 0.786039
O O16 0.179900 0.500000 0.796558
O O17 0.750000 0.276094 0.714466
O O18 0.624073 0.270614 0.756427
O O19 0.680374 0.000000 0.710627
O O20 0.443475 0.268020 0.125081
O O21 0.438864 0.000000 0.045539
O O22 0.500000 0.266448 0.000000
O O23 0.440680 0.000000 0.204617
#
# Coordination Sequence:
#
# PCOD9403883 Si02
#       8
#     8   8   8   8   8   8   8   8
#     4   9  17  30  50  75 101 130 166 206 246 293
#     4  10  20  34  54  77 101 132 169 209 251 298
#     4  10  21  37  57  80 105 134 171 214 258 306
#     4  10  21  36  54  77 106 139 173 210 254 306
#     4  10  21  36  53  73 100 134 169 208 255 304
#     4   9  17  31  53  78 104 136 172 210 252 299
#     4   9  16  26  45  73 101 129 162 203 250 295
#     4   9  17  30  50  77 106 134 168 210 254 299
#
# _framework density 20.558969000000001
#
# number of rings (size 3 to 8) (size 9 to 14) (size 15 to 20)
#    0.000    2.500    0.000    2.250    0.000    7.250 
#    0.000    6.875    0.000    4.125    0.000    3.500 
#    0.000    0.000    0.000    0.000    0.000    0.000 
#
# Total GULP energy -357344.812982 kJ/mol
# GULP energy per Si atom -5583.512703 kJ/mol
# Density = 2.051218 g / cm^3
# Si number density = 20.558969 Si / 1000 Ang^3
#
#
#
# Elastic Constant Matrix: (Units=GPa)
#
#
# Indices 1 2 3 4 5 6 
#
# 1 129.5290 1.3861 134.6899 0.0000 0.0000 0.0000
# 2 1.3861 32.5474 1.8415 0.0000 0.0000 0.0000
# 3 134.6899 1.8415 217.6449 0.0000 0.0000 0.0000
# 4 0.0000 0.0000 0.0000 -25.7862 0.0000 0.0000
# 5 0.0000 0.0000 0.0000 0.0000 41.2442 0.0000
# 6 0.0000 0.0000 0.0000 0.0000 0.0000 -2.1603
#
#
#
# Elastic Compliance Matrix: (Units=1/GPa)
#
#
# Indices 1 2 3 4 5 6 
#
# 1 0.021657 -0.000164 -0.013401 0.000000 0.000000 0.000000
# 2 -0.000164 0.030740 -0.000159 0.000000 0.000000 0.000000
# 3 -0.013401 -0.000159 0.012889 0.000000 0.000000 0.000000
# 4 0.000000 0.000000 0.000000 -0.038780 0.000000 0.000000
# 5 0.000000 0.000000 0.000000 0.000000 0.024246 0.000000
# 6 0.000000 0.000000 0.000000 0.000000 0.000000 -0.462898
#
#
# Mechanical properties :
#
#
# Convention : Reuss Voigt Hill
#
# Bulk Modulus (GPa) = 26.42763 72.83959 49.63361
# Shear Modulus (GPa) = -13.43778 18.77979 2.67101
#
# Velocity S-wave (km/s) = -2.55938 3.02563 1.14106
# Velocity P-wave (km/s) = 2.03681 6.90742 5.09220
#
# Compressibility (1/GPa) = 0.03783919
#
# Stress axis : x y z
#
# Youngs Moduli (GPa) = 46.17408 32.53054 77.58359
#
# Poissons Ratio (x) = 0.00534 1.03971
# Poissons Ratio (y) = 0.00758 0.01230
# Poissons Ratio (z) = 0.61879 0.00516
#
# Static dielectric constant tensor:
#      x y z
#    x 1.856470 0.000000 0.000000 
#    y 0.000000 1.747790 0.000000 
#    z 0.000000 0.000000 1.695150 
# 
# From -- ./inp_files/30569.got.cif
#   From: 2010.05.17/outbox.cif.g08.bks.cpg/sg51_16_cif.got.tgz:30569.got - 2010.06.03 11:52:47.
