data_PCOD9403208
_publ_section_title
;
Structure prediction by ZEFSAII (Michael W. Deem and Ramdas Pophale) SiO2 
 PCOD9403208
Probable space group: P M M A
;
_chemical_formula_sum "Si O2"
_cell_formula_units_Z 48
_cell_length_a 8.748908
_cell_length_b 24.324884
_cell_length_c 14.138432
_cell_angle_alpha 90.000000
_cell_angle_beta 90.000000
_cell_angle_gamma 90.000000
_cell_volume 3008.886980
_symmetry_space_group_name_H-M "P M M A"
_symmetry_group_IT_number 51
_symmetry_cell_setting 'orthorhombic'
loop_
_space_group_symop_operation_xyz
x,y,z
1/2-x,-y,z
1/2+x,-y,-z
-x,y,-z
-x,-y,-z
1/2+x,y,-z
1/2-x,y,z
x,-y,z
loop_
_atom_site_type_symbol
_atom_site_label
_atom_site_fract_x
_atom_site_fract_y
_atom_site_fract_z
Si Si1 0.067449 0.270576 0.603404
Si Si2 0.067221 0.063689 0.604222
Si Si3 0.933761 0.834786 0.709563
Si Si4 0.565686 0.437290 0.896527
Si Si5 0.065207 0.666855 0.222553
Si Si6 0.067104 0.226155 0.103024
O O1 0.250000 0.268329 0.600126
O O2 0.000000 0.281223 0.500000
O O3 0.002395 0.212505 0.642026
O O4 0.011540 0.315619 0.679486
O O5 0.250000 0.069949 0.601442
O O6 0.000000 0.075116 0.500000
O O7 0.995571 0.106724 0.676614
O O8 0.031524 0.000000 0.626946
O O9 0.750000 0.832850 0.702458
O O10 0.977935 0.817769 0.816434
O O11 0.750000 0.435715 0.902452
O O12 0.519582 0.500000 0.873333
O O13 0.519368 0.391812 0.820081
O O14 0.500000 0.423861 0.000000
O O15 0.250000 0.668410 0.234256
O O16 0.024296 0.714333 0.146458
O O17 0.250000 0.225176 0.095902
O O18 0.000000 0.217103 0.000000
#
# Coordination Sequence:
#
# PCOD9403208 Si02
#       6
#     8   8   8   8   8   8
#     4  11  21  33  50  71  95 124 157 194 238 284
#     4  10  20  33  50  73  99 127 159 195 235 279
#     4  10  20  34  50  71  99 128 158 193 235 280
#     4   9  17  29  47  71  99 130 161 196 238 282
#     4   9  18  32  47  68  98 127 158 195 236 281
#     4   9  18  30  46  68  94 124 155 192 234 276
#
# _framework density 15.952743
#
# number of rings (size 3 to 8) (size 9 to 14) (size 15 to 20)
#    0.000    2.333    0.000    4.500    0.000    5.000 
#    0.000    0.000    0.000    1.000    0.000    0.000 
#    0.000    0.000    0.000    0.000    0.000    0.000 
#
# Total GULP energy -267780.916009 kJ/mol
# GULP energy per Si atom -5578.769084 kJ/mol
# Density = 1.591643 g / cm^3
# Si number density = 15.952743 Si / 1000 Ang^3
#
#
#
# Elastic Constant Matrix: (Units=GPa)
#
#
# Indices 1 2 3 4 5 6 
#
# 1 55.6980 44.2769 51.5493 0.0000 0.0000 0.0000
# 2 44.2769 106.2998 86.9861 0.0000 0.0000 0.0000
# 3 51.5493 86.9861 151.4173 0.0000 0.0000 0.0000
# 4 0.0000 0.0000 0.0000 22.8745 0.0000 0.0000
# 5 0.0000 0.0000 0.0000 0.0000 31.1578 0.0000
# 6 0.0000 0.0000 0.0000 0.0000 0.0000 22.3340
#
#
#
# Elastic Compliance Matrix: (Units=1/GPa)
#
#
# Indices 1 2 3 4 5 6 
#
# 1 0.029128 -0.007582 -0.005561 0.000000 0.000000 0.000000
# 2 -0.007582 0.019727 -0.008751 0.000000 0.000000 0.000000
# 3 -0.005561 -0.008751 0.013525 0.000000 0.000000 0.000000
# 4 0.000000 0.000000 0.000000 0.043717 0.000000 0.000000
# 5 0.000000 0.000000 0.000000 0.000000 0.032095 0.000000
# 6 0.000000 0.000000 0.000000 0.000000 0.000000 0.044775
#
#
# Mechanical properties :
#
#
# Convention : Reuss Voigt Hill
#
# Bulk Modulus (GPa) = 53.78909 75.44886 64.61897
# Shear Modulus (GPa) = 21.46372 23.98013 22.72193
#
# Velocity S-wave (km/s) = 3.67203 3.88132 3.77812
# Velocity P-wave (km/s) = 7.19509 8.21487 7.72183
#
# Compressibility (1/GPa) = 0.01859113
#
# Stress axis : x y z
#
# Youngs Moduli (GPa) = 34.33141 50.69220 73.93836
#
# Poissons Ratio (x) = 0.38436 0.41114
# Poissons Ratio (y) = 0.26031 0.64706
# Poissons Ratio (z) = 0.19090 0.44362
#
# Static dielectric constant tensor:
#      x y z
#    x 1.533690 0.000000 0.000000 
#    y 0.000000 1.534900 0.000000 
#    z 0.000000 0.000000 1.509390 
# 
# From -- ./inp_files/14400.got.cif
#   From: 2010.05.17/outbox.cif.g08.bks.cpg/sg51_8_cif.got.tgz:14400.got - 2010.06.03 11:52:47.
