data_PCOD9403994
_publ_section_title
;
Structure prediction by ZEFSAII (Michael W. Deem and Ramdas Pophale) SiO2 
 PCOD9403994
Probable space group: P M M A
;
_chemical_formula_sum "Si O2"
_cell_formula_units_Z 56
_cell_length_a 14.945506
_cell_length_b 7.653429
_cell_length_c 23.159291
_cell_angle_alpha 90.000000
_cell_angle_beta 90.000000
_cell_angle_gamma 90.000000
_cell_volume 2649.060888
_symmetry_space_group_name_H-M "P M M A"
_symmetry_group_IT_number 51
_symmetry_cell_setting 'orthorhombic'
loop_
_space_group_symop_operation_xyz
x,y,z
1/2-x,-y,z
1/2+x,-y,-z
-x,y,-z
-x,-y,-z
1/2+x,y,-z
1/2-x,y,z
x,-y,z
loop_
_atom_site_type_symbol
_atom_site_label
_atom_site_fract_x
_atom_site_fract_y
_atom_site_fract_z
Si Si1 0.004704 0.799728 0.286229
Si Si2 0.936996 0.207150 0.165705
Si Si3 0.750000 0.291194 0.978465
Si Si4 0.250000 0.211624 0.885372
Si Si5 0.641349 0.798079 0.497663
Si Si6 0.147555 0.297890 0.629633
Si Si7 0.353788 0.214626 0.376543
Si Si8 0.056249 0.288213 0.056102
O O1 0.976231 0.718719 0.225301
O O2 0.918960 0.799337 0.328062
O O3 0.084368 0.721404 0.324625
O O4 0.032289 0.000000 0.274313
O O5 0.840515 0.276861 0.145229
O O6 0.006358 0.230493 0.113687
O O7 0.923334 0.000000 0.175417
O O8 0.750000 0.500000 0.970342
O O9 0.842151 0.224369 0.951111
O O10 0.750000 0.259422 0.047142
O O11 0.250000 0.000000 0.883254
O O12 0.750000 0.793239 0.500805
O O13 0.617281 0.712576 0.437122
O O14 0.612388 0.727130 0.559986
O O15 0.613570 0.000000 0.493327
O O16 0.250000 0.231519 0.632346
O O17 0.147769 0.500000 0.647003
O O18 0.250000 0.263316 0.369213
O O19 0.356957 0.000000 0.378383
O O20 0.056765 0.500000 0.055832
O O21 0.000000 0.231102 0.000000
#
# Coordination Sequence:
#
# PCOD9403994 Si02
#       8
#     8   8   4   4   8   8   8   8
#     4  10  21  36  55  78 105 142 181 217 259 312
#     4  10  22  37  54  81 113 144 178 217 264 315
#     4  10  20  36  58  86 110 138 179 218 263 312
#     4  10  20  34  54  80 112 144 173 214 265 316
#     4   8  14  28  52  77  99 130 172 219 269 317
#     4  10  21  35  50  74 108 141 174 218 269 319
#     4   8  15  31  55  79 102 131 175 225 266 311
#     4  10  20  36  59  83 110 142 178 221 262 308
#
# _framework density 21.139565999999999
#
# number of rings (size 3 to 8) (size 9 to 14) (size 15 to 20)
#    0.000    2.571    1.429    1.286    1.000    2.857 
#    1.286    3.571    0.000    1.286    0.000    0.000 
#    0.000    0.000    0.000    0.000    0.000    0.000 
#
# Total GULP energy -312570.479705 kJ/mol
# GULP energy per Si atom -5581.615709 kJ/mol
# Density = 2.109145 g / cm^3
# Si number density = 21.139566 Si / 1000 Ang^3
#
#
#
# Elastic Constant Matrix: (Units=GPa)
#
#
# Indices 1 2 3 4 5 6 
#
# 1 105.5755 -3.8932 65.2611 0.0000 0.0000 0.0000
# 2 -3.8932 35.7923 -8.0101 0.0000 0.0000 0.0000
# 3 65.2611 -8.0101 162.3203 0.0000 0.0000 0.0000
# 4 0.0000 0.0000 0.0000 36.4223 0.0000 0.0000
# 5 0.0000 0.0000 0.0000 0.0000 26.4536 0.0000
# 6 0.0000 0.0000 0.0000 0.0000 0.0000 -11.1433
#
#
#
# Elastic Compliance Matrix: (Units=1/GPa)
#
#
# Indices 1 2 3 4 5 6 
#
# 1 0.012606 0.000240 -0.005057 0.000000 0.000000 0.000000
# 2 0.000240 0.028256 0.001298 0.000000 0.000000 0.000000
# 3 -0.005057 0.001298 0.008258 0.000000 0.000000 0.000000
# 4 0.000000 0.000000 0.000000 0.027456 0.000000 0.000000
# 5 0.000000 0.000000 0.000000 0.000000 0.037802 0.000000
# 6 0.000000 0.000000 0.000000 0.000000 0.000000 -0.089740
#
#
# Mechanical properties :
#
#
# Convention : Reuss Voigt Hill
#
# Bulk Modulus (GPa) = 23.76333 45.60041 34.68187
# Shear Modulus (GPa) = 109.40294 27.03520 68.21907
#
# Velocity S-wave (km/s) = 7.20174 3.58004 5.68690
# Velocity P-wave (km/s) = 8.96766 6.22148 7.71770
#
# Compressibility (1/GPa) = 0.04208164
#
# Stress axis : x y z
#
# Youngs Moduli (GPa) = 79.32444 35.39134 121.09861
#
# Poissons Ratio (x) = -0.00848 0.61235
# Poissons Ratio (y) = -0.01900 -0.15719
# Poissons Ratio (z) = 0.40111 -0.04594
#
# Static dielectric constant tensor:
#      x y z
#    x 1.769120 0.000000 0.000000 
#    y 0.000000 1.820350 0.000000 
#    z 0.000000 0.000000 1.735500 
# 
# From -- ./inp_files/33556.got.cif
#   From: 2010.05.17/outbox.cif.g08.bks.cpg/sg51_17_cif.got.tgz:33556.got - 2010.06.03 11:52:47.
