data_PCOD9403923
_publ_section_title
;
Structure prediction by ZEFSAII (Michael W. Deem and Ramdas Pophale) SiO2 
 PCOD9403923
Probable space group: P M M A
;
_chemical_formula_sum "Si O2"
_cell_formula_units_Z 48
_cell_length_a 9.127577
_cell_length_b 9.261384
_cell_length_c 32.041357
_cell_angle_alpha 90.000000
_cell_angle_beta 90.000000
_cell_angle_gamma 90.000000
_cell_volume 2708.583931
_symmetry_space_group_name_H-M "P M M A"
_symmetry_group_IT_number 51
_symmetry_cell_setting 'orthorhombic'
loop_
_space_group_symop_operation_xyz
x,y,z
1/2-x,-y,z
1/2+x,-y,-z
-x,y,-z
-x,-y,-z
1/2+x,y,-z
1/2-x,y,z
x,-y,z
loop_
_atom_site_type_symbol
_atom_site_label
_atom_site_fract_x
_atom_site_fract_y
_atom_site_fract_z
Si Si1 0.081247 0.176066 0.958012
Si Si2 0.573560 0.669200 0.372345
Si Si3 0.571528 0.333914 0.788919
Si Si4 0.574392 0.169398 0.456846
Si Si5 0.074437 0.170892 0.127341
Si Si6 0.573226 0.830895 0.704877
O O1 0.250000 0.220690 0.958310
O O2 0.001786 0.220007 0.915337
O O3 0.077418 0.000000 0.958421
O O4 0.000000 0.224941 0.000000
O O5 0.750000 0.683586 0.368987
O O6 0.536903 0.500000 0.371029
O O7 0.529380 0.739009 0.416582
O O8 0.498727 0.752596 0.334400
O O9 0.750000 0.332519 0.789222
O O10 0.523912 0.500000 0.786723
O O11 0.525258 0.257778 0.831844
O O12 0.526331 0.245758 0.747927
O O13 0.500000 0.215913 0.500000
O O14 0.750000 0.180466 0.461193
O O15 0.538271 0.000000 0.450010
O O16 0.250000 0.186643 0.122866
O O17 0.044953 0.000000 0.133409
O O18 0.750000 0.819149 0.701990
O O19 0.535595 0.000000 0.705582
#
# Coordination Sequence:
#
# PCOD9403923 Si02
#       6
#     8   8   8   8   8   8
#     4   9  16  26  42  66  95 124 155 194 239 284
#     4  10  21  36  53  75 105 139 172 207 252 305
#     4   9  17  30  49  72  98 128 162 201 245 292
#     4   9  18  33  52  73  99 132 170 211 253 298
#     4   9  16  27  45  68  93 122 157 196 238 285
#     4  10  20  34  54  79 104 132 170 213 253 297
#
# _framework density 17.721437000000002
#
# number of rings (size 3 to 8) (size 9 to 14) (size 15 to 20)
#    0.000    2.667    0.000    2.000    0.000    7.000 
#    0.000    2.500    0.000    4.000    0.000    0.000 
#    0.000    0.000    0.000    0.000    0.000    0.000 
#
# Total GULP energy -267733.715359 kJ/mol
# GULP energy per Si atom -5577.785737 kJ/mol
# Density = 1.768110 g / cm^3
# Si number density = 17.721437 Si / 1000 Ang^3
#
#
#
# Elastic Constant Matrix: (Units=GPa)
#
#
# Indices 1 2 3 4 5 6 
#
# 1 26.8112 42.7210 59.0601 0.0000 0.0000 0.0000
# 2 42.7210 110.2739 110.6090 0.0000 0.0000 0.0000
# 3 59.0601 110.6090 227.8577 0.0000 0.0000 0.0000
# 4 0.0000 0.0000 0.0000 -6.9868 0.0000 0.0000
# 5 0.0000 0.0000 0.0000 0.0000 33.5190 0.0000
# 6 0.0000 0.0000 0.0000 0.0000 0.0000 15.7230
#
#
#
# Elastic Compliance Matrix: (Units=1/GPa)
#
#
# Indices 1 2 3 4 5 6 
#
# 1 0.124790 -0.030991 -0.017302 0.000000 0.000000 0.000000
# 2 -0.030991 0.025370 -0.004283 0.000000 0.000000 0.000000
# 3 -0.017302 -0.004283 0.010952 0.000000 0.000000 0.000000
# 4 0.000000 0.000000 0.000000 -0.143127 0.000000 0.000000
# 5 0.000000 0.000000 0.000000 0.000000 0.029834 0.000000
# 6 0.000000 0.000000 0.000000 0.000000 0.000000 0.063601
#
#
# Mechanical properties :
#
#
# Convention : Reuss Voigt Hill
#
# Bulk Modulus (GPa) = 17.86903 87.74700 52.80801
# Shear Modulus (GPa) = 21.25630 18.62122 19.93876
#
# Velocity S-wave (km/s) = 3.46709 3.24508 3.35792
# Velocity P-wave (km/s) = 5.11203 7.97890 6.70058
#
# Compressibility (1/GPa) = 0.05596275
#
# Stress axis : x y z
#
# Youngs Moduli (GPa) = 8.01345 39.41651 91.30620
#
# Poissons Ratio (x) = 1.22154 1.57974
# Poissons Ratio (y) = 0.24834 0.39104
# Poissons Ratio (z) = 0.13864 0.16881
#
# Static dielectric constant tensor:
#      x y z
#    x 1.596680 0.000000 0.000000 
#    y 0.000000 1.591930 0.000000 
#    z 0.000000 0.000000 1.579180 
# 
# From -- ./inp_files/36952.got.cif
#   From: 2010.05.17/outbox.cif.g08.bks.cpg/sg51_19_cif.got.tgz:36952.got - 2010.06.03 11:52:47.
