data_PCOD9403391
_publ_section_title
;
Structure prediction by ZEFSAII (Michael W. Deem and Ramdas Pophale) SiO2 
 PCOD9403391
Probable space group: P M M A
;
_chemical_formula_sum "Si O2"
_cell_formula_units_Z 64
_cell_length_a 20.041078
_cell_length_b 7.849155
_cell_length_c 21.226007
_cell_angle_alpha 90.000000
_cell_angle_beta 90.000000
_cell_angle_gamma 90.000000
_cell_volume 3338.968230
_symmetry_space_group_name_H-M "P M M A"
_symmetry_group_IT_number 51
_symmetry_cell_setting 'orthorhombic'
loop_
_space_group_symop_operation_xyz
x,y,z
1/2-x,-y,z
1/2+x,-y,-z
-x,y,-z
-x,-y,-z
1/2+x,y,-z
1/2-x,y,z
x,-y,z
loop_
_atom_site_type_symbol
_atom_site_label
_atom_site_fract_x
_atom_site_fract_y
_atom_site_fract_z
Si Si1 0.462361 0.291158 0.062900
Si Si2 0.675786 0.292012 0.239022
Si Si3 0.175489 0.294945 0.115126
Si Si4 0.461751 0.801927 0.559654
Si Si5 0.823478 0.296648 0.383625
Si Si6 0.537686 0.299845 0.684146
Si Si7 0.537057 0.708331 0.189368
Si Si8 0.825504 0.203998 0.738806
O O1 0.461939 0.500000 0.062178
O O2 0.385737 0.234830 0.072229
O O3 0.502165 0.236339 0.125309
O O4 0.500000 0.234910 0.000000
O O5 0.750000 0.237683 0.219598
O O6 0.675443 0.500000 0.239029
O O7 0.664750 0.236355 0.311588
O O8 0.613683 0.237427 0.197022
O O9 0.250000 0.229031 0.100684
O O10 0.177469 0.500000 0.110104
O O11 0.160994 0.254476 0.188463
O O12 0.500000 0.722004 0.500000
O O13 0.387445 0.738461 0.574232
O O14 0.506635 0.781260 0.622052
O O15 0.452985 0.000000 0.546320
O O16 0.750000 0.232931 0.404224
O O17 0.818904 0.500000 0.379316
O O18 0.522420 0.500000 0.679378
O O19 0.502392 0.235134 0.748113
O O20 0.616338 0.274659 0.694709
O O21 0.534963 0.500000 0.189297
O O22 0.750000 0.262864 0.723991
O O23 0.826820 0.000000 0.734885
#
# Coordination Sequence:
#
# PCOD9403391 Si02
#       8
#     8   8   8   8   8   8   8   8
#     4   9  16  26  41  66 101 137 171 214 264 310
#     4   8  13  23  42  69  98 124 157 208 261 303
#     4   9  16  28  47  70  96 131 177 220 258 310
#     4  11  24  39  54  78 113 148 179 214 264 323
#     4   9  17  32  56  82 105 133 175 224 267 311
#     4  11  20  34  57  80 102 132 176 224 265 308
#     4   9  15  25  44  71  97 127 168 211 260 305
#     4  10  20  33  51  78 109 137 169 216 274 328
#
# _framework density 19.167598999999999
#
# number of rings (size 3 to 8) (size 9 to 14) (size 15 to 20)
#    0.000    2.500    2.500    1.875    0.000    2.000 
#    0.000    1.250    0.000    4.875    0.000    0.000 
#    0.000    0.000    0.000    0.000    0.000    0.000 
#
# Total GULP energy -356882.401596 kJ/mol
# GULP energy per Si atom -5576.287525 kJ/mol
# Density = 1.912397 g / cm^3
# Si number density = 19.167599 Si / 1000 Ang^3
#
#
#
# Elastic Constant Matrix: (Units=GPa)
#
#
# Indices 1 2 3 4 5 6 
#
# 1 173.1507 -2.0287 74.4672 0.0000 0.0000 0.0000
# 2 -2.0287 16.8547 -4.6917 0.0000 0.0000 0.0000
# 3 74.4672 -4.6917 98.5186 0.0000 0.0000 0.0000
# 4 0.0000 0.0000 0.0000 27.0424 0.0000 0.0000
# 5 0.0000 0.0000 0.0000 0.0000 27.9105 0.0000
# 6 0.0000 0.0000 0.0000 0.0000 0.0000 -21.7845
#
#
#
# Elastic Compliance Matrix: (Units=1/GPa)
#
#
# Indices 1 2 3 4 5 6 
#
# 1 0.008567 -0.000782 -0.006513 0.000000 0.000000 0.000000
# 2 -0.000782 0.060199 0.003458 0.000000 0.000000 0.000000
# 3 -0.006513 0.003458 0.015238 0.000000 0.000000 0.000000
# 4 0.000000 0.000000 0.000000 0.036979 0.000000 0.000000
# 5 0.000000 0.000000 0.000000 0.000000 0.035829 0.000000
# 6 0.000000 0.000000 0.000000 0.000000 0.000000 -0.045904
#
#
# Mechanical properties :
#
#
# Convention : Reuss Voigt Hill
#
# Bulk Modulus (GPa) = 13.10097 47.11306 30.10702
# Shear Modulus (GPa) = 34.71619 21.35215 28.03417
#
# Velocity S-wave (km/s) = 4.26043 3.34124 3.82852
# Velocity P-wave (km/s) = 5.57238 6.28634 5.94010
#
# Compressibility (1/GPa) = 0.07633025
#
# Stress axis : x y z
#
# Youngs Moduli (GPa) = 116.72475 16.61157 65.62575
#
# Poissons Ratio (x) = 0.01299 0.42741
# Poissons Ratio (y) = 0.09125 -0.22691
# Poissons Ratio (z) = 0.76021 -0.05744
#
# Static dielectric constant tensor:
#      x y z
#    x 1.712650 0.000000 0.000000 
#    y 0.000000 1.693890 0.000000 
#    z 0.000000 0.000000 1.640660 
# 
# From -- ./inp_files/35929.got.cif
#   From: 2010.05.17/outbox.cif.g08.bks.cpg/sg51_18_cif.got.tgz:35929.got - 2010.06.03 11:52:47.
