data_PCOD9403158
_publ_section_title
;
Structure prediction by ZEFSAII (Michael W. Deem and Ramdas Pophale) SiO2 
 PCOD9403158
Probable space group: P M M A
;
_chemical_formula_sum "Si O2"
_cell_formula_units_Z 52
_cell_length_a 8.973195
_cell_length_b 15.565048
_cell_length_c 23.870967
_cell_angle_alpha 90.000000
_cell_angle_beta 90.000000
_cell_angle_gamma 90.000000
_cell_volume 3334.015253
_symmetry_space_group_name_H-M "P M M A"
_symmetry_group_IT_number 51
_symmetry_cell_setting 'orthorhombic'
loop_
_space_group_symop_operation_xyz
x,y,z
1/2-x,-y,z
1/2+x,-y,-z
-x,y,-z
-x,-y,-z
1/2+x,y,-z
1/2-x,y,z
x,-y,z
loop_
_atom_site_type_symbol
_atom_site_label
_atom_site_fract_x
_atom_site_fract_y
_atom_site_fract_z
Si Si1 0.426150 0.166815 0.888844
Si Si2 0.425181 0.350115 0.941008
Si Si3 0.429235 0.773029 0.226873
Si Si4 0.568762 0.100926 0.318329
Si Si5 0.071556 0.404133 0.176362
Si Si6 0.427263 0.000000 0.060388
Si Si7 0.080083 0.104201 0.556036
O O1 0.250000 0.150380 0.881754
O O2 0.441661 0.247407 0.930941
O O3 0.501249 0.191700 0.830511
O O4 0.511489 0.084249 0.909973
O O5 0.250000 0.370699 0.942688
O O6 0.496656 0.389215 0.884491
O O7 0.500000 0.374819 0.000000
O O8 0.250000 0.781645 0.228011
O O9 0.499439 0.830263 0.276059
O O10 0.466775 0.671245 0.220539
O O11 0.750000 0.104828 0.316581
O O12 0.518879 0.122807 0.381992
O O13 0.529635 0.000000 0.306397
O O14 0.250000 0.398694 0.167725
O O15 0.033961 0.500000 0.196001
O O16 0.250000 0.000000 0.057625
O O17 0.500000 0.000000 0.000000
O O18 0.250000 0.134140 0.554471
O O19 0.000000 0.135368 0.500000
O O20 0.081707 0.000000 0.553548
#
# Coordination Sequence:
#
# PCOD9403158 Si02
#       7
#     8   8   8   8   8   4   8
#     4  10  21  36  51  66  88 120 152 188 235 279
#     4  10  20  33  51  72  92 115 144 180 227 283
#     4  10  20  33  50  72  95 120 156 199 235 275
#     4   9  18  31  46  66  97 136 168 194 229 276
#     4   9  19  36  54  70  91 119 149 187 238 288
#     4  12  24  36  50  68  88 114 153 194 231 276
#     4   8  14  25  41  62  90 126 165 199 231 265
#
# _framework density 15.596809
#
# number of rings (size 3 to 8) (size 9 to 14) (size 15 to 20)
#    0.000    2.462    0.000    3.462    1.077    5.231 
#    0.000    1.538    0.000    0.000    0.000    0.000 
#    0.000    0.615    0.000    1.385    0.000    2.154 
#
# Total GULP energy -289718.366731 kJ/mol
# GULP energy per Si atom -5571.507053 kJ/mol
# Density = 1.556131 g / cm^3
# Si number density = 15.596809 Si / 1000 Ang^3
#
#
#
# Elastic Constant Matrix: (Units=GPa)
#
#
# Indices 1 2 3 4 5 6 
#
# 1 47.4352 44.9344 35.8936 0.0000 0.0000 0.0000
# 2 44.9344 102.9268 52.6542 0.0000 0.0000 0.0000
# 3 35.8936 52.6542 105.4701 0.0000 0.0000 0.0000
# 4 0.0000 0.0000 0.0000 7.7728 0.0000 0.0000
# 5 0.0000 0.0000 0.0000 0.0000 27.3089 0.0000
# 6 0.0000 0.0000 0.0000 0.0000 0.0000 14.8493
#
#
#
# Elastic Compliance Matrix: (Units=1/GPa)
#
#
# Indices 1 2 3 4 5 6 
#
# 1 0.038915 -0.013717 -0.006395 0.000000 0.000000 0.000000
# 2 -0.013717 0.017883 -0.004260 0.000000 0.000000 0.000000
# 3 -0.006395 -0.004260 0.013784 0.000000 0.000000 0.000000
# 4 0.000000 0.000000 0.000000 0.128654 0.000000 0.000000
# 5 0.000000 0.000000 0.000000 0.000000 0.036618 0.000000
# 6 0.000000 0.000000 0.000000 0.000000 0.000000 0.067343
#
#
# Mechanical properties :
#
#
# Convention : Reuss Voigt Hill
#
# Bulk Modulus (GPa) = 45.79205 58.08850 51.94027
# Shear Modulus (GPa) = 13.91901 18.14285 16.03093
#
# Velocity S-wave (km/s) = 2.99059 3.41433 3.20946
# Velocity P-wave (km/s) = 6.43028 7.27106 6.86355
#
# Compressibility (1/GPa) = 0.02183785
#
# Stress axis : x y z
#
# Youngs Moduli (GPa) = 25.69730 55.91836 72.54566
#
# Poissons Ratio (x) = 0.76704 0.46396
# Poissons Ratio (y) = 0.35249 0.30902
# Poissons Ratio (z) = 0.16434 0.23819
#
# Static dielectric constant tensor:
#      x y z
#    x 1.523410 0.000000 0.000000 
#    y 0.000000 1.513750 0.000000 
#    z 0.000000 0.000000 1.504370 
# 
# From -- ./inp_files/31733.got.cif
#   From: 2010.05.17/outbox.cif.g08.bks.cpg/sg51_16_cif.got.tgz:31733.got - 2010.06.03 11:52:47.
