data_PCOD9403287
_publ_section_title
;
Structure prediction by ZEFSAII (Michael W. Deem and Ramdas Pophale) SiO2 
 PCOD9403287
Probable space group: P M M A
;
_chemical_formula_sum "Si O2"
_cell_formula_units_Z 40
_cell_length_a 9.456945
_cell_length_b 9.240049
_cell_length_c 26.768717
_cell_angle_alpha 90.000000
_cell_angle_beta 90.000000
_cell_angle_gamma 90.000000
_cell_volume 2339.121032
_symmetry_space_group_name_H-M "P M M A"
_symmetry_group_IT_number 51
_symmetry_cell_setting 'orthorhombic'
loop_
_space_group_symop_operation_xyz
x,y,z
1/2-x,-y,z
1/2+x,-y,-z
-x,y,-z
-x,-y,-z
1/2+x,y,-z
1/2-x,y,z
x,-y,z
loop_
_atom_site_type_symbol
_atom_site_label
_atom_site_fract_x
_atom_site_fract_y
_atom_site_fract_z
Si Si1 0.577852 0.832815 0.157969
Si Si2 0.581711 0.671116 0.550002
Si Si3 0.419698 0.670600 0.741532
Si Si4 0.918911 0.171263 0.652406
Si Si5 0.086966 0.823416 0.951919
O O1 0.750000 0.833013 0.155834
O O2 0.535953 0.736859 0.205021
O O3 0.531070 0.780808 0.102984
O O4 0.533797 0.000000 0.165428
O O5 0.500000 0.715556 0.500000
O O6 0.750000 0.688825 0.542502
O O7 0.554215 0.500000 0.558455
O O8 0.540164 0.759706 0.599135
O O9 0.250000 0.691286 0.736914
O O10 0.448718 0.500000 0.739648
O O11 0.498234 0.751996 0.696980
O O12 0.750000 0.194453 0.658455
O O13 0.945589 0.000000 0.652625
O O14 0.250000 0.778197 0.956685
O O15 0.085527 0.000000 0.951381
O O16 0.000000 0.774803 0.000000
#
# Coordination Sequence:
#
# PCOD9403287 Si02
#       5
#     8   8   8   8   8
#     4   8  14  26  44  65  91 122 154 192 239 285
#     4   9  18  33  52  73  99 131 164 197 234 279
#     4  10  20  33  51  74  97 125 164 205 244 290
#     4  10  21  36  53  74 101 132 164 199 243 291
#     4   8  13  22  38  60  85 114 148 187 232 279
#
# _framework density 17.100439999999999
#
# number of rings (size 3 to 8) (size 9 to 14) (size 15 to 20)
#    0.000    3.000    0.000    2.400    0.000    3.600 
#    0.000    3.000    0.000    4.200    0.000    0.000 
#    0.000    0.000    0.000    0.000    0.000    0.000 
#
# Total GULP energy -222891.049400 kJ/mol
# GULP energy per Si atom -5572.276235 kJ/mol
# Density = 1.706152 g / cm^3
# Si number density = 17.100440 Si / 1000 Ang^3
#
#
#
# Elastic Constant Matrix: (Units=GPa)
#
#
# Indices 1 2 3 4 5 6 
#
# 1 28.9967 40.4044 66.8743 0.0000 0.0000 0.0000
# 2 40.4044 73.7024 92.5413 0.0000 0.0000 0.0000
# 3 66.8743 92.5413 219.9461 0.0000 0.0000 0.0000
# 4 0.0000 0.0000 0.0000 -59.7335 0.0000 0.0000
# 5 0.0000 0.0000 0.0000 0.0000 34.1503 0.0000
# 6 0.0000 0.0000 0.0000 0.0000 0.0000 17.2141
#
#
#
# Elastic Compliance Matrix: (Units=1/GPa)
#
#
# Indices 1 2 3 4 5 6 
#
# 1 0.230674 -0.081394 -0.035890 0.000000 0.000000 0.000000
# 2 -0.081394 0.057484 0.000562 0.000000 0.000000 0.000000
# 3 -0.035890 0.000562 0.015223 0.000000 0.000000 0.000000
# 4 0.000000 0.000000 0.000000 -0.016741 0.000000 0.000000
# 5 0.000000 0.000000 0.000000 0.000000 0.029282 0.000000
# 6 0.000000 0.000000 0.000000 0.000000 0.000000 0.058092
#
#
# Mechanical properties :
#
#
# Convention : Reuss Voigt Hill
#
# Bulk Modulus (GPa) = 14.29880 80.25390 47.27635
# Shear Modulus (GPa) = 7.92680 6.51451 7.22066
#
# Velocity S-wave (km/s) = 2.15534 1.95393 2.05710
# Velocity P-wave (km/s) = 3.81757 7.21964 5.77482
#
# Compressibility (1/GPa) = 0.06993593
#
# Stress axis : x y z
#
# Youngs Moduli (GPa) = 4.33511 17.39616 65.69212
#
# Poissons Ratio (x) = 1.41595 2.35769
# Poissons Ratio (y) = 0.35285 -0.03690
# Poissons Ratio (z) = 0.15559 -0.00977
#
# Static dielectric constant tensor:
#      x y z
#    x 1.571250 0.000000 0.000000 
#    y 0.000000 1.568150 0.000000 
#    z 0.000000 0.000000 1.577500 
# 
# From -- ./inp_files/28815.got.cif
#   From: 2010.05.17/outbox.cif.g08.bks.cpg/sg51_15_cif.got.tgz:28815.got - 2010.06.03 11:52:47.
