data_PCOD9403573
_publ_section_title
;
Structure prediction by ZEFSAII (Michael W. Deem and Ramdas Pophale) SiO2 
 PCOD9403573
Probable space group: P M M A
;
_chemical_formula_sum "Si O2"
_cell_formula_units_Z 52
_cell_length_a 8.735117
_cell_length_b 15.797722
_cell_length_c 23.814860
_cell_angle_alpha 90.000000
_cell_angle_beta 90.000000
_cell_angle_gamma 90.000000
_cell_volume 3286.330415
_symmetry_space_group_name_H-M "P M M A"
_symmetry_group_IT_number 51
_symmetry_cell_setting 'orthorhombic'
loop_
_space_group_symop_operation_xyz
x,y,z
1/2-x,-y,z
1/2+x,-y,-z
-x,y,-z
-x,-y,-z
1/2+x,y,-z
1/2-x,y,z
x,-y,z
loop_
_atom_site_type_symbol
_atom_site_label
_atom_site_fract_x
_atom_site_fract_y
_atom_site_fract_z
Si Si1 0.432237 0.500000 0.062179
Si Si2 0.071634 0.673900 0.899410
Si Si3 0.435255 0.094804 0.823005
Si Si4 0.928911 0.264547 0.228601
Si Si5 0.061776 0.401972 0.682256
Si Si6 0.567841 0.845685 0.940862
Si Si7 0.575208 0.397216 0.442375
O O1 0.250000 0.500000 0.060982
O O2 0.495202 0.415860 0.091001
O O3 0.500000 0.500000 0.000000
O O4 0.250000 0.672987 0.916759
O O5 0.065434 0.695691 0.833535
O O6 0.985027 0.748235 0.932347
O O7 0.250000 0.103509 0.827643
O O8 0.491994 0.169824 0.781865
O O9 0.501968 0.108732 0.885415
O O10 0.470535 0.000000 0.803675
O O11 0.750000 0.254147 0.244208
O O12 0.992458 0.332257 0.272963
O O13 0.250000 0.402858 0.682010
O O14 0.016962 0.500000 0.694374
O O15 0.009442 0.377601 0.619211
O O16 0.750000 0.852037 0.941822
O O17 0.500000 0.876912 0.000000
O O18 0.500000 0.367087 0.500000
O O19 0.750000 0.368385 0.442711
O O20 0.574933 0.500000 0.444122
#
# Coordination Sequence:
#
# PCOD9403573 Si02
#       7
#     4   8   8   8   8   8   8
#     4  12  24  36  48  64  86 114 151 190 225 264
#     4  10  20  34  50  68  88 114 147 183 226 269
#     4   9  18  33  50  68  90 114 141 177 222 272
#     4   8  15  27  45  67  88 111 142 179 219 261
#     4   8  13  21  37  63  90 114 146 183 214 250
#     4  11  21  34  51  69  90 113 139 175 221 273
#     4   8  13  21  34  54  81 114 147 179 211 245
#
# _framework density 15.823119999999999
#
# number of rings (size 3 to 8) (size 9 to 14) (size 15 to 20)
#    0.000    2.769    0.000    4.846    1.077    0.615 
#    0.000    0.000    0.000    4.615    0.000    0.000 
#    0.000    0.615    0.000    0.462    0.000    0.923 
#
# Total GULP energy -289579.155723 kJ/mol
# GULP energy per Si atom -5568.829918 kJ/mol
# Density = 1.578711 g / cm^3
# Si number density = 15.823120 Si / 1000 Ang^3
#
#
#
# Elastic Constant Matrix: (Units=GPa)
#
#
# Indices 1 2 3 4 5 6 
#
# 1 37.4771 20.6632 16.5259 0.0000 0.0000 0.0000
# 2 20.6632 106.4160 45.0066 0.0000 0.0000 0.0000
# 3 16.5259 45.0066 88.3884 0.0000 0.0000 0.0000
# 4 0.0000 0.0000 0.0000 7.8878 0.0000 0.0000
# 5 0.0000 0.0000 0.0000 0.0000 16.3018 0.0000
# 6 0.0000 0.0000 0.0000 0.0000 0.0000 12.8385
#
#
#
# Elastic Compliance Matrix: (Units=1/GPa)
#
#
# Indices 1 2 3 4 5 6 
#
# 1 0.030684 -0.004501 -0.003445 0.000000 0.000000 0.000000
# 2 -0.004501 0.012636 -0.005593 0.000000 0.000000 0.000000
# 3 -0.003445 -0.005593 0.014806 0.000000 0.000000 0.000000
# 4 0.000000 0.000000 0.000000 0.126778 0.000000 0.000000
# 5 0.000000 0.000000 0.000000 0.000000 0.061343 0.000000
# 6 0.000000 0.000000 0.000000 0.000000 0.000000 0.077891
#
#
# Mechanical properties :
#
#
# Convention : Reuss Voigt Hill
#
# Bulk Modulus (GPa) = 32.20806 44.07475 38.14141
# Shear Modulus (GPa) = 13.82880 17.41134 15.62007
#
# Velocity S-wave (km/s) = 2.95949 3.32079 3.14533
# Velocity P-wave (km/s) = 5.66369 6.52829 6.11130
#
# Compressibility (1/GPa) = 0.03104813
#
# Stress axis : x y z
#
# Youngs Moduli (GPa) = 32.59059 79.13629 67.54183
#
# Poissons Ratio (x) = 0.35619 0.23268
# Poissons Ratio (y) = 0.14669 0.37775
# Poissons Ratio (z) = 0.11228 0.44260
#
# Static dielectric constant tensor:
#      x y z
#    x 1.539500 0.000000 0.000000 
#    y 0.000000 1.540560 0.000000 
#    z 0.000000 0.000000 1.533140 
# 
# From -- ./inp_files/34713.got.cif
#   From: 2010.05.17/outbox.cif.g08.bks.cpg/sg51_18_cif.got.tgz:34713.got - 2010.06.03 11:52:47.
