data_PCOD9403641
_publ_section_title
;
Structure prediction by ZEFSAII (Michael W. Deem and Ramdas Pophale) SiO2 
 PCOD9403641
Probable space group: P M M A
;
_chemical_formula_sum "Si O2"
_cell_formula_units_Z 64
_cell_length_a 9.092065
_cell_length_b 22.772317
_cell_length_c 16.236618
_cell_angle_alpha 90.000000
_cell_angle_beta 90.000000
_cell_angle_gamma 90.000000
_cell_volume 3361.749320
_symmetry_space_group_name_H-M "P M M A"
_symmetry_group_IT_number 51
_symmetry_cell_setting 'orthorhombic'
loop_
_space_group_symop_operation_xyz
x,y,z
1/2-x,-y,z
1/2+x,-y,-z
-x,y,-z
-x,-y,-z
1/2+x,y,-z
1/2-x,y,z
x,-y,z
loop_
_atom_site_type_symbol
_atom_site_label
_atom_site_fract_x
_atom_site_fract_y
_atom_site_fract_z
Si Si1 0.425928 0.612432 0.244339
Si Si2 0.927137 0.133140 0.243340
Si Si3 0.922880 0.749648 0.747586
Si Si4 0.082525 0.399963 0.582685
Si Si5 0.082398 0.742064 0.579335
Si Si6 0.083184 0.570159 0.918626
Si Si7 0.920154 0.929735 0.081235
Si Si8 0.573234 0.069549 0.412152
O O1 0.250000 0.604785 0.249070
O O2 0.457091 0.682078 0.231071
O O3 0.497543 0.591355 0.330827
O O4 0.494934 0.581802 0.165042
O O5 0.750000 0.134043 0.246928
O O6 0.976957 0.090826 0.169689
O O7 0.975074 0.108610 0.333231
O O8 0.985160 0.196974 0.215982
O O9 0.750000 0.758743 0.758624
O O10 0.973662 0.754144 0.653401
O O11 0.250000 0.422194 0.587233
O O12 0.091838 0.328915 0.573319
O O13 0.000000 0.421509 0.500000
O O14 0.250000 0.763771 0.590793
O O15 0.000000 0.765635 0.500000
O O16 0.250000 0.593370 0.912984
O O17 0.092869 0.500000 0.928114
O O18 0.000000 0.593289 0.000000
O O19 0.750000 0.912212 0.076167
O O20 0.927558 0.000000 0.079550
O O21 0.000000 0.906589 0.000000
O O22 0.500000 0.084667 0.500000
O O23 0.750000 0.075392 0.419904
O O24 0.542489 0.000000 0.395779
#
# Coordination Sequence:
#
# PCOD9403641 Si02
#       8
#     8   8   8   8   8   8   8   8
#     4  10  20  35  55  79 110 148 186 225 270 318
#     4  10  20  34  52  73 101 138 174 211 261 319
#     4  10  21  34  48  71 104 140 179 220 260 309
#     4   9  16  27  46  73 104 139 180 223 264 309
#     4   9  16  27  44  65  92 129 173 218 260 300
#     4  10  21  38  62  91 118 143 176 221 271 323
#     4   9  18  34  56  79  99 121 156 205 260 315
#     4   9  18  33  52  74 101 135 177 223 271 324
#
# _framework density 19.037707000000001
#
# number of rings (size 3 to 8) (size 9 to 14) (size 15 to 20)
#    0.000    2.500    0.000    2.250    0.000    8.250 
#    0.000    1.875    0.000    5.625    0.000    0.000 
#    0.000    0.000    0.000    0.000    0.000    0.000 
#
# Total GULP energy -356643.449450 kJ/mol
# GULP energy per Si atom -5572.553898 kJ/mol
# Density = 1.899438 g / cm^3
# Si number density = 19.037707 Si / 1000 Ang^3
#
#
#
# Elastic Constant Matrix: (Units=GPa)
#
#
# Indices 1 2 3 4 5 6 
#
# 1 59.7714 17.0564 55.8165 0.0000 0.0000 0.0000
# 2 17.0564 17.3106 15.0574 0.0000 0.0000 0.0000
# 3 55.8165 15.0574 130.0119 0.0000 0.0000 0.0000
# 4 0.0000 0.0000 0.0000 11.3720 0.0000 0.0000
# 5 0.0000 0.0000 0.0000 0.0000 28.2057 0.0000
# 6 0.0000 0.0000 0.0000 0.0000 0.0000 -6.2683
#
#
#
# Elastic Compliance Matrix: (Units=1/GPa)
#
#
# Indices 1 2 3 4 5 6 
#
# 1 0.034963 -0.023790 -0.012255 0.000000 0.000000 0.000000
# 2 -0.023790 0.080427 0.000899 0.000000 0.000000 0.000000
# 3 -0.012255 0.000899 0.012849 0.000000 0.000000 0.000000
# 4 0.000000 0.000000 0.000000 0.087936 0.000000 0.000000
# 5 0.000000 0.000000 0.000000 0.000000 0.035454 0.000000
# 6 0.000000 0.000000 0.000000 0.000000 0.000000 -0.159532
#
#
# Mechanical properties :
#
#
# Convention : Reuss Voigt Hill
#
# Bulk Modulus (GPa) = 17.25733 42.55048 29.90391
# Shear Modulus (GPa) = 27.51717 14.60610 21.06163
#
# Velocity S-wave (km/s) = 3.80597 2.77288 3.32973
# Velocity P-wave (km/s) = 5.32901 5.71410 5.52491
#
# Compressibility (1/GPa) = 0.05794640
#
# Stress axis : x y z
#
# Youngs Moduli (GPa) = 28.60132 12.43369 77.82764
#
# Poissons Ratio (x) = 0.29580 0.95379
# Poissons Ratio (y) = 0.68042 -0.06995
# Poissons Ratio (z) = 0.35052 -0.01118
#
# Static dielectric constant tensor:
#      x y z
#    x 1.653240 0.000000 0.000000 
#    y 0.000000 1.715190 0.000000 
#    z 0.000000 0.000000 1.599480 
# 
# From -- ./inp_files/22326.got.cif
#   From: 2010.05.17/outbox.cif.g08.bks.cpg/sg51_12_cif.got.tgz:22326.got - 2010.06.03 11:52:47.
