data_PCOD9403363
_publ_section_title
;
Structure prediction by ZEFSAII (Michael W. Deem and Ramdas Pophale) SiO2 
 PCOD9403363
Probable space group: P M M A
;
_chemical_formula_sum "Si O2"
_cell_formula_units_Z 48
_cell_length_a 14.170232
_cell_length_b 8.795105
_cell_length_c 21.438398
_cell_angle_alpha 90.000000
_cell_angle_beta 90.000000
_cell_angle_gamma 90.000000
_cell_volume 2671.839208
_symmetry_space_group_name_H-M "P M M A"
_symmetry_group_IT_number 51
_symmetry_cell_setting 'orthorhombic'
loop_
_space_group_symop_operation_xyz
x,y,z
1/2-x,-y,z
1/2+x,-y,-z
-x,y,-z
-x,-y,-z
1/2+x,y,-z
1/2-x,y,z
x,-y,z
loop_
_atom_site_type_symbol
_atom_site_label
_atom_site_fract_x
_atom_site_fract_y
_atom_site_fract_z
Si Si1 0.356065 0.315121 0.466530
Si Si2 0.952918 0.316240 0.403261
Si Si3 0.641427 0.682583 0.907168
Si Si4 0.859373 0.181876 0.280191
Si Si5 0.041554 0.680366 0.840136
Si Si6 0.136300 0.824509 0.959648
O O1 0.250000 0.261120 0.453407
O O2 0.354794 0.500000 0.464982
O O3 0.389673 0.273907 0.536413
O O4 0.439793 0.268257 0.419818
O O5 0.951451 0.500000 0.398658
O O6 0.911519 0.246867 0.340771
O O7 0.750000 0.723589 0.893600
O O8 0.637107 0.500000 0.916449
O O9 0.567677 0.721657 0.853134
O O10 0.612170 0.761339 0.971948
O O11 0.750000 0.233269 0.279340
O O12 0.911420 0.236640 0.217857
O O13 0.860200 0.000000 0.282366
O O14 0.048190 0.500000 0.830390
O O15 0.093884 0.726314 0.903961
O O16 0.250000 0.818525 0.955137
O O17 0.106626 0.000000 0.953247
#
# Coordination Sequence:
#
# PCOD9403363 Si02
#       6
#     8   8   8   8   8   8
#     4   8  14  27  51  83 113 137 167 210 253 292
#     4   9  17  31  54  81 106 137 175 210 247 293
#     4   9  19  36  55  75 100 129 165 210 256 302
#     4  11  24  39  53  72 102 137 169 206 256 308
#     4  11  22  35  54  77  99 130 172 213 253 298
#     4  10  20  33  51  77 107 136 165 202 253 307
#
# _framework density 17.965153999999998
#
# number of rings (size 3 to 8) (size 9 to 14) (size 15 to 20)
#    0.000    2.333    0.000    4.000    0.000    8.333 
#    0.000    2.500    0.000    6.500    0.000    0.000 
#    0.000    0.000    0.000    0.000    0.000    0.000 
#
# Total GULP energy -267889.179207 kJ/mol
# GULP energy per Si atom -5581.024567 kJ/mol
# Density = 1.792426 g / cm^3
# Si number density = 17.965154 Si / 1000 Ang^3
#
#
#
# Elastic Constant Matrix: (Units=GPa)
#
#
# Indices 1 2 3 4 5 6 
#
# 1 140.5423 33.5897 84.0708 0.0000 0.0000 0.0000
# 2 33.5897 24.8838 28.3004 0.0000 0.0000 0.0000
# 3 84.0708 28.3004 114.6293 0.0000 0.0000 0.0000
# 4 0.0000 0.0000 0.0000 -699.1665 0.0000 0.0000
# 5 0.0000 0.0000 0.0000 0.0000 24.0156 0.0000
# 6 0.0000 0.0000 0.0000 0.0000 0.0000 16.2571
#
#
#
# Elastic Compliance Matrix: (Units=1/GPa)
#
#
# Indices 1 2 3 4 5 6 
#
# 1 0.014351 -0.010291 -0.007985 0.000000 0.000000 0.000000
# 2 -0.010291 0.063256 -0.008069 0.000000 0.000000 0.000000
# 3 -0.007985 -0.008069 0.016572 0.000000 0.000000 0.000000
# 4 0.000000 0.000000 0.000000 -0.001430 0.000000 0.000000
# 5 0.000000 0.000000 0.000000 0.000000 0.041640 0.000000
# 6 0.000000 0.000000 0.000000 0.000000 0.000000 0.061512
#
#
# Mechanical properties :
#
#
# Convention : Reuss Voigt Hill
#
# Bulk Modulus (GPa) = 24.10291 63.55302 43.82797
# Shear Modulus (GPa) = 19.05344 -122.83913 -51.89284
#
# Velocity S-wave (km/s) = 3.26018 -8.27797 -5.38033
# Velocity P-wave (km/s) = 5.25522 7.47756 3.76142
#
# Compressibility (1/GPa) = 0.04148876
#
# Stress axis : x y z
#
# Youngs Moduli (GPa) = 69.68039 15.80885 60.34269
#
# Poissons Ratio (x) = 0.16269 0.48182
# Poissons Ratio (y) = 0.71710 0.48692
# Poissons Ratio (z) = 0.55637 0.12756
#
# Static dielectric constant tensor:
#      x y z
#    x 1.652360 0.000000 0.000000 
#    y 0.000000 1.601760 0.000000 
#    z 0.000000 0.000000 1.566230 
# 
# From -- ./inp_files/29480.got.cif
#   From: 2010.05.17/outbox.cif.g08.bks.cpg/sg51_15_cif.got.tgz:29480.got - 2010.06.03 11:52:47.
