data_PCOD9403399
_publ_section_title
;
Structure prediction by ZEFSAII (Michael W. Deem and Ramdas Pophale) SiO2 
 PCOD9403399
Probable space group: P M M A
;
_chemical_formula_sum "Si O2"
_cell_formula_units_Z 28
_cell_length_a 8.522077
_cell_length_b 11.201625
_cell_length_c 14.610812
_cell_angle_alpha 90.000000
_cell_angle_beta 90.000000
_cell_angle_gamma 90.000000
_cell_volume 1394.764343
_symmetry_space_group_name_H-M "P M M A"
_symmetry_group_IT_number 51
_symmetry_cell_setting 'orthorhombic'
loop_
_space_group_symop_operation_xyz
x,y,z
1/2-x,-y,z
1/2+x,-y,-z
-x,y,-z
-x,-y,-z
1/2+x,y,-z
1/2-x,y,z
x,-y,z
loop_
_atom_site_type_symbol
_atom_site_label
_atom_site_fract_x
_atom_site_fract_y
_atom_site_fract_z
Si Si1 0.435517 0.000000 0.605153
Si Si2 0.440205 0.635851 0.103029
Si Si3 0.430639 0.209587 0.266696
Si Si4 0.927841 0.358506 0.406998
O O1 0.500000 0.000000 0.500000
O O2 0.488101 0.888464 0.668891
O O3 0.250000 0.000000 0.596128
O O4 0.250000 0.637561 0.104734
O O5 0.489497 0.500000 0.131152
O O6 0.494765 0.743693 0.169240
O O7 0.500000 0.652879 0.000000
O O8 0.250000 0.174236 0.255795
O O9 0.452573 0.327847 0.327278
O O10 0.750000 0.314619 0.390258
O O11 0.917304 0.500000 0.416616
O O12 0.000000 0.306921 0.500000
#
# Coordination Sequence:
#
# PCOD9403399 Si02
#       4
#     4   8   8   8
#     4  12  26  44  63  84 113 152 199 246 294 346
#     4   9  19  36  60  90 122 154 188 232 287 345
#     4  11  22  38  59  83 113 150 193 239 290 344
#     4  10  20  33  51  78 111 146 184 229 283 343
#
# _framework density 20.075074000000001
#
# number of rings (size 3 to 8) (size 9 to 14) (size 15 to 20)
#    0.000    1.714    0.000    4.714    0.000    5.143 
#    0.000    3.571    0.000    0.000    0.000    0.000 
#    0.000    0.000    0.000    0.000    0.000    0.000 
#
# Total GULP energy -156012.047803 kJ/mol
# GULP energy per Si atom -5571.858850 kJ/mol
# Density = 2.002938 g / cm^3
# Si number density = 20.075074 Si / 1000 Ang^3
#
#
#
# Elastic Constant Matrix: (Units=GPa)
#
#
# Indices 1 2 3 4 5 6 
#
# 1 52.7532 38.8645 21.7431 0.0000 0.0000 0.0000
# 2 38.8645 89.8384 66.5768 0.0000 0.0000 0.0000
# 3 21.7431 66.5768 133.7870 0.0000 0.0000 0.0000
# 4 0.0000 0.0000 0.0000 26.5591 0.0000 0.0000
# 5 0.0000 0.0000 0.0000 0.0000 29.9269 0.0000
# 6 0.0000 0.0000 0.0000 0.0000 0.0000 26.1964
#
#
#
# Elastic Compliance Matrix: (Units=1/GPa)
#
#
# Indices 1 2 3 4 5 6 
#
# 1 0.028288 -0.013990 0.002364 0.000000 0.000000 0.000000
# 2 -0.013990 0.024553 -0.009945 0.000000 0.000000 0.000000
# 3 0.002364 -0.009945 0.012039 0.000000 0.000000 0.000000
# 4 0.000000 0.000000 0.000000 0.037652 0.000000 0.000000
# 5 0.000000 0.000000 0.000000 0.000000 0.033415 0.000000
# 6 0.000000 0.000000 0.000000 0.000000 0.000000 0.038173
#
#
# Mechanical properties :
#
#
# Convention : Reuss Voigt Hill
#
# Bulk Modulus (GPa) = 45.99811 58.97193 52.48502
# Shear Modulus (GPa) = 22.27103 26.48277 24.37690
#
# Velocity S-wave (km/s) = 3.33436 3.63600 3.48844
# Velocity P-wave (km/s) = 6.14709 6.86053 6.51358
#
# Compressibility (1/GPa) = 0.02174002
#
# Stress axis : x y z
#
# Youngs Moduli (GPa) = 35.35036 40.72843 83.06252
#
# Poissons Ratio (x) = 0.56978 -0.19639
# Poissons Ratio (y) = 0.49454 0.82603
# Poissons Ratio (z) = -0.08358 0.40503
#
# Static dielectric constant tensor:
#      x y z
#    x 1.725690 0.000000 0.000000 
#    y 0.000000 1.795880 0.000000 
#    z 0.000000 0.000000 1.724890 
# 
# From -- ./inp_files/20008.got.cif
#   From: 2010.05.17/outbox.cif.g08.bks.cpg/sg51_11_cif.got.tgz:20008.got - 2010.06.03 11:52:47.
