data_PCOD9403914
_publ_section_title
;
Structure prediction by ZEFSAII (Michael W. Deem and Ramdas Pophale) SiO2 
 PCOD9403914
Probable space group: P M M A
;
_chemical_formula_sum "Si O2"
_cell_formula_units_Z 64
_cell_length_a 15.488522
_cell_length_b 17.552116
_cell_length_c 12.703982
_cell_angle_alpha 90.000000
_cell_angle_beta 90.000000
_cell_angle_gamma 90.000000
_cell_volume 3453.657984
_symmetry_space_group_name_H-M "P M M A"
_symmetry_group_IT_number 51
_symmetry_cell_setting 'orthorhombic'
loop_
_space_group_symop_operation_xyz
x,y,z
1/2-x,-y,z
1/2+x,-y,-z
-x,y,-z
-x,-y,-z
1/2+x,y,-z
1/2-x,y,z
x,-y,z
loop_
_atom_site_type_symbol
_atom_site_label
_atom_site_fract_x
_atom_site_fract_y
_atom_site_fract_z
Si Si1 0.943238 0.765547 0.099692
Si Si2 0.403742 0.842221 0.220705
Si Si3 0.477426 0.081825 0.622685
Si Si4 0.347680 0.713822 0.361573
Si Si5 0.489435 0.412436 0.372806
Si Si6 0.648217 0.912887 0.999364
Si Si7 0.846461 0.791111 0.422768
Si Si8 0.348459 0.343854 0.745227
O O1 0.883491 0.700469 0.150871
O O2 0.012989 0.794594 0.183031
O O3 0.894629 0.843398 0.063929
O O4 0.000000 0.737872 0.000000
O O5 0.438288 0.897855 0.310801
O O6 0.344822 0.777294 0.271017
O O7 0.367521 0.888862 0.122203
O O8 0.500000 0.078656 0.500000
O O9 0.405882 0.146129 0.629132
O O10 0.443754 0.000000 0.658362
O O11 0.250000 0.685538 0.382613
O O12 0.415566 0.647209 0.338816
O O13 0.379551 0.758251 0.466346
O O14 0.500000 0.402033 0.500000
O O15 0.463011 0.500000 0.356777
O O16 0.577176 0.397360 0.305682
O O17 0.750000 0.912995 0.020692
O O18 0.615536 0.000000 0.018127
O O19 0.750000 0.821265 0.442237
O O20 0.842038 0.721517 0.342981
O O21 0.250000 0.374487 0.759950
#
# Coordination Sequence:
#
# PCOD9403914 Si02
#       8
#     8   8   8   8   8   8   8   8
#     4  10  21  35  60  86 108 149 201 251 299 350
#     4  11  20  35  58  79 109 150 199 238 294 359
#     4  11  21  32  49  74 108 150 195 243 289 339
#     4  11  21  36  60  87 117 156 200 240 284 348
#     4  11  23  38  61  94 128 158 190 233 289 356
#     4  10  22  39  55  80 116 149 194 258 315 353
#     4  10  20  34  54  78 108 150 197 241 286 343
#     4  11  21  38  62  89 121 157 199 243 295 360
#
# _framework density 18.531075999999999
#
# number of rings (size 3 to 8) (size 9 to 14) (size 15 to 20)
#    0.000    1.375    5.000    1.125    0.000    3.500 
#    0.000    1.250    0.000    0.375    0.000    0.000 
#    0.000    0.000    0.000    0.000    0.000    0.000 
#
# Total GULP energy -356819.254059 kJ/mol
# GULP energy per Si atom -5575.300845 kJ/mol
# Density = 1.848890 g / cm^3
# Si number density = 18.531076 Si / 1000 Ang^3
#
#
#
# Elastic Constant Matrix: (Units=GPa)
#
#
# Indices 1 2 3 4 5 6 
#
# 1 85.6974 35.7092 19.8231 0.0000 0.0000 0.0000
# 2 35.7092 79.4571 18.8343 0.0000 0.0000 0.0000
# 3 19.8231 18.8343 69.1479 0.0000 0.0000 0.0000
# 4 0.0000 0.0000 0.0000 -16.0448 0.0000 0.0000
# 5 0.0000 0.0000 0.0000 0.0000 22.9437 0.0000
# 6 0.0000 0.0000 0.0000 0.0000 0.0000 109.2618
#
#
#
# Elastic Compliance Matrix: (Units=1/GPa)
#
#
# Indices 1 2 3 4 5 6 
#
# 1 0.014781 -0.006028 -0.002596 0.000000 0.000000 0.000000
# 2 -0.006028 0.015912 -0.002606 0.000000 0.000000 0.000000
# 3 -0.002596 -0.002606 0.015916 0.000000 0.000000 0.000000
# 4 0.000000 0.000000 0.000000 -0.062325 0.000000 0.000000
# 5 0.000000 0.000000 0.000000 0.000000 0.043585 0.000000
# 6 0.000000 0.000000 0.000000 0.000000 0.000000 0.009152
#
#
# Mechanical properties :
#
#
# Convention : Reuss Voigt Hill
#
# Bulk Modulus (GPa) = 41.40752 42.55951 41.98351
# Shear Modulus (GPa) = 74.04201 33.89452 53.96826
#
# Velocity S-wave (km/s) = 6.32790 4.28140 5.40244
# Velocity P-wave (km/s) = 8.70535 6.88890 7.84984
#
# Compressibility (1/GPa) = 0.02415020
#
# Stress axis : x y z
#
# Youngs Moduli (GPa) = 67.65453 62.84559 62.83105
#
# Poissons Ratio (x) = 0.37880 0.16308
# Poissons Ratio (y) = 0.40779 0.16374
# Poissons Ratio (z) = 0.17560 0.16378
#
# Static dielectric constant tensor:
#      x y z
#    x 1.673260 0.000000 0.000000 
#    y 0.000000 1.632700 0.000000 
#    z 0.000000 0.000000 1.670890 
# 
# From -- ./inp_files/16819.got.cif
#   From: 2010.05.17/outbox.cif.g08.bks.cpg/sg51_9_cif.got.tgz:16819.got - 2010.06.03 11:52:47.
