data_PCOD9403058
_publ_section_title
;
Structure prediction by ZEFSAII (Michael W. Deem and Ramdas Pophale) SiO2 
 PCOD9403058
Probable space group: P M M A
;
_chemical_formula_sum "Si O2"
_cell_formula_units_Z 40
_cell_length_a 10.474465
_cell_length_b 7.410891
_cell_length_c 24.584916
_cell_angle_alpha 90.000000
_cell_angle_beta 90.000000
_cell_angle_gamma 90.000000
_cell_volume 1908.407015
_symmetry_space_group_name_H-M "P M M A"
_symmetry_group_IT_number 51
_symmetry_cell_setting 'orthorhombic'
loop_
_space_group_symop_operation_xyz
x,y,z
1/2-x,-y,z
1/2+x,-y,-z
-x,y,-z
-x,-y,-z
1/2+x,y,-z
1/2-x,y,z
x,-y,z
loop_
_atom_site_type_symbol
_atom_site_label
_atom_site_fract_x
_atom_site_fract_y
_atom_site_fract_z
Si Si1 0.892812 0.714907 0.743963
Si Si2 0.392823 0.783930 0.833264
Si Si3 0.480834 0.279432 0.374598
Si Si4 0.750000 0.280072 0.547862
Si Si5 0.104713 0.220091 0.956911
Si Si6 0.750000 0.720429 0.422592
O O1 0.750000 0.783671 0.756564
O O2 0.882369 0.500000 0.737890
O O3 0.940932 0.782954 0.685416
O O4 0.997037 0.743758 0.790520
O O5 0.250000 0.718750 0.817649
O O6 0.421187 0.721346 0.894817
O O7 0.385362 0.000000 0.836159
O O8 0.480838 0.500000 0.374182
O O9 0.375060 0.224308 0.418671
O O10 0.621376 0.221712 0.392468
O O11 0.750000 0.500000 0.547241
O O12 0.750000 0.221536 0.485461
O O13 0.250000 0.272840 0.970812
O O14 0.101982 0.000000 0.957201
O O15 0.000000 0.282221 0.000000
O O16 0.750000 0.500000 0.422824
#
# Coordination Sequence:
#
# PCOD9403058 Si02
#       6
#     8   8   8   4   8   4
#     4  10  20  33  48  68  98 134 168 201 240 288
#     4   9  19  34  51  74 102 128 160 203 243 282
#     4   9  16  26  38  58  88 120 154 192 235 285
#     4   9  14  24  38  54  85 121 148 187 240 286
#     4   8  14  26  45  70  98 124 151 189 238 286
#     4   9  16  22  36  60  83 115 156 189 232 292
#
# _framework density 20.959890000000001
#
# number of rings (size 3 to 8) (size 9 to 14) (size 15 to 20)
#    0.000    3.000    1.000    1.800    1.400    4.000 
#    0.000    2.000    0.000    0.600    0.000    0.000 
#    0.000    4.800    0.000    0.000    0.000    0.000 
#
# Total GULP energy -223295.206534 kJ/mol
# GULP energy per Si atom -5582.380163 kJ/mol
# Density = 2.091218 g / cm^3
# Si number density = 20.959890 Si / 1000 Ang^3
#
#
#
# Elastic Constant Matrix: (Units=GPa)
#
#
# Indices 1 2 3 4 5 6 
#
# 1 240.9898 7.4529 150.1545 0.0000 0.0000 0.0000
# 2 7.4529 67.1743 6.2212 0.0000 0.0000 0.0000
# 3 150.1545 6.2212 172.3119 0.0000 0.0000 0.0000
# 4 0.0000 0.0000 0.0000 12.3160 0.0000 0.0000
# 5 0.0000 0.0000 0.0000 0.0000 42.5453 0.0000
# 6 0.0000 0.0000 0.0000 0.0000 0.0000 2.8983
#
#
#
# Elastic Compliance Matrix: (Units=1/GPa)
#
#
# Indices 1 2 3 4 5 6 
#
# 1 0.009084 -0.000276 -0.007906 0.000000 0.000000 0.000000
# 2 -0.000276 0.014945 -0.000299 0.000000 0.000000 0.000000
# 3 -0.007906 -0.000299 0.012704 0.000000 0.000000 0.000000
# 4 0.000000 0.000000 0.000000 0.081195 0.000000 0.000000
# 5 0.000000 0.000000 0.000000 0.000000 0.023504 0.000000
# 6 0.000000 0.000000 0.000000 0.000000 0.000000 0.345032
#
#
# Mechanical properties :
#
#
# Convention : Reuss Voigt Hill
#
# Bulk Modulus (GPa) = 50.58017 89.79256 70.18636
# Shear Modulus (GPa) = 9.80360 32.66173 21.23267
#
# Velocity S-wave (km/s) = 2.16506 3.95181 3.18624
# Velocity P-wave (km/s) = 5.51672 7.98471 6.86257
#
# Compressibility (1/GPa) = 0.01977059
#
# Stress axis : x y z
#
# Youngs Moduli (GPa) = 110.08184 66.91217 78.71735
#
# Poissons Ratio (x) = 0.01845 0.62235
# Poissons Ratio (y) = 0.03035 0.02356
# Poissons Ratio (z) = 0.87032 0.02003
#
# Static dielectric constant tensor:
#      x y z
#    x 1.755590 0.000000 0.000000 
#    y 0.000000 1.852330 0.000000 
#    z 0.000000 0.000000 1.707870 
# 
# From -- ./inp_files/35993.got.cif
#   From: 2010.05.17/outbox.cif.g08.bks.cpg/sg51_18_cif.got.tgz:35993.got - 2010.06.03 11:52:47.
