data_PCOD9403021
_publ_section_title
;
Structure prediction by ZEFSAII (Michael W. Deem and Ramdas Pophale) SiO2 
 PCOD9403021
Probable space group: P M M A
;
_chemical_formula_sum "Si O2"
_cell_formula_units_Z 48
_cell_length_a 26.550662
_cell_length_b 9.446729
_cell_length_c 12.114121
_cell_angle_alpha 90.000000
_cell_angle_beta 90.000000
_cell_angle_gamma 90.000000
_cell_volume 3038.426381
_symmetry_space_group_name_H-M "P M M A"
_symmetry_group_IT_number 51
_symmetry_cell_setting 'orthorhombic'
loop_
_space_group_symop_operation_xyz
x,y,z
1/2-x,-y,z
1/2+x,-y,-z
-x,y,-z
-x,-y,-z
1/2+x,y,-z
1/2-x,y,z
x,-y,z
loop_
_atom_site_type_symbol
_atom_site_label
_atom_site_fract_x
_atom_site_fract_y
_atom_site_fract_z
Si Si1 0.383400 0.167086 0.526110
Si Si2 0.067265 0.668452 0.711349
Si Si3 0.112942 0.164334 0.155004
Si Si4 0.529751 0.839696 0.652401
Si Si5 0.942535 0.669755 0.031236
Si Si6 0.807850 0.172607 0.665526
O O1 0.390874 0.255247 0.636863
O O2 0.434365 0.181592 0.452885
O O3 0.338570 0.214691 0.444328
O O4 0.376980 0.000000 0.549218
O O5 0.070033 0.500000 0.699370
O O6 0.068762 0.703931 0.841298
O O7 0.013854 0.727056 0.667690
O O8 0.067029 0.167058 0.242851
O O9 0.160963 0.216435 0.225689
O O10 0.120978 0.000000 0.123811
O O11 0.096056 0.255210 0.051110
O O12 0.508505 0.000000 0.646961
O O13 0.939786 0.500000 0.017753
O O14 0.000000 0.712514 0.000000
O O15 0.750000 0.217755 0.665430
O O16 0.809420 0.000000 0.666248
#
# Coordination Sequence:
#
# PCOD9403021 Si02
#       6
#     8   8   8   8   8   8
#     4   9  18  31  47  69  95 122 152 189 236 285
#     4  11  21  30  43  64  93 130 165 192 225 269
#     4   9  17  29  49  75  95 119 159 199 234 275
#     4   9  17  29  44  65  95 125 153 189 230 275
#     4  10  20  33  45  62  95 135 167 194 230 277
#     4   8  15  31  55  78  97 117 147 195 250 292
#
# _framework density 15.797651
#
# number of rings (size 3 to 8) (size 9 to 14) (size 15 to 20)
#    0.000    2.667    1.667    3.000    0.000    4.333 
#    0.000    2.500    0.000    3.000    0.000    7.000 
#    0.000    0.000    0.000    0.000    0.000    0.000 
#
# Total GULP energy -267532.081873 kJ/mol
# GULP energy per Si atom -5573.585039 kJ/mol
# Density = 1.576169 g / cm^3
# Si number density = 15.797651 Si / 1000 Ang^3
#
#
#
# Elastic Constant Matrix: (Units=GPa)
#
#
# Indices 1 2 3 4 5 6 
#
# 1 98.4554 33.3647 62.3772 0.0000 0.0000 0.0000
# 2 33.3647 38.9819 58.2316 0.0000 0.0000 0.0000
# 3 62.3772 58.2316 126.1573 0.0000 0.0000 0.0000
# 4 0.0000 0.0000 0.0000 23.0018 0.0000 0.0000
# 5 0.0000 0.0000 0.0000 0.0000 8.5944 0.0000
# 6 0.0000 0.0000 0.0000 0.0000 0.0000 -4.3877
#
#
#
# Elastic Compliance Matrix: (Units=1/GPa)
#
#
# Indices 1 2 3 4 5 6 
#
# 1 0.015178 -0.005734 -0.004858 0.000000 0.000000 0.000000
# 2 -0.005734 0.084788 -0.036301 0.000000 0.000000 0.000000
# 3 -0.004858 -0.036301 0.027084 0.000000 0.000000 0.000000
# 4 0.000000 0.000000 0.000000 0.043475 0.000000 0.000000
# 5 0.000000 0.000000 0.000000 0.000000 0.116354 0.000000
# 6 0.000000 0.000000 0.000000 0.000000 0.000000 -0.227912
#
#
# Mechanical properties :
#
#
# Convention : Reuss Voigt Hill
#
# Bulk Modulus (GPa) = 30.06260 63.50461 46.78361
# Shear Modulus (GPa) = 30.51741 12.74980 21.63360
#
# Velocity S-wave (km/s) = 4.39996 2.84398 3.70458
# Velocity P-wave (km/s) = 6.69955 7.14635 6.92655
#
# Compressibility (1/GPa) = 0.03326392
#
# Stress axis : x y z
#
# Youngs Moduli (GPa) = 65.88614 11.79415 36.92179
#
# Poissons Ratio (x) = 0.06763 0.17936
# Poissons Ratio (y) = 0.37780 1.34030
# Poissons Ratio (z) = 0.32006 0.42814
#
# Static dielectric constant tensor:
#      x y z
#    x 1.523220 0.000000 0.000000 
#    y 0.000000 1.524000 0.000000 
#    z 0.000000 0.000000 1.536790 
# 
# From -- ./inp_files/18619.got.cif
#   From: 2010.05.17/outbox.cif.g08.bks.cpg/sg51_10_cif.got.tgz:18619.got - 2010.06.03 11:52:47.
