data_PCOD9403425
_publ_section_title
;
Structure prediction by ZEFSAII (Michael W. Deem and Ramdas Pophale) SiO2 
 PCOD9403425
Probable space group: P M M A
;
_chemical_formula_sum "Si O2"
_cell_formula_units_Z 64
_cell_length_a 19.269863
_cell_length_b 9.400743
_cell_length_c 19.530392
_cell_angle_alpha 90.000000
_cell_angle_beta 90.000000
_cell_angle_gamma 90.000000
_cell_volume 3537.950621
_symmetry_space_group_name_H-M "P M M A"
_symmetry_group_IT_number 51
_symmetry_cell_setting 'orthorhombic'
loop_
_space_group_symop_operation_xyz
x,y,z
1/2-x,-y,z
1/2+x,-y,-z
-x,y,-z
-x,-y,-z
1/2+x,y,-z
1/2-x,y,z
x,-y,z
loop_
_atom_site_type_symbol
_atom_site_label
_atom_site_fract_x
_atom_site_fract_y
_atom_site_fract_z
Si Si1 0.458063 0.329552 0.430916
Si Si2 0.595545 0.833503 0.215821
Si Si3 0.453533 0.832893 0.292775
Si Si4 0.671936 0.672809 0.488121
Si Si5 0.833768 0.336310 0.336567
Si Si6 0.668828 0.828368 0.805971
Si Si7 0.909414 0.669410 0.927132
Si Si8 0.075351 0.331187 0.917627
O O1 0.500000 0.292149 0.500000
O O2 0.464906 0.500000 0.422447
O O3 0.474561 0.253353 0.360239
O O4 0.379414 0.289840 0.451394
O O5 0.514783 0.816767 0.237298
O O6 0.638236 0.760104 0.276385
O O7 0.607746 0.756473 0.144035
O O8 0.611007 0.000000 0.211639
O O9 0.381262 0.786933 0.257551
O O10 0.448719 0.000000 0.310093
O O11 0.750000 0.724683 0.498037
O O12 0.673743 0.500000 0.484894
O O13 0.645380 0.715365 0.412638
O O14 0.750000 0.337784 0.336922
O O15 0.857635 0.500000 0.327674
O O16 0.750000 0.791637 0.796869
O O17 0.636384 0.755631 0.873349
O O18 0.663729 0.000000 0.812456
O O19 0.897633 0.500000 0.918578
O O20 0.992003 0.693619 0.916837
O O21 0.896733 0.706134 0.006882
O O22 0.085659 0.500000 0.907573
#
# Coordination Sequence:
#
# PCOD9403425 Si02
#       8
#     8   8   8   8   8   8   8   8
#     4  10  20  33  52  78 103 131 172 223 273 319
#     4  11  21  33  52  79 109 142 178 220 262 310
#     4  10  22  37  51  75 109 143 182 220 266 321
#     4   8  15  30  51  73  97 127 167 214 264 319
#     4   9  18  34  56  78 102 136 173 213 269 328
#     4  10  21  38  57  77 110 153 190 226 270 322
#     4   9  18  34  56  82 107 133 174 225 269 314
#     4   9  18  33  55  81 108 137 171 216 269 319
#
# _framework density 18.089569000000001
#
# number of rings (size 3 to 8) (size 9 to 14) (size 15 to 20)
#    0.000    2.500    1.250    2.625    0.000    4.250 
#    0.000    2.500    0.000    1.500    0.000    0.000 
#    0.000    0.000    0.000    0.000    0.000    0.000 
#
# Total GULP energy -356885.272097 kJ/mol
# GULP energy per Si atom -5576.332377 kJ/mol
# Density = 1.804840 g / cm^3
# Si number density = 18.089569 Si / 1000 Ang^3
#
#
#
# Elastic Constant Matrix: (Units=GPa)
#
#
# Indices 1 2 3 4 5 6 
#
# 1 39.2227 13.5347 9.4175 0.0000 0.0000 0.0000
# 2 13.5347 31.9273 39.1238 0.0000 0.0000 0.0000
# 3 9.4175 39.1238 90.1959 0.0000 0.0000 0.0000
# 4 0.0000 0.0000 0.0000 -95.2853 0.0000 0.0000
# 5 0.0000 0.0000 0.0000 0.0000 28.6907 0.0000
# 6 0.0000 0.0000 0.0000 0.0000 0.0000 21.6010
#
#
#
# Elastic Compliance Matrix: (Units=1/GPa)
#
#
# Indices 1 2 3 4 5 6 
#
# 1 0.030989 -0.019579 0.005257 0.000000 0.000000 0.000000
# 2 -0.019579 0.079230 -0.032323 0.000000 0.000000 0.000000
# 3 0.005257 -0.032323 0.024559 0.000000 0.000000 0.000000
# 4 0.000000 0.000000 0.000000 -0.010495 0.000000 0.000000
# 5 0.000000 0.000000 0.000000 0.000000 0.034855 0.000000
# 6 0.000000 0.000000 0.000000 0.000000 0.000000 0.046294
#
#
# Mechanical properties :
#
#
# Convention : Reuss Voigt Hill
#
# Bulk Modulus (GPa) = 24.10337 31.72199 27.91268
# Shear Modulus (GPa) = 15.99743 -2.38073 6.80835
#
# Velocity S-wave (km/s) = 2.97702 -1.14845 1.94213
# Velocity P-wave (km/s) = 5.01700 3.97688 4.52691
#
# Compressibility (1/GPa) = 0.04148798
#
# Stress axis : x y z
#
# Youngs Moduli (GPa) = 32.26910 12.62155 40.71905
#
# Poissons Ratio (x) = 0.24712 -0.21406
# Poissons Ratio (y) = 0.63180 1.31615
# Poissons Ratio (z) = -0.16964 0.40796
#
# Static dielectric constant tensor:
#      x y z
#    x 1.652050 0.000000 0.000000 
#    y 0.000000 1.595950 0.000000 
#    z 0.000000 0.000000 1.603420 
# 
# From -- ./inp_files/30614.got.cif
#   From: 2010.05.17/outbox.cif.g08.bks.cpg/sg51_16_cif.got.tgz:30614.got - 2010.06.03 11:52:47.
