data_PCOD9403437
_publ_section_title
;
Structure prediction by ZEFSAII (Michael W. Deem and Ramdas Pophale) SiO2 
 PCOD9403437
Probable space group: P M M A
;
_chemical_formula_sum "Si O2"
_cell_formula_units_Z 48
_cell_length_a 32.090426
_cell_length_b 8.797662
_cell_length_c 9.280509
_cell_angle_alpha 90.000000
_cell_angle_beta 90.000000
_cell_angle_gamma 90.000000
_cell_volume 2620.079996
_symmetry_space_group_name_H-M "P M M A"
_symmetry_group_IT_number 51
_symmetry_cell_setting 'orthorhombic'
loop_
_space_group_symop_operation_xyz
x,y,z
1/2-x,-y,z
1/2+x,-y,-z
-x,y,-z
-x,-y,-z
1/2+x,y,-z
1/2-x,y,z
x,-y,z
loop_
_atom_site_type_symbol
_atom_site_label
_atom_site_fract_x
_atom_site_fract_y
_atom_site_fract_z
Si Si1 0.496855 0.675254 0.324928
Si Si2 0.328950 0.182512 0.169713
Si Si3 0.750000 0.315455 0.330320
Si Si4 0.088077 0.316097 0.667630
Si Si5 0.750000 0.316747 0.663283
Si Si6 0.331123 0.684098 0.850791
Si Si7 0.089270 0.180908 0.348496
O O1 0.500000 0.677133 0.500000
O O2 0.491667 0.500000 0.280069
O O3 0.542268 0.733151 0.276815
O O4 0.455413 0.766153 0.287413
O O5 0.290734 0.254024 0.257307
O O6 0.372305 0.225558 0.247282
O O7 0.325378 0.000000 0.170620
O O8 0.328416 0.243636 0.007566
O O9 0.750000 0.500000 0.331762
O O10 0.750000 0.266808 0.496255
O O11 0.791519 0.268346 0.245612
O O12 0.086653 0.500000 0.657809
O O13 0.126163 0.273062 0.769957
O O14 0.094589 0.253498 0.506787
O O15 0.750000 0.500000 0.668809
O O16 0.330228 0.500000 0.863435
O O17 0.089119 0.000000 0.364076
#
# Coordination Sequence:
#
# PCOD9403437 Si02
#       7
#     8   8   4   8   4   8   8
#     4   8  15  29  50  76 105 137 177 228 277 314
#     4  11  24  39  53  78 115 146 175 215 263 316
#     4   9  19  35  58  86 106 125 168 223 262 306
#     4   9  18  33  54  80 108 138 179 231 276 316
#     4  11  22  39  64  86 104 135 176 217 264 314
#     4  10  20  36  57  80 107 141 180 219 265 321
#     4  10  20  33  52  78 108 144 183 221 266 322
#
# _framework density 18.320050999999999
#
# number of rings (size 3 to 8) (size 9 to 14) (size 15 to 20)
#    0.000    2.333    0.000    3.750    0.000    8.333 
#    0.000    2.500    0.000    5.000    0.000    0.000 
#    0.000    0.000    0.000    0.000    0.000    0.000 
#
# Total GULP energy -267874.205859 kJ/mol
# GULP energy per Si atom -5580.712622 kJ/mol
# Density = 1.827835 g / cm^3
# Si number density = 18.320051 Si / 1000 Ang^3
#
#
#
# Elastic Constant Matrix: (Units=GPa)
#
#
# Indices 1 2 3 4 5 6 
#
# 1 214.8609 50.2463 107.1421 0.0000 0.0000 0.0000
# 2 50.2463 28.4879 37.1414 0.0000 0.0000 0.0000
# 3 107.1421 37.1414 134.2410 0.0000 0.0000 0.0000
# 4 0.0000 0.0000 0.0000 12.9752 0.0000 0.0000
# 5 0.0000 0.0000 0.0000 0.0000 -11.2216 0.0000
# 6 0.0000 0.0000 0.0000 0.0000 0.0000 26.3809
#
#
#
# Elastic Compliance Matrix: (Units=1/GPa)
#
#
# Indices 1 2 3 4 5 6 
#
# 1 0.009430 -0.010668 -0.004575 0.000000 0.000000 0.000000
# 2 -0.010668 0.066979 -0.010017 0.000000 0.000000 0.000000
# 3 -0.004575 -0.010017 0.013872 0.000000 0.000000 0.000000
# 4 0.000000 0.000000 0.000000 0.077070 0.000000 0.000000
# 5 0.000000 0.000000 0.000000 0.000000 -0.089114 0.000000
# 6 0.000000 0.000000 0.000000 0.000000 0.000000 0.037906
#
#
# Mechanical properties :
#
#
# Convention : Reuss Voigt Hill
#
# Bulk Modulus (GPa) = 25.15022 85.18326 55.16674
# Shear Modulus (GPa) = 27.79056 17.83091 22.81074
#
# Velocity S-wave (km/s) = 3.89903 3.12316 3.53246
# Velocity P-wave (km/s) = 5.83335 7.72035 6.84221
#
# Compressibility (1/GPa) = 0.03976109
#
# Stress axis : x y z
#
# Youngs Moduli (GPa) = 106.03999 14.93012 72.08709
#
# Poissons Ratio (x) = 0.15928 0.32980
# Poissons Ratio (y) = 1.13128 0.72207
# Poissons Ratio (z) = 0.48513 0.14955
#
# Static dielectric constant tensor:
#      x y z
#    x 1.646830 0.000000 0.000000 
#    y 0.000000 1.615630 0.000000 
#    z 0.000000 0.000000 1.590510 
# 
# From -- ./inp_files/12930.got.cif
#   From: 2010.05.17/outbox.cif.g08.bks.cpg/sg51_7_cif.got.tgz:12930.got - 2010.06.03 11:52:47.
