data_PCOD9403184
_publ_section_title
;
Structure prediction by ZEFSAII (Michael W. Deem and Ramdas Pophale) SiO2 
 PCOD9403184
Probable space group: P M M A
;
_chemical_formula_sum "Si O2"
_cell_formula_units_Z 48
_cell_length_a 9.427104
_cell_length_b 7.853596
_cell_length_c 31.779326
_cell_angle_alpha 90.000000
_cell_angle_beta 90.000000
_cell_angle_gamma 90.000000
_cell_volume 2352.835353
_symmetry_space_group_name_H-M "P M M A"
_symmetry_group_IT_number 51
_symmetry_cell_setting 'orthorhombic'
loop_
_space_group_symop_operation_xyz
x,y,z
1/2-x,-y,z
1/2+x,-y,-z
-x,y,-z
-x,-y,-z
1/2+x,y,-z
1/2-x,y,z
x,-y,z
loop_
_atom_site_type_symbol
_atom_site_label
_atom_site_fract_x
_atom_site_fract_y
_atom_site_fract_z
Si Si1 0.088266 0.202829 0.214267
Si Si2 0.913911 0.708160 0.458621
Si Si3 0.589556 0.296693 0.295170
Si Si4 0.590386 0.796364 0.039296
Si Si5 0.913581 0.291450 0.624247
Si Si6 0.588515 0.703016 0.879806
O O1 0.250000 0.270198 0.219595
O O2 0.040558 0.248971 0.167154
O O3 0.986296 0.266172 0.250827
O O4 0.093897 0.000000 0.217231
O O5 0.750000 0.763617 0.458987
O O6 0.912345 0.500000 0.458785
O O7 0.000000 0.762310 0.500000
O O8 0.997154 0.760976 0.416655
O O9 0.750000 0.228070 0.296201
O O10 0.598904 0.500000 0.300998
O O11 0.492347 0.232224 0.333449
O O12 0.750000 0.727047 0.039670
O O13 0.510979 0.765688 0.083033
O O14 0.599881 0.000000 0.033780
O O15 0.500000 0.727627 0.000000
O O16 0.750000 0.236144 0.622561
O O17 0.911934 0.500000 0.624465
O O18 0.750000 0.770055 0.885055
O O19 0.593590 0.500000 0.882229
#
# Coordination Sequence:
#
# PCOD9403184 Si02
#       6
#     8   8   8   8   8   8
#     4  10  21  37  57  79 103 134 172 213 258 309
#     4   9  15  22  33  52  82 120 161 203 248 301
#     4  10  20  33  50  73 101 133 169 210 257 309
#     4  10  21  37  58  83 111 145 183 221 262 308
#     4   9  16  26  41  61  87 122 163 206 253 304
#     4  10  21  37  58  83 110 141 177 217 262 311
#
# _framework density 20.400917
#
# number of rings (size 3 to 8) (size 9 to 14) (size 15 to 20)
#    0.000    2.333    0.000    3.000    0.000    9.000 
#    0.000    0.000    0.000    0.000    0.000    0.000 
#    0.000    0.667    0.000    2.500    0.000    5.500 
#
# Total GULP energy -268095.818622 kJ/mol
# GULP energy per Si atom -5585.329555 kJ/mol
# Density = 2.035448 g / cm^3
# Si number density = 20.400917 Si / 1000 Ang^3
#
#
#
# Elastic Constant Matrix: (Units=GPa)
#
#
# Indices 1 2 3 4 5 6 
#
# 1 202.2000 7.0302 146.5268 0.0000 0.0000 0.0000
# 2 7.0302 22.1067 -3.9865 0.0000 0.0000 0.0000
# 3 146.5268 -3.9865 202.5461 0.0000 0.0000 0.0000
# 4 0.0000 0.0000 0.0000 32.7507 0.0000 0.0000
# 5 0.0000 0.0000 0.0000 0.0000 41.5157 0.0000
# 6 0.0000 0.0000 0.0000 0.0000 0.0000 9.5579
#
#
#
# Elastic Compliance Matrix: (Units=1/GPa)
#
#
# Indices 1 2 3 4 5 6 
#
# 1 0.010901 -0.004906 -0.007982 0.000000 0.000000 0.000000
# 2 -0.004906 0.047604 0.004486 0.000000 0.000000 0.000000
# 3 -0.007982 0.004486 0.010800 0.000000 0.000000 0.000000
# 4 0.000000 0.000000 0.000000 0.030534 0.000000 0.000000
# 5 0.000000 0.000000 0.000000 0.000000 0.024087 0.000000
# 6 0.000000 0.000000 0.000000 0.000000 0.000000 0.104626
#
#
# Mechanical properties :
#
#
# Convention : Reuss Voigt Hill
#
# Bulk Modulus (GPa) = 19.04744 80.66596 49.85670
# Shear Modulus (GPa) = 19.02177 35.25034 27.13606
#
# Velocity S-wave (km/s) = 3.05683 4.16129 3.65106
# Velocity P-wave (km/s) = 4.67074 7.91926 6.50117
#
# Compressibility (1/GPa) = 0.05250048
#
# Stress axis : x y z
#
# Youngs Moduli (GPa) = 91.73695 21.00649 92.59157
#
# Poissons Ratio (x) = 0.10306 0.73910
# Poissons Ratio (y) = 0.45006 -0.41537
# Poissons Ratio (z) = 0.73228 -0.09424
#
# Static dielectric constant tensor:
#      x y z
#    x 1.719060 0.000000 0.000000 
#    y 0.000000 1.749200 0.000000 
#    z 0.000000 0.000000 1.686470 
# 
# From -- ./inp_files/36898.got.cif
#   From: 2010.05.17/outbox.cif.g08.bks.cpg/sg51_19_cif.got.tgz:36898.got - 2010.06.03 11:52:47.
