data_PCOD9403931
_publ_section_title
;
Structure prediction by ZEFSAII (Michael W. Deem and Ramdas Pophale) SiO2 
 PCOD9403931
Probable space group: P M M A
;
_chemical_formula_sum "Si O2"
_cell_formula_units_Z 48
_cell_length_a 9.464321
_cell_length_b 7.884398
_cell_length_c 31.610751
_cell_angle_alpha 90.000000
_cell_angle_beta 90.000000
_cell_angle_gamma 90.000000
_cell_volume 2358.809209
_symmetry_space_group_name_H-M "P M M A"
_symmetry_group_IT_number 51
_symmetry_cell_setting 'orthorhombic'
loop_
_space_group_symop_operation_xyz
x,y,z
1/2-x,-y,z
1/2+x,-y,-z
-x,y,-z
-x,-y,-z
1/2+x,y,-z
1/2-x,y,z
x,-y,z
loop_
_atom_site_type_symbol
_atom_site_label
_atom_site_fract_x
_atom_site_fract_y
_atom_site_fract_z
Si Si1 0.086903 0.292346 0.041601
Si Si2 0.591005 0.796689 0.539399
Si Si3 0.910055 0.799111 0.796750
Si Si4 0.910139 0.702152 0.122366
Si Si5 0.412291 0.294983 0.715814
Si Si6 0.588785 0.704708 0.379723
O O1 0.250000 0.236892 0.040703
O O2 0.089032 0.500000 0.042072
O O3 0.004767 0.232786 0.083484
O O4 0.000000 0.241413 0.000000
O O5 0.500000 0.729344 0.500000
O O6 0.750000 0.728402 0.538916
O O7 0.514375 0.762366 0.583584
O O8 0.599028 0.000000 0.534504
O O9 0.750000 0.730006 0.799033
O O10 0.009641 0.729407 0.833670
O O11 0.981228 0.764806 0.751544
O O12 0.903126 0.000000 0.802851
O O13 0.750000 0.770829 0.122913
O O14 0.899182 0.500000 0.116078
O O15 0.250000 0.240954 0.724685
O O16 0.412627 0.500000 0.716236
O O17 0.448819 0.239562 0.667990
O O18 0.750000 0.761211 0.388448
O O19 0.589310 0.500000 0.379401
#
# Coordination Sequence:
#
# PCOD9403931 Si02
#       6
#     8   8   8   8   8   8
#     4   9  16  27  46  74 107 139 172 213 259 306
#     4  10  21  36  54  77 106 141 180 219 259 306
#     4  11  24  38  52  75 107 140 175 216 261 311
#     4  10  20  34  54  79 105 136 176 219 263 312
#     4   9  19  37  59  81 105 135 173 215 259 311
#     4   9  19  36  57  81 108 137 171 213 261 312
#
# _framework density 20.349247999999999
#
# number of rings (size 3 to 8) (size 9 to 14) (size 15 to 20)
#    0.000    2.333    0.000    3.500    0.000    9.667 
#    0.000    5.000    0.000    0.500    0.000    0.000 
#    0.000    0.000    0.000    0.000    0.000    0.000 
#
# Total GULP energy -268061.191739 kJ/mol
# GULP energy per Si atom -5584.608161 kJ/mol
# Density = 2.030293 g / cm^3
# Si number density = 20.349248 Si / 1000 Ang^3
#
#
#
# Elastic Constant Matrix: (Units=GPa)
#
#
# Indices 1 2 3 4 5 6 
#
# 1 208.2294 7.4753 127.2323 0.0000 0.0000 0.0000
# 2 7.4753 17.7808 -3.2488 0.0000 0.0000 0.0000
# 3 127.2323 -3.2488 158.2713 0.0000 0.0000 0.0000
# 4 0.0000 0.0000 0.0000 53.0987 0.0000 0.0000
# 5 0.0000 0.0000 0.0000 0.0000 40.5962 0.0000
# 6 0.0000 0.0000 0.0000 0.0000 0.0000 8.6073
#
#
#
# Elastic Compliance Matrix: (Units=1/GPa)
#
#
# Indices 1 2 3 4 5 6 
#
# 1 0.009980 -0.005683 -0.008139 0.000000 0.000000 0.000000
# 2 -0.005683 0.059688 0.005793 0.000000 0.000000 0.000000
# 3 -0.008139 0.005793 0.012980 0.000000 0.000000 0.000000
# 4 0.000000 0.000000 0.000000 0.018833 0.000000 0.000000
# 5 0.000000 0.000000 0.000000 0.000000 0.024633 0.000000
# 6 0.000000 0.000000 0.000000 0.000000 0.000000 0.116180
#
#
# Mechanical properties :
#
#
# Convention : Reuss Voigt Hill
#
# Bulk Modulus (GPa) = 15.01705 71.91103 43.46404
# Shear Modulus (GPa) = 17.82232 37.31528 27.56880
#
# Velocity S-wave (km/s) = 2.96264 4.28687 3.68473
# Velocity P-wave (km/s) = 4.37020 7.74068 6.28557
#
# Compressibility (1/GPa) = 0.06659097
#
# Stress axis : x y z
#
# Youngs Moduli (GPa) = 100.20508 16.75379 77.04113
#
# Poissons Ratio (x) = 0.09521 0.62704
# Poissons Ratio (y) = 0.56943 -0.44633
# Poissons Ratio (z) = 0.81558 -0.09706
#
# Static dielectric constant tensor:
#      x y z
#    x 1.713340 0.000000 0.000000 
#    y 0.000000 1.747200 0.000000 
#    z 0.000000 0.000000 1.685670 
# 
# From -- ./inp_files/36956.got.cif
#   From: 2010.05.17/outbox.cif.g08.bks.cpg/sg51_19_cif.got.tgz:36956.got - 2010.06.03 11:52:47.
