data_PCOD9403695
_publ_section_title
;
Structure prediction by ZEFSAII (Michael W. Deem and Ramdas Pophale) SiO2 
 PCOD9403695
Probable space group: P M M A
;
_chemical_formula_sum "Si O2"
_cell_formula_units_Z 48
_cell_length_a 8.761073
_cell_length_b 16.853698
_cell_length_c 18.843601
_cell_angle_alpha 90.000000
_cell_angle_beta 90.000000
_cell_angle_gamma 90.000000
_cell_volume 2782.379766
_symmetry_space_group_name_H-M "P M M A"
_symmetry_group_IT_number 51
_symmetry_cell_setting 'orthorhombic'
loop_
_space_group_symop_operation_xyz
x,y,z
1/2-x,-y,z
1/2+x,-y,-z
-x,y,-z
-x,-y,-z
1/2+x,y,-z
1/2-x,y,z
x,-y,z
loop_
_atom_site_type_symbol
_atom_site_label
_atom_site_fract_x
_atom_site_fract_y
_atom_site_fract_z
Si Si1 0.933115 0.163718 0.578152
Si Si2 0.566148 0.408662 0.782508
Si Si3 0.064732 0.000000 0.347915
Si Si4 0.432033 0.262715 0.703036
Si Si5 0.932466 0.684539 0.924776
Si Si6 0.067298 0.832573 0.846461
Si Si7 0.066556 0.000000 0.182652
O O1 0.750000 0.163759 0.575187
O O2 0.985008 0.079236 0.611416
O O3 0.000000 0.173479 0.500000
O O4 0.989955 0.230582 0.632353
O O5 0.750000 0.403334 0.775447
O O6 0.520699 0.500000 0.774276
O O7 0.489726 0.348852 0.727133
O O8 0.527115 0.375583 0.860945
O O9 0.250000 0.000000 0.347447
O O10 0.016362 0.000000 0.265745
O O11 0.250000 0.262377 0.695248
O O12 0.472073 0.203674 0.768623
O O13 0.750000 0.689550 0.928886
O O14 0.999738 0.769871 0.902094
O O15 0.000000 0.659740 0.000000
O O16 0.250000 0.835199 0.852596
O O17 0.997369 0.919811 0.851682
O O18 0.250000 0.000000 0.180431
#
# Coordination Sequence:
#
# PCOD9403695 Si02
#       7
#     8   8   4   8   8   8   4
#     4  11  21  35  52  76 109 146 183 222 266 315
#     4   9  19  36  58  83 109 139 174 212 259 316
#     4   9  19  32  50  75 106 142 179 220 266 311
#     4  10  20  34  53  78 106 139 178 220 264 312
#     4  10  20  35  55  79 109 143 175 213 261 315
#     4  10  20  34  52  76 104 138 181 224 264 310
#     4  11  19  32  53  77 103 137 182 225 268 313
#
# _framework density 17.251418999999999
#
# number of rings (size 3 to 8) (size 9 to 14) (size 15 to 20)
#    0.000    2.000    1.667    2.500    0.000    2.667 
#    0.000    1.667    0.000    0.500    0.000    0.000 
#    0.000    0.000    0.000    0.000    0.000    0.000 
#
# Total GULP energy -268023.464435 kJ/mol
# GULP energy per Si atom -5583.822176 kJ/mol
# Density = 1.721215 g / cm^3
# Si number density = 17.251419 Si / 1000 Ang^3
#
#
#
# Elastic Constant Matrix: (Units=GPa)
#
#
# Indices 1 2 3 4 5 6 
#
# 1 41.8144 35.3993 22.5048 0.0000 0.0000 0.0000
# 2 35.3993 134.7997 34.4394 0.0000 0.0000 0.0000
# 3 22.5048 34.4394 72.9036 0.0000 0.0000 0.0000
# 4 0.0000 0.0000 0.0000 13.1594 0.0000 0.0000
# 5 0.0000 0.0000 0.0000 0.0000 28.6449 0.0000
# 6 0.0000 0.0000 0.0000 0.0000 0.0000 23.0971
#
#
#
# Elastic Compliance Matrix: (Units=1/GPa)
#
#
# Indices 1 2 3 4 5 6 
#
# 1 0.033679 -0.007038 -0.007072 0.000000 0.000000 0.000000
# 2 -0.007038 0.009907 -0.002508 0.000000 0.000000 0.000000
# 3 -0.007072 -0.002508 0.017084 0.000000 0.000000 0.000000
# 4 0.000000 0.000000 0.000000 0.075991 0.000000 0.000000
# 5 0.000000 0.000000 0.000000 0.000000 0.034910 0.000000
# 6 0.000000 0.000000 0.000000 0.000000 0.000000 0.043295
#
#
# Mechanical properties :
#
#
# Convention : Reuss Voigt Hill
#
# Bulk Modulus (GPa) = 36.44796 48.24498 42.34647
# Shear Modulus (GPa) = 19.43649 23.45857 21.44753
#
# Velocity S-wave (km/s) = 3.36022 3.69155 3.52978
# Velocity P-wave (km/s) = 6.01898 6.79681 6.41969
#
# Compressibility (1/GPa) = 0.02743637
#
# Stress axis : x y z
#
# Youngs Moduli (GPa) = 29.69177 100.93656 58.53275
#
# Poissons Ratio (x) = 0.71035 0.41395
# Poissons Ratio (y) = 0.20896 0.14678
# Poissons Ratio (z) = 0.20998 0.25312
#
# Static dielectric constant tensor:
#      x y z
#    x 1.571380 0.000000 0.000000 
#    y 0.000000 1.567900 0.000000 
#    z 0.000000 0.000000 1.566790 
# 
# From -- ./inp_files/27658.got.cif
#   From: 2010.05.17/outbox.cif.g08.bks.cpg/sg51_14_cif.got.tgz:27658.got - 2010.06.03 11:52:47.
