data_PCOD9403704
_publ_section_title
;
Structure prediction by ZEFSAII (Michael W. Deem and Ramdas Pophale) SiO2 
 PCOD9403704
Probable space group: P M M A
;
_chemical_formula_sum "Si O2"
_cell_formula_units_Z 48
_cell_length_a 26.822121
_cell_length_b 8.290660
_cell_length_c 8.976026
_cell_angle_alpha 90.000000
_cell_angle_beta 90.000000
_cell_angle_gamma 90.000000
_cell_volume 1996.026599
_symmetry_space_group_name_H-M "P M M A"
_symmetry_group_IT_number 51
_symmetry_cell_setting 'orthorhombic'
loop_
_space_group_symop_operation_xyz
x,y,z
1/2-x,-y,z
1/2+x,-y,-z
-x,y,-z
-x,-y,-z
1/2+x,y,-z
1/2-x,y,z
x,-y,z
loop_
_atom_site_type_symbol
_atom_site_label
_atom_site_fract_x
_atom_site_fract_y
_atom_site_fract_z
Si Si1 0.652689 0.822226 0.185286
Si Si2 0.052713 0.500000 0.105833
Si Si3 0.538488 0.170355 0.864840
Si Si4 0.053384 0.182621 0.648669
Si Si5 0.809675 0.500000 0.028756
Si Si6 0.189609 0.500000 0.315678
Si Si7 0.309927 0.175829 0.475579
Si Si8 0.057362 0.500000 0.463966
O O1 0.593879 0.819181 0.219741
O O2 0.670455 0.663525 0.102281
O O3 0.677363 0.815767 0.350044
O O4 0.665252 0.000000 0.120099
O O5 0.071777 0.679953 0.084394
O O6 0.058641 0.500000 0.286782
O O7 0.000000 0.500000 0.000000
O O8 0.501315 0.205421 0.723716
O O9 0.564310 0.000000 0.839476
O O10 0.500000 0.153235 0.000000
O O11 0.071377 0.330016 0.544404
O O12 0.054355 0.000000 0.582745
O O13 0.750000 0.500000 0.042333
O O14 0.823468 0.500000 0.855998
O O15 0.250000 0.500000 0.327207
O O16 0.171375 0.663628 0.393662
O O17 0.250000 0.175691 0.459340
O O18 0.328480 0.000000 0.421003
O O19 0.000000 0.500000 0.500000
#
# Coordination Sequence:
#
# PCOD9403704 Si02
#       8
#     8   4   8   8   4   4   8   4
#     4  10  21  37  59  84 117 154 188 236 292 343
#     4  10  20  34  52  77 106 135 172 222 278 328
#     4   9  17  31  53  77 105 141 182 227 273 332
#     4  10  21  36  57  83 112 149 187 231 287 338
#     4  11  22  35  57  89 120 151 192 238 282 335
#     4   9  19  33  51  79 112 147 185 230 280 324
#     4   9  17  32  56  80 104 143 191 231 270 326
#     4  12  21  34  56  83 105 137 180 232 280 329
#
# _framework density 24.047778000000001
#
# number of rings (size 3 to 8) (size 9 to 14) (size 15 to 20)
#    0.000    2.167    1.667    1.500    0.000    3.333 
#    0.000    1.667   14.667    0.000    0.000    0.000 
#    0.000    0.000    0.000    0.000    0.000    0.000 
#
# Total GULP energy -267620.629263 kJ/mol
# GULP energy per Si atom -5575.429776 kJ/mol
# Density = 2.399304 g / cm^3
# Si number density = 24.047778 Si / 1000 Ang^3
#
#
#
# Elastic Constant Matrix: (Units=GPa)
#
#
# Indices 1 2 3 4 5 6 
#
# 1 70.8488 43.9564 15.2584 0.0000 0.0000 0.0000
# 2 43.9564 311.5998 94.1205 0.0000 0.0000 0.0000
# 3 15.2584 94.1205 113.3213 0.0000 0.0000 0.0000
# 4 0.0000 0.0000 0.0000 -86.8491 0.0000 0.0000
# 5 0.0000 0.0000 0.0000 0.0000 25.7534 0.0000
# 6 0.0000 0.0000 0.0000 0.0000 0.0000 3.1771
#
#
#
# Elastic Compliance Matrix: (Units=1/GPa)
#
#
# Indices 1 2 3 4 5 6 
#
# 1 0.015479 -0.002075 -0.000361 0.000000 0.000000 0.000000
# 2 -0.002075 0.004562 -0.003510 0.000000 0.000000 0.000000
# 3 -0.000361 -0.003510 0.011788 0.000000 0.000000 0.000000
# 4 0.000000 0.000000 0.000000 -0.011514 0.000000 0.000000
# 5 0.000000 0.000000 0.000000 0.000000 0.038830 0.000000
# 6 0.000000 0.000000 0.000000 0.000000 0.000000 0.314753
#
#
# Mechanical properties :
#
#
# Convention : Reuss Voigt Hill
#
# Bulk Modulus (GPa) = 50.15382 89.16005 69.65694
# Shear Modulus (GPa) = 12.74094 11.24524 11.99309
#
# Velocity S-wave (km/s) = 2.30427 2.16480 2.23563
# Velocity P-wave (km/s) = 5.28968 6.58826 5.97436
#
# Compressibility (1/GPa) = 0.01993866
#
# Stress axis : x y z
#
# Youngs Moduli (GPa) = 64.60179 219.20096 84.83093
#
# Poissons Ratio (x) = 0.45474 0.03064
# Poissons Ratio (y) = 0.13402 0.29773
# Poissons Ratio (z) = 0.02334 0.76933
#
# Static dielectric constant tensor:
#      x y z
#    x 1.942200 0.000000 0.000000 
#    y 0.000000 2.060200 0.000000 
#    z 0.000000 0.000000 1.735520 
# 
# From -- ./inp_files/13007.got.cif
#   From: 2010.05.17/outbox.cif.g08.bks.cpg/sg51_7_cif.got.tgz:13007.got - 2010.06.03 11:52:47.
