data_PCOD9403054
_publ_section_title
;
Structure prediction by ZEFSAII (Michael W. Deem and Ramdas Pophale) SiO2 
 PCOD9403054
Probable space group: P M M A
;
_chemical_formula_sum "Si O2"
_cell_formula_units_Z 48
_cell_length_a 14.389426
_cell_length_b 7.712765
_cell_length_c 21.446352
_cell_angle_alpha 90.000000
_cell_angle_beta 90.000000
_cell_angle_gamma 90.000000
_cell_volume 2380.164640
_symmetry_space_group_name_H-M "P M M A"
_symmetry_group_IT_number 51
_symmetry_cell_setting 'orthorhombic'
loop_
_space_group_symop_operation_xyz
x,y,z
1/2-x,-y,z
1/2+x,-y,-z
-x,y,-z
-x,-y,-z
1/2+x,y,-z
1/2-x,y,z
x,-y,z
loop_
_atom_site_type_symbol
_atom_site_label
_atom_site_fract_x
_atom_site_fract_y
_atom_site_fract_z
Si Si1 0.355233 0.211444 0.468573
Si Si2 0.959150 0.211778 0.404496
Si Si3 0.644187 0.709782 0.903537
Si Si4 0.854743 0.204356 0.282650
Si Si5 0.029882 0.698317 0.836149
Si Si6 0.142105 0.794404 0.955620
O O1 0.250000 0.271864 0.457673
O O2 0.393284 0.259664 0.537205
O O3 0.435738 0.268062 0.420583
O O4 0.353333 0.000000 0.467154
O O5 0.915322 0.275534 0.340036
O O6 0.961781 0.000000 0.403499
O O7 0.750000 0.771233 0.895186
O O8 0.644436 0.500000 0.900995
O O9 0.570910 0.775455 0.852752
O O10 0.612760 0.759140 0.973364
O O11 0.750000 0.277253 0.278934
O O12 0.908671 0.219620 0.217669
O O13 0.845423 0.000000 0.295403
O O14 0.016631 0.500000 0.816964
O O15 0.084087 0.705003 0.901742
O O16 0.250000 0.739612 0.951542
O O17 0.136842 0.000000 0.944533
#
# Coordination Sequence:
#
# PCOD9403054 Si02
#       6
#     8   8   8   8   8   8
#     4   8  12  20  38  64  92 120 152 192 235 277
#     4   8  14  24  39  62  92 124 155 188 231 282
#     4   9  19  36  54  70  91 121 157 196 238 284
#     4  10  20  33  48  67  95 129 160 192 235 285
#     4  11  22  34  50  71  94 124 162 199 234 276
#     4  10  20  33  51  76 102 125 151 189 239 288
#
# _framework density 20.166672999999999
#
# number of rings (size 3 to 8) (size 9 to 14) (size 15 to 20)
#    0.000    2.667    0.000    3.500    0.000    8.667 
#    0.000    0.833    0.000    1.000    0.000    2.333 
#    0.000    1.333    0.000    0.000    0.000    0.000 
#
# Total GULP energy -267792.628645 kJ/mol
# GULP energy per Si atom -5579.013097 kJ/mol
# Density = 2.012077 g / cm^3
# Si number density = 20.166673 Si / 1000 Ang^3
#
#
#
# Elastic Constant Matrix: (Units=GPa)
#
#
# Indices 1 2 3 4 5 6 
#
# 1 176.0396 4.9627 96.1255 0.0000 0.0000 0.0000
# 2 4.9627 29.6852 -0.5571 0.0000 0.0000 0.0000
# 3 96.1255 -0.5571 109.8411 0.0000 0.0000 0.0000
# 4 0.0000 0.0000 0.0000 242.8789 0.0000 0.0000
# 5 0.0000 0.0000 0.0000 0.0000 23.1012 0.0000
# 6 0.0000 0.0000 0.0000 0.0000 0.0000 7.0654
#
#
#
# Elastic Compliance Matrix: (Units=1/GPa)
#
#
# Indices 1 2 3 4 5 6 
#
# 1 0.010999 -0.002020 -0.009636 0.000000 0.000000 0.000000
# 2 -0.002020 0.034061 0.001940 0.000000 0.000000 0.000000
# 3 -0.009636 0.001940 0.017547 0.000000 0.000000 0.000000
# 4 0.000000 0.000000 0.000000 0.004117 0.000000 0.000000
# 5 0.000000 0.000000 0.000000 0.000000 0.043288 0.000000
# 6 0.000000 0.000000 0.000000 0.000000 0.000000 0.141534
#
#
# Mechanical properties :
#
#
# Convention : Reuss Voigt Hill
#
# Bulk Modulus (GPa) = 23.16107 57.40312 40.28209
# Shear Modulus (GPa) = 17.52120 68.94478 43.23299
#
# Velocity S-wave (km/s) = 2.95077 5.85335 4.63512
# Velocity P-wave (km/s) = 4.80824 8.61443 6.97594
#
# Compressibility (1/GPa) = 0.04317589
#
# Stress axis : x y z
#
# Youngs Moduli (GPa) = 90.91642 29.35919 56.99111
#
# Poissons Ratio (x) = 0.05930 0.54916
# Poissons Ratio (y) = 0.18362 -0.11057
# Poissons Ratio (z) = 0.87606 -0.05696
#
# Static dielectric constant tensor:
#      x y z
#    x 1.750210 0.000000 0.000000 
#    y 0.000000 1.759330 0.000000 
#    z 0.000000 0.000000 1.672990 
# 
# From -- ./inp_files/29459.got.cif
#   From: 2010.05.17/outbox.cif.g08.bks.cpg/sg51_15_cif.got.tgz:29459.got - 2010.06.03 11:52:47.
