data_PCOD9403657
_publ_section_title
;
Structure prediction by ZEFSAII (Michael W. Deem and Ramdas Pophale) SiO2 
 PCOD9403657
Probable space group: P M M A
;
_chemical_formula_sum "Si O2"
_cell_formula_units_Z 64
_cell_length_a 20.327815
_cell_length_b 8.399465
_cell_length_c 20.986118
_cell_angle_alpha 90.000000
_cell_angle_beta 90.000000
_cell_angle_gamma 90.000000
_cell_volume 3583.227932
_symmetry_space_group_name_H-M "P M M A"
_symmetry_group_IT_number 51
_symmetry_cell_setting 'orthorhombic'
loop_
_space_group_symop_operation_xyz
x,y,z
1/2-x,-y,z
1/2+x,-y,-z
-x,y,-z
-x,-y,-z
1/2+x,y,-z
1/2-x,y,z
x,-y,z
loop_
_atom_site_type_symbol
_atom_site_label
_atom_site_fract_x
_atom_site_fract_y
_atom_site_fract_z
Si Si1 0.925454 0.694028 0.322688
Si Si2 0.674440 0.307604 0.070078
Si Si3 0.576156 0.309380 0.679575
Si Si4 0.573882 0.307427 0.178292
Si Si5 0.426035 0.809143 0.179033
Si Si6 0.325625 0.692505 0.568671
Si Si7 0.825542 0.807663 0.929609
Si Si8 0.174361 0.809479 0.428362
O O1 0.924242 0.500000 0.323658
O O2 0.908309 0.743341 0.250437
O O3 0.874726 0.749559 0.376250
O O4 0.000956 0.743067 0.334902
O O5 0.750000 0.255392 0.081191
O O6 0.674015 0.500000 0.070433
O O7 0.625132 0.251479 0.125071
O O8 0.654628 0.250459 0.999792
O O9 0.576304 0.500000 0.681215
O O10 0.592792 0.247749 0.750187
O O11 0.626395 0.251225 0.626392
O O12 0.573951 0.500000 0.177870
O O13 0.499657 0.251690 0.165508
O O14 0.374769 0.752579 0.125521
O O15 0.426579 0.000000 0.178608
O O16 0.250000 0.744285 0.579649
O O17 0.326235 0.500000 0.568962
O O18 0.345656 0.749101 0.498393
O O19 0.750000 0.755227 0.918417
O O20 0.825914 0.000000 0.929758
O O21 0.250000 0.755360 0.417666
O O22 0.173857 0.000000 0.428480
#
# Coordination Sequence:
#
# PCOD9403657 Si02
#       8
#     8   8   8   8   8   8   8   8
#     4   8  16  31  50  73 100 129 161 201 246 289
#     4   9  18  32  51  75 101 130 167 210 251 293
#     4  10  20  35  54  75 101 131 165 206 250 297
#     4   9  18  33  51  73 103 135 166 204 251 298
#     4  10  20  34  52  74 100 131 168 207 249 299
#     4   9  17  31  52  75  98 128 167 205 241 288
#     4   9  19  35  52  70  96 130 165 203 249 300
#     4  10  21  36  52  72 101 133 164 203 249 295
#
# _framework density 17.860990000000001
#
# number of rings (size 3 to 8) (size 9 to 14) (size 15 to 20)
#    0.000    2.750    0.000    1.875    0.000    4.250 
#    0.000   11.875    0.000    0.000    0.000    3.500 
#    0.000    0.000    0.000    0.000    0.000    0.000 
#
# Total GULP energy -356903.075461 kJ/mol
# GULP energy per Si atom -5576.610554 kJ/mol
# Density = 1.782034 g / cm^3
# Si number density = 17.860990 Si / 1000 Ang^3
#
#
#
# Elastic Constant Matrix: (Units=GPa)
#
#
# Indices 1 2 3 4 5 6 
#
# 1 114.5539 17.6041 136.9569 0.0000 0.0000 0.0000
# 2 17.6041 13.3469 22.9536 0.0000 0.0000 0.0000
# 3 136.9569 22.9536 196.6479 0.0000 0.0000 0.0000
# 4 0.0000 0.0000 0.0000 445.2295 0.0000 0.0000
# 5 0.0000 0.0000 0.0000 0.0000 45.3435 0.0000
# 6 0.0000 0.0000 0.0000 0.0000 0.0000 20.5842
#
#
#
# Elastic Compliance Matrix: (Units=1/GPa)
#
#
# Indices 1 2 3 4 5 6 
#
# 1 0.052843 -0.008015 -0.035868 0.000000 0.000000 0.000000
# 2 -0.008015 0.094957 -0.005502 0.000000 0.000000 0.000000
# 3 -0.035868 -0.005502 0.030708 0.000000 0.000000 0.000000
# 4 0.000000 0.000000 0.000000 0.002246 0.000000 0.000000
# 5 0.000000 0.000000 0.000000 0.000000 0.022054 0.000000
# 6 0.000000 0.000000 0.000000 0.000000 0.000000 0.048581
#
#
# Mechanical properties :
#
#
# Convention : Reuss Voigt Hill
#
# Bulk Modulus (GPa) = 12.54083 75.50865 44.02474
# Shear Modulus (GPa) = 13.27188 112.03372 62.65280
#
# Velocity S-wave (km/s) = 2.72888 7.92853 5.92909
# Velocity P-wave (km/s) = 4.11894 11.23312 8.46016
#
# Compressibility (1/GPa) = 0.07973953
#
# Stress axis : x y z
#
# Youngs Moduli (GPa) = 18.92391 10.53110 32.56520
#
# Poissons Ratio (x) = 0.08440 1.16803
# Poissons Ratio (y) = 0.15167 0.17917
# Poissons Ratio (z) = 0.67875 0.05794
#
# Static dielectric constant tensor:
#      x y z
#    x 1.606390 0.000000 0.000000 
#    y 0.000000 1.616960 0.000000 
#    z 0.000000 0.000000 1.587270 
# 
# From -- ./inp_files/33965.got.cif
#   From: 2010.05.17/outbox.cif.g08.bks.cpg/sg51_17_cif.got.tgz:33965.got - 2010.06.03 11:52:47.
