data_PCOD9403708
_publ_section_title
;
Structure prediction by ZEFSAII (Michael W. Deem and Ramdas Pophale) SiO2 
 PCOD9403708
Probable space group: P M M A
;
_chemical_formula_sum "Si O2"
_cell_formula_units_Z 40
_cell_length_a 16.209058
_cell_length_b 9.188862
_cell_length_c 14.062956
_cell_angle_alpha 90.000000
_cell_angle_beta 90.000000
_cell_angle_gamma 90.000000
_cell_volume 2094.576002
_symmetry_space_group_name_H-M "P M M A"
_symmetry_group_IT_number 51
_symmetry_cell_setting 'orthorhombic'
loop_
_space_group_symop_operation_xyz
x,y,z
1/2-x,-y,z
1/2+x,-y,-z
-x,y,-z
-x,-y,-z
1/2+x,y,-z
1/2-x,y,z
x,-y,z
loop_
_atom_site_type_symbol
_atom_site_label
_atom_site_fract_x
_atom_site_fract_y
_atom_site_fract_z
Si Si1 0.096926 0.832635 0.966464
Si Si2 0.750000 0.176198 0.498911
Si Si3 0.871391 0.665342 0.850008
Si Si4 0.430164 0.823851 0.579919
Si Si5 0.440130 0.333144 0.782225
Si Si6 0.250000 0.826228 0.283773
O O1 0.106280 0.760354 0.863008
O O2 0.124268 0.000000 0.966069
O O3 0.140387 0.737623 0.047339
O O4 0.000000 0.833424 0.000000
O O5 0.837423 0.218535 0.452935
O O6 0.750000 0.224606 0.607968
O O7 0.750000 0.000000 0.498278
O O8 0.841500 0.500000 0.848567
O O9 0.827572 0.763395 0.771930
O O10 0.967388 0.660856 0.823596
O O11 0.500000 0.787615 0.500000
O O12 0.443936 0.745332 0.680457
O O13 0.433350 0.000000 0.591767
O O14 0.409846 0.500000 0.774233
O O15 0.250000 0.000000 0.281888
#
# Coordination Sequence:
#
# PCOD9403708 Si02
#       6
#     8   4   8   8   8   4
#     4   9  17  31  53  79 105 136 178 224 269 325
#     4   9  20  37  56  81 110 141 183 234 282 329
#     4  10  20  34  52  78 112 144 176 220 276 333
#     4  10  20  36  58  81 108 145 189 236 283 332
#     4  10  20  34  54  80 110 144 181 224 277 335
#     4  11  21  35  56  79 106 141 183 228 274 327
#
# _framework density 19.096944000000001
#
# number of rings (size 3 to 8) (size 9 to 14) (size 15 to 20)
#    0.000    2.200    0.000    3.300    0.000    6.800 
#    0.000    3.500    0.000    1.200    0.000    0.000 
#    0.000    0.000    0.000    0.000    0.000    0.000 
#
# Total GULP energy -223121.608106 kJ/mol
# GULP energy per Si atom -5578.040203 kJ/mol
# Density = 1.905348 g / cm^3
# Si number density = 19.096944 Si / 1000 Ang^3
#
#
#
# Elastic Constant Matrix: (Units=GPa)
#
#
# Indices 1 2 3 4 5 6 
#
# 1 58.5286 22.2798 30.9392 0.0000 0.0000 0.0000
# 2 22.2798 116.9392 79.3028 0.0000 0.0000 0.0000
# 3 30.9392 79.3028 180.5940 0.0000 0.0000 0.0000
# 4 0.0000 0.0000 0.0000 11.2910 0.0000 0.0000
# 5 0.0000 0.0000 0.0000 0.0000 -41.7039 0.0000
# 6 0.0000 0.0000 0.0000 0.0000 0.0000 13.7819
#
#
#
# Elastic Compliance Matrix: (Units=1/GPa)
#
#
# Indices 1 2 3 4 5 6 
#
# 1 0.019118 -0.002024 -0.002386 0.000000 0.000000 0.000000
# 2 -0.002024 0.012392 -0.005095 0.000000 0.000000 0.000000
# 3 -0.002386 -0.005095 0.008183 0.000000 0.000000 0.000000
# 4 0.000000 0.000000 0.000000 0.088566 0.000000 0.000000
# 5 0.000000 0.000000 0.000000 0.000000 -0.023979 0.000000
# 6 0.000000 0.000000 0.000000 0.000000 0.000000 0.072559
#
#
# Mechanical properties :
#
#
# Convention : Reuss Voigt Hill
#
# Bulk Modulus (GPa) = 48.35001 69.01170 58.68086
# Shear Modulus (GPa) = 24.66155 11.57646 18.11901
#
# Velocity S-wave (km/s) = 3.59749 2.46477 3.08359
# Velocity P-wave (km/s) = 6.52909 6.65704 6.59338
#
# Compressibility (1/GPa) = 0.02068252
#
# Stress axis : x y z
#
# Youngs Moduli (GPa) = 52.30770 80.69566 122.19813
#
# Poissons Ratio (x) = 0.16333 0.29162
# Poissons Ratio (y) = 0.10587 0.62259
# Poissons Ratio (z) = 0.12483 0.41114
#
# Static dielectric constant tensor:
#      x y z
#    x 1.800850 0.000000 0.000000 
#    y 0.000000 1.647060 0.000000 
#    z 0.000000 0.000000 1.626410 
# 
# From -- ./inp_files/17971.got.cif
#   From: 2010.05.17/outbox.cif.g08.bks.cpg/sg51_9_cif.got.tgz:17971.got - 2010.06.03 11:52:47.
