data_PCOD9403106
_publ_section_title
;
Structure prediction by ZEFSAII (Michael W. Deem and Ramdas Pophale) SiO2 
 PCOD9403106
Probable space group: P M M A
;
_chemical_formula_sum "Si O2"
_cell_formula_units_Z 64
_cell_length_a 14.500964
_cell_length_b 9.268382
_cell_length_c 26.576384
_cell_angle_alpha 90.000000
_cell_angle_beta 90.000000
_cell_angle_gamma 90.000000
_cell_volume 3571.878599
_symmetry_space_group_name_H-M "P M M A"
_symmetry_group_IT_number 51
_symmetry_cell_setting 'orthorhombic'
loop_
_space_group_symop_operation_xyz
x,y,z
1/2-x,-y,z
1/2+x,-y,-z
-x,y,-z
-x,-y,-z
1/2+x,y,-z
1/2-x,y,z
x,-y,z
loop_
_atom_site_type_symbol
_atom_site_label
_atom_site_fract_x
_atom_site_fract_y
_atom_site_fract_z
Si Si1 0.543222 0.824705 0.075884
Si Si2 0.144811 0.824278 0.027045
Si Si3 0.457175 0.326269 0.728051
Si Si4 0.858628 0.174277 0.178964
Si Si5 0.102816 0.839305 0.521069
Si Si6 0.855746 0.323992 0.682490
Si Si7 0.856537 0.341587 0.574518
Si Si8 0.360210 0.330490 0.622272
O O1 0.437554 0.778617 0.064839
O O2 0.588086 0.778977 0.128267
O O3 0.542474 0.000000 0.075880
O O4 0.607319 0.782857 0.028414
O O5 0.250000 0.774880 0.036180
O O6 0.146928 0.000000 0.028218
O O7 0.451568 0.500000 0.734595
O O8 0.406111 0.247064 0.773148
O O9 0.565032 0.284533 0.721975
O O10 0.407459 0.291902 0.674994
O O11 0.750000 0.210539 0.176069
O O12 0.865213 0.000000 0.182722
O O13 0.145592 0.746275 0.476443
O O14 0.107034 0.759914 0.574233
O O15 0.000000 0.850717 0.500000
O O16 0.141724 0.000000 0.525462
O O17 0.750000 0.277195 0.692926
O O18 0.855471 0.500000 0.679822
O O19 0.891669 0.274925 0.626877
O O20 0.750000 0.360543 0.588266
O O21 0.899176 0.500000 0.565775
O O22 0.250000 0.312433 0.626603
O O23 0.378992 0.500000 0.612836
#
# Coordination Sequence:
#
# PCOD9403106 Si02
#       8
#     8   8   8   8   8   8   8   8
#     4   8  14  24  39  63  95 129 164 200 241 290
#     4   8  12  20  38  64  94 128 165 204 242 280
#     4  10  20  35  55  75  95 123 163 209 247 282
#     4  10  20  33  49  70  99 133 165 201 248 297
#     4  11  23  34  45  67  98 127 153 184 229 288
#     4   8  15  30  53  77  96 118 154 198 242 289
#     4   9  17  31  52  73  89 110 145 186 228 279
#     4  10  21  36  53  72  93 121 160 202 242 284
#
# _framework density 17.917742000000001
#
# number of rings (size 3 to 8) (size 9 to 14) (size 15 to 20)
#    0.000    2.750    0.000    3.750    0.000    6.750 
#    0.000    1.250    0.000    1.875    0.000    1.750 
#    0.000    1.000    0.000    0.000    0.000    0.000 
#
# Total GULP energy -356350.549649 kJ/mol
# GULP energy per Si atom -5567.977338 kJ/mol
# Density = 1.787696 g / cm^3
# Si number density = 17.917742 Si / 1000 Ang^3
#
#
#
# Elastic Constant Matrix: (Units=GPa)
#
#
# Indices 1 2 3 4 5 6 
#
# 1 148.5333 32.6006 92.1278 0.0000 0.0000 0.0000
# 2 32.6006 22.9853 38.5575 0.0000 0.0000 0.0000
# 3 92.1278 38.5575 142.8396 0.0000 0.0000 0.0000
# 4 0.0000 0.0000 0.0000 27.2245 0.0000 0.0000
# 5 0.0000 0.0000 0.0000 0.0000 29.9104 0.0000
# 6 0.0000 0.0000 0.0000 0.0000 0.0000 21.9948
#
#
#
# Elastic Compliance Matrix: (Units=1/GPa)
#
#
# Indices 1 2 3 4 5 6 
#
# 1 0.011854 -0.007287 -0.005678 0.000000 0.000000 0.000000
# 2 -0.007287 0.083989 -0.017971 0.000000 0.000000 0.000000
# 3 -0.005678 -0.017971 0.015514 0.000000 0.000000 0.000000
# 4 0.000000 0.000000 0.000000 0.036732 0.000000 0.000000
# 5 0.000000 0.000000 0.000000 0.000000 0.033433 0.000000
# 6 0.000000 0.000000 0.000000 0.000000 0.000000 0.045465
#
#
# Mechanical properties :
#
#
# Convention : Reuss Voigt Hill
#
# Bulk Modulus (GPa) = 20.20908 71.21446 45.71177
# Shear Modulus (GPa) = 16.37435 25.89742 21.13588
#
# Velocity S-wave (km/s) = 3.02630 3.80590 3.43827
# Velocity P-wave (km/s) = 4.84918 7.69056 6.42881
#
# Compressibility (1/GPa) = 0.04948271
#
# Stress axis : x y z
#
# Youngs Moduli (GPa) = 84.35993 11.90637 64.45641
#
# Poissons Ratio (x) = 0.08677 0.36601
# Poissons Ratio (y) = 0.61477 1.15837
# Poissons Ratio (z) = 0.47903 0.21397
#
# Static dielectric constant tensor:
#      x y z
#    x 1.652580 0.000000 0.000000 
#    y 0.000000 1.618470 0.000000 
#    z 0.000000 0.000000 1.608600 
# 
# From -- ./inp_files/35615.got.cif
#   From: 2010.05.17/outbox.cif.g08.bks.cpg/sg51_18_cif.got.tgz:35615.got - 2010.06.03 11:52:47.
