data_PCOD9403230
_publ_section_title
;
Structure prediction by ZEFSAII (Michael W. Deem and Ramdas Pophale) SiO2 
 PCOD9403230
Probable space group: P M M A
;
_chemical_formula_sum "Si O2"
_cell_formula_units_Z 64
_cell_length_a 15.636454
_cell_length_b 9.204947
_cell_length_c 23.829675
_cell_angle_alpha 90.000000
_cell_angle_beta 90.000000
_cell_angle_gamma 90.000000
_cell_volume 3429.870186
_symmetry_space_group_name_H-M "P M M A"
_symmetry_group_IT_number 51
_symmetry_cell_setting 'orthorhombic'
loop_
_space_group_symop_operation_xyz
x,y,z
1/2-x,-y,z
1/2+x,-y,-z
-x,y,-z
-x,-y,-z
1/2+x,y,-z
1/2-x,y,z
x,-y,z
loop_
_atom_site_type_symbol
_atom_site_label
_atom_site_fract_x
_atom_site_fract_y
_atom_site_fract_z
Si Si1 0.007569 0.673866 0.132436
Si Si2 0.097509 0.665392 0.580257
Si Si3 0.095175 0.334835 0.371523
Si Si4 0.349052 0.835919 0.474483
Si Si5 0.848537 0.173834 0.077966
Si Si6 0.154486 0.173116 0.688582
Si Si7 0.151269 0.327229 0.041457
Si Si8 0.009180 0.325834 0.260418
O O1 0.993749 0.500000 0.127812
O O2 0.920123 0.755058 0.117016
O O3 0.033258 0.705256 0.196520
O O4 0.082339 0.712865 0.088613
O O5 0.129812 0.500000 0.579650
O O6 0.103815 0.734621 0.519125
O O7 0.146589 0.762233 0.625902
O O8 0.000196 0.662187 0.601928
O O9 0.129155 0.500000 0.372889
O O10 0.145354 0.228674 0.412171
O O11 0.079570 0.286746 0.307444
O O12 0.250000 0.837906 0.491736
O O13 0.383021 0.000000 0.475826
O O14 0.750000 0.209085 0.093989
O O15 0.857080 0.000000 0.077361
O O16 0.862444 0.238539 0.015630
O O17 0.250000 0.203860 0.710395
O O18 0.079302 0.247065 0.724058
O O19 0.142396 0.000000 0.686962
O O20 0.250000 0.304364 0.059565
O O21 0.141478 0.500000 0.029536
O O22 0.996232 0.500000 0.266652
#
# Coordination Sequence:
#
# PCOD9403230 Si02
#       8
#     8   8   8   8   8   8   8   8
#     4  10  20  35  56  81 108 140 179 222 266 312
#     4  10  20  34  54  78 101 127 163 205 251 307
#     4   9  19  36  54  72  96 128 166 206 249 299
#     4  11  23  35  49  74 104 130 161 203 250 302
#     4  10  21  35  52  79 115 149 179 214 259 312
#     4  10  20  33  50  74 104 136 170 209 254 306
#     4   9  18  34  56  81 109 141 178 221 269 318
#     4   9  20  37  54  74 101 133 173 216 255 302
#
# _framework density 18.659597999999999
#
# number of rings (size 3 to 8) (size 9 to 14) (size 15 to 20)
#    0.000    2.250    0.000    3.375    0.000   11.250 
#    0.000    3.125    0.000    2.250    0.000    1.750 
#    0.000    0.000    0.000    0.000    0.000    0.000 
#
# Total GULP energy -357188.590620 kJ/mol
# GULP energy per Si atom -5581.071728 kJ/mol
# Density = 1.861713 g / cm^3
# Si number density = 18.659598 Si / 1000 Ang^3
#
#
#
# Elastic Constant Matrix: (Units=GPa)
#
#
# Indices 1 2 3 4 5 6 
#
# 1 31.2626 9.9013 19.8077 0.0000 0.0000 0.0000
# 2 9.9013 36.0389 20.1333 0.0000 0.0000 0.0000
# 3 19.8077 20.1333 89.6896 0.0000 0.0000 0.0000
# 4 0.0000 0.0000 0.0000 -0.8667 0.0000 0.0000
# 5 0.0000 0.0000 0.0000 0.0000 11.9730 0.0000
# 6 0.0000 0.0000 0.0000 0.0000 0.0000 21.8933
#
#
#
# Elastic Compliance Matrix: (Units=1/GPa)
#
#
# Indices 1 2 3 4 5 6 
#
# 1 0.038544 -0.006671 -0.007015 0.000000 0.000000 0.000000
# 2 -0.006671 0.032881 -0.005908 0.000000 0.000000 0.000000
# 3 -0.007015 -0.005908 0.014025 0.000000 0.000000 0.000000
# 4 0.000000 0.000000 0.000000 -1.153819 0.000000 0.000000
# 5 0.000000 0.000000 0.000000 0.000000 0.083521 0.000000
# 6 0.000000 0.000000 0.000000 0.000000 0.000000 0.045676
#
#
# Mechanical properties :
#
#
# Convention : Reuss Voigt Hill
#
# Bulk Modulus (GPa) = 21.61541 28.51953 25.06747
# Shear Modulus (GPa) = -5.65251 13.74317 4.04533
#
# Velocity S-wave (km/s) = -1.74237 2.71683 1.47400
# Velocity P-wave (km/s) = 2.74980 5.01586 4.04477
#
# Compressibility (1/GPa) = 0.04626329
#
# Stress axis : x y z
#
# Youngs Moduli (GPa) = 25.94407 30.41274 71.30132
#
# Poissons Ratio (x) = 0.20287 0.50018
# Poissons Ratio (y) = 0.17307 0.42124
# Poissons Ratio (z) = 0.18200 0.17967
#
# Static dielectric constant tensor:
#      x y z
#    x 1.650860 0.000000 0.000000 
#    y 0.000000 1.634950 0.000000 
#    z 0.000000 0.000000 1.644420 
# 
# From -- ./inp_files/33924.got.cif
#   From: 2010.05.17/outbox.cif.g08.bks.cpg/sg51_17_cif.got.tgz:33924.got - 2010.06.03 11:52:47.
