data_PCOD9403827
_publ_section_title
;
Structure prediction by ZEFSAII (Michael W. Deem and Ramdas Pophale) SiO2 
 PCOD9403827
Probable space group: P M M A
;
_chemical_formula_sum "Si O2"
_cell_formula_units_Z 40
_cell_length_a 16.541510
_cell_length_b 14.778769
_cell_length_c 8.673615
_cell_angle_alpha 90.000000
_cell_angle_beta 90.000000
_cell_angle_gamma 90.000000
_cell_volume 2120.379290
_symmetry_space_group_name_H-M "P M M A"
_symmetry_group_IT_number 51
_symmetry_cell_setting 'orthorhombic'
loop_
_space_group_symop_operation_xyz
x,y,z
1/2-x,-y,z
1/2+x,-y,-z
-x,y,-z
-x,-y,-z
1/2+x,y,-z
1/2-x,y,z
x,-y,z
loop_
_atom_site_type_symbol
_atom_site_label
_atom_site_fract_x
_atom_site_fract_y
_atom_site_fract_z
Si Si1 0.482489 0.606771 0.680203
Si Si2 0.157221 0.899065 0.280414
Si Si3 0.922348 0.261264 0.896600
Si Si4 0.844382 0.265942 0.209989
Si Si5 0.918011 0.895922 0.401746
O O1 0.500000 0.621952 0.500000
O O2 0.482161 0.500000 0.711242
O O3 0.549078 0.656813 0.787030
O O4 0.396312 0.652192 0.718299
O O5 0.250000 0.887707 0.233561
O O6 0.103314 0.822536 0.206219
O O7 0.149439 0.893735 0.464583
O O8 0.130050 0.000000 0.235560
O O9 0.854187 0.276932 0.025558
O O10 0.000000 0.239222 0.000000
O O11 0.750000 0.263863 0.251982
O O12 0.890538 0.175901 0.273887
O O13 0.000000 0.874195 0.500000
O O14 0.926122 0.000000 0.345616
#
# Coordination Sequence:
#
# PCOD9403827 Si02
#       5
#     8   8   8   8   8
#     4  10  22  42  65  84 105 142 192 240 286 341
#     4  10  20  34  53  78 111 150 188 228 273 321
#     4  10  21  36  57  83 112 145 185 229 280 342
#     4  11  22  35  56  87 120 152 185 232 294 349
#     4  10  20  35  56  82 114 156 203 240 273 324
#
# _framework density 18.864550000000001
#
# number of rings (size 3 to 8) (size 9 to 14) (size 15 to 20)
#    0.000    1.800    0.000    5.400    0.000    6.400 
#    0.000    1.000    0.000    4.200    0.000    0.000 
#    0.000    0.000    0.000    0.000    0.000    0.000 
#
# Total GULP energy -223150.645254 kJ/mol
# GULP energy per Si atom -5578.766131 kJ/mol
# Density = 1.882161 g / cm^3
# Si number density = 18.864550 Si / 1000 Ang^3
#
#
#
# Elastic Constant Matrix: (Units=GPa)
#
#
# Indices 1 2 3 4 5 6 
#
# 1 85.6927 67.1178 39.3631 0.0000 0.0000 0.0000
# 2 67.1178 154.3506 82.7503 0.0000 0.0000 0.0000
# 3 39.3631 82.7503 98.0927 0.0000 0.0000 0.0000
# 4 0.0000 0.0000 0.0000 -170.7522 0.0000 0.0000
# 5 0.0000 0.0000 0.0000 0.0000 17.4611 0.0000
# 6 0.0000 0.0000 0.0000 0.0000 0.0000 25.5164
#
#
#
# Elastic Compliance Matrix: (Units=1/GPa)
#
#
# Indices 1 2 3 4 5 6 
#
# 1 0.017764 -0.007125 -0.001117 0.000000 0.000000 0.000000
# 2 -0.007125 0.014686 -0.009530 0.000000 0.000000 0.000000
# 3 -0.001117 -0.009530 0.018682 0.000000 0.000000 0.000000
# 4 0.000000 0.000000 0.000000 -0.005856 0.000000 0.000000
# 5 0.000000 0.000000 0.000000 0.000000 0.057270 0.000000
# 6 0.000000 0.000000 0.000000 0.000000 0.000000 0.039190
#
#
# Mechanical properties :
#
#
# Convention : Reuss Voigt Hill
#
# Bulk Modulus (GPa) = 64.15678 79.62206 71.88942
# Shear Modulus (GPa) = 27.40061 -15.62795 5.88633
#
# Velocity S-wave (km/s) = 3.81529 -2.88137 1.76836
# Velocity P-wave (km/s) = 7.31380 5.58831 6.50849
#
# Compressibility (1/GPa) = 0.01558682
#
# Stress axis : x y z
#
# Youngs Moduli (GPa) = 56.29458 68.09052 53.52647
#
# Poissons Ratio (x) = 0.48516 0.05982
# Poissons Ratio (y) = 0.40111 0.51011
# Poissons Ratio (z) = 0.06291 0.64890
#
# Static dielectric constant tensor:
#      x y z
#    x 1.692200 0.000000 0.000000 
#    y 0.000000 1.640630 0.000000 
#    z 0.000000 0.000000 1.680210 
# 
# From -- ./inp_files/7972.got.cif
#   From: 2010.05.17/outbox.cif.g08.bks.cpg/sg51_4_cif.got.tgz:7972.got - 2010.06.03 11:52:47.
