data_PCOD9403789
_publ_section_title
;
Structure prediction by ZEFSAII (Michael W. Deem and Ramdas Pophale) SiO2 
 PCOD9403789
Probable space group: P M M A
;
_chemical_formula_sum "Si O2"
_cell_formula_units_Z 48
_cell_length_a 29.250404
_cell_length_b 7.843576
_cell_length_c 10.537311
_cell_angle_alpha 90.000000
_cell_angle_beta 90.000000
_cell_angle_gamma 90.000000
_cell_volume 2417.551731
_symmetry_space_group_name_H-M "P M M A"
_symmetry_group_IT_number 51
_symmetry_cell_setting 'orthorhombic'
loop_
_space_group_symop_operation_xyz
x,y,z
1/2-x,-y,z
1/2+x,-y,-z
-x,y,-z
-x,-y,-z
1/2+x,y,-z
1/2-x,y,z
x,-y,z
loop_
_atom_site_type_symbol
_atom_site_label
_atom_site_fract_x
_atom_site_fract_y
_atom_site_fract_z
Si Si1 0.301660 0.297412 0.500760
Si Si2 0.150391 0.798460 0.759527
Si Si3 0.444579 0.791379 0.864141
Si Si4 0.639786 0.704819 0.735286
Si Si5 0.546510 0.204679 0.844506
Si Si6 0.802461 0.293494 0.977129
O O1 0.250000 0.226739 0.496300
O O2 0.297953 0.500000 0.478927
O O3 0.324103 0.274505 0.637976
O O4 0.334556 0.229039 0.389732
O O5 0.099074 0.731066 0.785322
O O6 0.147188 0.000000 0.739046
O O7 0.178372 0.766092 0.888271
O O8 0.494745 0.737193 0.816900
O O9 0.443526 0.000000 0.863784
O O10 0.441000 0.737386 0.011975
O O11 0.643425 0.500000 0.735672
O O12 0.586453 0.745816 0.749234
O O13 0.665949 0.767993 0.861458
O O14 0.544998 0.000000 0.849293
O O15 0.750000 0.239917 0.959053
O O16 0.803361 0.500000 0.977290
#
# Coordination Sequence:
#
# PCOD9403789 Si02
#       6
#     8   8   8   8   8   8
#     4  10  22  40  57  73 104 150 186 214 261 322
#     4  11  21  35  55  81 108 136 176 224 266 308
#     4   8  16  31  53  79 108 141 173 209 263 323
#     4  10  20  35  55  80 106 136 179 225 264 307
#     4   9  16  32  56  79 106 141 175 212 263 322
#     4  10  20  34  53  77 105 137 174 217 267 321
#
# _framework density 19.854799
#
# number of rings (size 3 to 8) (size 9 to 14) (size 15 to 20)
#    0.000    2.333    1.667    2.500    0.000    5.333 
#    0.000    4.167    0.000    8.000    0.000    0.000 
#    0.000    0.000    0.000    0.000    0.000    0.000 
#
# Total GULP energy -267893.112557 kJ/mol
# GULP energy per Si atom -5581.106512 kJ/mol
# Density = 1.980961 g / cm^3
# Si number density = 19.854799 Si / 1000 Ang^3
#
#
#
# Elastic Constant Matrix: (Units=GPa)
#
#
# Indices 1 2 3 4 5 6 
#
# 1 97.2851 3.2531 -14.9704 0.0000 0.0000 0.0000
# 2 3.2531 20.2312 -3.6049 0.0000 0.0000 0.0000
# 3 -14.9704 -3.6049 22.3258 0.0000 0.0000 0.0000
# 4 0.0000 0.0000 0.0000 -21.0177 0.0000 0.0000
# 5 0.0000 0.0000 0.0000 0.0000 30.1226 0.0000
# 6 0.0000 0.0000 0.0000 0.0000 0.0000 22.5502
#
#
#
# Elastic Compliance Matrix: (Units=1/GPa)
#
#
# Indices 1 2 3 4 5 6 
#
# 1 0.011466 -0.000488 0.007610 0.000000 0.000000 0.000000
# 2 -0.000488 0.050914 0.007894 0.000000 0.000000 0.000000
# 3 0.007610 0.007894 0.051169 0.000000 0.000000 0.000000
# 4 0.000000 0.000000 0.000000 -0.047579 0.000000 0.000000
# 5 0.000000 0.000000 0.000000 0.000000 0.033198 0.000000
# 6 0.000000 0.000000 0.000000 0.000000 0.000000 0.044345
#
#
# Mechanical properties :
#
#
# Convention : Reuss Voigt Hill
#
# Bulk Modulus (GPa) = 6.96471 12.13307 9.54889
# Shear Modulus (GPa) = 30.99023 16.67531 23.83277
#
# Velocity S-wave (km/s) = 3.95504 2.90118 3.46837
# Velocity P-wave (km/s) = 4.93679 4.16493 4.56719
#
# Compressibility (1/GPa) = 0.14358102
#
# Stress axis : x y z
#
# Youngs Moduli (GPa) = 87.21124 19.64107 19.54319
#
# Poissons Ratio (x) = 0.00958 -0.14872
# Poissons Ratio (y) = 0.04254 -0.15427
# Poissons Ratio (z) = -0.66367 -0.15504
#
# Static dielectric constant tensor:
#      x y z
#    x 1.718750 0.000000 0.000000 
#    y 0.000000 1.730750 0.000000 
#    z 0.000000 0.000000 1.664610 
# 
# From -- ./inp_files/12722.got.cif
#   From: 2010.05.17/outbox.cif.g08.bks.cpg/sg51_7_cif.got.tgz:12722.got - 2010.06.03 11:52:47.
