data_PCOD9403237
_publ_section_title
;
Structure prediction by ZEFSAII (Michael W. Deem and Ramdas Pophale) SiO2 
 PCOD9403237
Probable space group: P M M A
;
_chemical_formula_sum "Si O2"
_cell_formula_units_Z 44
_cell_length_a 9.685422
_cell_length_b 17.685505
_cell_length_c 14.614581
_cell_angle_alpha 90.000000
_cell_angle_beta 90.000000
_cell_angle_gamma 90.000000
_cell_volume 2503.354659
_symmetry_space_group_name_H-M "P M M A"
_symmetry_group_IT_number 51
_symmetry_cell_setting 'orthorhombic'
loop_
_space_group_symop_operation_xyz
x,y,z
1/2-x,-y,z
1/2+x,-y,-z
-x,y,-z
-x,-y,-z
1/2+x,y,-z
1/2-x,y,z
x,-y,z
loop_
_atom_site_type_symbol
_atom_site_label
_atom_site_fract_x
_atom_site_fract_y
_atom_site_fract_z
Si Si1 0.095705 0.252848 0.410681
Si Si2 0.410746 0.290031 0.755531
Si Si3 0.036476 0.082581 0.392540
Si Si4 0.413263 0.587010 0.909302
Si Si5 0.417512 0.000000 0.096283
Si Si6 0.404253 0.885365 0.791050
O O1 0.250000 0.281663 0.426823
O O2 0.107494 0.163837 0.383768
O O3 0.000000 0.256875 0.500000
O O4 0.014685 0.293112 0.329011
O O5 0.250000 0.299097 0.726383
O O6 0.443613 0.353155 0.830223
O O7 0.420528 0.205006 0.795932
O O8 0.000000 0.079880 0.500000
O O9 0.917123 0.091217 0.316107
O O10 0.100494 0.000000 0.372764
O O11 0.250000 0.592628 0.929727
O O12 0.441433 0.500000 0.881347
O O13 0.500000 0.603026 0.000000
O O14 0.476878 0.928535 0.153685
O O15 0.250000 0.000000 0.088183
O O16 0.500000 0.000000 0.000000
O O17 0.250000 0.905487 0.824079
#
# Coordination Sequence:
#
# PCOD9403237 Si02
#       6
#     8   8   8   8   4   8
#     4  10  20  33  50  74 105 143 183 225 267 312
#     4   9  19  35  55  80 109 142 176 213 261 317
#     4   9  18  31  49  77 105 139 172 215 262 319
#     4   9  18  34  57  85 115 142 169 208 262 321
#     4  12  26  42  57  72  95 132 179 228 274 318
#     4  10  20  37  57  77 104 139 179 223 267 312
#
# _framework density 17.576415000000001
#
# number of rings (size 3 to 8) (size 9 to 14) (size 15 to 20)
#    0.000    2.364    0.909    1.364    0.000    9.091 
#    0.000    5.455    0.000    0.545    0.000    0.000 
#    0.000    0.000    0.000    0.000    0.000    0.000 
#
# Total GULP energy -244958.885400 kJ/mol
# GULP energy per Si atom -5567.247395 kJ/mol
# Density = 1.753641 g / cm^3
# Si number density = 17.576415 Si / 1000 Ang^3
#
#
#
# Elastic Constant Matrix: (Units=GPa)
#
#
# Indices 1 2 3 4 5 6 
#
# 1 140.0222 54.0281 74.6745 0.0000 0.0000 0.0000
# 2 54.0281 94.5589 68.2499 0.0000 0.0000 0.0000
# 3 74.6745 68.2499 105.9585 0.0000 0.0000 0.0000
# 4 0.0000 0.0000 0.0000 30.9566 0.0000 0.0000
# 5 0.0000 0.0000 0.0000 0.0000 22.9004 0.0000
# 6 0.0000 0.0000 0.0000 0.0000 0.0000 10.8365
#
#
#
# Elastic Compliance Matrix: (Units=1/GPa)
#
#
# Indices 1 2 3 4 5 6 
#
# 1 0.011534 -0.001351 -0.007258 0.000000 0.000000 0.000000
# 2 -0.001351 0.019922 -0.011880 0.000000 0.000000 0.000000
# 3 -0.007258 -0.011880 0.022205 0.000000 0.000000 0.000000
# 4 0.000000 0.000000 0.000000 0.032303 0.000000 0.000000
# 5 0.000000 0.000000 0.000000 0.000000 0.043667 0.000000
# 6 0.000000 0.000000 0.000000 0.000000 0.000000 0.092280
#
#
# Mechanical properties :
#
#
# Convention : Reuss Voigt Hill
#
# Bulk Modulus (GPa) = 78.85050 81.60494 80.22772
# Shear Modulus (GPa) = 18.71834 22.51118 20.61476
#
# Velocity S-wave (km/s) = 3.26693 3.58265 3.42843
# Velocity P-wave (km/s) = 7.69346 7.97768 7.83686
#
# Compressibility (1/GPa) = 0.01268223
#
# Stress axis : x y z
#
# Youngs Moduli (GPa) = 86.70039 50.19559 45.03534
#
# Poissons Ratio (x) = 0.06784 0.32687
# Poissons Ratio (y) = 0.11717 0.53501
# Poissons Ratio (z) = 0.62928 0.59631
#
# Static dielectric constant tensor:
#      x y z
#    x 1.613960 0.000000 0.000000 
#    y 0.000000 1.595020 0.000000 
#    z 0.000000 0.000000 1.590400 
# 
# From -- ./inp_files/20877.got.cif
#   From: 2010.05.17/outbox.cif.g08.bks.cpg/sg51_11_cif.got.tgz:20877.got - 2010.06.03 11:52:47.
