data_PCOD9403110
_publ_section_title
;
Structure prediction by ZEFSAII (Michael W. Deem and Ramdas Pophale) SiO2 
 PCOD9403110
Probable space group: P M M A
;
_chemical_formula_sum "Si O2"
_cell_formula_units_Z 56
_cell_length_a 8.063125
_cell_length_b 15.987200
_cell_length_c 21.037215
_cell_angle_alpha 90.000000
_cell_angle_beta 90.000000
_cell_angle_gamma 90.000000
_cell_volume 2711.839898
_symmetry_space_group_name_H-M "P M M A"
_symmetry_group_IT_number 51
_symmetry_cell_setting 'orthorhombic'
loop_
_space_group_symop_operation_xyz
x,y,z
1/2-x,-y,z
1/2+x,-y,-z
-x,y,-z
-x,-y,-z
1/2+x,y,-z
1/2-x,y,z
x,-y,z
loop_
_atom_site_type_symbol
_atom_site_label
_atom_site_fract_x
_atom_site_fract_y
_atom_site_fract_z
Si Si1 0.948800 0.910258 0.398263
Si Si2 0.444453 0.327696 0.296898
Si Si3 0.052555 0.731145 0.930083
Si Si4 0.551050 0.146452 0.258363
Si Si5 0.547970 0.091030 0.117989
Si Si6 0.549517 0.592296 0.828659
Si Si7 0.054057 0.725106 0.431434
O O1 0.750000 0.908975 0.406557
O O2 0.982726 0.904284 0.322613
O O3 0.014744 0.824183 0.426879
O O4 0.013104 0.000000 0.422132
O O5 0.250000 0.348440 0.303880
O O6 0.462156 0.235096 0.266987
O O7 0.514319 0.388074 0.242664
O O8 0.518125 0.319007 0.367957
O O9 0.250000 0.735950 0.927421
O O10 0.986606 0.825205 0.916606
O O11 0.998907 0.665679 0.876559
O O12 0.000000 0.703459 0.000000
O O13 0.750000 0.161922 0.256463
O O14 0.506367 0.102530 0.192621
O O15 0.750000 0.090477 0.113924
O O16 0.488803 0.000000 0.095187
O O17 0.750000 0.592202 0.825964
O O18 0.494174 0.500000 0.849448
O O19 0.250000 0.717106 0.427668
O O20 0.000000 0.692902 0.500000
#
# Coordination Sequence:
#
# PCOD9403110 Si02
#       7
#     8   8   8   8   8   8   8
#     4   9  17  28  44  68  98 133 175 224 274 323
#     4   9  18  33  54  79 108 137 172 220 273 324
#     4  11  23  39  59  84 116 154 189 229 276 324
#     4   9  15  27  49  75 102 136 178 222 270 321
#     4   9  17  30  51  79 110 146 188 229 270 318
#     4  10  21  39  64  90 114 142 178 224 280 341
#     4  10  20  33  49  71 100 139 179 219 266 322
#
# _framework density 20.650185
#
# number of rings (size 3 to 8) (size 9 to 14) (size 15 to 20)
#    0.000    2.429    1.429    1.286    0.000    3.714 
#    0.000    0.000    0.000    4.714    0.000    0.000 
#    0.000    0.000    0.000    0.000    0.000    0.429 
#
# Total GULP energy -312339.545563 kJ/mol
# GULP energy per Si atom -5577.491885 kJ/mol
# Density = 2.060318 g / cm^3
# Si number density = 20.650185 Si / 1000 Ang^3
#
#
#
# Elastic Constant Matrix: (Units=GPa)
#
#
# Indices 1 2 3 4 5 6 
#
# 1 16.1829 10.5330 12.0048 0.0000 0.0000 0.0000
# 2 10.5330 93.2142 49.1454 0.0000 0.0000 0.0000
# 3 12.0048 49.1454 127.7482 0.0000 0.0000 0.0000
# 4 0.0000 0.0000 0.0000 2.2009 0.0000 0.0000
# 5 0.0000 0.0000 0.0000 0.0000 14.2790 0.0000
# 6 0.0000 0.0000 0.0000 0.0000 0.0000 13.4510
#
#
#
# Elastic Compliance Matrix: (Units=1/GPa)
#
#
# Indices 1 2 3 4 5 6 
#
# 1 0.068568 -0.005458 -0.004344 0.000000 0.000000 0.000000
# 2 -0.005458 0.013892 -0.004831 0.000000 0.000000 0.000000
# 3 -0.004344 -0.004831 0.010095 0.000000 0.000000 0.000000
# 4 0.000000 0.000000 0.000000 0.454354 0.000000 0.000000
# 5 0.000000 0.000000 0.000000 0.000000 0.070033 0.000000
# 6 0.000000 0.000000 0.000000 0.000000 0.000000 0.074344
#
#
# Mechanical properties :
#
#
# Convention : Reuss Voigt Hill
#
# Bulk Modulus (GPa) = 15.80059 42.27909 29.03984
# Shear Modulus (GPa) = 6.74174 17.01700 11.87937
#
# Velocity S-wave (km/s) = 1.80882 2.87376 2.40107
# Velocity P-wave (km/s) = 3.46851 5.61513 4.66692
#
# Compressibility (1/GPa) = 0.06328879
#
# Stress axis : x y z
#
# Youngs Moduli (GPa) = 14.58399 71.98390 99.06109
#
# Poissons Ratio (x) = 0.39288 0.43031
# Poissons Ratio (y) = 0.07960 0.47861
# Poissons Ratio (z) = 0.06335 0.34779
#
# Static dielectric constant tensor:
#      x y z
#    x 1.736600 0.000000 0.000000 
#    y 0.000000 1.774270 0.000000 
#    z 0.000000 0.000000 1.771190 
# 
# From -- ./inp_files/31914.got.cif
#   From: 2010.05.17/outbox.cif.g08.bks.cpg/sg51_16_cif.got.tgz:31914.got - 2010.06.03 11:52:47.
