data_PCOD9403422
_publ_section_title
;
Structure prediction by ZEFSAII (Michael W. Deem and Ramdas Pophale) SiO2 
 PCOD9403422
Probable space group: P M M A
;
_chemical_formula_sum "Si O2"
_cell_formula_units_Z 64
_cell_length_a 14.576458
_cell_length_b 18.724710
_cell_length_c 12.500305
_cell_angle_alpha 90.000000
_cell_angle_beta 90.000000
_cell_angle_gamma 90.000000
_cell_volume 3411.832608
_symmetry_space_group_name_H-M "P M M A"
_symmetry_group_IT_number 51
_symmetry_cell_setting 'orthorhombic'
loop_
_space_group_symop_operation_xyz
x,y,z
1/2-x,-y,z
1/2+x,-y,-z
-x,y,-z
-x,-y,-z
1/2+x,y,-z
1/2-x,y,z
x,-y,z
loop_
_atom_site_type_symbol
_atom_site_label
_atom_site_fract_x
_atom_site_fract_y
_atom_site_fract_z
Si Si1 0.639607 0.920382 0.500000
Si Si2 0.646700 0.586305 0.883726
Si Si3 0.500000 0.268097 0.376844
Si Si4 0.639432 0.836278 0.717469
Si Si5 1.000000 0.085949 0.871528
Si Si6 0.500000 0.584066 0.295448
Si Si7 0.853300 0.586305 0.116273
Si Si8 0.360568 0.836278 0.717469
O O1 0.750000 0.923176 0.500000
O O2 0.616946 0.881806 0.610499
O O3 0.616947 0.881806 0.389502
O O4 0.603057 0.000000 0.500000
O O5 0.750000 0.613011 0.871283
O O6 0.649892 0.500000 0.889933
O O7 0.585394 0.599559 0.782257
O O8 0.611328 0.611116 0.999999
O O9 0.500000 0.242406 0.500000
O O10 0.412150 0.237593 0.311756
O O11 0.500001 0.353619 0.380564
O O12 0.587850 0.237593 0.311756
O O13 0.750000 0.830698 0.730487
O O14 0.587914 0.876057 0.815117
O O15 0.087914 0.123943 0.815117
O O16 1.000000 0.000000 0.851150
O O17 0.000000 0.096221 0.000000
O O18 0.500000 0.500000 0.327102
O O19 0.585394 0.599558 0.217742
O O20 0.750000 0.613011 0.128715
O O21 0.850107 0.500000 0.110065
O O22 0.250000 0.830699 0.730487
#
# Coordination Sequence:
#
# PCOD9403422 Si02
#       8
#     8   8   8   8   8   8   8   8
#     4   9  16  29  57  93 114 132 176 234 286 329
#     4   8  14  27  49  76 103 129 162 213 279 343
#     4  11  23  39  57  80 109 147 194 244 304 367
#     4  10  21  39  61  86 118 157 197 241 292 346
#     4  10  22  38  59  92 130 167 204 234 269 332
#     4  10  20  33  52  77 106 141 186 239 293 353
#     4   8  14  27  49  76 103 129 162 213 279 343
#     4  10  21  39  61  86 118 157 197 241 292 346
#
# _framework density 18.758247000000001
#
# number of rings (size 3 to 8) (size 9 to 14) (size 15 to 20)
#    0.000    2.500    1.250    1.875    0.000    4.750 
#    0.000    8.125    0.000    0.000    0.000    5.250 
#    0.000    0.000    0.000    0.000    0.000    0.000 
#
# Total GULP energy -356314.381990 kJ/mol
# GULP energy per Si atom -5567.412219 kJ/mol
# Density = 1.871555 g / cm^3
# Si number density = 18.758247 Si / 1000 Ang^3
#
#
#
# Elastic Constant Matrix: (Units=GPa)
#
#
# Indices 1 2 3 4 5 6 
#
# 1 128.7012 39.0430 49.1045 0.0000 0.0000 0.0000
# 2 39.0430 105.8253 48.1158 0.0000 0.0000 0.0000
# 3 49.1045 48.1158 111.5565 0.0000 0.0000 0.0000
# 4 0.0000 0.0000 0.0000 26.4591 0.0000 0.0000
# 5 0.0000 0.0000 0.0000 0.0000 22.4798 0.0000
# 6 0.0000 0.0000 0.0000 0.0000 0.0000 10.0087
#
#
#
# Elastic Compliance Matrix: (Units=1/GPa)
#
#
# Indices 1 2 3 4 5 6 
#
# 1 0.009677 -0.002032 -0.003383 0.000000 0.000000 0.000000
# 2 -0.002032 0.012181 -0.004360 0.000000 0.000000 0.000000
# 3 -0.003383 -0.004360 0.012334 0.000000 0.000000 0.000000
# 4 0.000000 0.000000 0.000000 0.037794 0.000000 0.000000
# 5 0.000000 0.000000 0.000000 0.000000 0.044484 0.000000
# 6 0.000000 0.000000 0.000000 0.000000 0.000000 0.099913
#
#
# Mechanical properties :
#
#
# Convention : Reuss Voigt Hill
#
# Bulk Modulus (GPa) = 68.29391 68.73441 68.51416
# Shear Modulus (GPa) = 20.76285 25.77749 23.27017
#
# Velocity S-wave (km/s) = 3.33057 3.71103 3.52594
# Velocity P-wave (km/s) = 7.16077 7.42187 7.29249
#
# Compressibility (1/GPa) = 0.01464259
#
# Stress axis : x y z
#
# Youngs Moduli (GPa) = 103.33560 82.09242 81.07919
#
# Poissons Ratio (x) = 0.16681 0.27431
# Poissons Ratio (y) = 0.20998 0.35347
# Poissons Ratio (z) = 0.34961 0.35789
#
# Static dielectric constant tensor:
#      x y z
#    x 1.681900 0.000000 0.000000 
#    y 0.000000 1.671760 0.000000 
#    z 0.000000 0.000000 1.636490 
# 
# From -- ./inp_files/16847.got.cif
#   From: 2010.05.17/outbox.cif.g08.bks.cpg/sg51_9_cif.got.tgz:16847.got - 2010.06.03 11:52:47.
