data_PCOD9403340
_publ_section_title
;
Structure prediction by ZEFSAII (Michael W. Deem and Ramdas Pophale) SiO2 
 PCOD9403340
Probable space group: P M M A
;
_chemical_formula_sum "Si O2"
_cell_formula_units_Z 48
_cell_length_a 9.415595
_cell_length_b 7.769613
_cell_length_c 31.823920
_cell_angle_alpha 90.000000
_cell_angle_beta 90.000000
_cell_angle_gamma 90.000000
_cell_volume 2328.095712
_symmetry_space_group_name_H-M "P M M A"
_symmetry_group_IT_number 51
_symmetry_cell_setting 'orthorhombic'
loop_
_space_group_symop_operation_xyz
x,y,z
1/2-x,-y,z
1/2+x,-y,-z
-x,y,-z
-x,-y,-z
1/2+x,y,-z
1/2-x,y,z
x,-y,z
loop_
_atom_site_type_symbol
_atom_site_label
_atom_site_fract_x
_atom_site_fract_y
_atom_site_fract_z
Si Si1 0.911683 0.295018 0.120272
Si Si2 0.912232 0.707125 0.376849
Si Si3 0.585858 0.289407 0.541498
Si Si4 0.087624 0.793153 0.785865
Si Si5 0.588649 0.792474 0.706159
Si Si6 0.409520 0.205338 0.039118
O O1 0.750000 0.226304 0.115691
O O2 0.905452 0.500000 0.117624
O O3 0.962136 0.248436 0.167083
O O4 0.010298 0.232657 0.082844
O O5 0.750000 0.772021 0.376826
O O6 0.905484 0.500000 0.380206
O O7 0.002785 0.768752 0.416863
O O8 0.993599 0.749243 0.334043
O O9 0.500000 0.236378 0.500000
O O10 0.750000 0.233719 0.540994
O O11 0.587141 0.500000 0.541751
O O12 0.250000 0.727897 0.781407
O O13 0.987453 0.728534 0.748623
O O14 0.093160 0.000000 0.782402
O O15 0.750000 0.728051 0.701759
O O16 0.595219 0.000000 0.708831
O O17 0.250000 0.276256 0.039933
O O18 0.398935 0.000000 0.032984
O O19 0.500000 0.275905 0.000000
#
# Coordination Sequence:
#
# PCOD9403340 Si02
#       6
#     8   8   8   8   8   8
#     4  10  21  36  55  81 112 143 174 212 261 313
#     4  10  20  33  51  76 104 135 173 216 261 309
#     4   9  16  27  45  70 101 135 171 212 257 306
#     4   9  18  34  55  76 101 137 178 216 254 302
#     4  10  21  36  54  77 105 137 173 214 261 313
#     4  10  21  37  58  82 107 139 180 222 262 307
#
# _framework density 20.617709000000001
#
# number of rings (size 3 to 8) (size 9 to 14) (size 15 to 20)
#    0.000    2.333    0.000    2.500    0.000    7.667 
#    0.000    3.333    0.000    0.500    0.000    0.000 
#    0.000    0.000    0.000    0.000    0.000    0.000 
#
# Total GULP energy -268106.308412 kJ/mol
# GULP energy per Si atom -5585.548092 kJ/mol
# Density = 2.057078 g / cm^3
# Si number density = 20.617709 Si / 1000 Ang^3
#
#
#
# Elastic Constant Matrix: (Units=GPa)
#
#
# Indices 1 2 3 4 5 6 
#
# 1 201.1008 7.5888 146.7376 0.0000 0.0000 0.0000
# 2 7.5888 27.4737 -2.0087 0.0000 0.0000 0.0000
# 3 146.7376 -2.0087 216.2772 0.0000 0.0000 0.0000
# 4 0.0000 0.0000 0.0000 21.4354 0.0000 0.0000
# 5 0.0000 0.0000 0.0000 0.0000 42.6163 0.0000
# 6 0.0000 0.0000 0.0000 0.0000 0.0000 13.4464
#
#
#
# Elastic Compliance Matrix: (Units=1/GPa)
#
#
# Indices 1 2 3 4 5 6 
#
# 1 0.010139 -0.003306 -0.006910 0.000000 0.000000 0.000000
# 2 -0.003306 0.037501 0.002591 0.000000 0.000000 0.000000
# 3 -0.006910 0.002591 0.009336 0.000000 0.000000 0.000000
# 4 0.000000 0.000000 0.000000 0.046652 0.000000 0.000000
# 5 0.000000 0.000000 0.000000 0.000000 0.023465 0.000000
# 6 0.000000 0.000000 0.000000 0.000000 0.000000 0.074369
#
#
# Mechanical properties :
#
#
# Convention : Reuss Voigt Hill
#
# Bulk Modulus (GPa) = 23.96523 83.27634 53.62079
# Shear Modulus (GPa) = 21.68057 35.00189 28.34123
#
# Velocity S-wave (km/s) = 3.24628 4.12474 3.71159
# Velocity P-wave (km/s) = 5.06951 7.94752 6.66569
#
# Compressibility (1/GPa) = 0.04172711
#
# Stress axis : x y z
#
# Youngs Moduli (GPa) = 98.62512 26.66595 107.11249
#
# Poissons Ratio (x) = 0.08816 0.74015
# Poissons Ratio (y) = 0.32605 -0.27756
# Poissons Ratio (z) = 0.68150 -0.06910
#
# Static dielectric constant tensor:
#      x y z
#    x 1.731220 0.000000 0.000000 
#    y 0.000000 1.771860 0.000000 
#    z 0.000000 0.000000 1.690940 
# 
# From -- ./inp_files/36901.got.cif
#   From: 2010.05.17/outbox.cif.g08.bks.cpg/sg51_19_cif.got.tgz:36901.got - 2010.06.03 11:52:47.
