data_PCOD9403659
_publ_section_title
;
Structure prediction by ZEFSAII (Michael W. Deem and Ramdas Pophale) SiO2 
 PCOD9403659
Probable space group: P M M A
;
_chemical_formula_sum "Si O2"
_cell_formula_units_Z 48
_cell_length_a 19.540074
_cell_length_b 7.359291
_cell_length_c 14.073129
_cell_angle_alpha 90.000000
_cell_angle_beta 90.000000
_cell_angle_gamma 90.000000
_cell_volume 2023.731300
_symmetry_space_group_name_H-M "P M M A"
_symmetry_group_IT_number 51
_symmetry_cell_setting 'orthorhombic'
loop_
_space_group_symop_operation_xyz
x,y,z
1/2-x,-y,z
1/2+x,-y,-z
-x,y,-z
-x,-y,-z
1/2+x,y,-z
1/2-x,y,z
x,-y,z
loop_
_atom_site_type_symbol
_atom_site_label
_atom_site_fract_x
_atom_site_fract_y
_atom_site_fract_z
Si Si1 0.328377 0.219011 0.795081
Si Si2 0.172080 0.710990 0.011709
Si Si3 0.546702 0.222018 0.696949
Si Si4 0.171647 0.221893 0.422034
Si Si5 0.589953 0.221323 0.390684
Si Si6 0.467148 0.794879 0.094238
O O1 0.250000 0.278143 0.781020
O O2 0.348934 0.276121 0.900779
O O3 0.373697 0.279041 0.707049
O O4 0.329507 0.000000 0.794989
O O5 0.250000 0.782179 0.019150
O O6 0.173156 0.500000 0.038174
O O7 0.113848 0.802551 0.073696
O O8 0.621771 0.278124 0.663480
O O9 0.489237 0.273765 0.620077
O O10 0.525051 0.286384 0.801489
O O11 0.547161 0.000000 0.701349
O O12 0.250000 0.282574 0.416432
O O13 0.133512 0.280278 0.518760
O O14 0.172974 0.000000 0.422957
O O15 0.590799 0.000000 0.393663
O O16 0.496525 0.000000 0.099470
O O17 0.500000 0.708484 0.000000
#
# Coordination Sequence:
#
# PCOD9403659 Si02
#       6
#     8   8   8   8   8   8
#     4   9  16  27  46  71  96 124 160 202 247 293
#     4  10  21  35  50  71 100 133 169 209 254 304
#     4   9  17  27  41  63  92 125 159 198 243 288
#     4   9  16  25  38  61  94 127 157 190 233 289
#     4   9  15  25  42  64  92 124 156 193 239 290
#     4  10  20  34  52  74 100 132 172 215 255 297
#
# _framework density 23.718565000000002
#
# number of rings (size 3 to 8) (size 9 to 14) (size 15 to 20)
#    0.000    2.667    0.000    2.500    0.000    8.667 
#    0.000    1.667    0.000    0.000    0.000    1.167 
#    0.000    8.000    0.000    0.000    0.000    0.000 
#
# Total GULP energy -268233.606239 kJ/mol
# GULP energy per Si atom -5588.200130 kJ/mol
# Density = 2.366458 g / cm^3
# Si number density = 23.718565 Si / 1000 Ang^3
#
#
#
# Elastic Constant Matrix: (Units=GPa)
#
#
# Indices 1 2 3 4 5 6 
#
# 1 135.7327 2.9531 67.7483 0.0000 0.0000 0.0000
# 2 2.9531 88.9281 -0.4444 0.0000 0.0000 0.0000
# 3 67.7483 -0.4444 113.8388 0.0000 0.0000 0.0000
# 4 0.0000 0.0000 0.0000 51.0148 0.0000 0.0000
# 5 0.0000 0.0000 0.0000 0.0000 41.9556 0.0000
# 6 0.0000 0.0000 0.0000 0.0000 0.0000 -37.0053
#
#
#
# Elastic Compliance Matrix: (Units=1/GPa)
#
#
# Indices 1 2 3 4 5 6 
#
# 1 0.010493 -0.000380 -0.006246 0.000000 0.000000 0.000000
# 2 -0.000380 0.011259 0.000270 0.000000 0.000000 0.000000
# 3 -0.006246 0.000270 0.012503 0.000000 0.000000 0.000000
# 4 0.000000 0.000000 0.000000 0.019602 0.000000 0.000000
# 5 0.000000 0.000000 0.000000 0.000000 0.023835 0.000000
# 6 0.000000 0.000000 0.000000 0.000000 0.000000 -0.027023
#
#
# Mechanical properties :
#
#
# Convention : Reuss Voigt Hill
#
# Bulk Modulus (GPa) = 46.41900 53.22374 49.82137
# Shear Modulus (GPa) = 70.85949 29.07588 49.96768
#
# Velocity S-wave (km/s) = 5.47174 3.50504 4.59485
# Velocity P-wave (km/s) = 7.71578 6.23449 7.01434
#
# Compressibility (1/GPa) = 0.02154290
#
# Stress axis : x y z
#
# Youngs Moduli (GPa) = 95.29762 88.81783 79.98216
#
# Poissons Ratio (x) = 0.03372 0.49960
# Poissons Ratio (y) = 0.03618 -0.02159
# Poissons Ratio (z) = 0.59527 -0.02397
#
# Static dielectric constant tensor:
#      x y z
#    x 1.879180 0.000000 0.000000 
#    y 0.000000 1.935240 0.000000 
#    z 0.000000 0.000000 1.854860 
# 
# From -- ./inp_files/24815.got.cif
#   From: 2010.05.17/outbox.cif.g08.bks.cpg/sg51_13_cif.got.tgz:24815.got - 2010.06.03 11:52:47.
