data_PCOD9403644
_publ_section_title
;
Structure prediction by ZEFSAII (Michael W. Deem and Ramdas Pophale) SiO2 
 PCOD9403644
Probable space group: P M M A
;
_chemical_formula_sum "Si O2"
_cell_formula_units_Z 48
_cell_length_a 8.523122
_cell_length_b 14.193929
_cell_length_c 24.590101
_cell_angle_alpha 90.000000
_cell_angle_beta 90.000000
_cell_angle_gamma 90.000000
_cell_volume 2974.826530
_symmetry_space_group_name_H-M "P M M A"
_symmetry_group_IT_number 51
_symmetry_cell_setting 'orthorhombic'
loop_
_space_group_symop_operation_xyz
x,y,z
1/2-x,-y,z
1/2+x,-y,-z
-x,y,-z
-x,-y,-z
1/2+x,y,-z
1/2-x,y,z
x,-y,z
loop_
_atom_site_type_symbol
_atom_site_label
_atom_site_fract_x
_atom_site_fract_y
_atom_site_fract_z
Si Si1 0.939477 0.609463 0.941107
Si Si2 0.440897 0.289499 0.167501
Si Si3 0.936455 0.211097 0.335024
Si Si4 0.439780 0.607399 0.278323
Si Si5 0.439892 0.893496 0.229014
Si Si6 0.437968 0.890729 0.440301
O O1 0.750000 0.611637 0.941722
O O2 0.987016 0.500000 0.933253
O O3 0.995850 0.671471 0.890279
O O4 0.000000 0.640579 0.000000
O O5 0.250000 0.289552 0.165813
O O6 0.485190 0.357642 0.217670
O O7 0.491282 0.184622 0.184981
O O8 0.750000 0.207321 0.333260
O O9 0.993513 0.316022 0.319931
O O10 0.004533 0.143987 0.287505
O O11 0.996579 0.174408 0.392744
O O12 0.250000 0.611182 0.280850
O O13 0.489429 0.500000 0.287677
O O14 0.250000 0.893271 0.229557
O O15 0.493521 0.000000 0.218876
O O16 0.500000 0.864642 0.500000
O O17 0.250000 0.886946 0.440084
O O18 0.485741 0.000000 0.430246
#
# Coordination Sequence:
#
# PCOD9403644 Si02
#       6
#     8   8   8   8   8   8
#     4   9  16  26  41  61  85 113 145 182 225 274
#     4   8  14  26  45  67  88 113 148 188 229 271
#     4  11  21  31  46  70 100 129 154 184 226 277
#     4   9  17  31  51  71  91 119 156 195 232 271
#     4   9  17  30  48  68  89 116 153 194 231 270
#     4  10  20  34  52  73  97 125 158 195 232 271
#
# _framework density 16.135394999999999
#
# number of rings (size 3 to 8) (size 9 to 14) (size 15 to 20)
#    0.000    2.667    0.000    4.000    0.000    5.667 
#    0.000    3.333    0.000    5.000    0.000    0.000 
#    0.000    0.000    0.000    0.000    0.000    0.000 
#
# Total GULP energy -267601.526235 kJ/mol
# GULP energy per Si atom -5575.031797 kJ/mol
# Density = 1.609867 g / cm^3
# Si number density = 16.135395 Si / 1000 Ang^3
#
#
#
# Elastic Constant Matrix: (Units=GPa)
#
#
# Indices 1 2 3 4 5 6 
#
# 1 17.0861 24.6007 21.5737 0.0000 0.0000 0.0000
# 2 24.6007 138.0900 93.4928 0.0000 0.0000 0.0000
# 3 21.5737 93.4928 150.3898 0.0000 0.0000 0.0000
# 4 0.0000 0.0000 0.0000 22.6913 0.0000 0.0000
# 5 0.0000 0.0000 0.0000 0.0000 24.3693 0.0000
# 6 0.0000 0.0000 0.0000 0.0000 0.0000 10.0207
#
#
#
# Elastic Compliance Matrix: (Units=1/GPa)
#
#
# Indices 1 2 3 4 5 6 
#
# 1 0.080478 -0.011260 -0.004544 0.000000 0.000000 0.000000
# 2 -0.011260 0.014080 -0.007138 0.000000 0.000000 0.000000
# 3 -0.004544 -0.007138 0.011739 0.000000 0.000000 0.000000
# 4 0.000000 0.000000 0.000000 0.044070 0.000000 0.000000
# 5 0.000000 0.000000 0.000000 0.000000 0.041035 0.000000
# 6 0.000000 0.000000 0.000000 0.000000 0.000000 0.099794
#
#
# Mechanical properties :
#
#
# Convention : Reuss Voigt Hill
#
# Bulk Modulus (GPa) = 16.55314 64.98893 40.77103
# Shear Modulus (GPa) = 13.99702 22.47617 18.23659
#
# Velocity S-wave (km/s) = 2.94848 3.73630 3.36553
# Velocity P-wave (km/s) = 4.67681 7.67971 6.35809
#
# Compressibility (1/GPa) = 0.06041149
#
# Stress axis : x y z
#
# Youngs Moduli (GPa) = 12.42575 71.02028 85.18725
#
# Poissons Ratio (x) = 0.79971 0.38713
# Poissons Ratio (y) = 0.13992 0.60808
# Poissons Ratio (z) = 0.05647 0.50695
#
# Static dielectric constant tensor:
#      x y z
#    x 1.549000 0.000000 0.000000 
#    y 0.000000 1.544240 0.000000 
#    z 0.000000 0.000000 1.518120 
# 
# From -- ./inp_files/34646.got.cif
#   From: 2010.05.17/outbox.cif.g08.bks.cpg/sg51_18_cif.got.tgz:34646.got - 2010.06.03 11:52:47.
