data_PCOD9403402
_publ_section_title
;
Structure prediction by ZEFSAII (Michael W. Deem and Ramdas Pophale) SiO2 
 PCOD9403402
Probable space group: P M M A
;
_chemical_formula_sum "Si O2"
_cell_formula_units_Z 40
_cell_length_a 18.450368
_cell_length_b 9.015784
_cell_length_c 14.021180
_cell_angle_alpha 90.000000
_cell_angle_beta 90.000000
_cell_angle_gamma 90.000000
_cell_volume 2332.346634
_symmetry_space_group_name_H-M "P M M A"
_symmetry_group_IT_number 51
_symmetry_cell_setting 'orthorhombic'
loop_
_space_group_symop_operation_xyz
x,y,z
1/2-x,-y,z
1/2+x,-y,-z
-x,y,-z
-x,-y,-z
1/2+x,y,-z
1/2-x,y,z
x,-y,z
loop_
_atom_site_type_symbol
_atom_site_label
_atom_site_fract_x
_atom_site_fract_y
_atom_site_fract_z
Si Si1 0.893551 0.822643 0.112339
Si Si2 0.667158 0.323298 0.302246
Si Si3 0.665306 0.677066 0.919493
Si Si4 0.047442 0.823555 0.203488
Si Si5 0.966520 0.177996 0.398073
O O1 0.849907 0.753626 0.200986
O O2 0.978268 0.792628 0.135011
O O3 0.884304 0.000000 0.110729
O O4 0.866340 0.752453 0.014669
O O5 0.750000 0.292767 0.330023
O O6 0.658064 0.500000 0.292176
O O7 0.608627 0.259015 0.375576
O O8 0.750000 0.715542 0.908911
O O9 0.659407 0.500000 0.928075
O O10 0.616498 0.735079 0.832722
O O11 0.020379 0.786925 0.310093
O O12 0.061578 0.000000 0.198700
O O13 0.000000 0.216752 0.500000
O O14 0.954586 0.000000 0.394932
#
# Coordination Sequence:
#
# PCOD9403402 Si02
#       5
#     8   8   8   8   8
#     4  10  20  34  54  78 103 134 173 214 255 302
#     4  10  20  33  51  79 111 138 168 209 257 309
#     4  11  23  35  48  72 106 141 175 209 248 299
#     4   9  19  35  54  76 100 129 169 212 254 305
#     4   9  19  37  59  80 102 131 171 217 262 309
#
# _framework density 17.150110000000002
#
# number of rings (size 3 to 8) (size 9 to 14) (size 15 to 20)
#    0.000    2.200    0.000    4.200    0.000   12.400 
#    0.000    1.000    0.000    6.000    0.000    0.000 
#    0.000    0.000    0.000    0.000    0.000    0.000 
#
# Total GULP energy -223319.266942 kJ/mol
# GULP energy per Si atom -5582.981674 kJ/mol
# Density = 1.711108 g / cm^3
# Si number density = 17.150110 Si / 1000 Ang^3
#
#
#
# Elastic Constant Matrix: (Units=GPa)
#
#
# Indices 1 2 3 4 5 6 
#
# 1 129.5803 68.5551 88.3035 0.0000 0.0000 0.0000
# 2 68.5551 54.8946 50.3885 0.0000 0.0000 0.0000
# 3 88.3035 50.3885 102.5325 0.0000 0.0000 0.0000
# 4 0.0000 0.0000 0.0000 11.9898 0.0000 0.0000
# 5 0.0000 0.0000 0.0000 0.0000 14.7511 0.0000
# 6 0.0000 0.0000 0.0000 0.0000 0.0000 36.1754
#
#
#
# Elastic Compliance Matrix: (Units=1/GPa)
#
#
# Indices 1 2 3 4 5 6 
#
# 1 0.030747 -0.025673 -0.013863 0.000000 0.000000 0.000000
# 2 -0.025673 0.054624 -0.004734 0.000000 0.000000 0.000000
# 3 -0.013863 -0.004734 0.024019 0.000000 0.000000 0.000000
# 4 0.000000 0.000000 0.000000 0.083404 0.000000 0.000000
# 5 0.000000 0.000000 0.000000 0.000000 0.067791 0.000000
# 6 0.000000 0.000000 0.000000 0.000000 0.000000 0.027643
#
#
# Mechanical properties :
#
#
# Convention : Reuss Voigt Hill
#
# Bulk Modulus (GPa) = 47.96402 77.94461 62.95431
# Shear Modulus (GPa) = 13.03039 17.90062 15.46550
#
# Velocity S-wave (km/s) = 2.75941 3.23423 3.00621
# Velocity P-wave (km/s) = 6.17902 7.71325 6.98837
#
# Compressibility (1/GPa) = 0.02084896
#
# Stress axis : x y z
#
# Youngs Moduli (GPa) = 32.52377 18.30701 41.63386
#
# Poissons Ratio (x) = 0.46999 0.57718
# Poissons Ratio (y) = 0.83498 0.19711
# Poissons Ratio (z) = 0.45088 0.08667
#
# Static dielectric constant tensor:
#      x y z
#    x 1.573550 0.000000 0.000000 
#    y 0.000000 1.570170 0.000000 
#    z 0.000000 0.000000 1.562450 
# 
# From -- ./inp_files/23684.got.cif
#   From: 2010.05.17/outbox.cif.g08.bks.cpg/sg51_12_cif.got.tgz:23684.got - 2010.06.03 11:52:47.
