data_PCOD9403580
_publ_section_title
;
Structure prediction by ZEFSAII (Michael W. Deem and Ramdas Pophale) SiO2 
 PCOD9403580
Probable space group: P M M A
;
_chemical_formula_sum "Si O2"
_cell_formula_units_Z 52
_cell_length_a 9.059076
_cell_length_b 8.028577
_cell_length_c 37.387195
_cell_angle_alpha 90.000000
_cell_angle_beta 90.000000
_cell_angle_gamma 90.000000
_cell_volume 2719.226370
_symmetry_space_group_name_H-M "P M M A"
_symmetry_group_IT_number 51
_symmetry_cell_setting 'orthorhombic'
loop_
_space_group_symop_operation_xyz
x,y,z
1/2-x,-y,z
1/2+x,-y,-z
-x,y,-z
-x,-y,-z
1/2+x,y,-z
1/2-x,y,z
x,-y,z
loop_
_atom_site_type_symbol
_atom_site_label
_atom_site_fract_x
_atom_site_fract_y
_atom_site_fract_z
Si Si1 0.079285 0.200734 0.259756
Si Si2 0.070099 0.804480 0.337090
Si Si3 0.419071 0.200798 0.964404
Si Si4 0.580953 0.700787 0.112322
Si Si5 0.570788 0.000000 0.538935
Si Si6 0.070234 0.317123 0.413934
Si Si7 0.581000 0.700724 0.816489
O O1 0.250000 0.261469 0.258486
O O2 0.016321 0.256556 0.298147
O O3 0.011757 0.251276 0.221806
O O4 0.082537 0.000000 0.261335
O O5 0.250000 0.795794 0.335648
O O6 0.022355 0.711562 0.372863
O O7 0.033254 0.000000 0.341221
O O8 0.250000 0.261710 0.964972
O O9 0.485640 0.250058 0.926043
O O10 0.417211 0.000000 0.965698
O O11 0.500000 0.261566 0.000000
O O12 0.750000 0.761784 0.112876
O O13 0.582863 0.500000 0.113646
O O14 0.499925 0.761427 0.147914
O O15 0.500000 0.000000 0.500000
O O16 0.524997 0.835961 0.561179
O O17 0.750000 0.000000 0.536441
O O18 0.250000 0.314083 0.413434
O O19 0.023274 0.500000 0.426491
O O20 0.750000 0.762598 0.817173
O O21 0.583859 0.500000 0.817778
#
# Coordination Sequence:
#
# PCOD9403580 Si02
#       7
#     8   8   8   8   4   8   8
#     4   8  14  23  37  59  88 119 146 176 219 266
#     4   8  12  21  37  58  88 121 148 182 231 277
#     4   9  18  32  48  66  87 108 133 169 213 257
#     4   9  18  32  47  62  83 114 147 175 208 253
#     4  10  20  34  50  70  98 128 160 200 244 288
#     4   9  16  26  43  67  94 125 160 197 239 288
#     4   9  17  28  41  60  87 114 141 176 213 249
#
# _framework density 19.123086000000001
#
# number of rings (size 3 to 8) (size 9 to 14) (size 15 to 20)
#    0.000    3.231    0.769    0.923    0.000    2.462 
#    0.000    3.077    0.000    0.000    0.000    1.077 
#    0.000    0.000    0.000    0.000    0.000    0.000 
#
# Total GULP energy -289493.509326 kJ/mol
# GULP energy per Si atom -5567.182872 kJ/mol
# Density = 1.907956 g / cm^3
# Si number density = 19.123086 Si / 1000 Ang^3
#
#
#
# Elastic Constant Matrix: (Units=GPa)
#
#
# Indices 1 2 3 4 5 6 
#
# 1 9.0081 10.1032 32.1010 0.0000 0.0000 0.0000
# 2 10.1032 57.5648 54.6250 0.0000 0.0000 0.0000
# 3 32.1010 54.6250 207.2551 0.0000 0.0000 0.0000
# 4 0.0000 0.0000 0.0000 87.5668 0.0000 0.0000
# 5 0.0000 0.0000 0.0000 0.0000 20.4250 0.0000
# 6 0.0000 0.0000 0.0000 0.0000 0.0000 4.3261
#
#
#
# Elastic Compliance Matrix: (Units=1/GPa)
#
#
# Indices 1 2 3 4 5 6 
#
# 1 0.251660 -0.009576 -0.036455 0.000000 0.000000 0.000000
# 2 -0.009576 0.023530 -0.004719 0.000000 0.000000 0.000000
# 3 -0.036455 -0.004719 0.011715 0.000000 0.000000 0.000000
# 4 0.000000 0.000000 0.000000 0.011420 0.000000 0.000000
# 5 0.000000 0.000000 0.000000 0.000000 0.048960 0.000000
# 6 0.000000 0.000000 0.000000 0.000000 0.000000 0.231156
#
#
# Mechanical properties :
#
#
# Convention : Reuss Voigt Hill
#
# Bulk Modulus (GPa) = 5.39354 51.94295 28.66824
# Shear Modulus (GPa) = 6.74089 34.26350 20.50220
#
# Velocity S-wave (km/s) = 1.87954 4.23748 3.27787
# Velocity P-wave (km/s) = 2.74532 7.15284 5.41756
#
# Compressibility (1/GPa) = 0.18540710
#
# Stress axis : x y z
#
# Youngs Moduli (GPa) = 3.97361 42.49920 85.36063
#
# Poissons Ratio (x) = 0.40695 3.11183
# Poissons Ratio (y) = 0.03805 0.40277
# Poissons Ratio (z) = 0.14486 0.20053
#
# Static dielectric constant tensor:
#      x y z
#    x 1.664380 0.000000 0.000000 
#    y 0.000000 1.679210 0.000000 
#    z 0.000000 0.000000 1.700920 
# 
# From -- ./inp_files/37722.got.cif
#   From: 2010.05.17/outbox.cif.g08.bks.cpg/sg51_19_cif.got.tgz:37722.got - 2010.06.03 11:52:47.
