data_PCOD9403586
_publ_section_title
;
Structure prediction by ZEFSAII (Michael W. Deem and Ramdas Pophale) SiO2 
 PCOD9403586
Probable space group: P M M A
;
_chemical_formula_sum "Si O2"
_cell_formula_units_Z 52
_cell_length_a 9.323544
_cell_length_b 7.945705
_cell_length_c 37.352326
_cell_angle_alpha 90.000000
_cell_angle_beta 90.000000
_cell_angle_gamma 90.000000
_cell_volume 2767.139877
_symmetry_space_group_name_H-M "P M M A"
_symmetry_group_IT_number 51
_symmetry_cell_setting 'orthorhombic'
loop_
_space_group_symop_operation_xyz
x,y,z
1/2-x,-y,z
1/2+x,-y,-z
-x,y,-z
-x,-y,-z
1/2+x,y,-z
1/2-x,y,z
x,-y,z
loop_
_atom_site_type_symbol
_atom_site_label
_atom_site_fract_x
_atom_site_fract_y
_atom_site_fract_z
Si Si1 0.084961 0.299579 0.260032
Si Si2 0.417278 0.800812 0.336264
Si Si3 0.417338 0.205242 0.965074
Si Si4 0.583116 0.794572 0.113585
Si Si5 0.924071 0.000000 0.538152
Si Si6 0.075319 0.685879 0.412640
Si Si7 0.585643 0.202878 0.816866
O O1 0.250000 0.231492 0.258852
O O2 0.090465 0.500000 0.262097
O O3 0.018255 0.235903 0.297211
O O4 0.020551 0.250485 0.221719
O O5 0.250000 0.744174 0.333631
O O6 0.477309 0.715555 0.371942
O O7 0.417721 0.000000 0.342579
O O8 0.250000 0.249892 0.967485
O O9 0.471371 0.259202 0.925740
O O10 0.424826 0.000000 0.965392
O O11 0.500000 0.267049 0.000000
O O12 0.750000 0.747397 0.116273
O O13 0.497682 0.734859 0.148230
O O14 0.577946 0.000000 0.113840
O O15 0.966813 0.835794 0.561114
O O16 0.000000 0.000000 0.500000
O O17 0.750000 0.000000 0.534364
O O18 0.250000 0.692639 0.410941
O O19 0.033656 0.500000 0.425074
O O20 0.750000 0.265119 0.817987
O O21 0.588596 0.000000 0.818366
#
# Coordination Sequence:
#
# PCOD9403586 Si02
#       7
#     8   8   8   8   4   8   8
#     4   9  16  24  35  55  84 114 140 170 214 263
#     4   9  14  22  38  61  90 121 150 183 227 275
#     4   8  13  20  30  46  69  96 126 160 200 246
#     4   8  14  24  36  50  71 102 137 169 202 246
#     4  10  20  34  50  72 100 130 166 206 246 292
#     4   9  16  27  44  67  96 128 162 201 244 289
#     4   9  16  25  37  55  78 104 135 169 202 240
#
# _framework density 18.791968000000001
#
# number of rings (size 3 to 8) (size 9 to 14) (size 15 to 20)
#    0.000    3.231    0.769    1.846    0.000    4.615 
#    0.000    3.077    0.000    0.462    0.000    1.077 
#    0.000    3.077    0.000    1.385    0.000    2.769 
#
# Total GULP energy -289487.492951 kJ/mol
# GULP energy per Si atom -5567.067172 kJ/mol
# Density = 1.874920 g / cm^3
# Si number density = 18.791968 Si / 1000 Ang^3
#
#
#
# Elastic Constant Matrix: (Units=GPa)
#
#
# Indices 1 2 3 4 5 6 
#
# 1 11.9630 10.9512 38.3106 0.0000 0.0000 0.0000
# 2 10.9512 58.8099 52.6424 0.0000 0.0000 0.0000
# 3 38.3106 52.6424 201.5610 0.0000 0.0000 0.0000
# 4 0.0000 0.0000 0.0000 -10.1663 0.0000 0.0000
# 5 0.0000 0.0000 0.0000 0.0000 21.6275 0.0000
# 6 0.0000 0.0000 0.0000 0.0000 0.0000 1.0080
#
#
#
# Elastic Compliance Matrix: (Units=1/GPa)
#
#
# Indices 1 2 3 4 5 6 
#
# 1 0.214524 -0.004501 -0.039599 0.000000 0.000000 0.000000
# 2 -0.004501 0.022287 -0.004965 0.000000 0.000000 0.000000
# 3 -0.039599 -0.004965 0.013785 0.000000 0.000000 0.000000
# 4 0.000000 0.000000 0.000000 -0.098364 0.000000 0.000000
# 5 0.000000 0.000000 0.000000 0.000000 0.046237 0.000000
# 6 0.000000 0.000000 0.000000 0.000000 0.000000 0.992020
#
#
# Mechanical properties :
#
#
# Convention : Reuss Voigt Hill
#
# Bulk Modulus (GPa) = 6.55889 52.90469 29.73179
# Shear Modulus (GPa) = 3.73290 13.85584 8.79437
#
# Velocity S-wave (km/s) = 1.41094 2.71832 2.16564
# Velocity P-wave (km/s) = 2.48036 6.16979 4.70205
#
# Compressibility (1/GPa) = 0.15246473
#
# Stress axis : x y z
#
# Youngs Moduli (GPa) = 4.66148 44.87020 72.54502
#
# Poissons Ratio (x) = 0.20197 2.87270
# Poissons Ratio (y) = 0.02098 0.36019
# Poissons Ratio (z) = 0.18459 0.22278
#
# Static dielectric constant tensor:
#      x y z
#    x 1.641420 0.000000 0.000000 
#    y 0.000000 1.679560 0.000000 
#    z 0.000000 0.000000 1.688130 
# 
# From -- ./inp_files/37718.got.cif
#   From: 2010.05.17/outbox.cif.g08.bks.cpg/sg51_19_cif.got.tgz:37718.got - 2010.06.03 11:52:47.
