data_PCOD9403258
_publ_section_title
;
Structure prediction by ZEFSAII (Michael W. Deem and Ramdas Pophale) SiO2 
 PCOD9403258
Probable space group: P M M A
;
_chemical_formula_sum "Si O2"
_cell_formula_units_Z 56
_cell_length_a 20.865984
_cell_length_b 7.605059
_cell_length_c 16.537391
_cell_angle_alpha 90.000000
_cell_angle_beta 90.000000
_cell_angle_gamma 90.000000
_cell_volume 2624.269617
_symmetry_space_group_name_H-M "P M M A"
_symmetry_group_IT_number 51
_symmetry_cell_setting 'orthorhombic'
loop_
_space_group_symop_operation_xyz
x,y,z
1/2-x,-y,z
1/2+x,-y,-z
-x,y,-z
-x,-y,-z
1/2+x,y,-z
1/2-x,y,z
x,-y,z
loop_
_atom_site_type_symbol
_atom_site_label
_atom_site_fract_x
_atom_site_fract_y
_atom_site_fract_z
Si Si1 0.250000 0.209938 0.194269
Si Si2 0.592045 0.790865 0.223933
Si Si3 0.250000 0.785245 0.382433
Si Si4 0.034902 0.214614 0.609682
Si Si5 0.996959 0.799278 0.088183
Si Si6 0.178917 0.711462 0.911240
Si Si7 0.129905 0.706609 0.082992
Si Si8 0.105161 0.213635 0.442893
O O1 0.250000 0.270236 0.287742
O O2 0.310342 0.267876 0.141164
O O3 0.250000 0.000000 0.197856
O O4 0.572373 0.722576 0.310871
O O5 0.546846 0.711653 0.154361
O O6 0.659036 0.765962 0.178887
O O7 0.580587 0.000000 0.229405
O O8 0.320968 0.730449 0.420079
O O9 0.250000 0.000000 0.386700
O O10 0.077809 0.265886 0.531722
O O11 0.959052 0.266748 0.609068
O O12 0.033704 0.000000 0.606850
O O13 0.068797 0.800492 0.119781
O O14 0.974360 0.000000 0.077461
O O15 0.000000 0.714635 0.000000
O O16 0.250000 0.774086 0.927475
O O17 0.177811 0.500000 0.913912
O O18 0.140201 0.772574 0.990677
O O19 0.116723 0.500000 0.078329
O O20 0.107768 0.000000 0.439692
#
# Coordination Sequence:
#
# PCOD9403258 Si02
#       8
#     4   8   4   8   8   8   8   8
#     4  11  23  35  53  80 105 134 174 221 273 319
#     4  10  20  33  52  80 108 134 174 224 265 307
#     4   9  18  29  47  76 107 134 166 213 267 329
#     4   8  15  28  48  72 103 139 170 209 262 319
#     4  10  20  33  50  76 109 141 176 222 272 311
#     4  10  21  38  54  69  98 141 183 219 258 310
#     4  11  22  37  54  73 103 144 185 220 259 313
#     4   8  14  28  47  70 104 141 168 201 264 328
#
# _framework density 21.339271
#
# number of rings (size 3 to 8) (size 9 to 14) (size 15 to 20)
#    0.000    2.429    2.143    1.500    2.000    1.714 
#    1.286    0.000    0.000    0.000    0.000    4.000 
#    0.000    0.000    0.000    0.000    0.000    0.000 
#
# Total GULP energy -311747.803197 kJ/mol
# GULP energy per Si atom -5566.925057 kJ/mol
# Density = 2.129070 g / cm^3
# Si number density = 21.339271 Si / 1000 Ang^3
#
#
#
# Elastic Constant Matrix: (Units=GPa)
#
#
# Indices 1 2 3 4 5 6 
#
# 1 115.8634 10.1208 26.7951 0.0000 0.0000 0.0000
# 2 10.1208 54.3243 12.4144 0.0000 0.0000 0.0000
# 3 26.7951 12.4144 95.2028 0.0000 0.0000 0.0000
# 4 0.0000 0.0000 0.0000 35.8775 0.0000 0.0000
# 5 0.0000 0.0000 0.0000 0.0000 34.1408 0.0000
# 6 0.0000 0.0000 0.0000 0.0000 0.0000 6.8990
#
#
#
# Elastic Compliance Matrix: (Units=1/GPa)
#
#
# Indices 1 2 3 4 5 6 
#
# 1 0.009303 -0.001170 -0.002466 0.000000 0.000000 0.000000
# 2 -0.001170 0.019120 -0.002164 0.000000 0.000000 0.000000
# 3 -0.002466 -0.002164 0.011480 0.000000 0.000000 0.000000
# 4 0.000000 0.000000 0.000000 0.027873 0.000000 0.000000
# 5 0.000000 0.000000 0.000000 0.000000 0.029291 0.000000
# 6 0.000000 0.000000 0.000000 0.000000 0.000000 0.144949
#
#
# Mechanical properties :
#
#
# Convention : Reuss Voigt Hill
#
# Bulk Modulus (GPa) = 35.33010 40.45011 37.89010
# Shear Modulus (GPa) = 19.00776 29.78746 24.39761
#
# Velocity S-wave (km/s) = 2.98777 3.74023 3.38497
# Velocity P-wave (km/s) = 5.33804 6.13590 5.75082
#
# Compressibility (1/GPa) = 0.02830448
#
# Stress axis : x y z
#
# Youngs Moduli (GPa) = 107.48863 52.30005 87.10707
#
# Poissons Ratio (x) = 0.06118 0.21480
# Poissons Ratio (y) = 0.12573 0.18851
# Poissons Ratio (z) = 0.26506 0.11318
#
# Static dielectric constant tensor:
#      x y z
#    x 2.007860 0.000000 0.000000 
#    y 0.000000 1.805030 0.000000 
#    z 0.000000 0.000000 1.796110 
# 
# From -- ./inp_files/25829.got.cif
#   From: 2010.05.17/outbox.cif.g08.bks.cpg/sg51_13_cif.got.tgz:25829.got - 2010.06.03 11:52:47.
