data_PCOD9403575
_publ_section_title
;
Structure prediction by ZEFSAII (Michael W. Deem and Ramdas Pophale) SiO2 
 PCOD9403575
Probable space group: P M M A
;
_chemical_formula_sum "Si O2"
_cell_formula_units_Z 64
_cell_length_a 9.236231
_cell_length_b 14.571093
_cell_length_c 31.831172
_cell_angle_alpha 90.000000
_cell_angle_beta 90.000000
_cell_angle_gamma 90.000000
_cell_volume 4283.902181
_symmetry_space_group_name_H-M "P M M A"
_symmetry_group_IT_number 51
_symmetry_cell_setting 'orthorhombic'
loop_
_space_group_symop_operation_xyz
x,y,z
1/2-x,-y,z
1/2+x,-y,-z
-x,y,-z
-x,-y,-z
1/2+x,y,-z
1/2-x,y,z
x,-y,z
loop_
_atom_site_type_symbol
_atom_site_label
_atom_site_fract_x
_atom_site_fract_y
_atom_site_fract_z
Si Si1 0.423310 0.217642 0.704342
Si Si2 0.916729 0.888324 0.873882
Si Si3 0.417075 0.111875 0.957830
Si Si4 0.422957 0.605357 0.324396
Si Si5 0.575855 0.205029 0.541982
Si Si6 0.423024 0.892138 0.788601
Si Si7 0.074566 0.398647 0.423429
Si Si8 0.921455 0.891046 0.629905
O O1 0.250000 0.220867 0.701092
O O2 0.490722 0.318730 0.701050
O O3 0.461493 0.166871 0.747807
O O4 0.488858 0.160171 0.665646
O O5 0.750000 0.858923 0.874972
O O6 0.002167 0.858039 0.915451
O O7 0.994762 0.861807 0.830646
O O8 0.918232 0.000000 0.874542
O O9 0.250000 0.140607 0.958265
O O10 0.418285 0.000000 0.957709
O O11 0.500000 0.140927 0.000000
O O12 0.250000 0.620384 0.320805
O O13 0.453244 0.500000 0.312373
O O14 0.459879 0.614493 0.374068
O O15 0.500000 0.170388 0.500000
O O16 0.750000 0.204209 0.536927
O O17 0.525995 0.309934 0.551028
O O18 0.541663 0.147222 0.583740
O O19 0.250000 0.885702 0.795432
O O20 0.456255 0.000000 0.780884
O O21 0.250000 0.399945 0.425681
O O22 0.022236 0.500000 0.436720
O O23 0.750000 0.871742 0.636463
O O24 0.943499 0.000000 0.631885
#
# Coordination Sequence:
#
# PCOD9403575 Si02
#       8
#     8   8   8   8   8   8   8   8
#     4  11  21  32  50  74  98 118 143 184 229 268
#     4   9  16  25  37  54  76 104 143 190 232 268
#     4   9  15  22  33  49  71 102 141 186 233 277
#     4   9  17  32  54  74  93 120 149 175 210 260
#     4  10  20  34  50  69  92 116 145 177 215 262
#     4   9  18  31  43  58  85 120 151 180 223 273
#     4   8  14  28  50  70  89 114 140 168 206 254
#     4  10  21  37  54  69  88 118 154 187 219 261
#
# _framework density 14.93965
#
# number of rings (size 3 to 8) (size 9 to 14) (size 15 to 20)
#    0.000    2.625    1.250    2.250    0.000    6.000 
#    0.000    1.250    0.000    0.000    0.000    0.000 
#    0.000    0.000    0.000    0.000    0.000    0.625 
#
# Total GULP energy -356733.188403 kJ/mol
# GULP energy per Si atom -5573.956069 kJ/mol
# Density = 1.490565 g / cm^3
# Si number density = 14.939650 Si / 1000 Ang^3
#
#
#
# Elastic Constant Matrix: (Units=GPa)
#
#
# Indices 1 2 3 4 5 6 
#
# 1 63.5234 35.8501 69.9628 0.0000 0.0000 0.0000
# 2 35.8501 55.7718 47.8556 0.0000 0.0000 0.0000
# 3 69.9628 47.8556 137.2134 0.0000 0.0000 0.0000
# 4 0.0000 0.0000 0.0000 4.4909 0.0000 0.0000
# 5 0.0000 0.0000 0.0000 0.0000 27.6453 0.0000
# 6 0.0000 0.0000 0.0000 0.0000 0.0000 13.2994
#
#
#
# Elastic Compliance Matrix: (Units=1/GPa)
#
#
# Indices 1 2 3 4 5 6 
#
# 1 0.040822 -0.011959 -0.016644 0.000000 0.000000 0.000000
# 2 -0.011959 0.029091 -0.004048 0.000000 0.000000 0.000000
# 3 -0.016644 -0.004048 0.017186 0.000000 0.000000 0.000000
# 4 0.000000 0.000000 0.000000 0.222672 0.000000 0.000000
# 5 0.000000 0.000000 0.000000 0.000000 0.036173 0.000000
# 6 0.000000 0.000000 0.000000 0.000000 0.000000 0.075192
#
#
# Mechanical properties :
#
#
# Convention : Reuss Voigt Hill
#
# Bulk Modulus (GPa) = 45.87702 62.64950 54.26326
# Shear Modulus (GPa) = 10.12753 15.94312 13.03532
#
# Velocity S-wave (km/s) = 2.60647 3.27030 2.95707
# Velocity P-wave (km/s) = 6.31135 7.50239 6.93250
#
# Compressibility (1/GPa) = 0.02179740
#
# Stress axis : x y z
#
# Youngs Moduli (GPa) = 24.49632 34.37456 58.18644
#
# Poissons Ratio (x) = 0.41110 0.96843
# Poissons Ratio (y) = 0.29296 0.23555
# Poissons Ratio (z) = 0.40771 0.13916
#
# Static dielectric constant tensor:
#      x y z
#    x 1.497410 0.000000 0.000000 
#    y 0.000000 1.490010 0.000000 
#    z 0.000000 0.000000 1.481680 
# 
# From -- ./inp_files/37552.got.cif
#   From: 2010.05.17/outbox.cif.g08.bks.cpg/sg51_19_cif.got.tgz:37552.got - 2010.06.03 11:52:47.
