data_PCOD9403778
_publ_section_title
;
Structure prediction by ZEFSAII (Michael W. Deem and Ramdas Pophale) SiO2 
 PCOD9403778
Probable space group: P M M A
;
_chemical_formula_sum "Si O2"
_cell_formula_units_Z 48
_cell_length_a 19.584041
_cell_length_b 9.750577
_cell_length_c 14.262446
_cell_angle_alpha 90.000000
_cell_angle_beta 90.000000
_cell_angle_gamma 90.000000
_cell_volume 2723.495356
_symmetry_space_group_name_H-M "P M M A"
_symmetry_group_IT_number 51
_symmetry_cell_setting 'orthorhombic'
loop_
_space_group_symop_operation_xyz
x,y,z
1/2-x,-y,z
1/2+x,-y,-z
-x,y,-z
-x,-y,-z
1/2+x,y,-z
1/2-x,y,z
x,-y,z
loop_
_atom_site_type_symbol
_atom_site_label
_atom_site_fract_x
_atom_site_fract_y
_atom_site_fract_z
Si Si1 0.444482 0.662583 0.580822
Si Si2 0.332010 0.838041 0.491928
Si Si3 0.169763 0.653728 0.319352
Si Si4 0.577579 0.842842 0.042591
Si Si5 0.534192 0.345143 0.202886
Si Si6 0.118620 0.344113 0.118923
O O1 0.500000 0.695587 0.500000
O O2 0.428610 0.500000 0.571061
O O3 0.377474 0.754585 0.565625
O O4 0.471071 0.684842 0.686660
O O5 0.250000 0.821608 0.505249
O O6 0.353278 0.766560 0.393423
O O7 0.346527 0.000000 0.492151
O O8 0.250000 0.639910 0.336145
O O9 0.138281 0.500000 0.332434
O O10 0.159845 0.694767 0.211812
O O11 0.575476 0.763813 0.141324
O O12 0.598679 0.000000 0.052033
O O13 0.500000 0.842489 0.000000
O O14 0.621719 0.758536 0.967401
O O15 0.562283 0.500000 0.192546
O O16 0.459170 0.346412 0.156899
O O17 0.136840 0.500000 0.091532
#
# Coordination Sequence:
#
# PCOD9403778 Si02
#       6
#     8   8   8   8   8   8
#     4  10  20  34  53  77 102 128 165 212 255 294
#     4  10  21  35  50  71 101 136 170 202 242 297
#     4   9  17  30  49  71  94 123 159 197 236 281
#     4   9  17  28  43  65  92 121 152 185 226 282
#     4   9  17  29  46  68  94 123 154 192 238 284
#     4   9  16  28  47  69  94 122 152 189 235 284
#
# _framework density 17.624410000000001
#
# number of rings (size 3 to 8) (size 9 to 14) (size 15 to 20)
#    0.000    2.667    0.000    2.000    0.000    7.333 
#    0.000    3.333    0.000    1.000    0.000    2.333 
#    0.000    0.000    0.000    0.000    0.000    0.000 
#
# Total GULP energy -267381.747752 kJ/mol
# GULP energy per Si atom -5570.453078 kJ/mol
# Density = 1.758430 g / cm^3
# Si number density = 17.624410 Si / 1000 Ang^3
#
#
#
# Elastic Constant Matrix: (Units=GPa)
#
#
# Indices 1 2 3 4 5 6 
#
# 1 19.5650 26.5493 8.5461 0.0000 0.0000 0.0000
# 2 26.5493 91.7920 63.4310 0.0000 0.0000 0.0000
# 3 8.5461 63.4310 103.9341 0.0000 0.0000 0.0000
# 4 0.0000 0.0000 0.0000 -76.8024 0.0000 0.0000
# 5 0.0000 0.0000 0.0000 0.0000 26.5735 0.0000
# 6 0.0000 0.0000 0.0000 0.0000 0.0000 16.3083
#
#
#
# Elastic Compliance Matrix: (Units=1/GPa)
#
#
# Indices 1 2 3 4 5 6 
#
# 1 0.097200 -0.039066 0.015850 0.000000 0.000000 0.000000
# 2 -0.039066 0.034541 -0.017868 0.000000 0.000000 0.000000
# 3 0.015850 -0.017868 0.019223 0.000000 0.000000 0.000000
# 4 0.000000 0.000000 0.000000 -0.013020 0.000000 0.000000
# 5 0.000000 0.000000 0.000000 0.000000 0.037632 0.000000
# 6 0.000000 0.000000 0.000000 0.000000 0.000000 0.061319
#
#
# Mechanical properties :
#
#
# Convention : Reuss Voigt Hill
#
# Bulk Modulus (GPa) = 14.53590 45.81598 30.17594
# Shear Modulus (GPa) = 14.62014 1.00018 7.81016
#
# Velocity S-wave (km/s) = 2.88330 0.75414 2.10738
# Velocity P-wave (km/s) = 4.39887 5.17789 4.80419
#
# Compressibility (1/GPa) = 0.06879519
#
# Stress axis : x y z
#
# Youngs Moduli (GPa) = 10.28803 28.95142 52.02107
#
# Poissons Ratio (x) = 1.13102 -0.82451
# Poissons Ratio (y) = 0.40191 0.92951
# Poissons Ratio (z) = -0.16306 0.51730
#
# Static dielectric constant tensor:
#      x y z
#    x 1.626840 0.000000 0.000000 
#    y 0.000000 1.604960 0.000000 
#    z 0.000000 0.000000 1.611300 
# 
# From -- ./inp_files/24734.got.cif
#   From: 2010.05.17/outbox.cif.g08.bks.cpg/sg51_13_cif.got.tgz:24734.got - 2010.06.03 11:52:47.
