data_PCOD9403125
_publ_section_title
;
Structure prediction by ZEFSAII (Michael W. Deem and Ramdas Pophale) SiO2 
 PCOD9403125
Probable space group: P M M A
;
_chemical_formula_sum "Si O2"
_cell_formula_units_Z 56
_cell_length_a 8.829480
_cell_length_b 15.628900
_cell_length_c 20.757768
_cell_angle_alpha 90.000000
_cell_angle_beta 90.000000
_cell_angle_gamma 90.000000
_cell_volume 2864.469440
_symmetry_space_group_name_H-M "P M M A"
_symmetry_group_IT_number 51
_symmetry_cell_setting 'orthorhombic'
loop_
_space_group_symop_operation_xyz
x,y,z
1/2-x,-y,z
1/2+x,-y,-z
-x,y,-z
-x,-y,-z
1/2+x,y,-z
1/2-x,y,z
x,-y,z
loop_
_atom_site_type_symbol
_atom_site_label
_atom_site_fract_x
_atom_site_fract_y
_atom_site_fract_z
Si Si1 0.070279 0.601262 0.838852
Si Si2 0.431989 0.254628 0.071142
Si Si3 0.920411 0.398152 0.706950
Si Si4 0.079310 0.898043 0.706162
Si Si5 0.067649 0.846017 0.564840
Si Si6 0.068286 0.901171 0.161282
Si Si7 0.067383 0.344296 0.435709
O O1 0.250000 0.608915 0.846716
O O2 0.030794 0.500000 0.847103
O O3 0.986965 0.663000 0.888708
O O4 0.023483 0.629459 0.766422
O O5 0.250000 0.254763 0.068210
O O6 0.482114 0.168159 0.108721
O O7 0.500000 0.256308 0.000000
O O8 0.750000 0.361552 0.714071
O O9 0.909919 0.500000 0.712723
O O10 0.972688 0.381383 0.634179
O O11 0.250000 0.861836 0.709960
O O12 0.019538 0.881261 0.634422
O O13 0.984493 0.870383 0.767978
O O14 0.088915 0.000000 0.711734
O O15 0.250000 0.848921 0.560927
O O16 0.000000 0.887638 0.500000
O O17 0.005147 0.749736 0.565124
O O18 0.250000 0.903167 0.160721
O O19 0.015928 0.000000 0.150207
O O20 0.250000 0.341616 0.440987
O O21 0.000000 0.387764 0.500000
#
# Coordination Sequence:
#
# PCOD9403125 Si02
#       7
#     8   8   8   8   8   8   8
#     4  10  22  40  62  89 120 154 194 240 288 340
#     4  11  24  41  63  92 122 155 193 232 281 341
#     4   9  19  36  56  79 108 144 185 230 283 339
#     4   9  19  35  54  78 107 141 183 230 282 336
#     4  10  20  33  49  72 103 141 183 231 281 333
#     4   9  20  39  61  87 119 153 192 236 282 337
#     4  10  20  33  50  73 104 142 184 230 280 334
#
# _framework density 19.549866999999999
#
# number of rings (size 3 to 8) (size 9 to 14) (size 15 to 20)
#    0.000    2.286    0.000    2.571    2.000    5.429 
#    0.000    0.000    0.000    0.000    0.000    0.000 
#    0.000    0.000    0.000    0.000    0.000    0.000 
#
# Total GULP energy -312230.666160 kJ/mol
# GULP energy per Si atom -5575.547610 kJ/mol
# Density = 1.950537 g / cm^3
# Si number density = 19.549867 Si / 1000 Ang^3
#
#
#
# Elastic Constant Matrix: (Units=GPa)
#
#
# Indices 1 2 3 4 5 6 
#
# 1 47.4593 33.1730 60.4828 0.0000 0.0000 0.0000
# 2 33.1730 61.2072 62.7885 0.0000 0.0000 0.0000
# 3 60.4828 62.7885 198.3115 0.0000 0.0000 0.0000
# 4 0.0000 0.0000 0.0000 38.1450 0.0000 0.0000
# 5 0.0000 0.0000 0.0000 0.0000 40.4287 0.0000
# 6 0.0000 0.0000 0.0000 0.0000 0.0000 13.2477
#
#
#
# Elastic Compliance Matrix: (Units=1/GPa)
#
#
# Indices 1 2 3 4 5 6 
#
# 1 0.041230 -0.013990 -0.008145 0.000000 0.000000 0.000000
# 2 -0.013990 0.028944 -0.004897 0.000000 0.000000 0.000000
# 3 -0.008145 -0.004897 0.009077 0.000000 0.000000 0.000000
# 4 0.000000 0.000000 0.000000 0.026216 0.000000 0.000000
# 5 0.000000 0.000000 0.000000 0.000000 0.024735 0.000000
# 6 0.000000 0.000000 0.000000 0.000000 0.000000 0.075485
#
#
# Mechanical properties :
#
#
# Convention : Reuss Voigt Hill
#
# Bulk Modulus (GPa) = 39.70449 68.87407 54.28928
# Shear Modulus (GPa) = 18.64648 28.39986 23.52317
#
# Velocity S-wave (km/s) = 3.09170 3.81555 3.47254
# Velocity P-wave (km/s) = 5.75311 7.39714 6.62631
#
# Compressibility (1/GPa) = 0.02518607
#
# Stress axis : x y z
#
# Youngs Moduli (GPa) = 24.25440 34.54932 110.16471
#
# Poissons Ratio (x) = 0.48335 0.89730
# Poissons Ratio (y) = 0.33932 0.53952
# Poissons Ratio (z) = 0.19755 0.16920
#
# Static dielectric constant tensor:
#      x y z
#    x 1.682940 0.000000 0.000000 
#    y 0.000000 1.707180 0.000000 
#    z 0.000000 0.000000 1.709530 
# 
# From -- ./inp_files/32031.got.cif
#   From: 2010.05.17/outbox.cif.g08.bks.cpg/sg51_17_cif.got.tgz:32031.got - 2010.06.03 11:52:47.
