data_PCOD9403075
_publ_section_title
;
Structure prediction by ZEFSAII (Michael W. Deem and Ramdas Pophale) SiO2 
 PCOD9403075
Probable space group: P M M A
;
_chemical_formula_sum "Si O2"
_cell_formula_units_Z 64
_cell_length_a 9.484569
_cell_length_b 14.923939
_cell_length_c 24.164082
_cell_angle_alpha 90.000000
_cell_angle_beta 90.000000
_cell_angle_gamma 90.000000
_cell_volume 3420.356437
_symmetry_space_group_name_H-M "P M M A"
_symmetry_group_IT_number 51
_symmetry_cell_setting 'orthorhombic'
loop_
_space_group_symop_operation_xyz
x,y,z
1/2-x,-y,z
1/2+x,-y,-z
-x,y,-z
-x,-y,-z
1/2+x,y,-z
1/2-x,y,z
x,-y,z
loop_
_atom_site_type_symbol
_atom_site_label
_atom_site_fract_x
_atom_site_fract_y
_atom_site_fract_z
Si Si1 0.097761 0.101709 0.853456
Si Si2 0.586013 0.657000 0.830050
Si Si3 0.086576 0.598724 0.724672
Si Si4 0.917821 0.391011 0.057614
Si Si5 0.905918 0.890671 0.949046
Si Si6 0.090977 0.846002 0.235928
Si Si7 0.917050 0.102587 0.443292
Si Si8 0.417122 0.218208 0.663554
O O1 0.250000 0.146429 0.852515
O O2 0.986461 0.141499 0.895424
O O3 0.026227 0.096599 0.794653
O O4 0.115491 0.000000 0.873900
O O5 0.750000 0.630232 0.839136
O O6 0.508830 0.605186 0.779604
O O7 0.497874 0.645893 0.887149
O O8 0.589685 0.755316 0.801125
O O9 0.250000 0.608983 0.742801
O O10 0.068796 0.500000 0.700026
O O11 0.062167 0.677170 0.679742
O O12 0.750000 0.365673 0.056117
O O13 0.923164 0.500000 0.061440
O O14 0.000000 0.366504 0.000000
O O15 0.750000 0.854223 0.952044
O O16 0.895399 0.000000 0.948970
O O17 0.000000 0.864555 0.000000
O O18 0.250000 0.881435 0.235502
O O19 0.028811 0.828146 0.295857
O O20 0.750000 0.104541 0.454539
O O21 0.944610 0.178059 0.397013
O O22 0.000000 0.117984 0.500000
O O23 0.950323 0.000000 0.423768
O O24 0.250000 0.198570 0.675874
#
# Coordination Sequence:
#
# PCOD9403075 Si02
#       8
#     8   8   8   8   8   8   8   8
#     4  10  20  33  49  68  90 119 156 198 246 299
#     4  10  20  33  49  70  98 130 164 206 256 309
#     4   9  17  30  50  75 101 133 174 215 257 309
#     4  10  20  33  50  72  97 126 161 202 250 305
#     4   9  16  27  44  64  85 109 141 186 239 294
#     4  10  21  35  50  71  99 130 164 202 248 302
#     4   9  18  33  54  80 109 142 180 218 255 297
#     4   9  18  33  52  75 105 138 171 212 258 300
#
# _framework density 18.711500000000001
#
# number of rings (size 3 to 8) (size 9 to 14) (size 15 to 20)
#    0.000    2.500    0.000    2.250    0.000    7.250 
#    0.000    1.875    0.000    3.375    0.000    0.000 
#    0.000    0.000    0.000    0.000    0.000    0.000 
#
# Total GULP energy -356399.785593 kJ/mol
# GULP energy per Si atom -5568.746650 kJ/mol
# Density = 1.866891 g / cm^3
# Si number density = 18.711500 Si / 1000 Ang^3
#
#
#
# Elastic Constant Matrix: (Units=GPa)
#
#
# Indices 1 2 3 4 5 6 
#
# 1 139.6700 33.4317 69.0066 0.0000 0.0000 0.0000
# 2 33.4317 52.6850 44.1763 0.0000 0.0000 0.0000
# 3 69.0066 44.1763 125.3643 0.0000 0.0000 0.0000
# 4 0.0000 0.0000 0.0000 27.6259 0.0000 0.0000
# 5 0.0000 0.0000 0.0000 0.0000 31.7905 0.0000
# 6 0.0000 0.0000 0.0000 0.0000 0.0000 20.0772
#
#
#
# Elastic Compliance Matrix: (Units=1/GPa)
#
#
# Indices 1 2 3 4 5 6 
#
# 1 0.010056 -0.002469 -0.004665 0.000000 0.000000 0.000000
# 2 -0.002469 0.027547 -0.008348 0.000000 0.000000 0.000000
# 3 -0.004665 -0.008348 0.013486 0.000000 0.000000 0.000000
# 4 0.000000 0.000000 0.000000 0.036198 0.000000 0.000000
# 5 0.000000 0.000000 0.000000 0.000000 0.031456 0.000000
# 6 0.000000 0.000000 0.000000 0.000000 0.000000 0.049808
#
#
# Mechanical properties :
#
#
# Convention : Reuss Voigt Hill
#
# Bulk Modulus (GPa) = 49.69007 67.88318 58.78662
# Shear Modulus (GPa) = 24.24549 27.30569 25.77559
#
# Velocity S-wave (km/s) = 3.60356 3.82422 3.71553
# Velocity P-wave (km/s) = 6.62780 7.47377 7.06346
#
# Compressibility (1/GPa) = 0.02012475
#
# Stress axis : x y z
#
# Youngs Moduli (GPa) = 99.44701 36.30094 74.14935
#
# Poissons Ratio (x) = 0.08964 0.34590
# Poissons Ratio (y) = 0.24557 0.61900
# Poissons Ratio (z) = 0.46392 0.30304
#
# Static dielectric constant tensor:
#      x y z
#    x 1.674470 0.000000 0.000000 
#    y 0.000000 1.786410 0.000000 
#    z 0.000000 0.000000 1.494380 
# 
# From -- ./inp_files/32366.got.cif
#   From: 2010.05.17/outbox.cif.g08.bks.cpg/sg51_17_cif.got.tgz:32366.got - 2010.06.03 11:52:47.
