data_PCOD9403913
_publ_section_title
;
Structure prediction by ZEFSAII (Michael W. Deem and Ramdas Pophale) SiO2 
 PCOD9403913
Probable space group: P M M A
;
_chemical_formula_sum "Si O2"
_cell_formula_units_Z 48
_cell_length_a 16.925908
_cell_length_b 7.668892
_cell_length_c 15.644972
_cell_angle_alpha 90.000000
_cell_angle_beta 90.000000
_cell_angle_gamma 90.000000
_cell_volume 2030.763682
_symmetry_space_group_name_H-M "P M M A"
_symmetry_group_IT_number 51
_symmetry_cell_setting 'orthorhombic'
loop_
_space_group_symop_operation_xyz
x,y,z
1/2-x,-y,z
1/2+x,-y,-z
-x,y,-z
-x,-y,-z
1/2+x,y,-z
1/2-x,y,z
x,-y,z
loop_
_atom_site_type_symbol
_atom_site_label
_atom_site_fract_x
_atom_site_fract_y
_atom_site_fract_z
Si Si1 0.423155 0.794177 0.953951
Si Si2 0.418052 0.797764 0.462122
Si Si3 0.750000 0.198275 0.036843
Si Si4 0.886368 0.291262 0.360726
Si Si5 0.338944 0.209793 0.288710
Si Si6 0.499891 0.292839 0.222105
Si Si7 0.750000 0.291408 0.228621
O O1 0.336948 0.721208 0.979965
O O2 0.446908 0.779461 0.854414
O O3 0.419012 0.000000 0.974713
O O4 0.500000 0.716287 0.000000
O O5 0.500000 0.716883 0.500000
O O6 0.366657 0.789168 0.548439
O O7 0.372268 0.722894 0.380472
O O8 0.434363 0.000000 0.442871
O O9 0.750000 0.193066 0.139991
O O10 0.750000 0.000000 0.002074
O O11 0.887507 0.500000 0.372379
O O12 0.823616 0.251278 0.288036
O O13 0.967618 0.232224 0.314853
O O14 0.250000 0.273745 0.271393
O O15 0.407070 0.251359 0.219894
O O16 0.334488 0.000000 0.293820
O O17 0.510204 0.500000 0.219464
O O18 0.750000 0.500000 0.209413
#
# Coordination Sequence:
#
# PCOD9403913 Si02
#       7
#     8   8   4   8   8   8   4
#     4  10  22  41  64  91 123 156 194 242 295 354
#     4  10  20  34  54  78 107 146 194 247 293 338
#     4  10  20  36  62  92 117 150 195 240 289 350
#     4  10  21  34  52  80 113 151 189 233 292 349
#     4  10  22  40  58  80 115 159 203 247 297 351
#     4  11  22  38  62  87 115 152 195 243 296 355
#     4  10  20  36  54  80 117 150 183 230 291 352
#
# _framework density 23.636426
#
# number of rings (size 3 to 8) (size 9 to 14) (size 15 to 20)
#    0.000    1.833    3.333    0.500    1.167    3.000 
#    1.500    0.000    0.000    0.000    0.000    0.000 
#    0.000    0.000    0.000    0.000    0.000    0.000 
#
# Total GULP energy -267846.572707 kJ/mol
# GULP energy per Si atom -5580.136931 kJ/mol
# Density = 2.358263 g / cm^3
# Si number density = 23.636426 Si / 1000 Ang^3
#
#
#
# Elastic Constant Matrix: (Units=GPa)
#
#
# Indices 1 2 3 4 5 6 
#
# 1 187.7508 11.6890 16.0874 0.0000 0.0000 0.0000
# 2 11.6890 46.4366 -6.9283 0.0000 0.0000 0.0000
# 3 16.0874 -6.9283 26.8279 0.0000 0.0000 0.0000
# 4 0.0000 0.0000 0.0000 45.2148 0.0000 0.0000
# 5 0.0000 0.0000 0.0000 0.0000 28.7441 0.0000
# 6 0.0000 0.0000 0.0000 0.0000 0.0000 5.1939
#
#
#
# Elastic Compliance Matrix: (Units=1/GPa)
#
#
# Indices 1 2 3 4 5 6 
#
# 1 0.005798 -0.002057 -0.004008 0.000000 0.000000 0.000000
# 2 -0.002057 0.023128 0.007206 0.000000 0.000000 0.000000
# 3 -0.004008 0.007206 0.041539 0.000000 0.000000 0.000000
# 4 0.000000 0.000000 0.000000 0.022117 0.000000 0.000000
# 5 0.000000 0.000000 0.000000 0.000000 0.034790 0.000000
# 6 0.000000 0.000000 0.000000 0.000000 0.000000 0.192534
#
#
# Mechanical properties :
#
#
# Convention : Reuss Voigt Hill
#
# Bulk Modulus (GPa) = 13.74630 33.63463 23.69047
# Shear Modulus (GPa) = 14.62536 31.84171 23.23353
#
# Velocity S-wave (km/s) = 2.49019 3.67433 3.13861
# Velocity P-wave (km/s) = 3.75452 5.67995 4.81447
#
# Compressibility (1/GPa) = 0.07274682
#
# Stress axis : x y z
#
# Youngs Moduli (GPa) = 172.48164 43.23796 24.07376
#
# Poissons Ratio (x) = 0.08896 0.09649
# Poissons Ratio (y) = 0.35486 -0.17349
# Poissons Ratio (z) = 0.69129 -0.31159
#
# Static dielectric constant tensor:
#      x y z
#    x 2.035430 0.000000 0.000000 
#    y 0.000000 1.860060 0.000000 
#    z 0.000000 0.000000 1.912240 
# 
# From -- ./inp_files/29633.got.cif
#   From: 2010.05.17/outbox.cif.g08.bks.cpg/sg51_15_cif.got.tgz:29633.got - 2010.06.03 11:52:47.
