data_PCOD9403553
_publ_section_title
;
Structure prediction by ZEFSAII (Michael W. Deem and Ramdas Pophale) SiO2 
 PCOD9403553
Probable space group: P M M A
;
_chemical_formula_sum "Si O2"
_cell_formula_units_Z 56
_cell_length_a 22.002838
_cell_length_b 15.226346
_cell_length_c 9.625999
_cell_angle_alpha 90.000000
_cell_angle_beta 90.000000
_cell_angle_gamma 90.000000
_cell_volume 3224.929372
_symmetry_space_group_name_H-M "P M M A"
_symmetry_group_IT_number 51
_symmetry_cell_setting 'orthorhombic'
loop_
_space_group_symop_operation_xyz
x,y,z
1/2-x,-y,z
1/2+x,-y,-z
-x,y,-z
-x,-y,-z
1/2+x,y,-z
1/2-x,y,z
x,-y,z
loop_
_atom_site_type_symbol
_atom_site_label
_atom_site_fract_x
_atom_site_fract_y
_atom_site_fract_z
Si Si1 0.927747 0.905296 0.507921
Si Si2 0.126555 0.221495 0.265043
Si Si3 0.614803 0.800110 0.259620
Si Si4 0.676624 0.106081 0.992754
Si Si5 0.601417 0.500000 0.505830
Si Si6 0.999373 0.500000 0.732092
Si Si7 0.820128 0.323895 0.485631
Si Si8 0.003455 0.693621 0.160347
O O1 0.906261 0.838706 0.622171
O O2 0.902183 0.880923 0.358445
O O3 0.000000 0.903921 0.500000
O O4 0.905461 0.000000 0.551386
O O5 0.171739 0.276880 0.363682
O O6 0.071154 0.280916 0.209098
O O7 0.155433 0.160411 0.144868
O O8 0.646245 0.840662 0.122347
O O9 0.655793 0.737225 0.358535
O O10 0.551963 0.747107 0.231092
O O11 0.750000 0.110383 0.003774
O O12 0.660649 0.000000 0.989551
O O13 0.564580 0.500000 0.650231
O O14 0.551264 0.500000 0.384992
O O15 0.640768 0.587596 0.491255
O O16 0.005507 0.590051 0.815841
O O17 0.750000 0.343474 0.462013
O O18 0.000000 0.716438 0.000000
#
# Coordination Sequence:
#
# PCOD9403553 Si02
#       8
#     8   8   8   8   4   4   8   8
#     4  10  20  33  54  86 121 150 185 242 301 358
#     4  11  22  38  61  88 118 156 204 243 302 360
#     4  11  22  38  61  88 118 156 204 243 302 360
#     4  11  24  43  63  85 120 163 208 251 291 351
#     4  11  21  36  64  90 119 153 206 244 300 361
#     4  11  23  38  62  90 119 157 192 250 306 362
#     4  11  23  39  61  87 124 163 199 248 295 353
#     4  12  22  39  61  88 120 158 191 249 309 358
#
# _framework density 17.364720999999999
#
# number of rings (size 3 to 8) (size 9 to 14) (size 15 to 20)
#    0.000    1.000    5.714    2.143    0.000    0.000 
#    0.000    0.714    0.000    6.857    0.000    6.000 
#    0.000    0.000    0.000    0.000    0.000    0.000 
#
# Total GULP energy -312223.450365 kJ/mol
# GULP energy per Si atom -5575.418757 kJ/mol
# Density = 1.732520 g / cm^3
# Si number density = 17.364721 Si / 1000 Ang^3
#
#
#
# Elastic Constant Matrix: (Units=GPa)
#
#
# Indices 1 2 3 4 5 6 
#
# 1 79.8521 18.8169 13.2329 0.0000 0.0000 0.0000
# 2 18.8169 81.9173 8.6718 0.0000 0.0000 0.0000
# 3 13.2329 8.6718 81.7926 0.0000 0.0000 0.0000
# 4 0.0000 0.0000 0.0000 32.7100 0.0000 0.0000
# 5 0.0000 0.0000 0.0000 0.0000 22.1810 0.0000
# 6 0.0000 0.0000 0.0000 0.0000 0.0000 30.1628
#
#
#
# Elastic Compliance Matrix: (Units=1/GPa)
#
#
# Indices 1 2 3 4 5 6 
#
# 1 0.013519 -0.002907 -0.001879 0.000000 0.000000 0.000000
# 2 -0.002907 0.012971 -0.000905 0.000000 0.000000 0.000000
# 3 -0.001879 -0.000905 0.012626 0.000000 0.000000 0.000000
# 4 0.000000 0.000000 0.000000 0.030572 0.000000 0.000000
# 5 0.000000 0.000000 0.000000 0.000000 0.045084 0.000000
# 6 0.000000 0.000000 0.000000 0.000000 0.000000 0.033153
#
#
# Mechanical properties :
#
#
# Convention : Reuss Voigt Hill
#
# Bulk Modulus (GPa) = 36.05539 36.11168 36.08354
# Shear Modulus (GPa) = 29.66456 30.53347 30.09902
#
# Velocity S-wave (km/s) = 4.13767 4.19783 4.16786
# Velocity P-wave (km/s) = 6.60574 6.65859 6.63222
#
# Compressibility (1/GPa) = 0.02773510
#
# Stress axis : x y z
#
# Youngs Moduli (GPa) = 73.96735 77.09573 79.20161
#
# Poissons Ratio (x) = 0.22409 0.14883
# Poissons Ratio (y) = 0.21499 0.07167
# Poissons Ratio (z) = 0.13899 0.06977
#
# Static dielectric constant tensor:
#      x y z
#    x 1.592490 0.000000 0.000000 
#    y 0.000000 1.586230 0.000000 
#    z 0.000000 0.000000 1.612420 
# 
# From -- ./inp_files/11072.got.cif
#   From: 2010.05.17/outbox.cif.g08.bks.cpg/sg51_6_cif.got.tgz:11072.got - 2010.06.03 11:52:47.
