data_PCOD9403518
_publ_section_title
;
Structure prediction by ZEFSAII (Michael W. Deem and Ramdas Pophale) SiO2 
 PCOD9403518
Probable space group: P M M A
;
_chemical_formula_sum "Si O2"
_cell_formula_units_Z 56
_cell_length_a 14.048655
_cell_length_b 9.143452
_cell_length_c 21.232324
_cell_angle_alpha 90.000000
_cell_angle_beta 90.000000
_cell_angle_gamma 90.000000
_cell_volume 2727.360018
_symmetry_space_group_name_H-M "P M M A"
_symmetry_group_IT_number 51
_symmetry_cell_setting 'orthorhombic'
loop_
_space_group_symop_operation_xyz
x,y,z
1/2-x,-y,z
1/2+x,-y,-z
-x,y,-z
-x,-y,-z
1/2+x,y,-z
1/2-x,y,z
x,-y,z
loop_
_atom_site_type_symbol
_atom_site_label
_atom_site_fract_x
_atom_site_fract_y
_atom_site_fract_z
Si Si1 0.366064 0.166332 0.966146
Si Si2 0.387877 0.166690 0.485008
Si Si3 0.549159 0.324559 0.774741
Si Si4 0.141973 0.675457 0.836810
Si Si5 0.364877 0.331486 0.090974
Si Si6 0.051022 0.175205 0.351060
Si Si7 0.145499 0.673877 0.610265
O O1 0.250000 0.165928 0.968695
O O2 0.398238 0.235897 0.031978
O O3 0.398158 0.000000 0.959086
O O4 0.388630 0.259239 0.904101
O O5 0.500000 0.159288 0.500000
O O6 0.384250 0.211956 0.412027
O O7 0.350124 0.276865 0.537129
O O8 0.352347 0.000000 0.492934
O O9 0.557990 0.500000 0.766312
O O10 0.437618 0.287712 0.785621
O O11 0.599389 0.284674 0.840443
O O12 0.587275 0.241174 0.714169
O O13 0.250000 0.724043 0.822543
O O14 0.142812 0.500000 0.842473
O O15 0.250000 0.329177 0.091385
O O16 0.395510 0.500000 0.081490
O O17 0.945608 0.242649 0.362128
O O18 0.044194 0.000000 0.349138
O O19 0.250000 0.708483 0.638422
O O20 0.130516 0.500000 0.615807
#
# Coordination Sequence:
#
# PCOD9403518 Si02
#       7
#     8   8   8   8   8   8   8
#     4   9  17  30  50  75 100 127 163 211 264 311
#     4   8  16  32  52  73  98 129 164 201 243 292
#     4  10  21  35  52  75 102 136 177 216 255 305
#     4   9  18  33  51  71  99 134 169 207 254 308
#     4   9  18  34  54  73  96 129 169 214 265 317
#     4  10  21  36  53  74 103 139 173 206 252 307
#     4  10  20  33  53  82 109 133 167 210 252 296
#
# _framework density 20.532677
#
# number of rings (size 3 to 8) (size 9 to 14) (size 15 to 20)
#    0.000    2.714    0.000    2.143    0.000    8.286 
#    0.000    5.000    0.000    2.571    0.000    0.000 
#    0.000    0.000    0.000    0.000    0.000    0.000 
#
# Total GULP energy -312514.950553 kJ/mol
# GULP energy per Si atom -5580.624117 kJ/mol
# Density = 2.048594 g / cm^3
# Si number density = 20.532677 Si / 1000 Ang^3
#
#
#
# Elastic Constant Matrix: (Units=GPa)
#
#
# Indices 1 2 3 4 5 6 
#
# 1 31.6042 -1.8223 -12.3803 0.0000 0.0000 0.0000
# 2 -1.8223 25.9048 18.3782 0.0000 0.0000 0.0000
# 3 -12.3803 18.3782 100.5680 0.0000 0.0000 0.0000
# 4 0.0000 0.0000 0.0000 21.1875 0.0000 0.0000
# 5 0.0000 0.0000 0.0000 0.0000 8.0055 0.0000
# 6 0.0000 0.0000 0.0000 0.0000 0.0000 27.6342
#
#
#
# Elastic Compliance Matrix: (Units=1/GPa)
#
#
# Indices 1 2 3 4 5 6 
#
# 1 0.033254 -0.000649 0.004212 0.000000 0.000000 0.000000
# 2 -0.000649 0.044366 -0.008188 0.000000 0.000000 0.000000
# 3 0.004212 -0.008188 0.011958 0.000000 0.000000 0.000000
# 4 0.000000 0.000000 0.000000 0.047198 0.000000 0.000000
# 5 0.000000 0.000000 0.000000 0.000000 0.124914 0.000000
# 6 0.000000 0.000000 0.000000 0.000000 0.000000 0.036187
#
#
# Mechanical properties :
#
#
# Convention : Reuss Voigt Hill
#
# Bulk Modulus (GPa) = 12.44872 18.49202 15.47037
# Shear Modulus (GPa) = 14.97442 21.62551 18.29997
#
# Velocity S-wave (km/s) = 2.70348 3.24886 2.98864
# Velocity P-wave (km/s) = 3.97758 4.80616 4.41137
#
# Compressibility (1/GPa) = 0.08032954
#
# Stress axis : x y z
#
# Youngs Moduli (GPa) = 30.07159 22.53982 83.62395
#
# Poissons Ratio (x) = 0.01463 -0.35225
# Poissons Ratio (y) = 0.01952 0.68467
# Poissons Ratio (z) = -0.12667 0.18455
#
# Static dielectric constant tensor:
#      x y z
#    x 1.798080 0.000000 0.000000 
#    y 0.000000 1.687720 0.000000 
#    z 0.000000 0.000000 1.728570 
# 
# From -- ./inp_files/33303.got.cif
#   From: 2010.05.17/outbox.cif.g08.bks.cpg/sg51_17_cif.got.tgz:33303.got - 2010.06.03 11:52:47.
