data_PCOD9403182
_publ_section_title
;
Structure prediction by ZEFSAII (Michael W. Deem and Ramdas Pophale) SiO2 
 PCOD9403182
Probable space group: P M M A
;
_chemical_formula_sum "Si O2"
_cell_formula_units_Z 64
_cell_length_a 7.562293
_cell_length_b 9.465992
_cell_length_c 43.231777
_cell_angle_alpha 90.000000
_cell_angle_beta 90.000000
_cell_angle_gamma 90.000000
_cell_volume 3094.729682
_symmetry_space_group_name_H-M "P M M A"
_symmetry_group_IT_number 51
_symmetry_cell_setting 'orthorhombic'
loop_
_space_group_symop_operation_xyz
x,y,z
1/2-x,-y,z
1/2+x,-y,-z
-x,y,-z
-x,-y,-z
1/2+x,y,-z
1/2-x,y,z
x,-y,z
loop_
_atom_site_type_symbol
_atom_site_label
_atom_site_fract_x
_atom_site_fract_y
_atom_site_fract_z
Si Si1 0.537978 0.660618 0.153104
Si Si2 0.037730 0.336717 0.341125
Si Si3 0.037773 0.160841 0.534117
Si Si4 0.461841 0.338821 0.965181
Si Si5 0.037531 0.839489 0.214352
Si Si6 0.960689 0.339606 0.408249
Si Si7 0.034006 0.665005 0.273453
Si Si8 0.466725 0.837559 0.906309
O O1 0.750000 0.651928 0.150058
O O2 0.469681 0.500000 0.154545
O O3 0.500950 0.747226 0.184147
O O4 0.473876 0.746561 0.123183
O O5 0.250000 0.338605 0.340300
O O6 0.974790 0.500000 0.342100
O O7 0.978574 0.281511 0.307608
O O8 0.988397 0.273152 0.374225
O O9 0.250000 0.153964 0.536994
O O10 0.969077 0.250744 0.562936
O O11 0.000000 0.220641 0.500000
O O12 0.969011 0.000000 0.534973
O O13 0.250000 0.345877 0.962100
O O14 0.530066 0.500000 0.962084
O O15 0.500000 0.289365 0.000000
O O16 0.525709 0.237691 0.937933
O O17 0.250000 0.846982 0.217071
O O18 0.971433 0.759570 0.245037
O O19 0.970734 0.000000 0.211531
O O20 0.750000 0.349806 0.412232
O O21 0.032949 0.500000 0.408190
O O22 0.250000 0.665897 0.272956
O O23 0.982307 0.500000 0.270002
O O24 0.250000 0.837995 0.906197
O O25 0.523261 0.000000 0.904271
#
# Coordination Sequence:
#
# PCOD9403182 Si02
#       8
#     8   8   8   8   8   8   8   8
#     4  10  20  34  53  75  97 125 164 205 242 285
#     4   8  14  26  45  67  89 116 151 187 221 261
#     4   9  18  32  47  62  84 115 147 178 216 264
#     4   9  17  30  48  69  93 122 157 195 234 279
#     4  10  20  33  50  73 101 131 161 196 242 291
#     4   9  17  29  45  66  91 116 143 180 226 269
#     4   8  14  27  47  67  89 121 158 191 225 270
#     4   9  17  30  49  71  95 125 159 195 238 287
#
# _framework density 20.680319999999998
#
# number of rings (size 3 to 8) (size 9 to 14) (size 15 to 20)
#    0.000    3.000    0.000    1.875    0.000    4.000 
#    0.000    1.875    0.000    5.250    0.000    0.000 
#    0.000    0.000    0.000    0.000    0.000    0.000 
#
# Total GULP energy -356924.276614 kJ/mol
# GULP energy per Si atom -5576.941822 kJ/mol
# Density = 2.063325 g / cm^3
# Si number density = 20.680320 Si / 1000 Ang^3
#
#
#
# Elastic Constant Matrix: (Units=GPa)
#
#
# Indices 1 2 3 4 5 6 
#
# 1 46.7357 5.6421 0.8798 0.0000 0.0000 0.0000
# 2 5.6421 129.8989 122.3377 0.0000 0.0000 0.0000
# 3 0.8798 122.3377 247.9325 0.0000 0.0000 0.0000
# 4 0.0000 0.0000 0.0000 -218.6378 0.0000 0.0000
# 5 0.0000 0.0000 0.0000 0.0000 22.9606 0.0000
# 6 0.0000 0.0000 0.0000 0.0000 0.0000 -1.9158
#
#
#
# Elastic Compliance Matrix: (Units=1/GPa)
#
#
# Indices 1 2 3 4 5 6 
#
# 1 0.021578 -0.001616 0.000721 0.000000 0.000000 0.000000
# 2 -0.001616 0.014503 -0.007150 0.000000 0.000000 0.000000
# 3 0.000721 -0.007150 0.007559 0.000000 0.000000 0.000000
# 4 0.000000 0.000000 0.000000 -0.004574 0.000000 0.000000
# 5 0.000000 0.000000 0.000000 0.000000 0.043553 0.000000
# 6 0.000000 0.000000 0.000000 0.000000 0.000000 -0.521962
#
#
# Mechanical properties :
#
#
# Convention : Reuss Voigt Hill
#
# Bulk Modulus (GPa) = 36.29915 75.80958 56.05436
# Shear Modulus (GPa) = -12.07527 -19.80475 -15.94001
#
# Velocity S-wave (km/s) = -2.41903 -3.09797 -2.77931
# Velocity P-wave (km/s) = 3.12863 4.89294 4.10665
#
# Compressibility (1/GPa) = 0.02754886
#
# Stress axis : x y z
#
# Youngs Moduli (GPa) = 46.34254 68.95321 132.29295
#
# Poissons Ratio (x) = 0.11144 -0.09537
# Poissons Ratio (y) = 0.07490 0.94593
# Poissons Ratio (z) = -0.03341 0.49304
#
# Static dielectric constant tensor:
#      x y z
#    x 1.788260 0.000000 0.000000 
#    y 0.000000 1.720340 0.000000 
#    z 0.000000 0.000000 1.738100 
# 
# From -- ./inp_files/37765.got.cif
#   From: 2010.05.17/outbox.cif.g08.bks.cpg/sg51_19_cif.got.tgz:37765.got - 2010.06.03 11:52:47.
