data_PCOD9403887
_publ_section_title
;
Structure prediction by ZEFSAII (Michael W. Deem and Ramdas Pophale) SiO2 
 PCOD9403887
Probable space group: P M M A
;
_chemical_formula_sum "Si O2"
_cell_formula_units_Z 48
_cell_length_a 9.359800
_cell_length_b 8.276047
_cell_length_c 32.202149
_cell_angle_alpha 90.000000
_cell_angle_beta 90.000000
_cell_angle_gamma 90.000000
_cell_volume 2494.447526
_symmetry_space_group_name_H-M "P M M A"
_symmetry_group_IT_number 51
_symmetry_cell_setting 'orthorhombic'
loop_
_space_group_symop_operation_xyz
x,y,z
1/2-x,-y,z
1/2+x,-y,-z
-x,y,-z
-x,-y,-z
1/2+x,y,-z
1/2-x,y,z
x,-y,z
loop_
_atom_site_type_symbol
_atom_site_label
_atom_site_fract_x
_atom_site_fract_y
_atom_site_fract_z
Si Si1 0.084706 0.302277 0.040543
Si Si2 0.576387 0.687634 0.869068
Si Si3 0.587400 0.691710 0.298369
Si Si4 0.915073 0.190719 0.779758
Si Si5 0.414871 0.197639 0.541199
Si Si6 0.912911 0.194375 0.622321
O O1 0.250000 0.254316 0.036763
O O2 0.081321 0.500000 0.041537
O O3 0.027356 0.249889 0.085827
O O4 0.000000 0.248574 0.000000
O O5 0.750000 0.692508 0.871333
O O6 0.534556 0.500000 0.864812
O O7 0.535837 0.777236 0.826968
O O8 0.750000 0.754803 0.299776
O O9 0.591566 0.500000 0.304139
O O10 0.514305 0.728621 0.254390
O O11 0.492771 0.763619 0.335274
O O12 0.750000 0.249728 0.776138
O O13 0.914296 0.000000 0.772024
O O14 0.500000 0.247733 0.500000
O O15 0.250000 0.249915 0.540672
O O16 0.496993 0.252280 0.582577
O O17 0.414169 0.000000 0.541437
O O18 0.750000 0.255576 0.622020
O O19 0.906488 0.000000 0.619259
#
# Coordination Sequence:
#
# PCOD9403887 Si02
#       6
#     8   8   8   8   8   8
#     4   8  13  22  38  61  88 119 156 197 240 284
#     4   8  14  26  45  68  95 127 161 199 245 294
#     4  11  24  39  54  74 101 133 168 206 252 306
#     4  10  20  34  54  78 100 126 164 207 251 301
#     4   9  16  27  46  74 108 143 177 214 254 295
#     4  10  20  34  54  80 107 136 173 214 255 301
#
# _framework density 19.242737999999999
#
# number of rings (size 3 to 8) (size 9 to 14) (size 15 to 20)
#    0.000    2.667    0.000    3.500    0.000    7.333 
#    0.000    0.833    0.000    4.000    0.000    0.000 
#    0.000    0.000    0.000    0.000    0.000    0.000 
#
# Total GULP energy -267714.013252 kJ/mol
# GULP energy per Si atom -5577.375276 kJ/mol
# Density = 1.919894 g / cm^3
# Si number density = 19.242738 Si / 1000 Ang^3
#
#
#
# Elastic Constant Matrix: (Units=GPa)
#
#
# Indices 1 2 3 4 5 6 
#
# 1 129.2691 9.1319 85.0584 0.0000 0.0000 0.0000
# 2 9.1319 6.2062 1.5681 0.0000 0.0000 0.0000
# 3 85.0584 1.5681 161.3094 0.0000 0.0000 0.0000
# 4 0.0000 0.0000 0.0000 23.9627 0.0000 0.0000
# 5 0.0000 0.0000 0.0000 0.0000 34.5492 0.0000
# 6 0.0000 0.0000 0.0000 0.0000 0.0000 6.7234
#
#
#
# Elastic Compliance Matrix: (Units=1/GPa)
#
#
# Indices 1 2 3 4 5 6 
#
# 1 0.013647 -0.018307 -0.007018 0.000000 0.000000 0.000000
# 2 -0.018307 0.186086 0.007844 0.000000 0.000000 0.000000
# 3 -0.007018 0.007844 0.009824 0.000000 0.000000 0.000000
# 4 0.000000 0.000000 0.000000 0.041732 0.000000 0.000000
# 5 0.000000 0.000000 0.000000 0.000000 0.028944 0.000000
# 6 0.000000 0.000000 0.000000 0.000000 0.000000 0.148735
#
#
# Mechanical properties :
#
#
# Convention : Reuss Voigt Hill
#
# Bulk Modulus (GPa) = 5.72755 54.25572 29.99163
# Shear Modulus (GPa) = 9.57621 26.44879 18.01250
#
# Velocity S-wave (km/s) = 2.23323 3.71142 3.06284
# Velocity P-wave (km/s) = 3.10366 6.82809 5.30356
#
# Compressibility (1/GPa) = 0.17459483
#
# Stress axis : x y z
#
# Youngs Moduli (GPa) = 73.27669 5.37386 101.79535
#
# Poissons Ratio (x) = 0.09838 0.71440
# Poissons Ratio (y) = 1.34149 -0.79853
# Poissons Ratio (z) = 0.51426 -0.04215
#
# Static dielectric constant tensor:
#      x y z
#    x 1.662700 0.000000 0.000000 
#    y 0.000000 1.684690 0.000000 
#    z 0.000000 0.000000 1.664140 
# 
# From -- ./inp_files/37032.got.cif
#   From: 2010.05.17/outbox.cif.g08.bks.cpg/sg51_19_cif.got.tgz:37032.got - 2010.06.03 11:52:47.
