data_PCOD9403447
_publ_section_title
;
Structure prediction by ZEFSAII (Michael W. Deem and Ramdas Pophale) SiO2 
 PCOD9403447
Probable space group: P M M A
;
_chemical_formula_sum "Si O2"
_cell_formula_units_Z 64
_cell_length_a 33.311878
_cell_length_b 8.910574
_cell_length_c 11.515229
_cell_angle_alpha 90.000000
_cell_angle_beta 90.000000
_cell_angle_gamma 90.000000
_cell_volume 3418.041864
_symmetry_space_group_name_H-M "P M M A"
_symmetry_group_IT_number 51
_symmetry_cell_setting 'orthorhombic'
loop_
_space_group_symop_operation_xyz
x,y,z
1/2-x,-y,z
1/2+x,-y,-z
-x,y,-z
-x,-y,-z
1/2+x,y,-z
1/2-x,y,z
x,-y,z
loop_
_atom_site_type_symbol
_atom_site_label
_atom_site_fract_x
_atom_site_fract_y
_atom_site_fract_z
Si Si1 0.584395 0.679767 0.831838
Si Si2 0.862820 0.678817 0.321822
Si Si3 0.980232 0.179704 0.680395
Si Si4 0.704123 0.177679 0.922272
Si Si5 0.632203 0.319511 0.056273
Si Si6 0.297064 0.179917 0.531739
Si Si7 0.561309 0.180688 0.435361
Si Si8 0.165831 0.320019 0.300295
O O1 0.581310 0.500000 0.828608
O O2 0.543259 0.749357 0.787085
O O3 0.621113 0.722696 0.744763
O O4 0.598618 0.724241 0.961228
O O5 0.859094 0.500000 0.332329
O O6 0.875413 0.716439 0.190013
O O7 0.821168 0.754900 0.358771
O O8 0.897564 0.738936 0.405828
O O9 0.955675 0.218046 0.562766
O O10 0.026120 0.224822 0.655303
O O11 0.979764 0.000000 0.690453
O O12 0.750000 0.201813 0.957328
O O13 0.694717 0.263779 0.802725
O O14 0.697837 0.000000 0.904079
O O15 0.672899 0.240651 0.015092
O O16 0.637142 0.500000 0.046019
O O17 0.250000 0.221953 0.530469
O O18 0.319541 0.245190 0.418612
O O19 0.299709 0.000000 0.530485
O O20 0.566302 0.000000 0.430283
O O21 0.167169 0.500000 0.310741
#
# Coordination Sequence:
#
# PCOD9403447 Si02
#       8
#     8   8   8   8   8   8   8   8
#     4   9  18  33  53  78 107 138 173 217 264 307
#     4  11  23  39  58  78 103 140 184 225 269 321
#     4   9  18  33  55  83 111 139 172 210 258 318
#     4  10  20  33  52  79 107 136 175 223 272 319
#     4   9  21  39  54  72 102 140 182 224 267 320
#     4  11  24  39  55  78 109 143 178 220 272 326
#     4   9  19  36  56  80 112 144 172 210 262 318
#     4  10  20  34  54  81 112 144 178 217 265 320
#
# _framework density 18.724170000000001
#
# number of rings (size 3 to 8) (size 9 to 14) (size 15 to 20)
#    0.000    2.250    0.000    4.125    0.000   10.500 
#    0.000    4.375    0.000    3.750    0.000    0.000 
#    0.000    0.000    0.000    0.000    0.000    0.000 
#
# Total GULP energy -357250.374185 kJ/mol
# GULP energy per Si atom -5582.037097 kJ/mol
# Density = 1.868155 g / cm^3
# Si number density = 18.724170 Si / 1000 Ang^3
#
#
#
# Elastic Constant Matrix: (Units=GPa)
#
#
# Indices 1 2 3 4 5 6 
#
# 1 52.9200 15.6823 16.6897 0.0000 0.0000 0.0000
# 2 15.6823 20.7830 16.7167 0.0000 0.0000 0.0000
# 3 16.6897 16.7167 53.3076 0.0000 0.0000 0.0000
# 4 0.0000 0.0000 0.0000 -71.4445 0.0000 0.0000
# 5 0.0000 0.0000 0.0000 0.0000 10.5370 0.0000
# 6 0.0000 0.0000 0.0000 0.0000 0.0000 -77.9819
#
#
#
# Elastic Compliance Matrix: (Units=1/GPa)
#
#
# Indices 1 2 3 4 5 6 
#
# 1 0.024588 -0.016531 -0.002514 0.000000 0.000000 0.000000
# 2 -0.016531 0.075461 -0.018488 0.000000 0.000000 0.000000
# 3 -0.002514 -0.018488 0.025344 0.000000 0.000000 0.000000
# 4 0.000000 0.000000 0.000000 -0.013997 0.000000 0.000000
# 5 0.000000 0.000000 0.000000 0.000000 0.094904 0.000000
# 6 0.000000 0.000000 0.000000 0.000000 0.000000 -0.012823
#
#
# Mechanical properties :
#
#
# Convention : Reuss Voigt Hill
#
# Bulk Modulus (GPa) = 19.87043 25.02089 22.44566
# Shear Modulus (GPa) = 17.52422 -22.58308 -2.52943
#
# Velocity S-wave (km/s) = 3.06259 -3.47665 -1.16354
# Velocity P-wave (km/s) = 4.81053 1.65053 3.19507
#
# Compressibility (1/GPa) = 0.05032604
#
# Stress axis : x y z
#
# Youngs Moduli (GPa) = 40.66989 13.25182 39.45721
#
# Poissons Ratio (x) = 0.21907 0.09920
# Poissons Ratio (y) = 0.67233 0.72949
# Poissons Ratio (z) = 0.10225 0.24500
#
# Static dielectric constant tensor:
#      x y z
#    x 1.635300 0.000000 0.000000 
#    y 0.000000 1.624830 0.000000 
#    z 0.000000 0.000000 1.653850 
# 
# From -- ./inp_files/19584.got.cif
#   From: 2010.05.17/outbox.cif.g08.bks.cpg/sg51_10_cif.got.tgz:19584.got - 2010.06.03 11:52:47.
