data_PCOD9403357
_publ_section_title
;
Structure prediction by ZEFSAII (Michael W. Deem and Ramdas Pophale) SiO2 
 PCOD9403357
Probable space group: P M M A
;
_chemical_formula_sum "Si O2"
_cell_formula_units_Z 48
_cell_length_a 8.621653
_cell_length_b 17.255918
_cell_length_c 15.925444
_cell_angle_alpha 90.000000
_cell_angle_beta 90.000000
_cell_angle_gamma 90.000000
_cell_volume 2369.300561
_symmetry_space_group_name_H-M "P M M A"
_symmetry_group_IT_number 51
_symmetry_cell_setting 'orthorhombic'
loop_
_space_group_symop_operation_xyz
x,y,z
1/2-x,-y,z
1/2+x,-y,-z
-x,y,-z
-x,-y,-z
1/2+x,y,-z
1/2-x,y,z
x,-y,z
loop_
_atom_site_type_symbol
_atom_site_label
_atom_site_fract_x
_atom_site_fract_y
_atom_site_fract_z
Si Si1 0.936779 0.090213 0.411373
Si Si2 0.750000 0.407566 0.685823
Si Si3 0.416830 0.409921 0.893767
Si Si4 0.568145 0.178221 0.246142
Si Si5 0.750000 0.594543 0.883642
Si Si6 0.434570 0.088834 0.091025
Si Si7 0.424320 0.357569 0.706176
O O1 0.750000 0.094221 0.413739
O O2 0.992502 0.136237 0.330062
O O3 0.000000 0.120156 0.500000
O O4 0.982413 0.000000 0.403657
O O5 0.750000 0.500000 0.679587
O O6 0.750000 0.384622 0.785001
O O7 0.580806 0.378120 0.655062
O O8 0.250000 0.373382 0.915487
O O9 0.410816 0.500000 0.919022
O O10 0.585306 0.378466 0.920431
O O11 0.423195 0.407937 0.791769
O O12 0.750000 0.158293 0.237484
O O13 0.485938 0.146620 0.163829
O O14 0.558420 0.269583 0.261497
O O15 0.750000 0.500000 0.887752
O O16 0.250000 0.087888 0.086300
O O17 0.488135 0.000000 0.109883
O O18 0.500000 0.110414 0.000000
O O19 0.250000 0.365351 0.667769
#
# Coordination Sequence:
#
# PCOD9403357 Si02
#       7
#     8   4   8   8   4   8   8
#     4   9  18  33  52  74 102 140 185 228 271 326
#     4   9  16  26  42  64  97 137 175 219 264 316
#     4   8  12  19  32  50  77 113 150 190 234 286
#     4  10  20  33  51  76 109 146 176 226 282 333
#     4   7  10  16  26  42  64  97 137 175 219 264
#     4  10  21  36  55  78 104 140 185 228 270 325
#     4   9  17  27  41  66 100 138 170 216 273 327
#
# _framework density 20.259143000000002
#
# number of rings (size 3 to 8) (size 9 to 14) (size 15 to 20)
#    0.000    3.000    0.000    2.500    1.167    3.333 
#    0.000    1.667    0.000    0.000    0.000    0.000 
#    0.000    5.333    3.333    0.000    0.000    0.000 
#
# Total GULP energy -267511.072942 kJ/mol
# GULP energy per Si atom -5573.147353 kJ/mol
# Density = 2.021303 g / cm^3
# Si number density = 20.259143 Si / 1000 Ang^3
#
#
#
# Elastic Constant Matrix: (Units=GPa)
#
#
# Indices 1 2 3 4 5 6 
#
# 1 157.9709 21.7366 12.3315 0.0000 0.0000 0.0000
# 2 21.7366 46.3796 31.3931 0.0000 0.0000 0.0000
# 3 12.3315 31.3931 54.9443 0.0000 0.0000 0.0000
# 4 0.0000 0.0000 0.0000 -24.7865 0.0000 0.0000
# 5 0.0000 0.0000 0.0000 0.0000 18.1401 0.0000
# 6 0.0000 0.0000 0.0000 0.0000 0.0000 17.8995
#
#
#
# Elastic Compliance Matrix: (Units=1/GPa)
#
#
# Indices 1 2 3 4 5 6 
#
# 1 0.006774 -0.003499 0.000479 0.000000 0.000000 0.000000
# 2 -0.003499 0.036966 -0.020335 0.000000 0.000000 0.000000
# 3 0.000479 -0.020335 0.029712 0.000000 0.000000 0.000000
# 4 0.000000 0.000000 0.000000 -0.040345 0.000000 0.000000
# 5 0.000000 0.000000 0.000000 0.000000 0.055127 0.000000
# 6 0.000000 0.000000 0.000000 0.000000 0.000000 0.055867
#
#
# Mechanical properties :
#
#
# Convention : Reuss Voigt Hill
#
# Bulk Modulus (GPa) = 37.39670 43.35748 40.37709
# Shear Modulus (GPa) = 25.03428 15.17285 20.10357
#
# Velocity S-wave (km/s) = 3.51907 2.73964 3.15353
# Velocity P-wave (km/s) = 5.91701 5.60851 5.76483
#
# Compressibility (1/GPa) = 0.02674032
#
# Stress axis : x y z
#
# Youngs Moduli (GPa) = 147.61533 27.05214 33.65676
#
# Poissons Ratio (x) = 0.09466 -0.01611
# Poissons Ratio (y) = 0.51651 0.68443
# Poissons Ratio (z) = -0.07068 0.55012
#
# Static dielectric constant tensor:
#      x y z
#    x 1.803660 0.000000 0.000000 
#    y 0.000000 1.678930 0.000000 
#    z 0.000000 0.000000 1.709730 
# 
# From -- ./inp_files/21216.got.cif
#   From: 2010.05.17/outbox.cif.g08.bks.cpg/sg51_11_cif.got.tgz:21216.got - 2010.06.03 11:52:47.
