data_PCOD9403637
_publ_section_title
;
Structure prediction by ZEFSAII (Michael W. Deem and Ramdas Pophale) SiO2 
 PCOD9403637
Probable space group: P M M A
;
_chemical_formula_sum "Si O2"
_cell_formula_units_Z 64
_cell_length_a 21.675047
_cell_length_b 7.462329
_cell_length_c 17.049566
_cell_angle_alpha 90.000000
_cell_angle_beta 90.000000
_cell_angle_gamma 90.000000
_cell_volume 2757.704759
_symmetry_space_group_name_H-M "P M M A"
_symmetry_group_IT_number 51
_symmetry_cell_setting 'orthorhombic'
loop_
_space_group_symop_operation_xyz
x,y,z
1/2-x,-y,z
1/2+x,-y,-z
-x,y,-z
-x,-y,-z
1/2+x,y,-z
1/2-x,y,z
x,-y,z
loop_
_atom_site_type_symbol
_atom_site_label
_atom_site_fract_x
_atom_site_fract_y
_atom_site_fract_z
Si Si1 0.406884 0.285295 0.802685
Si Si2 0.182321 0.212809 0.675594
Si Si3 0.930078 0.719144 0.020991
Si Si4 0.315950 0.787870 0.435804
Si Si5 0.507451 0.713257 0.677677
Si Si6 0.179806 0.280998 0.095933
Si Si7 0.140732 0.284141 0.269359
Si Si8 0.582225 0.784981 0.451325
O O1 0.413598 0.500000 0.805162
O O2 0.341618 0.244095 0.763185
O O3 0.457584 0.215479 0.740611
O O4 0.415589 0.220845 0.890636
O O5 0.250000 0.287178 0.662778
O O6 0.130477 0.279544 0.615970
O O7 0.184617 0.000000 0.662057
O O8 0.930008 0.500000 0.019314
O O9 0.875642 0.775892 0.961777
O O10 0.000000 0.774203 0.000000
O O11 0.250000 0.716346 0.466616
O O12 0.317423 0.762059 0.343107
O O13 0.380309 0.717485 0.472440
O O14 0.315382 0.000000 0.452887
O O15 0.509780 0.500000 0.686938
O O16 0.573432 0.784472 0.704362
O O17 0.483624 0.741523 0.588514
O O18 0.250000 0.225981 0.075198
O O19 0.179727 0.500000 0.095170
O O20 0.163664 0.222408 0.184658
O O21 0.138057 0.500000 0.264210
O O22 0.579741 0.000000 0.456851
#
# Coordination Sequence:
#
# PCOD9403637 Si02
#       8
#     8   8   8   8   8   8   8   8
#     4   9  17  29  47  72  99 125 157 198 241 285
#     4   9  17  30  48  68  93 127 161 191 231 287
#     4   9  16  27  46  71  98 128 161 199 245 293
#     4  10  21  36  53  73  97 125 161 206 250 291
#     4   9  18  32  49  72 102 131 159 197 245 292
#     4   9  17  29  46  69  96 127 166 208 245 287
#     4  10  20  34  52  72  97 130 166 203 245 295
#     4   9  18  33  52  72  95 126 163 200 240 291
#
# _framework density 23.207705000000001
#
# number of rings (size 3 to 8) (size 9 to 14) (size 15 to 20)
#    0.000    2.750    0.000    1.500    0.000    7.500 
#    0.000    3.750    0.000    3.375    0.000    1.750 
#    0.000    0.000    0.000    0.000    0.000    0.000 
#
# Total GULP energy -357147.333077 kJ/mol
# GULP energy per Si atom -5580.427079 kJ/mol
# Density = 2.315488 g / cm^3
# Si number density = 23.207705 Si / 1000 Ang^3
#
#
#
# Elastic Constant Matrix: (Units=GPa)
#
#
# Indices 1 2 3 4 5 6 
#
# 1 165.5951 -0.4898 52.6171 0.0000 0.0000 0.0000
# 2 -0.4898 69.0161 -7.2859 0.0000 0.0000 0.0000
# 3 52.6171 -7.2859 134.9027 0.0000 0.0000 0.0000
# 4 0.0000 0.0000 0.0000 7.3963 0.0000 0.0000
# 5 0.0000 0.0000 0.0000 0.0000 31.7795 0.0000
# 6 0.0000 0.0000 0.0000 0.0000 0.0000 1.6220
#
#
#
# Elastic Compliance Matrix: (Units=1/GPa)
#
#
# Indices 1 2 3 4 5 6 
#
# 1 0.006897 -0.000236 -0.002703 0.000000 0.000000 0.000000
# 2 -0.000236 0.014581 0.000880 0.000000 0.000000 0.000000
# 3 -0.002703 0.000880 0.008514 0.000000 0.000000 0.000000
# 4 0.000000 0.000000 0.000000 0.135202 0.000000 0.000000
# 5 0.000000 0.000000 0.000000 0.000000 0.031467 0.000000
# 6 0.000000 0.000000 0.000000 0.000000 0.000000 0.616540
#
#
# Mechanical properties :
#
#
# Convention : Reuss Voigt Hill
#
# Bulk Modulus (GPa) = 38.65049 51.02185 44.83617
# Shear Modulus (GPa) = 6.05368 29.80439 17.92903
#
# Velocity S-wave (km/s) = 1.61683 3.58752 2.78249
# Velocity P-wave (km/s) = 4.49175 6.26043 5.44834
#
# Compressibility (1/GPa) = 0.02587289
#
# Stress axis : x y z
#
# Youngs Moduli (GPa) = 144.99181 68.58444 117.44712
#
# Poissons Ratio (x) = 0.01621 0.31744
# Poissons Ratio (y) = 0.03427 -0.10332
# Poissons Ratio (z) = 0.39189 -0.06033
#
# Static dielectric constant tensor:
#      x y z
#    x 1.923600 0.000000 0.000000 
#    y 0.000000 1.870550 0.000000 
#    z 0.000000 0.000000 1.851670 
# 
# From -- ./inp_files/30629.got.cif
#   From: 2010.05.17/outbox.cif.g08.bks.cpg/sg51_16_cif.got.tgz:30629.got - 2010.06.03 11:52:47.
