data_PCOD9403763
_publ_section_title
;
Structure prediction by ZEFSAII (Michael W. Deem and Ramdas Pophale) SiO2 
 PCOD9403763
Probable space group: P M M A
;
_chemical_formula_sum "Si O2"
_cell_formula_units_Z 48
_cell_length_a 31.388779
_cell_length_b 8.927870
_cell_length_c 9.609382
_cell_angle_alpha 90.000000
_cell_angle_beta 90.000000
_cell_angle_gamma 90.000000
_cell_volume 2692.884573
_symmetry_space_group_name_H-M "P M M A"
_symmetry_group_IT_number 51
_symmetry_cell_setting 'orthorhombic'
loop_
_space_group_symop_operation_xyz
x,y,z
1/2-x,-y,z
1/2+x,-y,-z
-x,y,-z
-x,-y,-z
1/2+x,y,-z
1/2-x,y,z
x,-y,z
loop_
_atom_site_type_symbol
_atom_site_label
_atom_site_fract_x
_atom_site_fract_y
_atom_site_fract_z
Si Si1 0.321609 0.165549 0.468841
Si Si2 0.548414 0.322501 0.501753
Si Si3 0.385597 0.827007 0.713239
Si Si4 0.250000 0.332488 0.337922
Si Si5 0.657902 0.323376 0.026161
Si Si6 0.750000 0.821455 0.957736
Si Si7 0.616251 0.674684 0.724625
O O1 0.343342 0.174596 0.617412
O O2 0.289312 0.296313 0.435656
O O3 0.357940 0.198236 0.356679
O O4 0.302925 0.000000 0.450058
O O5 0.500000 0.266602 0.500000
O O6 0.548051 0.500000 0.469980
O O7 0.577925 0.245364 0.384420
O O8 0.569523 0.307755 0.655911
O O9 0.371556 0.741176 0.851322
O O10 0.396442 0.000000 0.742980
O O11 0.250000 0.500000 0.282811
O O12 0.250000 0.223391 0.205699
O O13 0.665566 0.500000 0.046559
O O14 0.704753 0.245007 0.014492
O O15 0.630333 0.306753 0.883869
O O16 0.750000 0.000000 0.976555
O O17 0.628258 0.500000 0.689446
#
# Coordination Sequence:
#
# PCOD9403763 Si02
#       7
#     8   8   8   4   8   4   8
#     4  10  20  34  53  76 103 140 183 229 276 325
#     4   9  18  36  62  88 112 143 186 236 291 349
#     4  10  22  38  56  81 114 148 185 231 288 342
#     4  12  22  33  52  79 108 140 184 232 272 325
#     4  11  22  37  57  82 114 153 194 233 281 335
#     4  12  24  37  56  81 114 152 192 234 276 327
#     4   9  18  33  55  81 109 142 183 231 279 335
#
# _framework density 17.824750999999999
#
# number of rings (size 3 to 8) (size 9 to 14) (size 15 to 20)
#    0.000    1.833    1.667    3.000    0.000    3.667 
#    0.000    1.667    0.000    5.000    0.000    0.000 
#    0.000    0.000    0.000    0.000    0.000    0.000 
#
# Total GULP energy -267266.243796 kJ/mol
# GULP energy per Si atom -5568.046746 kJ/mol
# Density = 1.778418 g / cm^3
# Si number density = 17.824751 Si / 1000 Ang^3
#
#
#
# Elastic Constant Matrix: (Units=GPa)
#
#
# Indices 1 2 3 4 5 6 
#
# 1 119.1015 40.2616 45.5424 0.0000 0.0000 0.0000
# 2 40.2616 84.7568 49.0063 0.0000 0.0000 0.0000
# 3 45.5424 49.0063 95.0724 0.0000 0.0000 0.0000
# 4 0.0000 0.0000 0.0000 19.0602 0.0000 0.0000
# 5 0.0000 0.0000 0.0000 0.0000 127.7061 0.0000
# 6 0.0000 0.0000 0.0000 0.0000 0.0000 18.3312
#
#
#
# Elastic Compliance Matrix: (Units=1/GPa)
#
#
# Indices 1 2 3 4 5 6 
#
# 1 0.010805 -0.003049 -0.003605 0.000000 0.000000 0.000000
# 2 -0.003049 0.017668 -0.007647 0.000000 0.000000 0.000000
# 3 -0.003605 -0.007647 0.016187 0.000000 0.000000 0.000000
# 4 0.000000 0.000000 0.000000 0.052465 0.000000 0.000000
# 5 0.000000 0.000000 0.000000 0.000000 0.007830 0.000000
# 6 0.000000 0.000000 0.000000 0.000000 0.000000 0.054552
#
#
# Mechanical properties :
#
#
# Convention : Reuss Voigt Hill
#
# Bulk Modulus (GPa) = 62.26707 63.17237 62.71972
# Shear Modulus (GPa) = 25.84506 43.96084 34.90295
#
# Velocity S-wave (km/s) = 3.81196 4.97155 4.42986
# Velocity P-wave (km/s) = 7.37451 8.27483 7.83761
#
# Compressibility (1/GPa) = 0.01605985
#
# Stress axis : x y z
#
# Youngs Moduli (GPa) = 92.54928 56.59949 61.77936
#
# Poissons Ratio (x) = 0.17255 0.22269
# Poissons Ratio (y) = 0.28214 0.47242
# Poissons Ratio (z) = 0.33360 0.43281
#
# Static dielectric constant tensor:
#      x y z
#    x 1.539770 0.000000 0.000000 
#    y 0.000000 1.619870 0.000000 
#    z 0.000000 0.000000 1.602630 
# 
# From -- ./inp_files/12865.got.cif
#   From: 2010.05.17/outbox.cif.g08.bks.cpg/sg51_7_cif.got.tgz:12865.got - 2010.06.03 11:52:47.
