data_PCOD9403822
_publ_section_title
;
Structure prediction by ZEFSAII (Michael W. Deem and Ramdas Pophale) SiO2 
 PCOD9403822
Probable space group: P M M A
;
_chemical_formula_sum "Si O2"
_cell_formula_units_Z 48
_cell_length_a 23.944287
_cell_length_b 7.696289
_cell_length_c 11.330591
_cell_angle_alpha 90.000000
_cell_angle_beta 90.000000
_cell_angle_gamma 90.000000
_cell_volume 2088.025700
_symmetry_space_group_name_H-M "P M M A"
_symmetry_group_IT_number 51
_symmetry_cell_setting 'orthorhombic'
loop_
_space_group_symop_operation_xyz
x,y,z
1/2-x,-y,z
1/2+x,-y,-z
-x,y,-z
-x,-y,-z
1/2+x,y,-z
1/2-x,y,z
x,-y,z
loop_
_atom_site_type_symbol
_atom_site_label
_atom_site_fract_x
_atom_site_fract_y
_atom_site_fract_z
Si Si1 0.375293 0.291470 0.068058
Si Si2 0.185704 0.286213 0.830256
Si Si3 0.013604 0.195290 0.186580
Si Si4 0.076397 0.709440 0.424386
Si Si5 0.812528 0.710628 0.695843
Si Si6 0.087854 0.299354 0.678812
O O1 0.371799 0.500000 0.068116
O O2 0.440378 0.250167 0.090800
O O3 0.339781 0.228107 0.181119
O O4 0.345507 0.229433 0.949818
O O5 0.250000 0.232066 0.825554
O O6 0.185402 0.500000 0.829769
O O7 0.146145 0.225022 0.723929
O O8 0.045944 0.209123 0.312225
O O9 0.956622 0.295144 0.214695
O O10 0.996837 0.000000 0.161839
O O11 0.065504 0.500000 0.412388
O O12 0.142124 0.745241 0.404738
O O13 0.062997 0.771737 0.556293
O O14 0.750000 0.775677 0.677618
O O15 0.809734 0.500000 0.703669
O O16 0.098565 0.500000 0.649446
#
# Coordination Sequence:
#
# PCOD9403822 Si02
#       6
#     8   8   8   8   8   8
#     4   9  17  32  54  78 105 135 168 210 261 310
#     4   9  18  33  56  85 110 134 169 211 253 303
#     4  11  22  35  53  76 102 134 177 224 262 301
#     4   9  18  32  51  76 106 139 172 210 261 315
#     4   8  13  23  44  73  99 126 164 207 249 296
#     4  10  20  34  53  78 109 140 169 207 257 313
#
# _framework density 22.988222
#
# number of rings (size 3 to 8) (size 9 to 14) (size 15 to 20)
#    0.000    2.667    0.000    3.500    0.000    6.000 
#    0.000    7.500    0.000   14.000    0.000    4.667 
#    0.000    0.000    0.000    0.000    0.000    0.000 
#
# Total GULP energy -267887.842615 kJ/mol
# GULP energy per Si atom -5580.996721 kJ/mol
# Density = 2.293590 g / cm^3
# Si number density = 22.988222 Si / 1000 Ang^3
#
#
#
# Elastic Constant Matrix: (Units=GPa)
#
#
# Indices 1 2 3 4 5 6 
#
# 1 106.4260 -10.2805 21.4729 0.0000 0.0000 0.0000
# 2 -10.2805 38.3968 2.4804 0.0000 0.0000 0.0000
# 3 21.4729 2.4804 64.4077 0.0000 0.0000 0.0000
# 4 0.0000 0.0000 0.0000 -13.7874 0.0000 0.0000
# 5 0.0000 0.0000 0.0000 0.0000 30.6250 0.0000
# 6 0.0000 0.0000 0.0000 0.0000 0.0000 68.1905
#
#
#
# Elastic Compliance Matrix: (Units=1/GPa)
#
#
# Indices 1 2 3 4 5 6 
#
# 1 0.010412 0.003019 -0.003587 0.000000 0.000000 0.000000
# 2 0.003019 0.026984 -0.002046 0.000000 0.000000 0.000000
# 3 -0.003587 -0.002046 0.016801 0.000000 0.000000 0.000000
# 4 0.000000 0.000000 0.000000 -0.072530 0.000000 0.000000
# 5 0.000000 0.000000 0.000000 0.000000 0.032653 0.000000
# 6 0.000000 0.000000 0.000000 0.000000 0.000000 0.014665
#
#
# Mechanical properties :
#
#
# Convention : Reuss Voigt Hill
#
# Bulk Modulus (GPa) = 20.42098 26.28624 23.35361
# Shear Modulus (GPa) = 98.94013 30.04281 64.49147
#
# Velocity S-wave (km/s) = 6.56757 3.61900 5.30236
# Velocity P-wave (km/s) = 8.14942 5.37795 6.90418
#
# Compressibility (1/GPa) = 0.04896925
#
# Stress axis : x y z
#
# Youngs Moduli (GPa) = 96.04603 37.05846 59.52066
#
# Poissons Ratio (x) = -0.11189 0.21353
# Poissons Ratio (y) = -0.29000 0.12177
# Poissons Ratio (z) = 0.34456 0.07582
#
# Static dielectric constant tensor:
#      x y z
#    x 1.862870 0.000000 0.000000 
#    y 0.000000 1.859990 0.000000 
#    z 0.000000 0.000000 1.874560 
# 
# From -- ./inp_files/18590.got.cif
#   From: 2010.05.17/outbox.cif.g08.bks.cpg/sg51_10_cif.got.tgz:18590.got - 2010.06.03 11:52:47.
