data_PCOD9403484
_publ_section_title
;
Structure prediction by ZEFSAII (Michael W. Deem and Ramdas Pophale) SiO2 
 PCOD9403484
Probable space group: P M M A
;
_chemical_formula_sum "Si O2"
_cell_formula_units_Z 64
_cell_length_a 25.499543
_cell_length_b 9.029653
_cell_length_c 14.894085
_cell_angle_alpha 90.000000
_cell_angle_beta 90.000000
_cell_angle_gamma 90.000000
_cell_volume 3429.393231
_symmetry_space_group_name_H-M "P M M A"
_symmetry_group_IT_number 51
_symmetry_cell_setting 'orthorhombic'
loop_
_space_group_symop_operation_xyz
x,y,z
1/2-x,-y,z
1/2+x,-y,-z
-x,y,-z
-x,-y,-z
1/2+x,y,-z
1/2-x,y,z
x,-y,z
loop_
_atom_site_type_symbol
_atom_site_label
_atom_site_fract_x
_atom_site_fract_y
_atom_site_fract_z
Si Si1 0.191418 0.821608 0.817693
Si Si2 0.095703 0.324006 0.712986
Si Si3 0.049963 0.164717 0.063277
Si Si4 0.832790 0.172585 0.982146
Si Si5 0.018418 0.671024 0.230851
Si Si6 0.395486 0.824741 0.339234
Si Si7 0.440108 0.178268 0.527104
Si Si8 0.689690 0.323905 0.791240
O O1 0.250000 0.788512 0.783739
O O2 0.145908 0.749628 0.758838
O O3 0.184414 0.000000 0.817927
O O4 0.188386 0.773259 0.922355
O O5 0.103454 0.500000 0.705453
O O6 0.080264 0.256642 0.616588
O O7 0.043348 0.298021 0.772457
O O8 0.104184 0.178481 0.011319
O O9 0.044661 0.291527 0.136391
O O10 0.050826 0.000000 0.107404
O O11 0.000000 0.170138 0.000000
O O12 0.817793 0.257573 0.891345
O O13 0.817268 0.000000 0.970913
O O14 0.025894 0.500000 0.256229
O O15 0.048357 0.775797 0.299793
O O16 0.400869 0.787741 0.444375
O O17 0.351215 0.745691 0.279361
O O18 0.388494 0.000000 0.330144
O O19 0.500000 0.221720 0.500000
O O20 0.440742 0.000000 0.539985
O O21 0.750000 0.294872 0.763991
O O22 0.681373 0.500000 0.794847
#
# Coordination Sequence:
#
# PCOD9403484 Si02
#       8
#     8   8   8   8   8   8   8   8
#     4  10  22  41  64  88 117 158 207 256 299 343
#     4  11  24  39  60  91 124 160 197 241 301 362
#     4  10  20  33  52  81 116 157 200 242 292 349
#     4  10  20  36  60  88 116 154 205 252 293 345
#     4  11  22  35  54  84 122 158 191 235 294 358
#     4  11  22  38  62  89 117 152 194 243 295 347
#     4  10  21  39  64  92 120 153 196 244 295 355
#     4  11  24  40  59  86 122 162 199 242 297 353
#
# _framework density 18.662192999999998
#
# number of rings (size 3 to 8) (size 9 to 14) (size 15 to 20)
#    0.000    1.500    2.500    2.625    0.000    6.250 
#    0.000    0.625    0.000    0.750    0.000    0.000 
#    0.000    0.000    0.000    0.000    0.000    0.000 
#
# Total GULP energy -357332.167150 kJ/mol
# GULP energy per Si atom -5583.315112 kJ/mol
# Density = 1.861972 g / cm^3
# Si number density = 18.662193 Si / 1000 Ang^3
#
#
#
# Elastic Constant Matrix: (Units=GPa)
#
#
# Indices 1 2 3 4 5 6 
#
# 1 130.3990 49.2266 52.6518 0.0000 0.0000 0.0000
# 2 49.2266 49.7915 36.9368 0.0000 0.0000 0.0000
# 3 52.6518 36.9368 88.0939 0.0000 0.0000 0.0000
# 4 0.0000 0.0000 0.0000 -0.6172 0.0000 0.0000
# 5 0.0000 0.0000 0.0000 0.0000 10.9780 0.0000
# 6 0.0000 0.0000 0.0000 0.0000 0.0000 24.4131
#
#
#
# Elastic Compliance Matrix: (Units=1/GPa)
#
#
# Indices 1 2 3 4 5 6 
#
# 1 0.012913 -0.010220 -0.003433 0.000000 0.000000 0.000000
# 2 -0.010220 0.037240 -0.009506 0.000000 0.000000 0.000000
# 3 -0.003433 -0.009506 0.017389 0.000000 0.000000 0.000000
# 4 0.000000 0.000000 0.000000 -1.620265 0.000000 0.000000
# 5 0.000000 0.000000 0.000000 0.000000 0.091091 0.000000
# 6 0.000000 0.000000 0.000000 0.000000 0.000000 0.040962
#
#
# Mechanical properties :
#
#
# Convention : Reuss Voigt Hill
#
# Bulk Modulus (GPa) = 47.11582 60.65722 53.88652
# Shear Modulus (GPa) = -3.65690 15.58606 5.96458
#
# Velocity S-wave (km/s) = -1.40135 2.89306 1.78970
# Velocity P-wave (km/s) = 4.76268 6.61310 5.76264
#
# Compressibility (1/GPa) = 0.02122429
#
# Stress axis : x y z
#
# Youngs Moduli (GPa) = 77.44198 26.85319 57.50819
#
# Poissons Ratio (x) = 0.27444 0.19740
# Poissons Ratio (y) = 0.79146 0.54667
# Poissons Ratio (z) = 0.26583 0.25526
#
# Static dielectric constant tensor:
#      x y z
#    x 1.647780 0.000000 0.000000 
#    y 0.000000 1.636110 0.000000 
#    z 0.000000 0.000000 1.643120 
# 
# From -- ./inp_files/26355.got.cif
#   From: 2010.05.17/outbox.cif.g08.bks.cpg/sg51_14_cif.got.tgz:26355.got - 2010.06.03 11:52:47.
