data_PCOD9403297
_publ_section_title
;
Structure prediction by ZEFSAII (Michael W. Deem and Ramdas Pophale) SiO2 
 PCOD9403297
Probable space group: P M M A
;
_chemical_formula_sum "Si O2"
_cell_formula_units_Z 64
_cell_length_a 14.381555
_cell_length_b 9.079567
_cell_length_c 26.252400
_cell_angle_alpha 90.000000
_cell_angle_beta 90.000000
_cell_angle_gamma 90.000000
_cell_volume 3427.993558
_symmetry_space_group_name_H-M "P M M A"
_symmetry_group_IT_number 51
_symmetry_cell_setting 'orthorhombic'
loop_
_space_group_symop_operation_xyz
x,y,z
1/2-x,-y,z
1/2+x,-y,-z
-x,y,-z
-x,-y,-z
1/2+x,y,-z
1/2-x,y,z
x,-y,z
loop_
_atom_site_type_symbol
_atom_site_label
_atom_site_fract_x
_atom_site_fract_y
_atom_site_fract_z
Si Si1 0.046252 0.821065 0.076590
Si Si2 0.139081 0.827204 0.683764
Si Si3 0.966733 0.675137 0.723667
Si Si4 0.142676 0.661000 0.584287
Si Si5 0.892769 0.166138 0.514892
Si Si6 0.144424 0.820520 0.971393
Si Si7 0.359878 0.177910 0.182590
Si Si8 0.139595 0.826639 0.368163
O O1 0.091722 0.775568 0.129631
O O2 0.939538 0.773985 0.066137
O O3 0.045713 0.000000 0.076482
O O4 0.109195 0.777831 0.027990
O O5 0.250000 0.803806 0.691419
O O6 0.109846 0.777248 0.626381
O O7 0.072241 0.735216 0.720378
O O8 0.121380 0.000000 0.689608
O O9 0.965939 0.500000 0.726229
O O10 0.911759 0.745929 0.770694
O O11 0.915264 0.731365 0.672609
O O12 0.250000 0.642997 0.598168
O O13 0.096370 0.500000 0.587868
O O14 0.143296 0.723124 0.527514
O O15 0.879808 0.214400 0.573003
O O16 0.000000 0.156253 0.500000
O O17 0.853535 0.000000 0.510214
O O18 0.250000 0.770177 0.961158
O O19 0.146264 0.000000 0.970261
O O20 0.250000 0.212310 0.182145
O O21 0.368258 0.000000 0.187379
O O22 0.250000 0.813778 0.359303
O O23 0.114317 0.000000 0.362584
#
# Coordination Sequence:
#
# PCOD9403297 Si02
#       8
#     8   8   8   8   8   8   8   8
#     4   8  14  24  41  69 104 142 183 226 275 329
#     4  10  21  39  63  85 105 134 173 216 264 324
#     4  12  25  39  57  80 107 138 176 227 281 330
#     4  10  20  33  51  77 106 132 160 199 250 310
#     4  10  20  33  51  75 102 134 172 213 259 316
#     4   8  12  20  38  68 107 144 177 221 278 331
#     4  10  20  35  55  77 105 144 189 233 274 322
#     4  10  21  37  56  78 107 144 185 228 274 326
#
# _framework density 18.669813000000001
#
# number of rings (size 3 to 8) (size 9 to 14) (size 15 to 20)
#    0.000    2.250    0.000    4.500    0.000    7.250 
#    0.000    0.625    0.000    2.250    0.000    1.750 
#    0.000    1.000    0.000    0.000    0.000    0.000 
#
# Total GULP energy -356898.625514 kJ/mol
# GULP energy per Si atom -5576.541024 kJ/mol
# Density = 1.862732 g / cm^3
# Si number density = 18.669813 Si / 1000 Ang^3
#
#
#
# Elastic Constant Matrix: (Units=GPa)
#
#
# Indices 1 2 3 4 5 6 
#
# 1 126.6305 45.8976 67.2002 0.0000 0.0000 0.0000
# 2 45.8976 61.5979 48.1821 0.0000 0.0000 0.0000
# 3 67.2002 48.1821 112.2021 0.0000 0.0000 0.0000
# 4 0.0000 0.0000 0.0000 -8.6443 0.0000 0.0000
# 5 0.0000 0.0000 0.0000 0.0000 27.5493 0.0000
# 6 0.0000 0.0000 0.0000 0.0000 0.0000 11.3695
#
#
#
# Elastic Compliance Matrix: (Units=1/GPa)
#
#
# Indices 1 2 3 4 5 6 
#
# 1 0.012613 -0.005254 -0.005298 0.000000 0.000000 0.000000
# 2 -0.005254 0.026634 -0.008291 0.000000 0.000000 0.000000
# 3 -0.005298 -0.008291 0.015646 0.000000 0.000000 0.000000
# 4 0.000000 0.000000 0.000000 -0.115683 0.000000 0.000000
# 5 0.000000 0.000000 0.000000 0.000000 0.036299 0.000000
# 6 0.000000 0.000000 0.000000 0.000000 0.000000 0.087954
#
#
# Mechanical properties :
#
#
# Convention : Reuss Voigt Hill
#
# Bulk Modulus (GPa) = 58.11363 69.22117 63.66740
# Shear Modulus (GPa) = 46.77985 15.33159 31.05572
#
# Velocity S-wave (km/s) = 5.01107 2.86876 4.08293
# Velocity P-wave (km/s) = 8.04212 6.93758 7.51019
#
# Compressibility (1/GPa) = 0.01720767
#
# Stress axis : x y z
#
# Youngs Moduli (GPa) = 79.28461 37.54593 63.91551
#
# Poissons Ratio (x) = 0.19727 0.33862
# Poissons Ratio (y) = 0.41656 0.52989
# Poissons Ratio (z) = 0.42004 0.31128
#
# Static dielectric constant tensor:
#      x y z
#    x 1.670220 0.000000 0.000000 
#    y 0.000000 1.642190 0.000000 
#    z 0.000000 0.000000 1.630800 
# 
# From -- ./inp_files/35619.got.cif
#   From: 2010.05.17/outbox.cif.g08.bks.cpg/sg51_18_cif.got.tgz:35619.got - 2010.06.03 11:52:47.
