data_PCOD9403635
_publ_section_title
;
Structure prediction by ZEFSAII (Michael W. Deem and Ramdas Pophale) SiO2 
 PCOD9403635
Probable space group: P M M A
;
_chemical_formula_sum "Si O2"
_cell_formula_units_Z 44
_cell_length_a 9.601025
_cell_length_b 7.338838
_cell_length_c 31.687718
_cell_angle_alpha 90.000000
_cell_angle_beta 90.000000
_cell_angle_gamma 90.000000
_cell_volume 2232.728243
_symmetry_space_group_name_H-M "P M M A"
_symmetry_group_IT_number 51
_symmetry_cell_setting 'orthorhombic'
loop_
_space_group_symop_operation_xyz
x,y,z
1/2-x,-y,z
1/2+x,-y,-z
-x,y,-z
-x,-y,-z
1/2+x,y,-z
1/2-x,y,z
x,-y,z
loop_
_atom_site_type_symbol
_atom_site_label
_atom_site_fract_x
_atom_site_fract_y
_atom_site_fract_z
Si Si1 0.910487 0.777481 0.794377
Si Si2 0.418229 0.500000 0.043589
Si Si3 0.910821 0.778288 0.285080
Si Si4 0.411293 0.221883 0.620628
Si Si5 0.410443 0.777549 0.459433
Si Si6 0.580637 0.207695 0.886968
O O1 0.750000 0.721366 0.789914
O O2 0.964588 0.722608 0.840741
O O3 0.998113 0.716303 0.754245
O O4 0.911707 0.000000 0.795138
O O5 0.250000 0.500000 0.037079
O O6 0.456432 0.328862 0.073181
O O7 0.500000 0.500000 0.000000
O O8 0.750000 0.725657 0.279797
O O9 0.955176 0.721503 0.332185
O O10 0.915357 0.000000 0.284863
O O11 0.250000 0.276400 0.613747
O O12 0.511988 0.281432 0.583250
O O13 0.411449 0.000000 0.620267
O O14 0.500000 0.721118 0.500000
O O15 0.250000 0.719430 0.461648
O O16 0.409804 0.000000 0.459378
O O17 0.750000 0.207890 0.884602
O O18 0.534091 0.000000 0.892274
#
# Coordination Sequence:
#
# PCOD9403635 Si02
#       6
#     8   4   8   8   8   8
#     4   8  13  22  37  55  74  98 129 163 199 245
#     4  10  20  34  52  72  96 126 158 194 235 276
#     4   8  13  20  30  46  68  91 115 149 197 249
#     4   8  13  20  27  35  51  75 102 137 185 239
#     4   9  15  20  25  32  43  64  99 144 193 244
#     4   8  15  29  48  69  93 122 155 190 230 276
#
# _framework density 19.706834000000001
#
# number of rings (size 3 to 8) (size 9 to 14) (size 15 to 20)
#    0.000    3.636    0.000    2.727    0.000    3.273 
#    0.000    4.545    0.000    1.091    0.000    0.000 
#    0.000    0.000    0.000    0.000    0.000    0.000 
#
# Total GULP energy -245346.440479 kJ/mol
# GULP energy per Si atom -5576.055465 kJ/mol
# Density = 1.966198 g / cm^3
# Si number density = 19.706834 Si / 1000 Ang^3
#
#
#
# Elastic Constant Matrix: (Units=GPa)
#
#
# Indices 1 2 3 4 5 6 
#
# 1 89.1143 19.0153 114.4623 0.0000 0.0000 0.0000
# 2 19.0153 79.8216 41.5804 0.0000 0.0000 0.0000
# 3 114.4623 41.5804 253.7544 0.0000 0.0000 0.0000
# 4 0.0000 0.0000 0.0000 1635.5954 0.0000 0.0000
# 5 0.0000 0.0000 0.0000 0.0000 43.3119 0.0000
# 6 0.0000 0.0000 0.0000 0.0000 0.0000 -7.0469
#
#
#
# Elastic Compliance Matrix: (Units=1/GPa)
#
#
# Indices 1 2 3 4 5 6 
#
# 1 0.026679 -0.000095 -0.012019 0.000000 0.000000 0.000000
# 2 -0.000095 0.013697 -0.002202 0.000000 0.000000 0.000000
# 3 -0.012019 -0.002202 0.009723 0.000000 0.000000 0.000000
# 4 0.000000 0.000000 0.000000 0.000611 0.000000 0.000000
# 5 0.000000 0.000000 0.000000 0.000000 0.023088 0.000000
# 6 0.000000 0.000000 0.000000 0.000000 0.000000 -0.141907
#
#
# Mechanical properties :
#
#
# Convention : Reuss Voigt Hill
#
# Bulk Modulus (GPa) = 46.57872 85.86734 66.22303
# Shear Modulus (GPa) = -154.69818 350.88092 98.09137
#
# Velocity S-wave (km/s) = -8.86962 13.35803 7.06282
# Velocity P-wave (km/s) = 9.01146 16.78043 10.00941
#
# Compressibility (1/GPa) = 0.02146903
#
# Stress axis : x y z
#
# Youngs Moduli (GPa) = 37.48231 73.00636 102.84919
#
# Poissons Ratio (x) = 0.00692 1.23612
# Poissons Ratio (y) = 0.00355 0.22644
# Poissons Ratio (z) = 0.45049 0.16074
#
# Static dielectric constant tensor:
#      x y z
#    x 1.648070 0.000000 0.000000 
#    y 0.000000 1.516010 0.000000 
#    z 0.000000 0.000000 1.674230 
# 
# From -- ./inp_files/36768.got.cif
#   From: 2010.05.17/outbox.cif.g08.bks.cpg/sg51_19_cif.got.tgz:36768.got - 2010.06.03 11:52:47.
