data_PCOD9403731
_publ_section_title
;
Structure prediction by ZEFSAII (Michael W. Deem and Ramdas Pophale) SiO2 
 PCOD9403731
Probable space group: P M M A
;
_chemical_formula_sum "Si O2"
_cell_formula_units_Z 56
_cell_length_a 23.837167
_cell_length_b 9.040481
_cell_length_c 15.742797
_cell_angle_alpha 90.000000
_cell_angle_beta 90.000000
_cell_angle_gamma 90.000000
_cell_volume 3392.564179
_symmetry_space_group_name_H-M "P M M A"
_symmetry_group_IT_number 51
_symmetry_cell_setting 'orthorhombic'
loop_
_space_group_symop_operation_xyz
x,y,z
1/2-x,-y,z
1/2+x,-y,-z
-x,y,-z
-x,-y,-z
1/2+x,y,-z
1/2-x,y,z
x,-y,z
loop_
_atom_site_type_symbol
_atom_site_label
_atom_site_fract_x
_atom_site_fract_y
_atom_site_fract_z
Si Si1 0.316447 0.823177 0.322252
Si Si2 0.992967 0.177737 0.899847
Si Si3 0.314540 0.322546 0.992565
Si Si4 0.818039 0.330299 0.501800
Si Si5 0.815890 0.177896 0.325962
Si Si6 0.883854 0.822133 0.158813
Si Si7 0.879481 0.322933 0.834846
O O1 0.250000 0.787812 0.309783
O O2 0.334050 0.759030 0.413903
O O3 0.352891 0.750465 0.248254
O O4 0.322054 0.000000 0.321514
O O5 0.050753 0.215598 0.851840
O O6 0.940285 0.259451 0.858908
O O7 0.984400 0.000000 0.895438
O O8 0.000000 0.215547 0.000000
O O9 0.250000 0.275459 0.986807
O O10 0.317093 0.500000 0.982332
O O11 0.339807 0.287460 0.084628
O O12 0.350704 0.247366 0.919609
O O13 0.750000 0.330614 0.501025
O O14 0.837106 0.500000 0.506023
O O15 0.834469 0.253304 0.413648
O O16 0.750000 0.214702 0.309837
O O17 0.854280 0.223282 0.246622
O O18 0.818911 0.000000 0.335241
O O19 0.879551 0.000000 0.153101
O O20 0.881597 0.500000 0.825007
#
# Coordination Sequence:
#
# PCOD9403731 Si02
#       7
#     8   8   8   8   8   8   8
#     4  10  20  34  54  80 108 138 172 211 258 311
#     4  10  20  36  55  74 100 135 181 227 264 306
#     4  10  21  34  48  71 104 137 167 207 259 311
#     4   9  17  30  50  76 106 138 169 204 251 308
#     4   9  17  30  49  75 105 135 169 208 254 309
#     4  10  20  34  53  75 101 136 176 219 260 304
#     4  11  22  35  53  75 104 139 177 218 261 311
#
# _framework density 16.506688
#
# number of rings (size 3 to 8) (size 9 to 14) (size 15 to 20)
#    0.000    2.143    1.429    2.143    0.000    6.000 
#    0.000    1.429    0.000    0.857    0.000    6.000 
#    0.000    0.000    0.000    0.000    0.000    0.000 
#
# Total GULP energy -312481.866563 kJ/mol
# GULP energy per Si atom -5580.033331 kJ/mol
# Density = 1.646912 g / cm^3
# Si number density = 16.506688 Si / 1000 Ang^3
#
#
#
# Elastic Constant Matrix: (Units=GPa)
#
#
# Indices 1 2 3 4 5 6 
#
# 1 52.2622 26.8346 17.8996 0.0000 0.0000 0.0000
# 2 26.8346 39.7991 42.3718 0.0000 0.0000 0.0000
# 3 17.8996 42.3718 108.8362 0.0000 0.0000 0.0000
# 4 0.0000 0.0000 0.0000 28.8767 0.0000 0.0000
# 5 0.0000 0.0000 0.0000 0.0000 1.7978 0.0000
# 6 0.0000 0.0000 0.0000 0.0000 0.0000 20.5436
#
#
#
# Elastic Compliance Matrix: (Units=1/GPa)
#
#
# Indices 1 2 3 4 5 6 
#
# 1 0.030881 -0.026326 0.005171 0.000000 0.000000 0.000000
# 2 -0.026326 0.065356 -0.021115 0.000000 0.000000 0.000000
# 3 0.005171 -0.021115 0.016558 0.000000 0.000000 0.000000
# 4 0.000000 0.000000 0.000000 0.034630 0.000000 0.000000
# 5 0.000000 0.000000 0.000000 0.000000 0.556246 0.000000
# 6 0.000000 0.000000 0.000000 0.000000 0.000000 0.048677
#
#
# Mechanical properties :
#
#
# Convention : Reuss Voigt Hill
#
# Bulk Modulus (GPa) = 35.39262 41.67884 38.53573
# Shear Modulus (GPa) = 5.90802 17.82970 11.86886
#
# Velocity S-wave (km/s) = 1.89392 3.29013 2.68439
# Velocity P-wave (km/s) = 5.12548 6.30379 5.74492
#
# Compressibility (1/GPa) = 0.02825448
#
# Stress axis : x y z
#
# Youngs Moduli (GPa) = 32.38244 15.30071 60.39349
#
# Poissons Ratio (x) = 0.40281 -0.31227
# Poissons Ratio (y) = 0.85251 1.27519
# Poissons Ratio (z) = -0.16743 0.32307
#
# Static dielectric constant tensor:
#      x y z
#    x 1.537030 0.000000 0.000000 
#    y 0.000000 1.550240 0.000000 
#    z 0.000000 0.000000 1.532530 
# 
# From -- ./inp_files/25641.got.cif
#   From: 2010.05.17/outbox.cif.g08.bks.cpg/sg51_13_cif.got.tgz:25641.got - 2010.06.03 11:52:47.
