data_PCOD9403195
_publ_section_title
;
Structure prediction by ZEFSAII (Michael W. Deem and Ramdas Pophale) SiO2 
 PCOD9403195
Probable space group: P M M A
;
_chemical_formula_sum "Si O2"
_cell_formula_units_Z 64
_cell_length_a 9.099570
_cell_length_b 15.302536
_cell_length_c 23.479076
_cell_angle_alpha 90.000000
_cell_angle_beta 90.000000
_cell_angle_gamma 90.000000
_cell_volume 3269.379098
_symmetry_space_group_name_H-M "P M M A"
_symmetry_group_IT_number 51
_symmetry_cell_setting 'orthorhombic'
loop_
_space_group_symop_operation_xyz
x,y,z
1/2-x,-y,z
1/2+x,-y,-z
-x,y,-z
-x,-y,-z
1/2+x,y,-z
1/2-x,y,z
x,-y,z
loop_
_atom_site_type_symbol
_atom_site_label
_atom_site_fract_x
_atom_site_fract_y
_atom_site_fract_z
Si Si1 0.075210 0.903094 0.397009
Si Si2 0.910527 0.602533 0.782291
Si Si3 0.574729 0.269845 0.442868
Si Si4 0.415551 0.662298 0.679587
Si Si5 0.423603 0.396353 0.893991
Si Si6 0.574291 0.769533 0.942246
Si Si7 0.075117 0.101208 0.161557
Si Si8 0.918369 0.136619 0.281092
O O1 0.250000 0.887043 0.397737
O O2 0.992120 0.825685 0.429402
O O3 0.016194 0.901645 0.332129
O O4 0.046943 0.000000 0.420735
O O5 0.750000 0.644959 0.791189
O O6 0.895104 0.500000 0.791909
O O7 0.968403 0.614550 0.718868
O O8 0.028928 0.629376 0.829470
O O9 0.500000 0.303881 0.500000
O O10 0.750000 0.262592 0.449094
O O11 0.546205 0.327897 0.386717
O O12 0.250000 0.625893 0.685052
O O13 0.413732 0.760340 0.704964
O O14 0.250000 0.384237 0.901817
O O15 0.455584 0.500000 0.903692
O O16 0.514528 0.328495 0.931590
O O17 0.750000 0.768143 0.947586
O O18 0.535404 0.831557 0.888694
O O19 0.500000 0.802937 0.000000
O O20 0.250000 0.110940 0.172589
O O21 0.988109 0.119823 0.219721
O O22 0.049300 0.000000 0.144805
O O23 0.750000 0.104812 0.283906
#
# Coordination Sequence:
#
# PCOD9403195 Si02
#       8
#     8   8   8   8   8   8   8   8
#     4  10  20  33  50  73 102 136 172 212 261 316
#     4  10  20  33  53  84 116 142 171 210 258 313
#     4  10  21  36  53  73  98 132 176 221 263 310
#     4   9  19  34  52  76 106 140 176 216 264 318
#     4  10  21  38  61  88 118 150 181 218 268 327
#     4  11  24  41  61  83 110 146 187 232 276 322
#     4  10  22  39  57  79 109 146 187 230 278 330
#     4  10  20  33  52  80 109 136 173 221 271 322
#
# _framework density 19.575582000000001
#
# number of rings (size 3 to 8) (size 9 to 14) (size 15 to 20)
#    0.000    2.000    0.000    4.125    0.000   11.000 
#    0.000    0.000    0.000    0.375    0.000    0.000 
#    0.000    0.000    0.000    0.000    0.000    0.000 
#
# Total GULP energy -357258.364443 kJ/mol
# GULP energy per Si atom -5582.161944 kJ/mol
# Density = 1.953103 g / cm^3
# Si number density = 19.575582 Si / 1000 Ang^3
#
#
#
# Elastic Constant Matrix: (Units=GPa)
#
#
# Indices 1 2 3 4 5 6 
#
# 1 52.8121 16.9622 25.6002 0.0000 0.0000 0.0000
# 2 16.9622 30.8993 19.4686 0.0000 0.0000 0.0000
# 3 25.6002 19.4686 91.0006 0.0000 0.0000 0.0000
# 4 0.0000 0.0000 0.0000 2.5862 0.0000 0.0000
# 5 0.0000 0.0000 0.0000 0.0000 34.1820 0.0000
# 6 0.0000 0.0000 0.0000 0.0000 0.0000 12.9968
#
#
#
# Elastic Compliance Matrix: (Units=1/GPa)
#
#
# Indices 1 2 3 4 5 6 
#
# 1 0.024584 -0.010562 -0.004657 0.000000 0.000000 0.000000
# 2 -0.010562 0.041943 -0.006002 0.000000 0.000000 0.000000
# 3 -0.004657 -0.006002 0.013583 0.000000 0.000000 0.000000
# 4 0.000000 0.000000 0.000000 0.386670 0.000000 0.000000
# 5 0.000000 0.000000 0.000000 0.000000 0.029255 0.000000
# 6 0.000000 0.000000 0.000000 0.000000 0.000000 0.076942
#
#
# Mechanical properties :
#
#
# Convention : Reuss Voigt Hill
#
# Bulk Modulus (GPa) = 26.54655 33.19711 29.87183
# Shear Modulus (GPa) = 7.96212 17.46507 12.71359
#
# Velocity S-wave (km/s) = 2.01896 2.99019 2.55122
# Velocity P-wave (km/s) = 4.36181 5.37744 4.89603
#
# Compressibility (1/GPa) = 0.03766968
#
# Stress axis : x y z
#
# Youngs Moduli (GPa) = 40.67611 23.84207 73.62160
#
# Poissons Ratio (x) = 0.25181 0.34282
# Poissons Ratio (y) = 0.42961 0.44188
# Poissons Ratio (z) = 0.18941 0.14310
#
# Static dielectric constant tensor:
#      x y z
#    x 1.676700 0.000000 0.000000 
#    y 0.000000 1.717400 0.000000 
#    z 0.000000 0.000000 1.685000 
# 
# From -- ./inp_files/34928.got.cif
#   From: 2010.05.17/outbox.cif.g08.bks.cpg/sg51_18_cif.got.tgz:34928.got - 2010.06.03 11:52:47.
