data_PCOD9403200
_publ_section_title
;
Structure prediction by ZEFSAII (Michael W. Deem and Ramdas Pophale) SiO2 
 PCOD9403200
Probable space group: P M M A
;
_chemical_formula_sum "Si O2"
_cell_formula_units_Z 64
_cell_length_a 25.069804
_cell_length_b 8.239962
_cell_length_c 15.737041
_cell_angle_alpha 90.000000
_cell_angle_beta 90.000000
_cell_angle_gamma 90.000000
_cell_volume 3250.867163
_symmetry_space_group_name_H-M "P M M A"
_symmetry_group_IT_number 51
_symmetry_cell_setting 'orthorhombic'
loop_
_space_group_symop_operation_xyz
x,y,z
1/2-x,-y,z
1/2+x,-y,-z
-x,y,-z
-x,-y,-z
1/2+x,y,-z
1/2-x,y,z
x,-y,z
loop_
_atom_site_type_symbol
_atom_site_label
_atom_site_fract_x
_atom_site_fract_y
_atom_site_fract_z
Si Si1 0.308846 0.800961 0.077467
Si Si2 0.120685 0.805701 0.716075
Si Si3 0.006083 0.680458 0.748004
Si Si4 0.655748 0.185348 0.100767
Si Si5 0.687814 0.692499 0.632959
Si Si6 0.111597 0.810924 0.221516
Si Si7 0.312102 0.196201 0.554635
Si Si8 0.453340 0.314767 0.939973
O O1 0.250000 0.757930 0.112067
O O2 0.357278 0.743021 0.137909
O O3 0.311528 0.000000 0.075469
O O4 0.312369 0.743384 0.979249
O O5 0.147271 0.740873 0.804693
O O6 0.152173 0.747296 0.633434
O O7 0.057468 0.771333 0.709416
O O8 0.126519 0.000000 0.721117
O O9 0.005794 0.500000 0.711375
O O10 0.945776 0.743532 0.750267
O O11 0.022407 0.674927 0.846644
O O12 0.595978 0.195056 0.063543
O O13 0.674307 0.000000 0.112073
O O14 0.750000 0.739897 0.641250
O O15 0.683285 0.500000 0.647571
O O16 0.652116 0.784020 0.701019
O O17 0.671701 0.732545 0.536282
O O18 0.103256 0.000000 0.204802
O O19 0.250000 0.238323 0.569451
O O20 0.315588 0.000000 0.549574
O O21 0.437225 0.500000 0.964872
O O22 0.500000 0.257031 0.000000
#
# Coordination Sequence:
#
# PCOD9403200 Si02
#       8
#     8   8   8   8   8   8   8   8
#     4   9  18  31  48  74 106 138 174 216 262 311
#     4   9  18  33  53  79 110 141 174 213 257 307
#     4  10  20  33  50  73 103 139 178 219 262 311
#     4   9  17  29  47  71  99 132 168 205 244 291
#     4  10  21  37  57  81 107 135 171 216 264 315
#     4  11  21  34  54  77 104 140 179 221 267 313
#     4   9  18  34  57  83 108 135 169 210 258 312
#     4   9  17  29  45  65  92 128 168 210 253 295
#
# _framework density 19.687055000000001
#
# number of rings (size 3 to 8) (size 9 to 14) (size 15 to 20)
#    0.000    2.500    0.000    2.250    0.000    3.000 
#    0.000    3.750    0.000    5.625    0.000    3.500 
#    0.000    0.000    0.000    0.000    0.000    0.000 
#
# Total GULP energy -356507.954599 kJ/mol
# GULP energy per Si atom -5570.436791 kJ/mol
# Density = 1.964225 g / cm^3
# Si number density = 19.687055 Si / 1000 Ang^3
#
#
#
# Elastic Constant Matrix: (Units=GPa)
#
#
# Indices 1 2 3 4 5 6 
#
# 1 67.4307 0.1218 31.7567 0.0000 0.0000 0.0000
# 2 0.1218 10.1165 -2.8106 0.0000 0.0000 0.0000
# 3 31.7567 -2.8106 64.4011 0.0000 0.0000 0.0000
# 4 0.0000 0.0000 0.0000 12.2128 0.0000 0.0000
# 5 0.0000 0.0000 0.0000 0.0000 32.8839 0.0000
# 6 0.0000 0.0000 0.0000 0.0000 0.0000 5.2044
#
#
#
# Elastic Compliance Matrix: (Units=1/GPa)
#
#
# Indices 1 2 3 4 5 6 
#
# 1 0.019401 -0.002927 -0.009695 0.000000 0.000000 0.000000
# 2 -0.002927 0.100504 0.005830 0.000000 0.000000 0.000000
# 3 -0.009695 0.005830 0.020563 0.000000 0.000000 0.000000
# 4 0.000000 0.000000 0.000000 0.081881 0.000000 0.000000
# 5 0.000000 0.000000 0.000000 0.000000 0.030410 0.000000
# 6 0.000000 0.000000 0.000000 0.000000 0.000000 0.192145
#
#
# Mechanical properties :
#
#
# Convention : Reuss Voigt Hill
#
# Bulk Modulus (GPa) = 7.88127 22.23157 15.05642
# Shear Modulus (GPa) = 9.98439 17.58558 13.78498
#
# Velocity S-wave (km/s) = 2.25445 2.99198 2.64901
# Velocity P-wave (km/s) = 3.28462 4.82213 4.12563
#
# Compressibility (1/GPa) = 0.12688316
#
# Stress axis : x y z
#
# Youngs Moduli (GPa) = 51.54368 9.94989 48.63204
#
# Poissons Ratio (x) = 0.02912 0.47147
# Poissons Ratio (y) = 0.15087 -0.28350
# Poissons Ratio (z) = 0.49969 -0.05800
#
# Static dielectric constant tensor:
#      x y z
#    x 1.490970 0.000000 0.000000 
#    y 0.000000 1.726630 0.000000 
#    z 0.000000 0.000000 1.714840 
# 
# From -- ./inp_files/26275.got.cif
#   From: 2010.05.17/outbox.cif.g08.bks.cpg/sg51_14_cif.got.tgz:26275.got - 2010.06.03 11:52:47.
