data_PCOD9403661
_publ_section_title
;
Structure prediction by ZEFSAII (Michael W. Deem and Ramdas Pophale) SiO2 
 PCOD9403661
Probable space group: P M M A
;
_chemical_formula_sum "Si O2"
_cell_formula_units_Z 56
_cell_length_a 19.554176
_cell_length_b 8.218981
_cell_length_c 18.632503
_cell_angle_alpha 90.000000
_cell_angle_beta 90.000000
_cell_angle_gamma 90.000000
_cell_volume 2994.530192
_symmetry_space_group_name_H-M "P M M A"
_symmetry_group_IT_number 51
_symmetry_cell_setting 'orthorhombic'
loop_
_space_group_symop_operation_xyz
x,y,z
1/2-x,-y,z
1/2+x,-y,-z
-x,y,-z
-x,-y,-z
1/2+x,y,-z
1/2-x,y,z
x,-y,z
loop_
_atom_site_type_symbol
_atom_site_label
_atom_site_fract_x
_atom_site_fract_y
_atom_site_fract_z
Si Si1 0.328383 0.194333 0.579414
Si Si2 0.171156 0.800689 0.000419
Si Si3 0.922066 0.303463 0.707543
Si Si4 0.077837 0.195763 0.868328
Si Si5 0.579328 0.196349 0.865961
Si Si6 0.671490 0.303703 0.576861
Si Si7 0.421345 0.694332 0.710354
O O1 0.250000 0.254856 0.586932
O O2 0.354189 0.253083 0.501744
O O3 0.373739 0.251492 0.645530
O O4 0.327106 0.000000 0.578959
O O5 0.250000 0.747911 0.999653
O O6 0.128470 0.746687 0.930632
O O7 0.171401 0.000000 0.000152
O O8 0.130117 0.748463 0.071486
O O9 0.922016 0.500000 0.705920
O O10 0.898834 0.249790 0.786532
O O11 0.874795 0.244717 0.642568
O O12 0.000533 0.246999 0.698923
O O13 0.100983 0.243258 0.788537
O O14 0.999187 0.253773 0.877959
O O15 0.075955 0.000000 0.872520
O O16 0.577915 0.000000 0.867757
O O17 0.750000 0.245746 0.583804
O O18 0.672311 0.500000 0.579234
O O19 0.422489 0.500000 0.712758
#
# Coordination Sequence:
#
# PCOD9403661 Si02
#       7
#     8   8   8   8   8   8   8
#     4  10  21  36  53  74 100 129 163 203 246 292
#     4   9  17  29  47  72  98 124 159 203 247 289
#     4   9  19  34  51  74 102 131 164 202 245 291
#     4   9  17  31  50  70  95 128 164 201 243 290
#     4   9  17  30  49  71  95 126 163 200 241 292
#     4   9  18  34  54  73  97 132 169 201 239 291
#     4  10  20  34  52  74 101 131 164 203 246 293
#
# _framework density 18.700762999999998
#
# number of rings (size 3 to 8) (size 9 to 14) (size 15 to 20)
#    0.000    2.714    0.000    1.286    0.000    5.429 
#    0.000    5.000    0.000    4.286    0.000    0.000 
#    0.000    0.000    0.000    0.000    0.000    0.000 
#
# Total GULP energy -312373.697375 kJ/mol
# GULP energy per Si atom -5578.101739 kJ/mol
# Density = 1.865820 g / cm^3
# Si number density = 18.700763 Si / 1000 Ang^3
#
#
#
# Elastic Constant Matrix: (Units=GPa)
#
#
# Indices 1 2 3 4 5 6 
#
# 1 98.0163 9.0678 118.7785 0.0000 0.0000 0.0000
# 2 9.0678 3.2622 8.6644 0.0000 0.0000 0.0000
# 3 118.7785 8.6644 214.1000 0.0000 0.0000 0.0000
# 4 0.0000 0.0000 0.0000 37.5794 0.0000 0.0000
# 5 0.0000 0.0000 0.0000 0.0000 123.3377 0.0000
# 6 0.0000 0.0000 0.0000 0.0000 0.0000 13.3548
#
#
#
# Elastic Compliance Matrix: (Units=1/GPa)
#
#
# Indices 1 2 3 4 5 6 
#
# 1 0.038633 -0.056538 -0.019145 0.000000 0.000000 0.000000
# 2 -0.056538 0.426195 0.014118 0.000000 0.000000 0.000000
# 3 -0.019145 0.014118 0.014721 0.000000 0.000000 0.000000
# 4 0.000000 0.000000 0.000000 0.026610 0.000000 0.000000
# 5 0.000000 0.000000 0.000000 0.000000 0.008108 0.000000
# 6 0.000000 0.000000 0.000000 0.000000 0.000000 0.074880
#
#
# Mechanical properties :
#
#
# Convention : Reuss Voigt Hill
#
# Bulk Modulus (GPa) = 2.80568 65.37777 34.09172
# Shear Modulus (GPa) = 6.01626 46.77890 26.39758
#
# Velocity S-wave (km/s) = 1.79558 5.00687 3.76117
# Velocity P-wave (km/s) = 2.40881 8.27411 6.09357
#
# Compressibility (1/GPa) = 0.35642046
#
# Stress axis : x y z
#
# Youngs Moduli (GPa) = 25.88456 2.34634 67.93217
#
# Poissons Ratio (x) = 0.13266 1.30055
# Poissons Ratio (y) = 1.46345 -0.95910
# Poissons Ratio (z) = 0.49556 -0.03313
#
# Static dielectric constant tensor:
#      x y z
#    x 1.652380 0.000000 0.000000 
#    y 0.000000 1.652850 0.000000 
#    z 0.000000 0.000000 1.619520 
# 
# From -- ./inp_files/25645.got.cif
#   From: 2010.05.17/outbox.cif.g08.bks.cpg/sg51_13_cif.got.tgz:25645.got - 2010.06.03 11:52:47.
