data_PCOD9403406
_publ_section_title
;
Structure prediction by ZEFSAII (Michael W. Deem and Ramdas Pophale) SiO2 
 PCOD9403406
Probable space group: P M M A
;
_chemical_formula_sum "Si O2"
_cell_formula_units_Z 52
_cell_length_a 9.415546
_cell_length_b 15.913025
_cell_length_c 20.305851
_cell_angle_alpha 90.000000
_cell_angle_beta 90.000000
_cell_angle_gamma 90.000000
_cell_volume 3042.421978
_symmetry_space_group_name_H-M "P M M A"
_symmetry_group_IT_number 51
_symmetry_cell_setting 'orthorhombic'
loop_
_space_group_symop_operation_xyz
x,y,z
1/2-x,-y,z
1/2+x,-y,-z
-x,y,-z
-x,-y,-z
1/2+x,y,-z
1/2-x,y,z
x,-y,z
loop_
_atom_site_type_symbol
_atom_site_label
_atom_site_fract_x
_atom_site_fract_y
_atom_site_fract_z
Si Si1 0.914746 0.898458 0.565131
Si Si2 0.410575 0.758665 0.883428
Si Si3 0.500000 0.647921 0.000000
Si Si4 0.910100 0.500000 0.904528
Si Si5 0.579505 0.500000 0.758087
Si Si6 0.418154 0.097047 0.174090
Si Si7 0.414365 0.338758 0.750236
Si Si8 0.417470 0.154670 0.695292
O O1 0.750000 0.870252 0.565433
O O2 0.000000 0.870763 0.500000
O O3 0.000071 0.870644 0.629696
O O4 0.912706 0.000000 0.564805
O O5 0.250000 0.788128 0.869272
O O6 0.413784 0.709254 0.952010
O O7 0.517482 0.836461 0.877630
O O8 0.448799 0.694554 0.824216
O O9 0.569441 0.582232 0.949083
O O10 0.750000 0.500000 0.883270
O O11 0.984852 0.500000 0.833836
O O12 0.750000 0.500000 0.752328
O O13 0.515959 0.414080 0.729686
O O14 0.250000 0.112287 0.184193
O O15 0.504237 0.113340 0.241771
O O16 0.436434 0.000000 0.154225
O O17 0.250000 0.366450 0.750317
O O18 0.426320 0.254970 0.706625
O O19 0.250000 0.131592 0.693327
#
# Coordination Sequence:
#
# PCOD9403406 Si02
#       8
#     8   8   4   4   4   8   8   8
#     4  10  20  33  51  79 115 151 183 216 255 297
#     4  10  21  35  53  74  97 129 167 209 257 311
#     4  11  20  36  51  72 100 132 165 204 256 319
#     4  10  21  32  48  75 102 129 162 200 252 317
#     4  11  20  32  50  76 103 131 165 208 257 307
#     4  10  21  36  54  75  99 130 169 215 263 307
#     4   9  19  35  50  71 101 135 169 208 257 307
#     4  10  20  34  54  79 106 140 178 214 256 305
#
# _framework density 17.091646999999998
#
# number of rings (size 3 to 8) (size 9 to 14) (size 15 to 20)
#    0.000    2.000    1.538    3.462    0.000    8.308 
#    0.000    0.385    0.000    0.000    0.000    0.538 
#    0.000    0.000    0.000    0.000    0.000    0.000 
#
# Total GULP energy -289748.397884 kJ/mol
# GULP energy per Si atom -5572.084575 kJ/mol
# Density = 1.705275 g / cm^3
# Si number density = 17.091647 Si / 1000 Ang^3
#
#
#
# Elastic Constant Matrix: (Units=GPa)
#
#
# Indices 1 2 3 4 5 6 
#
# 1 110.7293 59.9168 18.2315 0.0000 0.0000 0.0000
# 2 59.9168 83.0911 11.5534 0.0000 0.0000 0.0000
# 3 18.2315 11.5534 53.4486 0.0000 0.0000 0.0000
# 4 0.0000 0.0000 0.0000 21.7446 0.0000 0.0000
# 5 0.0000 0.0000 0.0000 0.0000 22.1988 0.0000
# 6 0.0000 0.0000 0.0000 0.0000 0.0000 18.7762
#
#
#
# Elastic Compliance Matrix: (Units=1/GPa)
#
#
# Indices 1 2 3 4 5 6 
#
# 1 0.015236 -0.010582 -0.002910 0.000000 0.000000 0.000000
# 2 -0.010582 0.019758 -0.000661 0.000000 0.000000 0.000000
# 3 -0.002910 -0.000661 0.019845 0.000000 0.000000 0.000000
# 4 0.000000 0.000000 0.000000 0.045989 0.000000 0.000000
# 5 0.000000 0.000000 0.000000 0.000000 0.045047 0.000000
# 6 0.000000 0.000000 0.000000 0.000000 0.000000 0.053259
#
#
# Mechanical properties :
#
#
# Convention : Reuss Voigt Hill
#
# Bulk Modulus (GPa) = 37.68926 47.40805 42.54866
# Shear Modulus (GPa) = 21.16094 23.04841 22.10467
#
# Velocity S-wave (km/s) = 3.52246 3.67620 3.60015
# Velocity P-wave (km/s) = 6.21633 6.76883 6.49846
#
# Compressibility (1/GPa) = 0.02653275
#
# Stress axis : x y z
#
# Youngs Moduli (GPa) = 65.63269 50.61296 50.39060
#
# Poissons Ratio (x) = 0.53560 0.14662
# Poissons Ratio (y) = 0.69454 0.03332
# Poissons Ratio (z) = 0.19097 0.03346
#
# Static dielectric constant tensor:
#      x y z
#    x 1.592680 0.000000 0.000000 
#    y 0.000000 1.583490 0.000000 
#    z 0.000000 0.000000 1.575990 
# 
# From -- ./inp_files/31838.got.cif
#   From: 2010.05.17/outbox.cif.g08.bks.cpg/sg51_16_cif.got.tgz:31838.got - 2010.06.03 11:52:47.
