data_PCOD9403780
_publ_section_title
;
Structure prediction by ZEFSAII (Michael W. Deem and Ramdas Pophale) SiO2 
 PCOD9403780
Probable space group: P M M A
;
_chemical_formula_sum "Si O2"
_cell_formula_units_Z 64
_cell_length_a 7.987434
_cell_length_b 24.994898
_cell_length_c 15.027275
_cell_angle_alpha 90.000000
_cell_angle_beta 90.000000
_cell_angle_gamma 90.000000
_cell_volume 3000.121792
_symmetry_space_group_name_H-M "P M M A"
_symmetry_group_IT_number 51
_symmetry_cell_setting 'orthorhombic'
loop_
_space_group_symop_operation_xyz
x,y,z
1/2-x,-y,z
1/2+x,-y,-z
-x,y,-z
-x,-y,-z
1/2+x,y,-z
1/2-x,y,z
x,-y,z
loop_
_atom_site_type_symbol
_atom_site_label
_atom_site_fract_x
_atom_site_fract_y
_atom_site_fract_z
Si Si1 0.050593 0.058462 0.279663
Si Si2 0.064364 0.436213 0.406612
Si Si3 0.452115 0.843942 0.398035
Si Si4 0.548793 0.672809 0.219772
Si Si5 0.049676 0.108261 0.899011
Si Si6 0.443211 0.441065 0.786886
Si Si7 0.951778 0.229503 0.101400
Si Si8 0.050321 0.276542 0.398540
O O1 0.250000 0.057371 0.295357
O O2 0.982263 0.109004 0.334835
O O3 0.020946 0.069654 0.175903
O O4 0.982246 0.000000 0.304707
O O5 0.250000 0.414862 0.385927
O O6 0.081735 0.500000 0.420626
O O7 0.000000 0.413600 0.500000
O O8 0.949059 0.433657 0.320244
O O9 0.500000 0.854862 0.500000
O O10 0.250000 0.842574 0.391485
O O11 0.513464 0.783833 0.376497
O O12 0.750000 0.670802 0.209219
O O13 0.481522 0.615789 0.183543
O O14 0.483792 0.724287 0.166258
O O15 0.513311 0.683332 0.323545
O O16 0.250000 0.107777 0.893230
O O17 0.987898 0.169108 0.879403
O O18 0.000000 0.095168 0.000000
O O19 0.250000 0.443388 0.815771
O O20 0.519550 0.500000 0.806137
O O21 0.750000 0.228337 0.107967
O O22 0.000000 0.241712 0.000000
O O23 0.250000 0.276004 0.394526
O O24 0.000000 0.287988 0.500000
#
# Coordination Sequence:
#
# PCOD9403780 Si02
#       8
#     8   8   8   8   8   8   8   8
#     4  10  21  36  53  76 108 143 178 216 256 300
#     4   9  16  26  41  60  83 114 154 198 238 278
#     4   9  19  35  54  76 103 137 176 218 262 305
#     4  10  20  34  53  77 104 132 166 211 257 302
#     4  10  20  35  56  80 106 136 170 209 256 310
#     4   9  18  32  48  66  91 126 164 199 241 295
#     4   9  19  35  56  82 107 131 163 208 260 310
#     4  10  20  34  53  77 105 137 173 213 259 309
#
# _framework density 21.332467000000001
#
# number of rings (size 3 to 8) (size 9 to 14) (size 15 to 20)
#    0.000    2.500    0.000    1.875    0.000    5.250 
#    0.000    0.000    0.000    0.375    0.000    0.000 
#    0.000    0.000    0.000    0.000    0.000    0.000 
#
# Total GULP energy -357042.491240 kJ/mol
# GULP energy per Si atom -5578.788926 kJ/mol
# Density = 2.128391 g / cm^3
# Si number density = 21.332467 Si / 1000 Ang^3
#
#
#
# Elastic Constant Matrix: (Units=GPa)
#
#
# Indices 1 2 3 4 5 6 
#
# 1 22.8248 3.9681 -11.9218 0.0000 0.0000 0.0000
# 2 3.9681 136.9420 38.6972 0.0000 0.0000 0.0000
# 3 -11.9218 38.6972 27.9267 0.0000 0.0000 0.0000
# 4 0.0000 0.0000 0.0000 -2.1019 0.0000 0.0000
# 5 0.0000 0.0000 0.0000 0.0000 20.2979 0.0000
# 6 0.0000 0.0000 0.0000 0.0000 0.0000 7.6374
#
#
#
# Elastic Compliance Matrix: (Units=1/GPa)
#
#
# Indices 1 2 3 4 5 6 
#
# 1 0.078754 -0.019365 0.060453 0.000000 0.000000 0.000000
# 2 -0.019365 0.016764 -0.031496 0.000000 0.000000 0.000000
# 3 0.060453 -0.031496 0.105258 0.000000 0.000000 0.000000
# 4 0.000000 0.000000 0.000000 -0.475769 0.000000 0.000000
# 5 0.000000 0.000000 0.000000 0.000000 0.049266 0.000000
# 6 0.000000 0.000000 0.000000 0.000000 0.000000 0.130934
#
#
# Mechanical properties :
#
#
# Convention : Reuss Voigt Hill
#
# Bulk Modulus (GPa) = 4.54626 27.68672 16.11649
# Shear Modulus (GPa) = -122.97638 15.63001 -53.67319
#
# Velocity S-wave (km/s) = -7.60083 2.70976 -5.02145
# Velocity P-wave (km/s) = 8.65416 4.77464 5.10378
#
# Compressibility (1/GPa) = 0.21996106
#
# Stress axis : x y z
#
# Youngs Moduli (GPa) = 12.69773 59.65330 9.50049
#
# Poissons Ratio (x) = 1.15518 -0.57434
# Poissons Ratio (y) = 0.24589 0.29922
# Poissons Ratio (z) = -0.76762 1.87881
#
# Static dielectric constant tensor:
#      x y z
#    x 1.760680 0.000000 0.000000 
#    y 0.000000 1.861880 0.000000 
#    z 0.000000 0.000000 1.734990 
# 
# From -- ./inp_files/22275.got.cif
#   From: 2010.05.17/outbox.cif.g08.bks.cpg/sg51_12_cif.got.tgz:22275.got - 2010.06.03 11:52:47.
