data_PCOD9403948
_publ_section_title
;
Structure prediction by ZEFSAII (Michael W. Deem and Ramdas Pophale) SiO2 
 PCOD9403948
Probable space group: P M M A
;
_chemical_formula_sum "Si O2"
_cell_formula_units_Z 56
_cell_length_a 19.694291
_cell_length_b 7.621980
_cell_length_c 17.275074
_cell_angle_alpha 90.000000
_cell_angle_beta 90.000000
_cell_angle_gamma 90.000000
_cell_volume 2593.152584
_symmetry_space_group_name_H-M "P M M A"
_symmetry_group_IT_number 51
_symmetry_cell_setting 'orthorhombic'
loop_
_space_group_symop_operation_xyz
x,y,z
1/2-x,-y,z
1/2+x,-y,-z
-x,y,-z
-x,-y,-z
1/2+x,y,-z
1/2-x,y,z
x,-y,z
loop_
_atom_site_type_symbol
_atom_site_label
_atom_site_fract_x
_atom_site_fract_y
_atom_site_fract_z
Si Si1 0.439174 0.797183 0.756976
Si Si2 0.044963 0.213713 0.927392
Si Si3 0.827333 0.791385 0.357329
Si Si4 0.579114 0.711129 0.503639
Si Si5 0.071568 0.702777 0.327710
Si Si6 0.826637 0.786647 0.981522
Si Si7 0.829155 0.211679 0.809228
O O1 0.464366 0.722590 0.839529
O O2 0.374197 0.718580 0.712730
O O3 0.502496 0.794158 0.698625
O O4 0.422025 0.000000 0.773615
O O5 0.035770 0.000000 0.926858
O O6 0.121336 0.260159 0.952206
O O7 0.000000 0.276553 0.000000
O O8 0.750000 0.722231 0.362292
O O9 0.871124 0.771318 0.435859
O O10 0.822032 0.000000 0.344573
O O11 0.500000 0.768075 0.500000
O O12 0.579451 0.500000 0.497503
O O13 0.601019 0.764904 0.590318
O O14 0.052384 0.500000 0.338409
O O15 0.125286 0.717828 0.259150
O O16 0.750000 0.725118 0.993281
O O17 0.850633 0.731967 0.895666
O O18 0.824943 0.000000 0.979282
O O19 0.750000 0.258377 0.800412
O O20 0.834254 0.000000 0.806800
#
# Coordination Sequence:
#
# PCOD9403948 Si02
#       7
#     8   8   8   8   8   8   8
#     4  10  20  34  54  79 109 145 179 219 269 318
#     4   9  16  26  45  74 104 134 174 219 258 302
#     4  10  22  38  56  83 115 143 176 220 272 327
#     4  10  21  39  59  78 103 138 182 225 264 317
#     4  11  22  35  55  79 105 137 178 222 265 316
#     4   8  14  26  46  72 101 134 172 213 258 309
#     4   9  18  33  53  78 108 140 175 217 266 320
#
# _framework density 21.595336
#
# number of rings (size 3 to 8) (size 9 to 14) (size 15 to 20)
#    0.000    2.429    1.429    2.143    0.000    5.429 
#    0.000    5.714    0.000    3.857    0.000    0.000 
#    0.000    0.000    0.000    0.000    0.000    0.000 
#
# Total GULP energy -312412.907514 kJ/mol
# GULP energy per Si atom -5578.801920 kJ/mol
# Density = 2.154618 g / cm^3
# Si number density = 21.595336 Si / 1000 Ang^3
#
#
#
# Elastic Constant Matrix: (Units=GPa)
#
#
# Indices 1 2 3 4 5 6 
#
# 1 78.2346 6.5248 54.5662 0.0000 0.0000 0.0000
# 2 6.5248 38.5639 4.8263 0.0000 0.0000 0.0000
# 3 54.5662 4.8263 134.7555 0.0000 0.0000 0.0000
# 4 0.0000 0.0000 0.0000 38.6640 0.0000 0.0000
# 5 0.0000 0.0000 0.0000 0.0000 34.8474 0.0000
# 6 0.0000 0.0000 0.0000 0.0000 0.0000 112.7460
#
#
#
# Elastic Compliance Matrix: (Units=1/GPa)
#
#
# Indices 1 2 3 4 5 6 
#
# 1 0.017987 -0.002141 -0.007207 0.000000 0.000000 0.000000
# 2 -0.002141 0.026303 -0.000075 0.000000 0.000000 0.000000
# 3 -0.007207 -0.000075 0.010342 0.000000 0.000000 0.000000
# 4 0.000000 0.000000 0.000000 0.025864 0.000000 0.000000
# 5 0.000000 0.000000 0.000000 0.000000 0.028697 0.000000
# 6 0.000000 0.000000 0.000000 0.000000 0.000000 0.008869
#
#
# Mechanical properties :
#
#
# Convention : Reuss Voigt Hill
#
# Bulk Modulus (GPa) = 27.94436 42.59870 35.27153
# Shear Modulus (GPa) = 33.59396 49.62727 41.61061
#
# Velocity S-wave (km/s) = 3.94840 4.79900 4.39433
# Velocity P-wave (km/s) = 5.80987 7.10464 6.48963
#
# Compressibility (1/GPa) = 0.03578540
#
# Stress axis : x y z
#
# Youngs Moduli (GPa) = 55.59511 38.01891 96.69529
#
# Poissons Ratio (x) = 0.08141 0.69686
# Poissons Ratio (y) = 0.11905 0.00724
# Poissons Ratio (z) = 0.40066 0.00285
#
# Static dielectric constant tensor:
#      x y z
#    x 1.770380 0.000000 0.000000 
#    y 0.000000 1.824530 0.000000 
#    z 0.000000 0.000000 1.793970 
# 
# From -- ./inp_files/25721.got.cif
#   From: 2010.05.17/outbox.cif.g08.bks.cpg/sg51_13_cif.got.tgz:25721.got - 2010.06.03 11:52:47.
