data_PCOD9403844
_publ_section_title
;
Structure prediction by ZEFSAII (Michael W. Deem and Ramdas Pophale) SiO2 
 PCOD9403844
Probable space group: P M M A
;
_chemical_formula_sum "Si O2"
_cell_formula_units_Z 48
_cell_length_a 14.975871
_cell_length_b 11.510292
_cell_length_c 15.315553
_cell_angle_alpha 90.000000
_cell_angle_beta 90.000000
_cell_angle_gamma 90.000000
_cell_volume 2640.043691
_symmetry_space_group_name_H-M "P M M A"
_symmetry_group_IT_number 51
_symmetry_cell_setting 'orthorhombic'
loop_
_space_group_symop_operation_xyz
x,y,z
1/2-x,-y,z
1/2+x,-y,-z
-x,y,-z
-x,-y,-z
1/2+x,y,-z
1/2-x,y,z
x,-y,z
loop_
_atom_site_type_symbol
_atom_site_label
_atom_site_fract_x
_atom_site_fract_y
_atom_site_fract_z
Si Si1 0.971786 0.000000 0.900530
Si Si2 0.850561 0.000000 0.214380
Si Si3 0.649270 0.639331 0.730368
Si Si4 0.005798 0.640447 0.600533
Si Si5 0.858897 0.365575 0.083067
Si Si6 0.143109 0.228877 0.091805
Si Si7 0.853199 0.259869 0.269447
O O1 0.911876 0.886204 0.886766
O O2 0.064359 0.000000 0.848241
O O3 0.000000 0.000000 0.000000
O O4 0.856306 0.120184 0.266826
O O5 0.750000 0.000000 0.171917
O O6 0.750000 0.676708 0.708311
O O7 0.647186 0.500000 0.732541
O O8 0.579351 0.678569 0.657762
O O9 0.629079 0.684905 0.827067
O O10 0.009363 0.500000 0.601762
O O11 0.090326 0.689017 0.652086
O O12 0.000000 0.677434 0.500000
O O13 0.750000 0.366280 0.082133
O O14 0.888412 0.500000 0.077190
O O15 0.886353 0.308406 0.175206
O O16 0.885606 0.289126 0.999268
O O17 0.250000 0.204957 0.085192
O O18 0.750000 0.295809 0.277054
#
# Coordination Sequence:
#
# PCOD9403844 Si02
#       7
#     4   4   8   8   8   8   8
#     4  12  23  33  50  74 105 145 186 219 260 314
#     4  10  22  39  57  76 102 139 182 231 277 316
#     4   9  18  34  55  77 105 142 178 213 258 313
#     4  10  21  36  55  82 113 141 174 218 267 320
#     4   9  17  30  51  80 112 145 179 216 261 314
#     4  10  20  34  53  79 111 143 177 217 260 312
#     4  10  20  36  58  81 107 140 180 225 273 320
#
# _framework density 18.181518000000001
#
# number of rings (size 3 to 8) (size 9 to 14) (size 15 to 20)
#    0.000    2.167    0.000    3.250    0.000    5.667 
#    0.000    2.083    0.000    5.000    0.000    2.333 
#    0.000    0.000    0.000    0.000    0.000    0.000 
#
# Total GULP energy -267969.285546 kJ/mol
# GULP energy per Si atom -5582.693449 kJ/mol
# Density = 1.814014 g / cm^3
# Si number density = 18.181518 Si / 1000 Ang^3
#
#
#
# Elastic Constant Matrix: (Units=GPa)
#
#
# Indices 1 2 3 4 5 6 
#
# 1 89.9281 29.9718 73.1091 0.0000 0.0000 0.0000
# 2 29.9718 58.0891 31.9403 0.0000 0.0000 0.0000
# 3 73.1091 31.9403 147.3187 0.0000 0.0000 0.0000
# 4 0.0000 0.0000 0.0000 8.4956 0.0000 0.0000
# 5 0.0000 0.0000 0.0000 0.0000 24.3954 0.0000
# 6 0.0000 0.0000 0.0000 0.0000 0.0000 18.9279
#
#
#
# Elastic Compliance Matrix: (Units=1/GPa)
#
#
# Indices 1 2 3 4 5 6 
#
# 1 0.020101 -0.005548 -0.008773 0.000000 0.000000 0.000000
# 2 -0.005548 0.021076 -0.001816 0.000000 0.000000 0.000000
# 3 -0.008773 -0.001816 0.011535 0.000000 0.000000 0.000000
# 4 0.000000 0.000000 0.000000 0.117708 0.000000 0.000000
# 5 0.000000 0.000000 0.000000 0.000000 0.040991 0.000000
# 6 0.000000 0.000000 0.000000 0.000000 0.000000 0.052832
#
#
# Mechanical properties :
#
#
# Convention : Reuss Voigt Hill
#
# Bulk Modulus (GPa) = 48.92617 62.81982 55.87299
# Shear Modulus (GPa) = 16.48373 21.05143 18.76758
#
# Velocity S-wave (km/s) = 3.01428 3.40641 3.21633
# Velocity P-wave (km/s) = 6.25162 7.07799 6.67760
#
# Compressibility (1/GPa) = 0.02043896
#
# Stress axis : x y z
#
# Youngs Moduli (GPa) = 49.74927 47.44715 86.69034
#
# Poissons Ratio (x) = 0.26322 0.76049
# Poissons Ratio (y) = 0.27599 0.15746
# Poissons Ratio (z) = 0.43643 0.08618
#
# Static dielectric constant tensor:
#      x y z
#    x 0.438320 0.000000 0.000000 
#    y 0.000000 1.500690 0.000000 
#    z 0.000000 0.000000 1.588650 
# 
# From -- ./inp_files/24104.got.cif
#   From: 2010.05.17/outbox.cif.g08.bks.cpg/sg51_13_cif.got.tgz:24104.got - 2010.06.03 11:52:47.
