data_PCOD9403941
_publ_section_title
;
Structure prediction by ZEFSAII (Michael W. Deem and Ramdas Pophale) SiO2 
 PCOD9403941
Probable space group: P M M A
;
_chemical_formula_sum "Si O2"
_cell_formula_units_Z 52
_cell_length_a 8.868168
_cell_length_b 23.468342
_cell_length_c 15.072035
_cell_angle_alpha 90.000000
_cell_angle_beta 90.000000
_cell_angle_gamma 90.000000
_cell_volume 3136.810004
_symmetry_space_group_name_H-M "P M M A"
_symmetry_group_IT_number 51
_symmetry_cell_setting 'orthorhombic'
loop_
_space_group_symop_operation_xyz
x,y,z
1/2-x,-y,z
1/2+x,-y,-z
-x,y,-z
-x,-y,-z
1/2+x,y,-z
1/2-x,y,z
x,-y,z
loop_
_atom_site_type_symbol
_atom_site_label
_atom_site_fract_x
_atom_site_fract_y
_atom_site_fract_z
Si Si1 0.568319 0.891321 0.279622
Si Si2 0.430966 0.000000 0.598460
Si Si3 0.931400 0.564742 0.726011
Si Si4 0.568557 0.794495 0.598284
Si Si5 0.068740 0.663655 0.404012
Si Si6 0.579611 0.430995 0.088286
Si Si7 0.930104 0.068082 0.904479
O O1 0.750000 0.888352 0.274880
O O2 0.526883 0.944839 0.343195
O O3 0.501201 0.836527 0.329296
O O4 0.502442 0.901663 0.181266
O O5 0.500000 0.000000 0.500000
O O6 0.250000 0.000000 0.588885
O O7 0.750000 0.563673 0.723853
O O8 0.984207 0.500000 0.705399
O O9 0.985707 0.613729 0.660306
O O10 0.984924 0.580278 0.824162
O O11 0.500000 0.805797 0.500000
O O12 0.750000 0.800940 0.594094
O O13 0.531960 0.728691 0.622021
O O14 0.250000 0.660450 0.408772
O O15 0.000000 0.654033 0.500000
O O16 0.750000 0.410051 0.096264
O O17 0.586159 0.500000 0.080971
O O18 0.500000 0.409112 0.000000
O O19 0.750000 0.076857 0.905691
O O20 0.958808 0.000000 0.894496
O O21 0.000000 0.085093 0.000000
#
# Coordination Sequence:
#
# PCOD9403941 Si02
#       7
#     8   4   8   8   8   8   8
#     4  11  21  35  53  76 104 136 171 210 255 301
#     4  10  22  34  47  70 103 134 161 200 248 296
#     4   9  17  30  48  71  99 130 163 202 251 302
#     4  10  20  35  53  74  99 132 173 212 253 303
#     4   9  19  34  51  71  98 131 168 210 251 297
#     4   9  16  26  42  66  95 126 158 193 235 287
#     4  10  20  34  54  79 107 140 174 211 252 300
#
# _framework density 16.577351
#
# number of rings (size 3 to 8) (size 9 to 14) (size 15 to 20)
#    0.000    2.308    0.769    2.308    0.000    6.462 
#    0.000    0.000    0.000    0.923    0.000    4.308 
#    0.000    0.000    0.000    0.000    0.000    0.000 
#
# Total GULP energy -289931.552855 kJ/mol
# GULP energy per Si atom -5575.606786 kJ/mol
# Density = 1.653962 g / cm^3
# Si number density = 16.577351 Si / 1000 Ang^3
#
#
#
# Elastic Constant Matrix: (Units=GPa)
#
#
# Indices 1 2 3 4 5 6 
#
# 1 41.4865 41.4123 50.1400 0.0000 0.0000 0.0000
# 2 41.4123 100.6695 97.7838 0.0000 0.0000 0.0000
# 3 50.1400 97.7838 158.6277 0.0000 0.0000 0.0000
# 4 0.0000 0.0000 0.0000 -5.3242 0.0000 0.0000
# 5 0.0000 0.0000 0.0000 0.0000 33.9586 0.0000
# 6 0.0000 0.0000 0.0000 0.0000 0.0000 14.7180
#
#
#
# Elastic Compliance Matrix: (Units=1/GPa)
#
#
# Indices 1 2 3 4 5 6 
#
# 1 0.043656 -0.011353 -0.006801 0.000000 0.000000 0.000000
# 2 -0.011353 0.027710 -0.013493 0.000000 0.000000 0.000000
# 3 -0.006801 -0.013493 0.016771 0.000000 0.000000 0.000000
# 4 0.000000 0.000000 0.000000 -0.187821 0.000000 0.000000
# 5 0.000000 0.000000 0.000000 0.000000 0.029448 0.000000
# 6 0.000000 0.000000 0.000000 0.000000 0.000000 0.067944
#
#
# Mechanical properties :
#
#
# Convention : Reuss Voigt Hill
#
# Bulk Modulus (GPa) = 40.25110 75.49511 57.87311
# Shear Modulus (GPa) = 72.16824 16.10031 44.13428
#
# Velocity S-wave (km/s) = 6.60521 3.11983 5.16537
# Velocity P-wave (km/s) = 9.08323 7.65622 8.40009
#
# Compressibility (1/GPa) = 0.02484404
#
# Stress axis : x y z
#
# Youngs Moduli (GPa) = 22.90628 36.08834 59.62646
#
# Poissons Ratio (x) = 0.40971 0.40550
# Poissons Ratio (y) = 0.26006 0.80453
# Poissons Ratio (z) = 0.15578 0.48693
#
# Static dielectric constant tensor:
#      x y z
#    x 1.559130 0.000000 0.000000 
#    y 0.000000 1.559360 0.000000 
#    z 0.000000 0.000000 1.529960 
# 
# From -- ./inp_files/21598.got.cif
#   From: 2010.05.17/outbox.cif.g08.bks.cpg/sg51_11_cif.got.tgz:21598.got - 2010.06.03 11:52:47.
