data_PCOD9403979
_publ_section_title
;
Structure prediction by ZEFSAII (Michael W. Deem and Ramdas Pophale) SiO2 
 PCOD9403979
Probable space group: P M M A
;
_chemical_formula_sum "Si O2"
_cell_formula_units_Z 48
_cell_length_a 15.109314
_cell_length_b 7.657667
_cell_length_c 20.260049
_cell_angle_alpha 90.000000
_cell_angle_beta 90.000000
_cell_angle_gamma 90.000000
_cell_volume 2344.130118
_symmetry_space_group_name_H-M "P M M A"
_symmetry_group_IT_number 51
_symmetry_cell_setting 'orthorhombic'
loop_
_space_group_symop_operation_xyz
x,y,z
1/2-x,-y,z
1/2+x,-y,-z
-x,y,-z
-x,-y,-z
1/2+x,y,-z
1/2-x,y,z
x,-y,z
loop_
_atom_site_type_symbol
_atom_site_label
_atom_site_fract_x
_atom_site_fract_y
_atom_site_fract_z
Si Si1 0.250000 0.292496 0.971130
Si Si2 0.148616 0.293171 0.429748
Si Si3 0.002074 0.797376 0.326392
Si Si4 0.056637 0.288603 0.936512
Si Si5 0.648843 0.788676 0.420709
Si Si6 0.750000 0.787958 0.873674
Si Si7 0.565525 0.208054 0.813190
O O1 0.250000 0.500000 0.958633
O O2 0.157451 0.223342 0.942463
O O3 0.250000 0.266051 0.049912
O O4 0.250000 0.229019 0.423740
O O5 0.148170 0.500000 0.417849
O O6 0.083328 0.209277 0.377375
O O7 0.120350 0.261694 0.505336
O O8 0.031667 0.719126 0.256597
O O9 0.918237 0.720747 0.365414
O O10 0.979430 0.000000 0.313380
O O11 0.058472 0.500000 0.939032
O O12 0.006039 0.236641 0.870407
O O13 0.000000 0.228607 0.000000
O O14 0.750000 0.728915 0.411408
O O15 0.648448 0.000000 0.418757
O O16 0.839380 0.724313 0.838116
O O17 0.750000 0.000000 0.872983
O O18 0.577835 0.000000 0.804522
#
# Coordination Sequence:
#
# PCOD9403979 Si02
#       7
#     4   8   8   8   8   4   8
#     4  10  20  36  58  82 106 137 180 223 264 315
#     4  10  21  35  53  81 111 139 176 222 269 316
#     4  10  21  36  55  79 108 144 180 216 264 319
#     4  10  20  36  58  81 107 141 180 221 264 314
#     4   9  18  35  57  78 103 139 182 223 263 313
#     4  10  20  34  54  80 110 141 172 215 272 321
#     4  10  22  37  54  81 113 142 176 219 267 320
#
# _framework density 20.476678
#
# number of rings (size 3 to 8) (size 9 to 14) (size 15 to 20)
#    0.000    2.167    1.667    1.000    1.167    5.333 
#    1.500    0.000    0.000    0.000    0.000    0.000 
#    0.000    0.000    0.000    0.000    0.000    0.000 
#
# Total GULP energy -268056.015768 kJ/mol
# GULP energy per Si atom -5584.500328 kJ/mol
# Density = 2.043007 g / cm^3
# Si number density = 20.476678 Si / 1000 Ang^3
#
#
#
# Elastic Constant Matrix: (Units=GPa)
#
#
# Indices 1 2 3 4 5 6 
#
# 1 142.0283 -6.8243 97.4500 0.0000 0.0000 0.0000
# 2 -6.8243 35.1832 -15.2460 0.0000 0.0000 0.0000
# 3 97.4500 -15.2460 160.8695 0.0000 0.0000 0.0000
# 4 0.0000 0.0000 0.0000 38.4448 0.0000 0.0000
# 5 0.0000 0.0000 0.0000 0.0000 -9.5482 0.0000
# 6 0.0000 0.0000 0.0000 0.0000 0.0000 3.5153
#
#
#
# Elastic Compliance Matrix: (Units=1/GPa)
#
#
# Indices 1 2 3 4 5 6 
#
# 1 0.012074 -0.000863 -0.007396 0.000000 0.000000 0.000000
# 2 -0.000863 0.029702 0.003338 0.000000 0.000000 0.000000
# 3 -0.007396 0.003338 0.011013 0.000000 0.000000 0.000000
# 4 0.000000 0.000000 0.000000 0.026011 0.000000 0.000000
# 5 0.000000 0.000000 0.000000 0.000000 -0.104732 0.000000
# 6 0.000000 0.000000 0.000000 0.000000 0.000000 0.284467
#
#
# Mechanical properties :
#
#
# Convention : Reuss Voigt Hill
#
# Bulk Modulus (GPa) = 23.28507 54.31559 38.80033
# Shear Modulus (GPa) = 17.68709 23.99581 20.84145
#
# Velocity S-wave (km/s) = 2.94218 3.42696 3.19378
# Velocity P-wave (km/s) = 4.78937 6.49938 5.70877
#
# Compressibility (1/GPa) = 0.04294597
#
# Stress axis : x y z
#
# Youngs Moduli (GPa) = 82.82367 33.66826 90.80459
#
# Poissons Ratio (x) = 0.02905 0.67157
# Poissons Ratio (y) = 0.07147 -0.30307
# Poissons Ratio (z) = 0.61254 -0.11237
#
# Static dielectric constant tensor:
#      x y z
#    x 1.738090 0.000000 0.000000 
#    y 0.000000 1.770070 0.000000 
#    z 0.000000 0.000000 1.686640 
# 
# From -- ./inp_files/29562.got.cif
#   From: 2010.05.17/outbox.cif.g08.bks.cpg/sg51_15_cif.got.tgz:29562.got - 2010.06.03 11:52:47.
