data_PCOD9403168
_publ_section_title
;
Structure prediction by ZEFSAII (Michael W. Deem and Ramdas Pophale) SiO2 
 PCOD9403168
Probable space group: P M M A
;
_chemical_formula_sum "Si O2"
_cell_formula_units_Z 40
_cell_length_a 9.405203
_cell_length_b 7.628417
_cell_length_c 26.668102
_cell_angle_alpha 90.000000
_cell_angle_beta 90.000000
_cell_angle_gamma 90.000000
_cell_volume 1913.351259
_symmetry_space_group_name_H-M "P M M A"
_symmetry_group_IT_number 51
_symmetry_cell_setting 'orthorhombic'
loop_
_space_group_symop_operation_xyz
x,y,z
1/2-x,-y,z
1/2+x,-y,-z
-x,y,-z
-x,-y,-z
1/2+x,y,-z
1/2-x,y,z
x,-y,z
loop_
_atom_site_type_symbol
_atom_site_label
_atom_site_fract_x
_atom_site_fract_y
_atom_site_fract_z
Si Si1 0.411427 0.710621 0.452764
Si Si2 0.414155 0.714208 0.950638
Si Si3 0.587711 0.791923 0.658380
Si Si4 0.910289 0.292200 0.243985
Si Si5 0.086182 0.714717 0.148244
O O1 0.500000 0.777610 0.500000
O O2 0.250000 0.778720 0.454415
O O3 0.405776 0.500000 0.457033
O O4 0.468484 0.749749 0.397262
O O5 0.250000 0.771159 0.951063
O O6 0.412766 0.500000 0.950845
O O7 0.497150 0.768483 0.900569
O O8 0.500000 0.769988 0.000000
O O9 0.750000 0.720290 0.662466
O O10 0.488555 0.729587 0.703129
O O11 0.596355 0.000000 0.662536
O O12 0.750000 0.219657 0.244300
O O13 0.898588 0.500000 0.235039
O O14 0.007397 0.223636 0.198630
O O15 0.250000 0.771610 0.146285
O O16 0.088180 0.500000 0.148509
#
# Coordination Sequence:
#
# PCOD9403168 Si02
#       5
#     8   8   8   8   8
#     4   9  18  33  53  76 102 132 166 203 242 287
#     4   9  15  22  33  52  82 119 157 197 243 296
#     4  10  21  36  53  74 101 133 168 205 247 296
#     4  10  20  33  50  72  97 127 165 208 252 299
#     4   9  16  26  41  61  86 119 159 201 246 296
#
# _framework density 20.905726999999999
#
# number of rings (size 3 to 8) (size 9 to 14) (size 15 to 20)
#    0.000    2.600    0.000    2.400    0.000    8.400 
#    0.000    2.000    0.000    0.000    0.000    0.000 
#    0.000    0.800    0.000    3.000    0.000    6.600 
#
# Total GULP energy -223345.038153 kJ/mol
# GULP energy per Si atom -5583.625954 kJ/mol
# Density = 2.085814 g / cm^3
# Si number density = 20.905727 Si / 1000 Ang^3
#
#
#
# Elastic Constant Matrix: (Units=GPa)
#
#
# Indices 1 2 3 4 5 6 
#
# 1 186.4608 4.5202 138.3017 0.0000 0.0000 0.0000
# 2 4.5202 40.5568 -5.2282 0.0000 0.0000 0.0000
# 3 138.3017 -5.2282 225.5825 0.0000 0.0000 0.0000
# 4 0.0000 0.0000 0.0000 -50.6444 0.0000 0.0000
# 5 0.0000 0.0000 0.0000 0.0000 41.8246 0.0000
# 6 0.0000 0.0000 0.0000 0.0000 0.0000 -1.1165
#
#
#
# Elastic Compliance Matrix: (Units=1/GPa)
#
#
# Indices 1 2 3 4 5 6 
#
# 1 0.009981 -0.001907 -0.006163 0.000000 0.000000 0.000000
# 2 -0.001907 0.025095 0.001751 0.000000 0.000000 0.000000
# 3 -0.006163 0.001751 0.008252 0.000000 0.000000 0.000000
# 4 0.000000 0.000000 0.000000 -0.019746 0.000000 0.000000
# 5 0.000000 0.000000 0.000000 0.000000 0.023909 0.000000
# 6 0.000000 0.000000 0.000000 0.000000 0.000000 -0.895673
#
#
# Mechanical properties :
#
#
# Convention : Reuss Voigt Hill
#
# Bulk Modulus (GPa) = 32.58498 80.86527 56.72513
# Shear Modulus (GPa) = -6.05831 19.01319 6.47744
#
# Velocity S-wave (km/s) = -1.70417 3.01902 1.76214
# Velocity P-wave (km/s) = 3.42756 7.13565 5.59758
#
# Compressibility (1/GPa) = 0.03068899
#
# Stress axis : x y z
#
# Youngs Moduli (GPa) = 100.19384 39.84858 121.18093
#
# Poissons Ratio (x) = 0.07599 0.74686
# Poissons Ratio (y) = 0.19106 -0.21215
# Poissons Ratio (z) = 0.61751 -0.06976
#
# Static dielectric constant tensor:
#      x y z
#    x 1.734100 0.000000 0.000000 
#    y 0.000000 1.770310 0.000000 
#    z 0.000000 0.000000 1.713560 
# 
# From -- ./inp_files/34285.got.cif
#   From: 2010.05.17/outbox.cif.g08.bks.cpg/sg51_18_cif.got.tgz:34285.got - 2010.06.03 11:52:47.
