data_PCOD9403426
_publ_section_title
;
Structure prediction by ZEFSAII (Michael W. Deem and Ramdas Pophale) SiO2 
 PCOD9403426
Probable space group: P M M A
;
_chemical_formula_sum "Si O2"
_cell_formula_units_Z 64
_cell_length_a 17.825650
_cell_length_b 9.001844
_cell_length_c 23.173721
_cell_angle_alpha 90.000000
_cell_angle_beta 90.000000
_cell_angle_gamma 90.000000
_cell_volume 3718.541489
_symmetry_space_group_name_H-M "P M M A"
_symmetry_group_IT_number 51
_symmetry_cell_setting 'orthorhombic'
loop_
_space_group_symop_operation_xyz
x,y,z
1/2-x,-y,z
1/2+x,-y,-z
-x,y,-z
-x,-y,-z
1/2+x,y,-z
1/2-x,y,z
x,-y,z
loop_
_atom_site_type_symbol
_atom_site_label
_atom_site_fract_x
_atom_site_fract_y
_atom_site_fract_z
Si Si1 0.549259 0.325278 0.128921
Si Si2 0.385312 0.674538 0.077002
Si Si3 0.431314 0.169170 0.454095
Si Si4 0.836755 0.820752 0.440428
Si Si5 0.491817 0.822088 0.244656
Si Si6 0.967849 0.676639 0.364931
Si Si7 0.667015 0.822244 0.805886
Si Si8 0.660877 0.825716 0.042341
O O1 0.559071 0.500000 0.140802
O O2 0.473771 0.309116 0.090508
O O3 0.534371 0.237868 0.188101
O O4 0.617254 0.259686 0.092525
O O5 0.368338 0.500000 0.071255
O O6 0.344326 0.741784 0.132918
O O7 0.362824 0.758923 0.019254
O O8 0.500000 0.165028 0.500000
O O9 0.361724 0.216839 0.493878
O O10 0.460438 0.272170 0.403099
O O11 0.419926 0.000000 0.432979
O O12 0.750000 0.784323 0.429893
O O13 0.894443 0.742371 0.397077
O O14 0.846295 0.000000 0.435244
O O15 0.522804 0.746395 0.301947
O O16 0.403814 0.783238 0.234101
O O17 0.498329 0.000000 0.248649
O O18 0.963234 0.500000 0.362626
O O19 0.750000 0.787550 0.782665
O O20 0.662926 0.000000 0.815670
O O21 0.750000 0.810150 0.048748
O O22 0.641556 0.000000 0.044301
#
# Coordination Sequence:
#
# PCOD9403426 Si02
#       8
#     8   8   8   8   8   8   8   8
#     4  10  21  37  55  76 102 131 168 214 261 311
#     4  10  20  33  52  78 104 131 164 204 256 316
#     4   8  15  30  52  76 102 133 168 204 246 297
#     4   9  18  34  56  81 108 138 174 217 261 303
#     4  10  20  36  57  76 100 138 179 216 254 301
#     4  11  21  33  52  78 108 141 177 215 254 301
#     4   9  18  33  53  77 102 129 166 212 259 307
#     4  11  23  36  51  74 103 134 170 211 255 307
#
# _framework density 17.211048999999999
#
# number of rings (size 3 to 8) (size 9 to 14) (size 15 to 20)
#    0.000    2.250    0.000    4.125    0.000    8.750 
#    0.000    1.250    0.000    7.500    0.000    0.000 
#    0.000    0.000    0.000    0.000    0.000    0.000 
#
# Total GULP energy -357103.682075 kJ/mol
# GULP energy per Si atom -5579.745032 kJ/mol
# Density = 1.717188 g / cm^3
# Si number density = 17.211049 Si / 1000 Ang^3
#
#
#
# Elastic Constant Matrix: (Units=GPa)
#
#
# Indices 1 2 3 4 5 6 
#
# 1 78.1382 62.2321 76.9175 0.0000 0.0000 0.0000
# 2 62.2321 75.9308 34.2024 0.0000 0.0000 0.0000
# 3 76.9175 34.2024 40.3103 0.0000 0.0000 0.0000
# 4 0.0000 0.0000 0.0000 125.9905 0.0000 0.0000
# 5 0.0000 0.0000 0.0000 0.0000 14.5011 0.0000
# 6 0.0000 0.0000 0.0000 0.0000 0.0000 13.0145
#
#
#
# Elastic Compliance Matrix: (Units=1/GPa)
#
#
# Indices 1 2 3 4 5 6 
#
# 1 -0.014529 -0.000939 0.028520 0.000000 0.000000 0.000000
# 2 -0.000939 0.021256 -0.016245 0.000000 0.000000 0.000000
# 3 0.028520 -0.016245 -0.015830 0.000000 0.000000 0.000000
# 4 0.000000 0.000000 0.000000 0.007937 0.000000 0.000000
# 5 0.000000 0.000000 0.000000 0.000000 0.068960 0.000000
# 6 0.000000 0.000000 0.000000 0.000000 0.000000 0.076837
#
#
# Mechanical properties :
#
#
# Convention : Reuss Voigt Hill
#
# Bulk Modulus (GPa) = 73.68389 60.12034 66.90212
# Shear Modulus (GPa) = 39.53147 32.10304 35.81726
#
# Velocity S-wave (km/s) = 4.79776 4.32355 4.56681
# Velocity P-wave (km/s) = 8.57883 7.74152 8.17091
#
# Compressibility (1/GPa) = 0.01357149
#
# Stress axis : x y z
#
# Youngs Moduli (GPa) = -68.82658 47.04466 -63.17198
#
# Poissons Ratio (x) = 0.04416 1.80168
# Poissons Ratio (y) = -0.06460 -1.02620
# Poissons Ratio (z) = 1.96295 0.76422
#
# Static dielectric constant tensor:
#      x y z
#    x 1.596710 0.000000 0.000000 
#    y 0.000000 1.572340 0.000000 
#    z 0.000000 0.000000 1.552610 
# 
# From -- ./inp_files/33921.got.cif
#   From: 2010.05.17/outbox.cif.g08.bks.cpg/sg51_17_cif.got.tgz:33921.got - 2010.06.03 11:52:47.
