data_PCOD9403509
_publ_section_title
;
Structure prediction by ZEFSAII (Michael W. Deem and Ramdas Pophale) SiO2 
 PCOD9403509
Probable space group: P M M A
;
_chemical_formula_sum "Si O2"
_cell_formula_units_Z 60
_cell_length_a 15.434075
_cell_length_b 15.041876
_cell_length_c 14.349194
_cell_angle_alpha 90.000000
_cell_angle_beta 90.000000
_cell_angle_gamma 90.000000
_cell_volume 3331.272178
_symmetry_space_group_name_H-M "P M M A"
_symmetry_group_IT_number 51
_symmetry_cell_setting 'orthorhombic'
loop_
_space_group_symop_operation_xyz
x,y,z
1/2-x,-y,z
1/2+x,-y,-z
-x,y,-z
-x,-y,-z
1/2+x,y,-z
1/2-x,y,z
x,-y,z
loop_
_atom_site_type_symbol
_atom_site_label
_atom_site_fract_x
_atom_site_fract_y
_atom_site_fract_z
Si Si1 0.653922 0.705303 0.498256
Si Si2 0.404210 0.099064 0.540921
Si Si3 0.000000 0.672820 0.000000
Si Si4 0.347987 0.729398 0.866396
Si Si5 0.584163 0.397819 0.666766
Si Si6 0.652516 0.393686 0.863578
Si Si7 0.849562 0.097843 0.256701
Si Si8 0.880479 0.602559 0.305586
O O1 0.750000 0.684053 0.532251
O O2 0.642328 0.811362 0.492215
O O3 0.592071 0.661016 0.574408
O O4 0.644160 0.660493 0.396438
O O5 0.500000 0.100899 0.500000
O O6 0.408202 0.106419 0.652717
O O7 0.366458 0.000000 0.520618
O O8 0.930909 0.625854 0.929180
O O9 0.070864 0.720873 0.935024
O O10 0.250000 0.728196 0.906938
O O11 0.359747 0.822088 0.813017
O O12 0.351071 0.651595 0.788426
O O13 0.611467 0.500000 0.645913
O O14 0.635012 0.362511 0.757374
O O15 0.484259 0.399883 0.696063
O O16 0.750000 0.364061 0.893762
O O17 0.655581 0.500000 0.858472
O O18 0.750000 0.102158 0.292231
O O19 0.861851 0.000000 0.214403
O O20 0.850462 0.500000 0.312487
#
# Coordination Sequence:
#
# PCOD9403509 Si02
#       8
#     8   8   4   8   8   8   8   8
#     4  12  23  34  53  82 115 153 193 232 282 339
#     4  10  20  33  53  80 111 148 190 234 278 333
#     4  12  23  38  59  84 114 146 184 238 298 350
#     4  11  23  39  60  89 117 148 188 235 293 349
#     4  10  21  38  56  77 110 154 198 234 276 334
#     4  10  21  38  58  79 107 148 198 242 281 336
#     4   9  18  36  60  83 110 145 186 235 289 340
#     4  11  22  37  56  81 115 151 189 236 284 330
#
# _framework density 18.011137999999999
#
# number of rings (size 3 to 8) (size 9 to 14) (size 15 to 20)
#    0.000    1.467    2.667    3.400    0.000    4.800 
#    0.000    0.333    0.000    0.000    0.000    0.000 
#    0.000    3.200    0.000    0.000    0.000    0.000 
#
# Total GULP energy -334369.039543 kJ/mol
# GULP energy per Si atom -5572.817326 kJ/mol
# Density = 1.797014 g / cm^3
# Si number density = 18.011138 Si / 1000 Ang^3
#
#
#
# Elastic Constant Matrix: (Units=GPa)
#
#
# Indices 1 2 3 4 5 6 
#
# 1 110.2036 28.0294 39.5699 0.0000 0.0000 0.0000
# 2 28.0294 104.6834 41.6921 0.0000 0.0000 0.0000
# 3 39.5699 41.6921 85.1540 0.0000 0.0000 0.0000
# 4 0.0000 0.0000 0.0000 8.8885 0.0000 0.0000
# 5 0.0000 0.0000 0.0000 0.0000 17.4049 0.0000
# 6 0.0000 0.0000 0.0000 0.0000 0.0000 16.4554
#
#
#
# Elastic Compliance Matrix: (Units=1/GPa)
#
#
# Indices 1 2 3 4 5 6 
#
# 1 0.010998 -0.001130 -0.004557 0.000000 0.000000 0.000000
# 2 -0.001130 0.011983 -0.005342 0.000000 0.000000 0.000000
# 3 -0.004557 -0.005342 0.016477 0.000000 0.000000 0.000000
# 4 0.000000 0.000000 0.000000 0.112504 0.000000 0.000000
# 5 0.000000 0.000000 0.000000 0.000000 0.057455 0.000000
# 6 0.000000 0.000000 0.000000 0.000000 0.000000 0.060770
#
#
# Mechanical properties :
#
#
# Convention : Reuss Voigt Hill
#
# Bulk Modulus (GPa) = 57.47403 57.62487 57.54945
# Shear Modulus (GPa) = 16.77603 21.26642 19.02122
#
# Velocity S-wave (km/s) = 3.05524 3.43991 3.25327
# Velocity P-wave (km/s) = 6.66525 6.91671 6.79214
#
# Compressibility (1/GPa) = 0.01739916
#
# Stress axis : x y z
#
# Youngs Moduli (GPa) = 90.92695 83.45466 60.69193
#
# Poissons Ratio (x) = 0.09427 0.27660
# Poissons Ratio (y) = 0.10271 0.32421
# Poissons Ratio (z) = 0.41440 0.44580
#
# Static dielectric constant tensor:
#      x y z
#    x 1.658330 0.000000 0.000000 
#    y 0.000000 1.623600 0.000000 
#    z 0.000000 0.000000 1.621650 
# 
# From -- ./inp_files/24358.got.cif
#   From: 2010.05.17/outbox.cif.g08.bks.cpg/sg51_13_cif.got.tgz:24358.got - 2010.06.03 11:52:47.
