data_PCOD9403407
_publ_section_title
;
Structure prediction by ZEFSAII (Michael W. Deem and Ramdas Pophale) SiO2 
 PCOD9403407
Probable space group: P M M A
;
_chemical_formula_sum "Si O2"
_cell_formula_units_Z 40
_cell_length_a 29.627875
_cell_length_b 7.784545
_cell_length_c 9.754972
_cell_angle_alpha 90.000000
_cell_angle_beta 90.000000
_cell_angle_gamma 90.000000
_cell_volume 2249.882120
_symmetry_space_group_name_H-M "P M M A"
_symmetry_group_IT_number 51
_symmetry_cell_setting 'orthorhombic'
loop_
_space_group_symop_operation_xyz
x,y,z
1/2-x,-y,z
1/2+x,-y,-z
-x,y,-z
-x,-y,-z
1/2+x,y,-z
1/2-x,y,z
x,-y,z
loop_
_atom_site_type_symbol
_atom_site_label
_atom_site_fract_x
_atom_site_fract_y
_atom_site_fract_z
Si Si1 0.545966 0.500000 0.584733
Si Si2 0.699647 0.792512 0.101831
Si Si3 0.884125 0.202237 0.914075
Si Si4 0.800871 0.297178 0.418357
Si Si5 0.613786 0.192377 0.590617
Si Si6 0.954748 0.500000 0.912715
O O1 0.500000 0.500000 0.500000
O O2 0.576932 0.334588 0.552485
O O3 0.536617 0.500000 0.748550
O O4 0.750000 0.734723 0.059792
O O5 0.691608 0.729387 0.256265
O O6 0.700048 0.000000 0.105579
O O7 0.659770 0.742867 0.999854
O O8 0.875119 0.216678 0.751485
O O9 0.925025 0.330806 0.944967
O O10 0.893786 0.000000 0.943036
O O11 0.750000 0.232535 0.448731
O O12 0.801885 0.500000 0.447706
O O13 0.840710 0.212443 0.503734
O O14 0.595622 0.000000 0.572648
O O15 0.000000 0.500000 0.000000
#
# Coordination Sequence:
#
# PCOD9403407 Si02
#       6
#     4   8   8   8   8   4
#     4  10  22  40  57  80 111 137 176 229 271 324
#     4   9  18  33  52  78 111 145 181 219 262 314
#     4   9  20  37  57  81 109 140 178 222 265 319
#     4  10  20  33  51  80 115 148 184 223 263 313
#     4  10  20  37  59  81 109 145 181 221 271 320
#     4  10  22  38  57  80 105 139 176 219 275 324
#
# _framework density 17.77871
#
# number of rings (size 3 to 8) (size 9 to 14) (size 15 to 20)
#    0.000    2.400    1.000    0.600    1.400    4.400 
#    0.000    2.000    0.000    0.000    0.000    0.000 
#    0.000    0.000    0.000    0.000    0.000    0.000 
#
# Total GULP energy -223153.633524 kJ/mol
# GULP energy per Si atom -5578.840838 kJ/mol
# Density = 1.773825 g / cm^3
# Si number density = 17.778710 Si / 1000 Ang^3
#
#
#
# Elastic Constant Matrix: (Units=GPa)
#
#
# Indices 1 2 3 4 5 6 
#
# 1 162.9648 76.5109 84.5229 0.0000 0.0000 0.0000
# 2 76.5109 93.5411 47.0017 0.0000 0.0000 0.0000
# 3 84.5229 47.0017 53.7043 0.0000 0.0000 0.0000
# 4 0.0000 0.0000 0.0000 22.5168 0.0000 0.0000
# 5 0.0000 0.0000 0.0000 0.0000 40.9414 0.0000
# 6 0.0000 0.0000 0.0000 0.0000 0.0000 14.7779
#
#
#
# Elastic Compliance Matrix: (Units=1/GPa)
#
#
# Indices 1 2 3 4 5 6 
#
# 1 0.033540 -0.001624 -0.051367 0.000000 0.000000 0.000000
# 2 -0.001624 0.019161 -0.014214 0.000000 0.000000 0.000000
# 3 -0.051367 -0.014214 0.111904 0.000000 0.000000 0.000000
# 4 0.000000 0.000000 0.000000 0.044411 0.000000 0.000000
# 5 0.000000 0.000000 0.000000 0.000000 0.024425 0.000000
# 6 0.000000 0.000000 0.000000 0.000000 0.000000 0.067669
#
#
# Mechanical properties :
#
#
# Convention : Reuss Voigt Hill
#
# Bulk Modulus (GPa) = 33.11617 80.69794 56.90706
# Shear Modulus (GPa) = 11.22124 22.45886 16.84005
#
# Velocity S-wave (km/s) = 2.51502 3.55807 3.08101
# Velocity P-wave (km/s) = 5.20587 7.89738 6.68841
#
# Compressibility (1/GPa) = 0.03019673
#
# Stress axis : x y z
#
# Youngs Moduli (GPa) = 29.81496 52.19048 8.93624
#
# Poissons Ratio (x) = 0.08474 0.45902
# Poissons Ratio (y) = 0.04841 0.12702
# Poissons Ratio (z) = 1.53149 0.74183
#
# Static dielectric constant tensor:
#      x y z
#    x 1.575420 0.000000 0.000000 
#    y 0.000000 1.633210 0.000000 
#    z 0.000000 0.000000 1.579690 
# 
# From -- ./inp_files/12149.got.cif
#   From: 2010.05.17/outbox.cif.g08.bks.cpg/sg51_7_cif.got.tgz:12149.got - 2010.06.03 11:52:47.
