data_PCOD9403703
_publ_section_title
;
Structure prediction by ZEFSAII (Michael W. Deem and Ramdas Pophale) SiO2 
 PCOD9403703
Probable space group: P M M A
;
_chemical_formula_sum "Si O2"
_cell_formula_units_Z 52
_cell_length_a 7.642669
_cell_length_b 15.004035
_cell_length_c 21.345303
_cell_angle_alpha 90.000000
_cell_angle_beta 90.000000
_cell_angle_gamma 90.000000
_cell_volume 2447.684533
_symmetry_space_group_name_H-M "P M M A"
_symmetry_group_IT_number 51
_symmetry_cell_setting 'orthorhombic'
loop_
_space_group_symop_operation_xyz
x,y,z
1/2-x,-y,z
1/2+x,-y,-z
-x,y,-z
-x,-y,-z
1/2+x,y,-z
1/2-x,y,z
x,-y,z
loop_
_atom_site_type_symbol
_atom_site_label
_atom_site_fract_x
_atom_site_fract_y
_atom_site_fract_z
Si Si1 0.535246 0.397383 0.690974
Si Si2 0.539587 0.802780 0.927122
Si Si3 0.459796 0.000000 0.074233
Si Si4 0.536484 0.279328 0.805202
Si Si5 0.450350 0.703937 0.431024
Si Si6 0.461841 0.903677 0.260122
Si Si7 0.546019 0.903324 0.406587
O O1 0.750000 0.394130 0.692344
O O2 0.484463 0.500000 0.684374
O O3 0.476614 0.354660 0.756910
O O4 0.468494 0.339763 0.631393
O O5 0.750000 0.807163 0.922758
O O6 0.479189 0.728656 0.877415
O O7 0.474662 0.901889 0.906597
O O8 0.500000 0.787160 0.000000
O O9 0.250000 0.000000 0.085924
O O10 0.500000 0.000000 0.000000
O O11 0.750000 0.283353 0.805303
O O12 0.483512 0.184717 0.775055
O O13 0.500000 0.671389 0.500000
O O14 0.250000 0.681318 0.424818
O O15 0.467807 0.811033 0.429891
O O16 0.250000 0.901923 0.262090
O O17 0.526876 0.900808 0.331380
O O18 0.513451 0.000000 0.232583
O O19 0.750000 0.902014 0.423338
O O20 0.471155 0.000000 0.426530
#
# Coordination Sequence:
#
# PCOD9403703 Si02
#       7
#     8   8   4   8   8   8   8
#     4   9  18  34  56  81 105 128 165 218 268 315
#     4   9  17  28  44  67  99 134 171 209 249 298
#     4   8  14  24  38  60  92 132 167 202 240 285
#     4   9  16  28  49  76 100 131 172 212 257 307
#     4  11  22  37  57  81 107 138 173 212 258 308
#     4   9  16  27  47  74 102 133 173 218 259 303
#     4  10  20  34  52  76 109 145 177 211 251 299
#
# _framework density 21.244568000000001
#
# number of rings (size 3 to 8) (size 9 to 14) (size 15 to 20)
#    0.000    2.615    1.538    0.923    1.077    1.538 
#    0.000    0.769    0.000    1.846    0.000    0.000 
#    0.000    0.000    0.000    0.000    0.000    0.000 
#
# Total GULP energy -289913.442764 kJ/mol
# GULP energy per Si atom -5575.258515 kJ/mol
# Density = 2.119621 g / cm^3
# Si number density = 21.244568 Si / 1000 Ang^3
#
#
#
# Elastic Constant Matrix: (Units=GPa)
#
#
# Indices 1 2 3 4 5 6 
#
# 1 34.7563 0.7826 2.3972 0.0000 0.0000 0.0000
# 2 0.7826 99.1253 74.3440 0.0000 0.0000 0.0000
# 3 2.3972 74.3440 153.0353 0.0000 0.0000 0.0000
# 4 0.0000 0.0000 0.0000 17.9129 0.0000 0.0000
# 5 0.0000 0.0000 0.0000 0.0000 14.9999 0.0000
# 6 0.0000 0.0000 0.0000 0.0000 0.0000 1.1539
#
#
#
# Elastic Compliance Matrix: (Units=1/GPa)
#
#
# Indices 1 2 3 4 5 6 
#
# 1 0.028805 0.000175 -0.000536 0.000000 0.000000 0.000000
# 2 0.000175 0.015872 -0.007713 0.000000 0.000000 0.000000
# 3 -0.000536 -0.007713 0.010290 0.000000 0.000000 0.000000
# 4 0.000000 0.000000 0.000000 0.055826 0.000000 0.000000
# 5 0.000000 0.000000 0.000000 0.000000 0.066667 0.000000
# 6 0.000000 0.000000 0.000000 0.000000 0.000000 0.866648
#
#
# Mechanical properties :
#
#
# Convention : Reuss Voigt Hill
#
# Bulk Modulus (GPa) = 25.76175 49.10718 37.43446
# Shear Modulus (GPa) = 4.65898 20.77287 12.71593
#
# Velocity S-wave (km/s) = 1.48249 3.13037 2.44918
# Velocity P-wave (km/s) = 3.88368 6.01921 5.06527
#
# Compressibility (1/GPa) = 0.03881724
#
# Stress axis : x y z
#
# Youngs Moduli (GPa) = 34.71640 63.00508 97.18296
#
# Poissons Ratio (x) = -0.01100 0.05209
# Poissons Ratio (y) = -0.00606 0.74959
# Poissons Ratio (z) = 0.01861 0.48597
#
# Static dielectric constant tensor:
#      x y z
#    x 1.793670 0.000000 0.000000 
#    y 0.000000 1.759120 0.000000 
#    z 0.000000 0.000000 1.815360 
# 
# From -- ./inp_files/31696.got.cif
#   From: 2010.05.17/outbox.cif.g08.bks.cpg/sg51_16_cif.got.tgz:31696.got - 2010.06.03 11:52:47.
