data_PCOD9403155
_publ_section_title
;
Structure prediction by ZEFSAII (Michael W. Deem and Ramdas Pophale) SiO2 
 PCOD9403155
Probable space group: P M M A
;
_chemical_formula_sum "Si O2"
_cell_formula_units_Z 64
_cell_length_a 30.543502
_cell_length_b 8.614103
_cell_length_c 15.247527
_cell_angle_alpha 90.000000
_cell_angle_beta 90.000000
_cell_angle_gamma 90.000000
_cell_volume 4011.698643
_symmetry_space_group_name_H-M "P M M A"
_symmetry_group_IT_number 51
_symmetry_cell_setting 'orthorhombic'
loop_
_space_group_symop_operation_xyz
x,y,z
1/2-x,-y,z
1/2+x,-y,-z
-x,y,-z
-x,-y,-z
1/2+x,y,-z
1/2-x,y,z
x,-y,z
loop_
_atom_site_type_symbol
_atom_site_label
_atom_site_fract_x
_atom_site_fract_y
_atom_site_fract_z
Si Si1 0.937931 0.316809 0.954764
Si Si2 0.799955 0.314129 0.716237
Si Si3 0.393382 0.311966 0.536000
Si Si4 0.443135 0.186407 0.365168
Si Si5 0.027556 0.184154 0.874651
Si Si6 0.701533 0.311581 0.510054
Si Si7 0.615528 0.183875 0.803336
Si Si8 0.537271 0.686304 0.317914
O O1 0.939840 0.500000 0.968777
O O2 0.898502 0.270081 0.891513
O O3 0.981754 0.262192 0.903611
O O4 0.939083 0.231892 0.048408
O O5 0.750000 0.280885 0.742612
O O6 0.806923 0.500000 0.722732
O O7 0.804052 0.272917 0.613130
O O8 0.836122 0.226724 0.771820
O O9 0.393761 0.500000 0.530247
O O10 0.416623 0.247592 0.448831
O O11 0.342635 0.259924 0.538327
O O12 0.422525 0.267210 0.619519
O O13 0.416972 0.230252 0.276481
O O14 0.491684 0.256079 0.359921
O O15 0.445818 0.000000 0.368520
O O16 0.040531 0.243182 0.779036
O O17 0.021252 0.000000 0.873437
O O18 0.750000 0.256194 0.481699
O O19 0.702644 0.500000 0.505183
O O20 0.610707 0.000000 0.816193
O O21 0.536186 0.500000 0.311847
#
# Coordination Sequence:
#
# PCOD9403155 Si02
#       8
#     8   8   8   8   8   8   8   8
#     4  11  21  34  54  75  97 127 162 204 246 294
#     4   9  17  30  50  73  97 129 169 209 249 297
#     4  10  20  33  50  71  97 130 171 209 246 295
#     4  11  22  33  46  67  99 137 172 206 243 291
#     4  11  21  35  52  72  99 128 161 205 248 297
#     4   8  14  27  48  71  94 122 159 204 249 289
#     4  11  21  32  48  73 103 135 168 203 247 300
#     4  11  22  34  49  70  97 133 172 211 248 291
#
# _framework density 15.953341999999999
#
# number of rings (size 3 to 8) (size 9 to 14) (size 15 to 20)
#    0.000    1.750    2.500    5.250    0.000    3.750 
#    0.000    0.000    0.000    0.375    0.000    0.875 
#    0.000    5.000    0.000    0.000    0.000    0.000 
#
# Total GULP energy -357230.826238 kJ/mol
# GULP energy per Si atom -5581.731660 kJ/mol
# Density = 1.591703 g / cm^3
# Si number density = 15.953342 Si / 1000 Ang^3
#
#
#
# Elastic Constant Matrix: (Units=GPa)
#
#
# Indices 1 2 3 4 5 6 
#
# 1 106.4259 11.4669 42.8795 0.0000 0.0000 0.0000
# 2 11.4669 21.6558 5.4901 0.0000 0.0000 0.0000
# 3 42.8795 5.4901 67.1853 0.0000 0.0000 0.0000
# 4 0.0000 0.0000 0.0000 18.5462 0.0000 0.0000
# 5 0.0000 0.0000 0.0000 0.0000 18.4345 0.0000
# 6 0.0000 0.0000 0.0000 0.0000 0.0000 -8.5206
#
#
#
# Elastic Compliance Matrix: (Units=1/GPa)
#
#
# Indices 1 2 3 4 5 6 
#
# 1 0.013146 -0.004936 -0.007987 0.000000 0.000000 0.000000
# 2 -0.004936 0.049007 -0.000854 0.000000 0.000000 0.000000
# 3 -0.007987 -0.000854 0.020051 0.000000 0.000000 0.000000
# 4 0.000000 0.000000 0.000000 0.053919 0.000000 0.000000
# 5 0.000000 0.000000 0.000000 0.000000 0.054246 0.000000
# 6 0.000000 0.000000 0.000000 0.000000 0.000000 -0.117363
#
#
# Mechanical properties :
#
#
# Convention : Reuss Voigt Hill
#
# Bulk Modulus (GPa) = 18.29816 34.99332 26.64574
# Shear Modulus (GPa) = 42.09513 14.72071 28.40792
#
# Velocity S-wave (km/s) = 5.14234 3.04095 4.22440
# Velocity P-wave (km/s) = 6.83761 5.85767 6.36652
#
# Compressibility (1/GPa) = 0.05465030
#
# Stress axis : x y z
#
# Youngs Moduli (GPa) = 76.06906 20.40512 49.87187
#
# Poissons Ratio (x) = 0.10072 0.39831
# Poissons Ratio (y) = 0.37548 0.04261
# Poissons Ratio (z) = 0.60754 0.01743
#
# Static dielectric constant tensor:
#      x y z
#    x 1.541430 0.000000 0.000000 
#    y 0.000000 1.535300 0.000000 
#    z 0.000000 0.000000 1.518970 
# 
# From -- ./inp_files/26705.got.cif
#   From: 2010.05.17/outbox.cif.g08.bks.cpg/sg51_14_cif.got.tgz:26705.got - 2010.06.03 11:52:47.
