data_PCOD9403767
_publ_section_title
;
Structure prediction by ZEFSAII (Michael W. Deem and Ramdas Pophale) SiO2 
 PCOD9403767
Probable space group: P M M A
;
_chemical_formula_sum "Si O2"
_cell_formula_units_Z 48
_cell_length_a 8.888480
_cell_length_b 18.837902
_cell_length_c 14.960484
_cell_angle_alpha 90.000000
_cell_angle_beta 90.000000
_cell_angle_gamma 90.000000
_cell_volume 2504.988156
_symmetry_space_group_name_H-M "P M M A"
_symmetry_group_IT_number 51
_symmetry_cell_setting 'orthorhombic'
loop_
_space_group_symop_operation_xyz
x,y,z
1/2-x,-y,z
1/2+x,-y,-z
-x,y,-z
-x,-y,-z
1/2+x,y,-z
1/2-x,y,z
x,-y,z
loop_
_atom_site_type_symbol
_atom_site_label
_atom_site_fract_x
_atom_site_fract_y
_atom_site_fract_z
Si Si1 0.069878 0.231615 0.593423
Si Si2 0.929088 0.919626 0.642115
Si Si3 0.920266 0.204068 0.920115
Si Si4 0.923115 0.687189 0.759375
Si Si5 0.421813 0.079267 0.833037
Si Si6 0.425489 0.415268 0.902424
O O1 0.250000 0.231712 0.591743
O O2 0.000000 0.257111 0.500000
O O3 0.012342 0.149855 0.604839
O O4 0.010381 0.281740 0.673725
O O5 0.750000 0.912056 0.628712
O O6 0.970476 0.918318 0.747044
O O7 0.973376 0.000000 0.610763
O O8 0.750000 0.186202 0.943215
O O9 0.919770 0.248154 0.829669
O O10 0.021372 0.136011 0.902335
O O11 0.000000 0.245675 0.000000
O O12 0.750000 0.669476 0.735877
O O13 0.997758 0.625180 0.819064
O O14 0.250000 0.094281 0.803908
O O15 0.425881 0.000000 0.870031
O O16 0.250000 0.394358 0.907119
O O17 0.434840 0.500000 0.887107
O O18 0.500000 0.402884 0.000000
#
# Coordination Sequence:
#
# PCOD9403767 Si02
#       6
#     8   8   8   8   8   8
#     4  12  25  41  63  88 119 156 201 253 305 365
#     4  10  20  36  58  83 113 149 194 250 310 367
#     4  11  23  36  54  79 111 149 193 241 290 350
#     4  11  23  40  62  89 122 158 198 244 298 356
#     4  10  20  34  53  76 104 143 191 241 295 353
#     4  10  21  38  63  97 134 170 207 245 289 344
#
# _framework density 19.161767000000001
#
# number of rings (size 3 to 8) (size 9 to 14) (size 15 to 20)
#    0.000    1.333    1.667    4.500    0.000    7.000 
#    0.000    0.000    0.000    0.500    0.000    0.000 
#    0.000    0.000    0.000    0.000    0.000    0.000 
#
# Total GULP energy -267998.445552 kJ/mol
# GULP energy per Si atom -5583.300949 kJ/mol
# Density = 1.911815 g / cm^3
# Si number density = 19.161767 Si / 1000 Ang^3
#
#
#
# Elastic Constant Matrix: (Units=GPa)
#
#
# Indices 1 2 3 4 5 6 
#
# 1 149.2513 56.3881 60.3343 0.0000 0.0000 0.0000
# 2 56.3881 81.8657 44.5657 0.0000 0.0000 0.0000
# 3 60.3343 44.5657 118.2860 0.0000 0.0000 0.0000
# 4 0.0000 0.0000 0.0000 35.0444 0.0000 0.0000
# 5 0.0000 0.0000 0.0000 0.0000 32.0132 0.0000
# 6 0.0000 0.0000 0.0000 0.0000 0.0000 27.9639
#
#
#
# Elastic Compliance Matrix: (Units=1/GPa)
#
#
# Indices 1 2 3 4 5 6 
#
# 1 0.009894 -0.005117 -0.003119 0.000000 0.000000 0.000000
# 2 -0.005117 0.018013 -0.004177 0.000000 0.000000 0.000000
# 3 -0.003119 -0.004177 0.011618 0.000000 0.000000 0.000000
# 4 0.000000 0.000000 0.000000 0.028535 0.000000 0.000000
# 5 0.000000 0.000000 0.000000 0.000000 0.031237 0.000000
# 6 0.000000 0.000000 0.000000 0.000000 0.000000 0.035760
#
#
# Mechanical properties :
#
#
# Convention : Reuss Voigt Hill
#
# Bulk Modulus (GPa) = 68.02315 74.66435 71.34375
# Shear Modulus (GPa) = 30.34268 31.54530 30.94399
#
# Velocity S-wave (km/s) = 3.98364 4.06182 4.02292
# Velocity P-wave (km/s) = 7.53231 7.81330 7.67409
#
# Compressibility (1/GPa) = 0.01470088
#
# Stress axis : x y z
#
# Youngs Moduli (GPa) = 101.06956 55.51398 86.06975
#
# Poissons Ratio (x) = 0.28408 0.26843
# Poissons Ratio (y) = 0.51719 0.35948
# Poissons Ratio (z) = 0.31521 0.23186
#
# Static dielectric constant tensor:
#      x y z
#    x 1.628790 0.000000 0.000000 
#    y 0.000000 1.676980 0.000000 
#    z 0.000000 0.000000 1.665870 
# 
# From -- ./inp_files/21061.got.cif
#   From: 2010.05.17/outbox.cif.g08.bks.cpg/sg51_11_cif.got.tgz:21061.got - 2010.06.03 11:52:47.
