data_PCOD9403163
_publ_section_title
;
Structure prediction by ZEFSAII (Michael W. Deem and Ramdas Pophale) SiO2 
 PCOD9403163
Probable space group: P M M A
;
_chemical_formula_sum "Si O2"
_cell_formula_units_Z 48
_cell_length_a 7.521521
_cell_length_b 9.407333
_cell_length_c 32.461221
_cell_angle_alpha 90.000000
_cell_angle_beta 90.000000
_cell_angle_gamma 90.000000
_cell_volume 2296.873310
_symmetry_space_group_name_H-M "P M M A"
_symmetry_group_IT_number 51
_symmetry_cell_setting 'orthorhombic'
loop_
_space_group_symop_operation_xyz
x,y,z
1/2-x,-y,z
1/2+x,-y,-z
-x,y,-z
-x,-y,-z
1/2+x,y,-z
1/2-x,y,z
x,-y,z
loop_
_atom_site_type_symbol
_atom_site_label
_atom_site_fract_x
_atom_site_fract_y
_atom_site_fract_z
Si Si1 0.536993 0.661216 0.295323
Si Si2 0.967877 0.836685 0.374817
Si Si3 0.462825 0.662184 0.546207
Si Si4 0.536510 0.161148 0.786731
Si Si5 0.466993 0.333813 0.134145
Si Si6 0.462439 0.336836 0.044254
O O1 0.750000 0.652463 0.299566
O O2 0.467896 0.500000 0.293372
O O3 0.472208 0.746925 0.335239
O O4 0.501008 0.747128 0.253734
O O5 0.750000 0.836748 0.374714
O O6 0.027344 0.761256 0.416941
O O7 0.024478 0.000000 0.372307
O O8 0.500000 0.714416 0.500000
O O9 0.250000 0.654748 0.550414
O O10 0.531790 0.500000 0.549580
O O11 0.750000 0.153520 0.790506
O O12 0.469421 0.240730 0.827655
O O13 0.468998 0.000000 0.782925
O O14 0.250000 0.331744 0.135064
O O15 0.518038 0.500000 0.138341
O O16 0.523381 0.280072 0.088654
O O17 0.250000 0.344207 0.046807
O O18 0.531481 0.500000 0.042265
O O19 0.500000 0.267210 0.000000
#
# Coordination Sequence:
#
# PCOD9403163 Si02
#       6
#     8   8   8   8   8   8
#     4  10  20  34  53  75  97 124 160 199 239 285
#     4   9  17  30  49  71  95 125 159 193 232 281
#     4   9  17  30  48  69  93 122 157 195 233 275
#     4  10  20  33  50  72  97 126 160 197 239 286
#     4   8  14  26  44  64  88 120 155 189 229 279
#     4   8  13  22  38  60  84 111 145 186 230 272
#
# _framework density 20.897974000000001
#
# number of rings (size 3 to 8) (size 9 to 14) (size 15 to 20)
#    0.000    3.000    0.000    2.500    0.000    4.333 
#    0.000    1.667    0.000    6.500    0.000    0.000 
#    0.000    0.000    0.000    0.000    0.000    0.000 
#
# Total GULP energy -267728.620876 kJ/mol
# GULP energy per Si atom -5577.679602 kJ/mol
# Density = 2.085041 g / cm^3
# Si number density = 20.897974 Si / 1000 Ang^3
#
#
#
# Elastic Constant Matrix: (Units=GPa)
#
#
# Indices 1 2 3 4 5 6 
#
# 1 52.3345 6.2301 2.3420 0.0000 0.0000 0.0000
# 2 6.2301 149.8711 132.4513 0.0000 0.0000 0.0000
# 3 2.3420 132.4513 259.4627 0.0000 0.0000 0.0000
# 4 0.0000 0.0000 0.0000 -82.4473 0.0000 0.0000
# 5 0.0000 0.0000 0.0000 0.0000 23.4927 0.0000
# 6 0.0000 0.0000 0.0000 0.0000 0.0000 4.2921
#
#
#
# Elastic Compliance Matrix: (Units=1/GPa)
#
#
# Indices 1 2 3 4 5 6 
#
# 1 0.019229 -0.001177 0.000427 0.000000 0.000000 0.000000
# 2 -0.001177 0.012229 -0.006232 0.000000 0.000000 0.000000
# 3 0.000427 -0.006232 0.007032 0.000000 0.000000 0.000000
# 4 0.000000 0.000000 0.000000 -0.012129 0.000000 0.000000
# 5 0.000000 0.000000 0.000000 0.000000 0.042566 0.000000
# 6 0.000000 0.000000 0.000000 0.000000 0.000000 0.232984
#
#
# Mechanical properties :
#
#
# Convention : Reuss Voigt Hill
#
# Bulk Modulus (GPa) = 40.77310 82.63501 61.70405
# Shear Modulus (GPa) = 15.42972 10.44384 12.93678
#
# Velocity S-wave (km/s) = 2.72018 2.23794 2.49076
# Velocity P-wave (km/s) = 5.42391 6.80484 6.15323
#
# Compressibility (1/GPa) = 0.02452597
#
# Stress axis : x y z
#
# Youngs Moduli (GPa) = 52.00523 81.77240 142.21416
#
# Poissons Ratio (x) = 0.09624 -0.06076
# Poissons Ratio (y) = 0.06120 0.88629
# Poissons Ratio (z) = -0.02222 0.50961
#
# Static dielectric constant tensor:
#      x y z
#    x 1.809020 0.000000 0.000000 
#    y 0.000000 1.719320 0.000000 
#    z 0.000000 0.000000 1.748950 
# 
# From -- ./inp_files/35315.got.cif
#   From: 2010.05.17/outbox.cif.g08.bks.cpg/sg51_18_cif.got.tgz:35315.got - 2010.06.03 11:52:47.
