data_PCOD9403903
_publ_section_title
;
Structure prediction by ZEFSAII (Michael W. Deem and Ramdas Pophale) SiO2 
 PCOD9403903
Probable space group: P M M A
;
_chemical_formula_sum "Si O2"
_cell_formula_units_Z 44
_cell_length_a 9.614730
_cell_length_b 7.547718
_cell_length_c 31.498639
_cell_angle_alpha 90.000000
_cell_angle_beta 90.000000
_cell_angle_gamma 90.000000
_cell_volume 2285.833260
_symmetry_space_group_name_H-M "P M M A"
_symmetry_group_IT_number 51
_symmetry_cell_setting 'orthorhombic'
loop_
_space_group_symop_operation_xyz
x,y,z
1/2-x,-y,z
1/2+x,-y,-z
-x,y,-z
-x,-y,-z
1/2+x,y,-z
1/2-x,y,z
x,-y,z
loop_
_atom_site_type_symbol
_atom_site_label
_atom_site_fract_x
_atom_site_fract_y
_atom_site_fract_z
Si Si1 0.419179 0.702960 0.888712
Si Si2 0.418121 0.000000 0.956127
Si Si3 0.093535 0.711436 0.796579
Si Si4 0.410240 0.783277 0.540768
Si Si5 0.088610 0.216078 0.378904
Si Si6 0.407496 0.212732 0.284396
O O1 0.250000 0.701721 0.886160
O O2 0.465314 0.500000 0.895153
O O3 0.455847 0.830202 0.927273
O O4 0.464695 0.772982 0.842212
O O5 0.250000 0.000000 0.962532
O O6 0.500000 0.000000 0.000000
O O7 0.250000 0.781911 0.790420
O O8 0.103421 0.500000 0.801911
O O9 0.003020 0.743429 0.755213
O O10 0.500000 0.728311 0.500000
O O11 0.250000 0.726345 0.538492
O O12 0.487642 0.724687 0.583670
O O13 0.409501 0.000000 0.540860
O O14 0.250000 0.267725 0.385942
O O15 0.046426 0.273508 0.331363
O O16 0.086958 0.000000 0.379567
O O17 0.250000 0.277537 0.277597
O O18 0.402123 0.000000 0.286723
#
# Coordination Sequence:
#
# PCOD9403903 Si02
#       6
#     8   4   8   8   8   8
#     4   8  16  32  52  74 101 133 170 211 253 301
#     4  10  20  34  54  78 104 136 172 210 257 304
#     4   9  18  32  50  72  95 122 162 205 239 281
#     4   9  15  21  31  48  71 103 144 186 230 280
#     4   8  14  25  37  50  76 111 145 182 226 278
#     4   9  18  30  44  66  95 126 156 191 241 295
#
# _framework density 19.248998
#
# number of rings (size 3 to 8) (size 9 to 14) (size 15 to 20)
#    0.000    3.273    0.000    2.727    1.273    4.000 
#    0.000    2.727    0.000    1.091    0.000    0.000 
#    0.000    0.727    0.000    2.364    0.000    5.273 
#
# Total GULP energy -245256.254669 kJ/mol
# GULP energy per Si atom -5574.005788 kJ/mol
# Density = 1.920519 g / cm^3
# Si number density = 19.248998 Si / 1000 Ang^3
#
#
#
# Elastic Constant Matrix: (Units=GPa)
#
#
# Indices 1 2 3 4 5 6 
#
# 1 89.0176 19.6028 109.4547 0.0000 0.0000 0.0000
# 2 19.6028 58.6968 41.2030 0.0000 0.0000 0.0000
# 3 109.4547 41.2030 236.4346 0.0000 0.0000 0.0000
# 4 0.0000 0.0000 0.0000 122.2852 0.0000 0.0000
# 5 0.0000 0.0000 0.0000 0.0000 40.5556 0.0000
# 6 0.0000 0.0000 0.0000 0.0000 0.0000 -5.2798
#
#
#
# Elastic Compliance Matrix: (Units=1/GPa)
#
#
# Indices 1 2 3 4 5 6 
#
# 1 0.026081 -0.000267 -0.012027 0.000000 0.000000 0.000000
# 2 -0.000267 0.019414 -0.003259 0.000000 0.000000 0.000000
# 3 -0.012027 -0.003259 0.010365 0.000000 0.000000 0.000000
# 4 0.000000 0.000000 0.000000 0.008178 0.000000 0.000000
# 5 0.000000 0.000000 0.000000 0.000000 0.024657 0.000000
# 6 0.000000 0.000000 0.000000 0.000000 0.000000 -0.189403
#
#
# Mechanical properties :
#
#
# Convention : Reuss Voigt Hill
#
# Bulk Modulus (GPa) = 40.40049 80.51889 60.45969
# Shear Modulus (GPa) = -81.50326 45.77145 -17.86591
#
# Velocity S-wave (km/s) = -6.51410 4.88162 -3.04986
# Velocity P-wave (km/s) = 5.96188 8.58456 4.36753
#
# Compressibility (1/GPa) = 0.02475217
#
# Stress axis : x y z
#
# Youngs Moduli (GPa) = 38.34145 51.50919 96.47390
#
# Poissons Ratio (x) = 0.01378 1.16034
# Poissons Ratio (y) = 0.01026 0.31445
# Poissons Ratio (z) = 0.46115 0.16789
#
# Static dielectric constant tensor:
#      x y z
#    x 1.647260 0.000000 0.000000 
#    y 0.000000 1.825670 0.000000 
#    z 0.000000 0.000000 1.673310 
# 
# From -- ./inp_files/36722.got.cif
#   From: 2010.05.17/outbox.cif.g08.bks.cpg/sg51_19_cif.got.tgz:36722.got - 2010.06.03 11:52:47.
