data_PCOD9403214
_publ_section_title
;
Structure prediction by ZEFSAII (Michael W. Deem and Ramdas Pophale) SiO2 
 PCOD9403214
Probable space group: P M M A
;
_chemical_formula_sum "Si O2"
_cell_formula_units_Z 48
_cell_length_a 9.363084
_cell_length_b 14.658666
_cell_length_c 16.019568
_cell_angle_alpha 90.000000
_cell_angle_beta 90.000000
_cell_angle_gamma 90.000000
_cell_volume 2198.690852
_symmetry_space_group_name_H-M "P M M A"
_symmetry_group_IT_number 51
_symmetry_cell_setting 'orthorhombic'
loop_
_space_group_symop_operation_xyz
x,y,z
1/2-x,-y,z
1/2+x,-y,-z
-x,y,-z
-x,-y,-z
1/2+x,y,-z
1/2-x,y,z
x,-y,z
loop_
_atom_site_type_symbol
_atom_site_label
_atom_site_fract_x
_atom_site_fract_y
_atom_site_fract_z
Si Si1 0.912946 0.890714 0.251617
Si Si2 0.588442 0.358750 0.922105
Si Si3 0.588277 0.611755 0.418848
Si Si4 0.911475 0.391404 0.738853
Si Si5 0.084933 0.888415 0.416319
Si Si6 0.913531 0.859317 0.919058
O O1 0.750000 0.854364 0.247853
O O2 0.001283 0.859073 0.332735
O O3 0.999801 0.874646 0.166249
O O4 0.902047 0.000000 0.260282
O O5 0.750000 0.394849 0.922435
O O6 0.525860 0.377401 0.830794
O O7 0.596155 0.249734 0.929704
O O8 0.500000 0.394101 0.000000
O O9 0.500000 0.638566 0.500000
O O10 0.750000 0.644185 0.422839
O O11 0.591804 0.500000 0.418034
O O12 0.508899 0.642949 0.335519
O O13 0.750000 0.352434 0.736751
O O14 0.899007 0.500000 0.726704
O O15 0.250000 0.857743 0.416849
O O16 0.000000 0.861491 0.500000
O O17 0.087732 0.000000 0.415825
O O18 0.750000 0.893524 0.914497
O O19 0.000000 0.894262 0.000000
#
# Coordination Sequence:
#
# PCOD9403214 Si02
#       6
#     8   8   8   8   8   8
#     4  10  20  33  50  74 101 127 159 200 243 286
#     4   9  19  34  51  71  95 126 162 198 237 284
#     4   9  16  26  42  66  95 126 159 194 234 281
#     4   9  17  30  48  71  99 128 158 195 238 280
#     4   9  16  27  45  70 100 132 163 195 234 281
#     4  10  20  35  53  71  94 126 163 200 240 289
#
# _framework density 21.831174000000001
#
# number of rings (size 3 to 8) (size 9 to 14) (size 15 to 20)
#    0.000    2.667    0.000    2.000    0.000    7.000 
#    0.000    0.000    0.000    1.000    0.000    4.667 
#    0.000    0.000    0.000    0.000    0.000    0.000 
#
# Total GULP energy -268115.107793 kJ/mol
# GULP energy per Si atom -5585.731412 kJ/mol
# Density = 2.178149 g / cm^3
# Si number density = 21.831174 Si / 1000 Ang^3
#
#
#
# Elastic Constant Matrix: (Units=GPa)
#
#
# Indices 1 2 3 4 5 6 
#
# 1 203.4055 7.1931 152.8950 0.0000 0.0000 0.0000
# 2 7.1931 57.5874 -3.5445 0.0000 0.0000 0.0000
# 3 152.8950 -3.5445 264.9108 0.0000 0.0000 0.0000
# 4 0.0000 0.0000 0.0000 27.3681 0.0000 0.0000
# 5 0.0000 0.0000 0.0000 0.0000 31.0227 0.0000
# 6 0.0000 0.0000 0.0000 0.0000 0.0000 11.3155
#
#
#
# Elastic Compliance Matrix: (Units=1/GPa)
#
#
# Indices 1 2 3 4 5 6 
#
# 1 0.008797 -0.001412 -0.005096 0.000000 0.000000 0.000000
# 2 -0.001412 0.017606 0.001051 0.000000 0.000000 0.000000
# 3 -0.005096 0.001051 0.006730 0.000000 0.000000 0.000000
# 4 0.000000 0.000000 0.000000 0.036539 0.000000 0.000000
# 5 0.000000 0.000000 0.000000 0.000000 0.032234 0.000000
# 6 0.000000 0.000000 0.000000 0.000000 0.000000 0.088375
#
#
# Mechanical properties :
#
#
# Convention : Reuss Voigt Hill
#
# Bulk Modulus (GPa) = 45.00954 93.22124 69.11539
# Shear Modulus (GPa) = 23.96907 38.56525 31.26716
#
# Velocity S-wave (km/s) = 3.31710 4.20756 3.78858
# Velocity P-wave (km/s) = 5.94413 8.14852 7.13201
#
# Compressibility (1/GPa) = 0.02221751
#
# Stress axis : x y z
#
# Youngs Moduli (GPa) = 113.67776 56.79881 148.58577
#
# Poissons Ratio (x) = 0.08023 0.75720
# Poissons Ratio (y) = 0.16056 -0.15613
# Poissons Ratio (z) = 0.57930 -0.05968
#
# Static dielectric constant tensor:
#      x y z
#    x 1.776140 0.000000 0.000000 
#    y 0.000000 1.840990 0.000000 
#    z 0.000000 0.000000 1.756640 
# 
# From -- ./inp_files/14459.got.cif
#   From: 2010.05.17/outbox.cif.g08.bks.cpg/sg51_8_cif.got.tgz:14459.got - 2010.06.03 11:52:47.
