data_PCOD9403772
_publ_section_title
;
Structure prediction by ZEFSAII (Michael W. Deem and Ramdas Pophale) SiO2 
 PCOD9403772
Probable space group: P M M A
;
_chemical_formula_sum "Si O2"
_cell_formula_units_Z 48
_cell_length_a 14.573909
_cell_length_b 19.272719
_cell_length_c 8.696268
_cell_angle_alpha 90.000000
_cell_angle_beta 90.000000
_cell_angle_gamma 90.000000
_cell_volume 2442.597780
_symmetry_space_group_name_H-M "P M M A"
_symmetry_group_IT_number 51
_symmetry_cell_setting 'orthorhombic'
loop_
_space_group_symop_operation_xyz
x,y,z
1/2-x,-y,z
1/2+x,-y,-z
-x,y,-z
-x,-y,-z
1/2+x,y,-z
1/2-x,y,z
x,-y,z
loop_
_atom_site_type_symbol
_atom_site_label
_atom_site_fract_x
_atom_site_fract_y
_atom_site_fract_z
Si Si1 0.644069 0.197858 0.343422
Si Si2 0.152145 0.697699 0.375999
Si Si3 0.096072 0.421974 0.592138
Si Si4 0.470068 0.688134 0.824413
Si Si5 0.967402 0.918056 0.241795
Si Si6 0.854089 0.083299 0.923769
O O1 0.750000 0.183136 0.304160
O O2 0.642729 0.241591 0.499539
O O3 0.595520 0.246778 0.215478
O O4 0.584447 0.128919 0.363200
O O5 0.250000 0.703850 0.293683
O O6 0.152210 0.627990 0.479479
O O7 0.064026 0.697942 0.269871
O O8 0.130854 0.500000 0.615467
O O9 0.078191 0.379827 0.749856
O O10 0.000000 0.426884 0.500000
O O11 0.500000 0.681959 0.000000
O O12 0.069727 0.892441 0.198922
O O13 0.969693 0.000000 0.276449
O O14 0.903387 0.908342 0.089051
O O15 0.750000 0.110996 0.915561
O O16 0.848390 0.000000 0.902487
#
# Coordination Sequence:
#
# PCOD9403772 Si02
#       6
#     8   8   8   8   8   8
#     4  10  20  34  53  76 107 146 188 234 284 343
#     4   9  19  37  58  79 108 147 186 224 271 333
#     4   8  15  31  55  82 113 149 184 217 260 317
#     4  10  21  35  55  82 112 146 186 234 279 328
#     4   9  17  28  46  74 105 141 188 238 287 342
#     4   8  14  25  41  65 104 146 177 218 281 344
#
# _framework density 19.651208
#
# number of rings (size 3 to 8) (size 9 to 14) (size 15 to 20)
#    0.000    3.000    0.000    3.000    2.333    2.333 
#    0.000    0.833    0.000    3.000    0.000    4.667 
#    0.000    2.667    0.000    0.000    0.000    0.000 
#
# Total GULP energy -267619.787522 kJ/mol
# GULP energy per Si atom -5575.412240 kJ/mol
# Density = 1.960648 g / cm^3
# Si number density = 19.651208 Si / 1000 Ang^3
#
#
#
# Elastic Constant Matrix: (Units=GPa)
#
#
# Indices 1 2 3 4 5 6 
#
# 1 150.5545 34.6869 23.1302 0.0000 0.0000 0.0000
# 2 34.6869 85.7203 11.1484 0.0000 0.0000 0.0000
# 3 23.1302 11.1484 50.4037 0.0000 0.0000 0.0000
# 4 0.0000 0.0000 0.0000 9.6736 0.0000 0.0000
# 5 0.0000 0.0000 0.0000 0.0000 14.3832 0.0000
# 6 0.0000 0.0000 0.0000 0.0000 0.0000 4.3435
#
#
#
# Elastic Compliance Matrix: (Units=1/GPa)
#
#
# Indices 1 2 3 4 5 6 
#
# 1 0.007726 -0.002744 -0.002938 0.000000 0.000000 0.000000
# 2 -0.002744 0.012986 -0.001613 0.000000 0.000000 0.000000
# 3 -0.002938 -0.001613 0.021545 0.000000 0.000000 0.000000
# 4 0.000000 0.000000 0.000000 0.103374 0.000000 0.000000
# 5 0.000000 0.000000 0.000000 0.000000 0.069526 0.000000
# 6 0.000000 0.000000 0.000000 0.000000 0.000000 0.230230
#
#
# Mechanical properties :
#
#
# Convention : Reuss Voigt Hill
#
# Bulk Modulus (GPa) = 36.14574 47.17886 41.66230
# Shear Modulus (GPa) = 10.65643 20.19423 15.42533
#
# Velocity S-wave (km/s) = 2.33121 3.20915 2.80475
# Velocity P-wave (km/s) = 5.06751 6.14750 5.63345
#
# Compressibility (1/GPa) = 0.02766578
#
# Stress axis : x y z
#
# Youngs Moduli (GPa) = 129.43678 77.00582 46.41441
#
# Poissons Ratio (x) = 0.21131 0.13638
# Poissons Ratio (y) = 0.35519 0.07487
# Poissons Ratio (z) = 0.38034 0.12421
#
# Static dielectric constant tensor:
#      x y z
#    x 1.710090 0.000000 0.000000 
#    y 0.000000 1.716240 0.000000 
#    z 0.000000 0.000000 1.690670 
# 
# From -- ./inp_files/8428.got.cif
#   From: 2010.05.17/outbox.cif.g08.bks.cpg/sg51_5_cif.got.tgz:8428.got - 2010.06.03 11:52:47.
