data_PCOD9403360
_publ_section_title
;
Structure prediction by ZEFSAII (Michael W. Deem and Ramdas Pophale) SiO2 
 PCOD9403360
Probable space group: P M M A
;
_chemical_formula_sum "Si O2"
_cell_formula_units_Z 48
_cell_length_a 16.784526
_cell_length_b 8.978450
_cell_length_c 18.702912
_cell_angle_alpha 90.000000
_cell_angle_beta 90.000000
_cell_angle_gamma 90.000000
_cell_volume 2818.510649
_symmetry_space_group_name_H-M "P M M A"
_symmetry_group_IT_number 51
_symmetry_cell_setting 'orthorhombic'
loop_
_space_group_symop_operation_xyz
x,y,z
1/2-x,-y,z
1/2+x,-y,-z
-x,y,-z
-x,-y,-z
1/2+x,y,-z
1/2-x,y,z
x,-y,z
loop_
_atom_site_type_symbol
_atom_site_label
_atom_site_fract_x
_atom_site_fract_y
_atom_site_fract_z
Si Si1 0.579757 0.170053 0.049097
Si Si2 0.415625 0.829883 0.457522
Si Si3 0.010131 0.677122 0.171511
Si Si4 0.158683 0.676902 0.586750
Si Si5 0.515258 0.820660 0.325608
Si Si6 0.840353 0.820555 0.907956
O O1 0.558798 0.271756 0.116104
O O2 0.594766 0.000000 0.072840
O O3 0.500000 0.167880 0.000000
O O4 0.646067 0.217451 0.991832
O O5 0.500000 0.832979 0.500000
O O6 0.359355 0.728282 0.505467
O O7 0.441516 0.780362 0.378469
O O8 0.385462 0.000000 0.455516
O O9 0.012344 0.500000 0.176937
O O10 0.092894 0.738717 0.138415
O O11 0.995786 0.751529 0.248020
O O12 0.250000 0.712195 0.605037
O O13 0.146587 0.500000 0.592711
O O14 0.095536 0.759880 0.637297
O O15 0.518292 0.000000 0.322930
O O16 0.750000 0.787181 0.886441
O O17 0.853070 0.000000 0.902534
#
# Coordination Sequence:
#
# PCOD9403360 Si02
#       6
#     8   8   8   8   8   8
#     4   8  15  30  51  72  95 127 166 203 240 292
#     4   8  16  31  51  73  94 123 166 206 239 286
#     4  11  21  32  50  76 105 136 168 207 257 307
#     4  10  20  33  51  77 106 132 161 204 257 306
#     4  10  20  35  54  74  99 135 176 212 247 295
#     4   9  18  34  55  76  99 130 169 211 252 298
#
# _framework density 17.030272
#
# number of rings (size 3 to 8) (size 9 to 14) (size 15 to 20)
#    0.000    2.667    0.000    4.500    0.000    8.333 
#    0.000    1.667    0.000    4.000    0.000    0.000 
#    0.000    0.000    0.000    0.000    0.000    0.000 
#
# Total GULP energy -267460.932113 kJ/mol
# GULP energy per Si atom -5572.102752 kJ/mol
# Density = 1.699151 g / cm^3
# Si number density = 17.030272 Si / 1000 Ang^3
#
#
#
# Elastic Constant Matrix: (Units=GPa)
#
#
# Indices 1 2 3 4 5 6 
#
# 1 72.4166 45.8054 43.6593 0.0000 0.0000 0.0000
# 2 45.8054 79.6267 63.3622 0.0000 0.0000 0.0000
# 3 43.6593 63.3622 134.2351 0.0000 0.0000 0.0000
# 4 0.0000 0.0000 0.0000 10.3904 0.0000 0.0000
# 5 0.0000 0.0000 0.0000 0.0000 16.2312 0.0000
# 6 0.0000 0.0000 0.0000 0.0000 0.0000 22.1530
#
#
#
# Elastic Compliance Matrix: (Units=1/GPa)
#
#
# Indices 1 2 3 4 5 6 
#
# 1 0.022004 -0.011152 -0.001893 0.000000 0.000000 0.000000
# 2 -0.011152 0.025765 -0.008535 0.000000 0.000000 0.000000
# 3 -0.001893 -0.008535 0.012094 0.000000 0.000000 0.000000
# 4 0.000000 0.000000 0.000000 0.096243 0.000000 0.000000
# 5 0.000000 0.000000 0.000000 0.000000 0.061610 0.000000
# 6 0.000000 0.000000 0.000000 0.000000 0.000000 0.045141
#
#
# Mechanical properties :
#
#
# Convention : Reuss Voigt Hill
#
# Bulk Modulus (GPa) = 59.86424 65.77023 62.81724
# Shear Modulus (GPa) = 16.04714 18.65170 17.34942
#
# Velocity S-wave (km/s) = 3.07297 3.31298 3.19523
# Velocity P-wave (km/s) = 6.91512 7.30328 7.11185
#
# Compressibility (1/GPa) = 0.01670446
#
# Stress axis : x y z
#
# Youngs Moduli (GPa) = 45.44675 38.81243 82.68681
#
# Poissons Ratio (x) = 0.43282 0.15651
# Poissons Ratio (y) = 0.50680 0.70571
# Poissons Ratio (z) = 0.08602 0.33125
#
# Static dielectric constant tensor:
#      x y z
#    x 1.583890 0.000000 0.000000 
#    y 0.000000 1.567750 0.000000 
#    z 0.000000 0.000000 1.582900 
# 
# From -- ./inp_files/30044.got.cif
#   From: 2010.05.17/outbox.cif.g08.bks.cpg/sg51_16_cif.got.tgz:30044.got - 2010.06.03 11:52:47.
