data_PCOD9403629
_publ_section_title
;
Structure prediction by ZEFSAII (Michael W. Deem and Ramdas Pophale) SiO2 
 PCOD9403629
Probable space group: P M M A
;
_chemical_formula_sum "Si O2"
_cell_formula_units_Z 32
_cell_length_a 8.096331
_cell_length_b 7.363269
_cell_length_c 24.383243
_cell_angle_alpha 90.000000
_cell_angle_beta 90.000000
_cell_angle_gamma 90.000000
_cell_volume 1453.618322
_symmetry_space_group_name_H-M "P M M A"
_symmetry_group_IT_number 51
_symmetry_cell_setting 'orthorhombic'
loop_
_space_group_symop_operation_xyz
x,y,z
1/2-x,-y,z
1/2+x,-y,-z
-x,y,-z
-x,-y,-z
1/2+x,y,-z
1/2-x,y,z
x,-y,z
loop_
_atom_site_type_symbol
_atom_site_label
_atom_site_fract_x
_atom_site_fract_y
_atom_site_fract_z
Si Si1 0.250000 0.278648 0.865850
Si Si2 0.750000 0.277391 0.260815
Si Si3 0.927835 0.712827 0.676532
Si Si4 0.062332 0.780804 0.559288
Si Si5 0.439662 0.721225 0.060847
O O1 0.250000 0.500000 0.867506
O O2 0.250000 0.224342 0.802541
O O3 0.417595 0.220703 0.896895
O O4 0.750000 0.500000 0.262873
O O5 0.587056 0.212549 0.292493
O O6 0.750000 0.792100 0.691207
O O7 0.922797 0.500000 0.690422
O O8 0.955194 0.726361 0.611333
O O9 0.250000 0.719490 0.568416
O O10 0.000000 0.717967 0.500000
O O11 0.061746 0.000000 0.557871
O O12 0.250000 0.779956 0.071049
O O13 0.437015 0.500000 0.061946
O O14 0.500000 0.773795 0.000000
#
# Coordination Sequence:
#
# PCOD9403629 Si02
#       5
#     4   4   8   8   8
#     4   9  16  24  36  53  75 109 148 193 240 274
#     4   9  18  32  45  61  89 121 162 207 238 280
#     4  10  20  34  52  71  95 130 166 200 241 289
#     4  10  20  34  53  77 102 126 156 198 247 295
#     4   9  14  20  31  48  72 102 140 188 238 281
#
# _framework density 22.014033000000001
#
# number of rings (size 3 to 8) (size 9 to 14) (size 15 to 20)
#    0.000    2.500    2.500    0.750    0.000    3.000 
#    0.000    5.000    0.000    0.000    0.000    0.000 
#    0.000    0.000    0.000    0.000    0.000    5.000 
#
# Total GULP energy -178766.547335 kJ/mol
# GULP energy per Si atom -5586.454604 kJ/mol
# Density = 2.196393 g / cm^3
# Si number density = 22.014033 Si / 1000 Ang^3
#
#
#
# Elastic Constant Matrix: (Units=GPa)
#
#
# Indices 1 2 3 4 5 6 
#
# 1 256.3647 10.5436 112.2184 0.0000 0.0000 0.0000
# 2 10.5436 80.9252 -3.8285 0.0000 0.0000 0.0000
# 3 112.2184 -3.8285 162.0944 0.0000 0.0000 0.0000
# 4 0.0000 0.0000 0.0000 6.7065 0.0000 0.0000
# 5 0.0000 0.0000 0.0000 0.0000 31.2124 0.0000
# 6 0.0000 0.0000 0.0000 0.0000 0.0000 -20.9048
#
#
#
# Elastic Compliance Matrix: (Units=1/GPa)
#
#
# Indices 1 2 3 4 5 6 
#
# 1 0.005665 -0.000925 -0.003944 0.000000 0.000000 0.000000
# 2 -0.000925 0.012522 0.000936 0.000000 0.000000 0.000000
# 3 -0.003944 0.000936 0.008922 0.000000 0.000000 0.000000
# 4 0.000000 0.000000 0.000000 0.149109 0.000000 0.000000
# 5 0.000000 0.000000 0.000000 0.000000 0.032039 0.000000
# 6 0.000000 0.000000 0.000000 0.000000 0.000000 -0.047836
#
#
# Mechanical properties :
#
#
# Convention : Reuss Voigt Hill
#
# Bulk Modulus (GPa) = 51.96574 81.91680 66.94127
# Shear Modulus (GPa) = 28.62051 28.76621 28.69336
#
# Velocity S-wave (km/s) = 3.60961 3.61878 3.61420
# Velocity P-wave (km/s) = 6.40541 7.39951 6.92033
#
# Compressibility (1/GPa) = 0.01924345
#
# Stress axis : x y z
#
# Youngs Moduli (GPa) = 176.52204 79.86051 112.08734
#
# Poissons Ratio (x) = 0.07384 0.44204
# Poissons Ratio (y) = 0.16322 -0.10490
# Poissons Ratio (z) = 0.69616 -0.07474
#
# Static dielectric constant tensor:
#      x y z
#    x 1.798890 0.000000 0.000000 
#    y 0.000000 1.846110 0.000000 
#    z 0.000000 0.000000 1.740730 
# 
# From -- ./inp_files/34267.got.cif
#   From: 2010.05.17/outbox.cif.g08.bks.cpg/sg51_18_cif.got.tgz:34267.got - 2010.06.03 11:52:47.
