data_PCOD9403346
_publ_section_title
;
Structure prediction by ZEFSAII (Michael W. Deem and Ramdas Pophale) SiO2 
 PCOD9403346
Probable space group: P M M A
;
_chemical_formula_sum "Si O2"
_cell_formula_units_Z 64
_cell_length_a 14.956519
_cell_length_b 9.592904
_cell_length_c 20.990974
_cell_angle_alpha 90.000000
_cell_angle_beta 90.000000
_cell_angle_gamma 90.000000
_cell_volume 3011.710451
_symmetry_space_group_name_H-M "P M M A"
_symmetry_group_IT_number 51
_symmetry_cell_setting 'orthorhombic'
loop_
_space_group_symop_operation_xyz
x,y,z
1/2-x,-y,z
1/2+x,-y,-z
-x,y,-z
-x,-y,-z
1/2+x,y,-z
1/2-x,y,z
x,-y,z
loop_
_atom_site_type_symbol
_atom_site_label
_atom_site_fract_x
_atom_site_fract_y
_atom_site_fract_z
Si Si1 0.858210 0.660230 0.150343
Si Si2 0.145000 0.845422 0.587783
Si Si3 0.640587 0.160404 0.030174
Si Si4 0.858389 0.659163 0.527276
Si Si5 0.859658 0.339540 0.907172
Si Si6 0.605299 0.341572 0.671837
Si Si7 0.854297 0.156432 0.789962
Si Si8 0.102298 0.342400 0.705621
O O1 0.750000 0.659083 0.148388
O O2 0.888115 0.500000 0.139961
O O3 0.889099 0.762194 0.094518
O O4 0.884759 0.703147 0.221632
O O5 0.250000 0.859705 0.573364
O O6 0.106536 0.755301 0.529569
O O7 0.140189 0.762157 0.653628
O O8 0.105252 0.000000 0.592797
O O9 0.750000 0.159124 0.030417
O O10 0.611287 0.000000 0.026523
O O11 0.613633 0.250863 0.968929
O O12 0.750000 0.657267 0.524812
O O13 0.889107 0.500000 0.517790
O O14 0.883353 0.702864 0.598732
O O15 0.750000 0.343547 0.906526
O O16 0.889406 0.500000 0.909221
O O17 0.892134 0.259922 0.843761
O O18 0.642801 0.500000 0.678145
O O19 0.643217 0.232256 0.722029
O O20 0.501719 0.350018 0.689348
O O21 0.750000 0.141587 0.807011
O O22 0.893522 0.000000 0.789023
O O23 0.140069 0.500000 0.699677
#
# Coordination Sequence:
#
# PCOD9403346 Si02
#       8
#     8   8   8   8   8   8   8   8
#     4   9  17  30  49  72  98 131 170 208 249 301
#     4  10  21  36  55  79 105 133 168 211 257 306
#     4   9  16  26  43  70 102 131 162 206 257 304
#     4   9  18  34  56  78 101 132 169 209 253 303
#     4   9  16  27  46  72 101 132 167 209 255 303
#     4  10  21  36  54  77 104 136 175 215 255 302
#     4  10  20  33  51  76 105 137 172 211 257 307
#     4  10  21  36  54  76 104 138 174 213 256 304
#
# _framework density 21.250381000000001
#
# number of rings (size 3 to 8) (size 9 to 14) (size 15 to 20)
#    0.000    2.500    0.000    2.250    0.000    7.500 
#    0.000    5.000    0.000    0.750    0.000    5.250 
#    0.000    0.000    0.000    0.000    0.000    0.000 
#
# Total GULP energy -357399.691824 kJ/mol
# GULP energy per Si atom -5584.370185 kJ/mol
# Density = 2.120201 g / cm^3
# Si number density = 21.250381 Si / 1000 Ang^3
#
#
#
# Elastic Constant Matrix: (Units=GPa)
#
#
# Indices 1 2 3 4 5 6 
#
# 1 30.7443 1.3986 0.6495 0.0000 0.0000 0.0000
# 2 1.3986 179.0494 137.8117 0.0000 0.0000 0.0000
# 3 0.6495 137.8117 183.5307 0.0000 0.0000 0.0000
# 4 0.0000 0.0000 0.0000 -10.7132 0.0000 0.0000
# 5 0.0000 0.0000 0.0000 0.0000 10.0078 0.0000
# 6 0.0000 0.0000 0.0000 0.0000 0.0000 -2.3368
#
#
#
# Elastic Compliance Matrix: (Units=1/GPa)
#
#
# Indices 1 2 3 4 5 6 
#
# 1 0.032540 -0.000392 0.000179 0.000000 0.000000 0.000000
# 2 -0.000392 0.013238 -0.009939 0.000000 0.000000 0.000000
# 3 0.000179 -0.009939 0.012911 0.000000 0.000000 0.000000
# 4 0.000000 0.000000 0.000000 -0.093343 0.000000 0.000000
# 5 0.000000 0.000000 0.000000 0.000000 0.099922 0.000000
# 6 0.000000 0.000000 0.000000 0.000000 0.000000 -0.427930
#
#
# Mechanical properties :
#
#
# Convention : Reuss Voigt Hill
#
# Bulk Modulus (GPa) = 26.05122 74.78268 50.41695
# Shear Modulus (GPa) = -15.17163 16.28920 0.55879
#
# Velocity S-wave (km/s) = -2.67488 2.77164 0.51335
# Velocity P-wave (km/s) = 1.65706 6.74613 4.91203
#
# Compressibility (1/GPa) = 0.03838592
#
# Stress axis : x y z
#
# Youngs Moduli (GPa) = 30.73103 75.54072 77.45309
#
# Poissons Ratio (x) = 0.02963 -0.01389
# Poissons Ratio (y) = 0.01205 0.76979
# Poissons Ratio (z) = -0.00551 0.75079
#
# Static dielectric constant tensor:
#      x y z
#    x 1.752840 0.000000 0.000000 
#    y 0.000000 1.769730 0.000000 
#    z 0.000000 0.000000 1.724030 
# 
# From -- ./inp_files/30523.got.cif
#   From: 2010.05.17/outbox.cif.g08.bks.cpg/sg51_16_cif.got.tgz:30523.got - 2010.06.03 11:52:47.
