data_PCOD9403442
_publ_section_title
;
Structure prediction by ZEFSAII (Michael W. Deem and Ramdas Pophale) SiO2 
 PCOD9403442
Probable space group: P M M A
;
_chemical_formula_sum "Si O2"
_cell_formula_units_Z 48
_cell_length_a 7.995390
_cell_length_b 9.616383
_cell_length_c 31.974515
_cell_angle_alpha 90.000000
_cell_angle_beta 90.000000
_cell_angle_gamma 90.000000
_cell_volume 2458.415981
_symmetry_space_group_name_H-M "P M M A"
_symmetry_group_IT_number 51
_symmetry_cell_setting 'orthorhombic'
loop_
_space_group_symop_operation_xyz
x,y,z
1/2-x,-y,z
1/2+x,-y,-z
-x,y,-z
-x,-y,-z
1/2+x,y,-z
1/2-x,y,z
x,-y,z
loop_
_atom_site_type_symbol
_atom_site_label
_atom_site_fract_x
_atom_site_fract_y
_atom_site_fract_z
Si Si1 0.954128 0.661075 0.716802
Si Si2 0.048787 0.658050 0.376737
Si Si3 0.551344 0.842700 0.454908
Si Si4 0.451577 0.159078 0.953076
Si Si5 0.047942 0.658852 0.875297
Si Si6 0.047909 0.159021 0.204762
O O1 0.750000 0.662878 0.717317
O O2 0.003407 0.500000 0.724214
O O3 0.007959 0.701875 0.669837
O O4 0.012359 0.762842 0.753326
O O5 0.250000 0.654254 0.375197
O O6 0.989010 0.500000 0.383679
O O7 0.000488 0.755078 0.414876
O O8 0.500000 0.782409 0.500000
O O9 0.750000 0.851220 0.454803
O O10 0.480525 0.000000 0.452471
O O11 0.250000 0.156001 0.950940
O O12 0.512495 0.262557 0.917113
O O13 0.511866 0.000000 0.946259
O O14 0.500000 0.201129 0.000000
O O15 0.250000 0.654041 0.877202
O O16 0.986704 0.500000 0.872261
O O17 0.000294 0.749939 0.835246
O O18 0.250000 0.154687 0.206628
O O19 0.987266 0.000000 0.201697
#
# Coordination Sequence:
#
# PCOD9403442 Si02
#       6
#     8   8   8   8   8   8
#     4   8  15  30  51  74 102 134 167 205 249 297
#     4   9  18  33  54  79 104 132 167 206 251 303
#     4  10  21  36  53  74 101 134 172 212 254 300
#     4   9  18  33  52  73  99 131 166 206 252 301
#     4  10  21  36  53  74 102 137 174 210 252 302
#     4  10  20  33  52  79 106 133 170 213 254 299
#
# _framework density 19.524768000000002
#
# number of rings (size 3 to 8) (size 9 to 14) (size 15 to 20)
#    0.000    2.667    0.000    2.500    0.000    5.333 
#    0.000    4.167    0.000    1.000    0.000    0.000 
#    0.000    0.000    0.000    0.000    0.000    0.000 
#
# Total GULP energy -267801.226748 kJ/mol
# GULP energy per Si atom -5579.192224 kJ/mol
# Density = 1.948033 g / cm^3
# Si number density = 19.524768 Si / 1000 Ang^3
#
#
#
# Elastic Constant Matrix: (Units=GPa)
#
#
# Indices 1 2 3 4 5 6 
#
# 1 13.6006 11.0932 10.3918 0.0000 0.0000 0.0000
# 2 11.0932 146.4007 138.1734 0.0000 0.0000 0.0000
# 3 10.3918 138.1734 216.7220 0.0000 0.0000 0.0000
# 4 0.0000 0.0000 0.0000 47.7464 0.0000 0.0000
# 5 0.0000 0.0000 0.0000 0.0000 27.1634 0.0000
# 6 0.0000 0.0000 0.0000 0.0000 0.0000 19.3016
#
#
#
# Elastic Compliance Matrix: (Units=1/GPa)
#
#
# Indices 1 2 3 4 5 6 
#
# 1 0.078370 -0.006005 0.000071 0.000000 0.000000 0.000000
# 2 -0.006005 0.017611 -0.010940 0.000000 0.000000 0.000000
# 3 0.000071 -0.010940 0.011586 0.000000 0.000000 0.000000
# 4 0.000000 0.000000 0.000000 0.020944 0.000000 0.000000
# 5 0.000000 0.000000 0.000000 0.000000 0.036814 0.000000
# 6 0.000000 0.000000 0.000000 0.000000 0.000000 0.051809
#
#
# Mechanical properties :
#
#
# Convention : Reuss Voigt Hill
#
# Bulk Modulus (GPa) = 13.54680 77.33778 45.44229
# Shear Modulus (GPa) = 18.14954 33.31328 25.73141
#
# Velocity S-wave (km/s) = 3.05218 4.13511 3.63421
# Velocity P-wave (km/s) = 4.40164 7.90537 6.39802
#
# Compressibility (1/GPa) = 0.07381819
#
# Stress axis : x y z
#
# Youngs Moduli (GPa) = 12.75992 56.78339 86.31314
#
# Poissons Ratio (x) = 0.34099 -0.00611
# Poissons Ratio (y) = 0.07663 0.94427
# Poissons Ratio (z) = -0.00090 0.62121
#
# Static dielectric constant tensor:
#      x y z
#    x 1.709590 0.000000 0.000000 
#    y 0.000000 1.685750 0.000000 
#    z 0.000000 0.000000 1.665500 
# 
# From -- ./inp_files/36913.got.cif
#   From: 2010.05.17/outbox.cif.g08.bks.cpg/sg51_19_cif.got.tgz:36913.got - 2010.06.03 11:52:47.
