data_PCOD9403150
_publ_section_title
;
Structure prediction by ZEFSAII (Michael W. Deem and Ramdas Pophale) SiO2 
 PCOD9403150
Probable space group: P M M A
;
_chemical_formula_sum "Si O2"
_cell_formula_units_Z 48
_cell_length_a 9.422973
_cell_length_b 14.889087
_cell_length_c 18.740833
_cell_angle_alpha 90.000000
_cell_angle_beta 90.000000
_cell_angle_gamma 90.000000
_cell_volume 2629.328840
_symmetry_space_group_name_H-M "P M M A"
_symmetry_group_IT_number 51
_symmetry_cell_setting 'orthorhombic'
loop_
_space_group_symop_operation_xyz
x,y,z
1/2-x,-y,z
1/2+x,-y,-z
-x,y,-z
-x,-y,-z
1/2+x,y,-z
1/2-x,y,z
x,-y,z
loop_
_atom_site_type_symbol
_atom_site_label
_atom_site_fract_x
_atom_site_fract_y
_atom_site_fract_z
Si Si1 0.908716 0.139341 0.434013
Si Si2 0.917608 0.395316 0.718524
Si Si3 0.913677 0.238230 0.822068
Si Si4 0.420353 0.103426 0.924076
Si Si5 0.585033 0.643589 0.428756
Si Si6 0.597019 0.902059 0.695237
O O1 0.750000 0.109361 0.442622
O O2 0.912878 0.247961 0.432210
O O3 0.000000 0.107990 0.500000
O O4 0.974086 0.106808 0.360842
O O5 0.750000 0.374880 0.704234
O O6 0.929296 0.500000 0.737257
O O7 0.960584 0.332247 0.785541
O O8 0.005794 0.380052 0.645416
O O9 0.750000 0.247055 0.849009
O O10 0.910052 0.173279 0.753837
O O11 0.012836 0.183867 0.876873
O O12 0.250000 0.114364 0.931070
O O13 0.443893 0.000000 0.896376
O O14 0.500000 0.106970 0.000000
O O15 0.500000 0.612637 0.500000
O O16 0.750000 0.613275 0.429220
O O17 0.750000 0.892827 0.657121
O O18 0.593045 0.000000 0.729549
#
# Coordination Sequence:
#
# PCOD9403150 Si02
#       6
#     8   8   8   8   8   8
#     4  10  20  33  50  70  96 133 177 224 275 327
#     4  10  21  37  58  83 110 144 187 233 283 338
#     4  10  20  36  58  82 114 149 181 222 273 326
#     4  10  21  37  60  91 124 155 187 222 262 314
#     4  10  20  34  54  77 103 138 182 235 292 345
#     4  10  20  33  51  75 102 137 179 219 266 325
#
# _framework density 18.255610000000001
#
# number of rings (size 3 to 8) (size 9 to 14) (size 15 to 20)
#    0.000    2.000    1.667    2.000    0.000    5.667 
#    0.000    0.000    0.000    0.500    0.000    0.000 
#    0.000    0.000    0.000    0.000    0.000    0.000 
#
# Total GULP energy -267632.902309 kJ/mol
# GULP energy per Si atom -5575.685465 kJ/mol
# Density = 1.821406 g / cm^3
# Si number density = 18.255610 Si / 1000 Ang^3
#
#
#
# Elastic Constant Matrix: (Units=GPa)
#
#
# Indices 1 2 3 4 5 6 
#
# 1 128.0600 44.3727 63.0067 0.0000 0.0000 0.0000
# 2 44.3727 105.7492 41.5870 0.0000 0.0000 0.0000
# 3 63.0067 41.5870 81.6153 0.0000 0.0000 0.0000
# 4 0.0000 0.0000 0.0000 14.9835 0.0000 0.0000
# 5 0.0000 0.0000 0.0000 0.0000 34.0684 0.0000
# 6 0.0000 0.0000 0.0000 0.0000 0.0000 18.4613
#
#
#
# Elastic Compliance Matrix: (Units=1/GPa)
#
#
# Indices 1 2 3 4 5 6 
#
# 1 0.012880 -0.001869 -0.008991 0.000000 0.000000 0.000000
# 2 -0.001869 0.012097 -0.004722 0.000000 0.000000 0.000000
# 3 -0.008991 -0.004722 0.021600 0.000000 0.000000 0.000000
# 4 0.000000 0.000000 0.000000 0.066740 0.000000 0.000000
# 5 0.000000 0.000000 0.000000 0.000000 0.029353 0.000000
# 6 0.000000 0.000000 0.000000 0.000000 0.000000 0.054167
#
#
# Mechanical properties :
#
#
# Convention : Reuss Voigt Hill
#
# Bulk Modulus (GPa) = 64.87543 68.15081 66.51312
# Shear Modulus (GPa) = 21.44653 24.59985 23.02319
#
# Velocity S-wave (km/s) = 3.43124 3.67484 3.55513
# Velocity P-wave (km/s) = 7.16326 7.44436 7.30516
#
# Compressibility (1/GPa) = 0.01541416
#
# Stress axis : x y z
#
# Youngs Moduli (GPa) = 77.63933 82.66365 46.29709
#
# Poissons Ratio (x) = 0.15447 0.41627
# Poissons Ratio (y) = 0.14508 0.21859
# Poissons Ratio (z) = 0.69807 0.39030
#
# Static dielectric constant tensor:
#      x y z
#    x 1.644700 0.000000 0.000000 
#    y 0.000000 1.659170 0.000000 
#    z 0.000000 0.000000 1.591310 
# 
# From -- ./inp_files/27522.got.cif
#   From: 2010.05.17/outbox.cif.g08.bks.cpg/sg51_14_cif.got.tgz:27522.got - 2010.06.03 11:52:47.
