data_PCOD9403491
_publ_section_title
;
Structure prediction by ZEFSAII (Michael W. Deem and Ramdas Pophale) SiO2 
 PCOD9403491
Probable space group: P M M A
;
_chemical_formula_sum "Si O2"
_cell_formula_units_Z 40
_cell_length_a 15.216981
_cell_length_b 9.158581
_cell_length_c 15.325797
_cell_angle_alpha 90.000000
_cell_angle_beta 90.000000
_cell_angle_gamma 90.000000
_cell_volume 2135.894305
_symmetry_space_group_name_H-M "P M M A"
_symmetry_group_IT_number 51
_symmetry_cell_setting 'orthorhombic'
loop_
_space_group_symop_operation_xyz
x,y,z
1/2-x,-y,z
1/2+x,-y,-z
-x,y,-z
-x,-y,-z
1/2+x,y,-z
1/2-x,y,z
x,-y,z
loop_
_atom_site_type_symbol
_atom_site_label
_atom_site_fract_x
_atom_site_fract_y
_atom_site_fract_z
Si Si1 0.075679 0.327064 0.730571
Si Si2 0.575971 0.326702 0.067029
Si Si3 0.750000 0.826239 0.336897
Si Si4 0.750000 0.825920 0.001759
Si Si5 0.250000 0.327334 0.478198
Si Si6 0.250000 0.825372 0.203097
Si Si7 0.887256 0.325619 0.672695
O O1 0.093700 0.500000 0.717861
O O2 0.051049 0.305235 0.832065
O O3 0.162498 0.238404 0.707488
O O4 0.989850 0.287025 0.674119
O O5 0.591448 0.500000 0.054460
O O6 0.500000 0.281446 0.000000
O O7 0.664161 0.240939 0.045856
O O8 0.750000 0.769175 0.436219
O O9 0.750000 0.000000 0.332257
O O10 0.750000 0.787979 0.898919
O O11 0.750000 0.000000 0.009926
O O12 0.250000 0.500000 0.501057
O O13 0.165186 0.298818 0.416983
O O14 0.334140 0.757979 0.252157
O O15 0.250000 0.000000 0.212119
O O16 0.880954 0.500000 0.689930
#
# Coordination Sequence:
#
# PCOD9403491 Si02
#       7
#     8   8   4   4   4   4   8
#     4  10  21  39  61  84 111 145 187 235 282 327
#     4  10  21  37  59  85 111 144 189 238 282 325
#     4  12  26  40  56  81 116 155 190 225 272 333
#     4  11  23  35  50  77 115 156 191 227 276 333
#     4   9  19  38  62  88 113 139 177 226 281 338
#     4  10  20  33  52  82 118 152 184 226 281 334
#     4   9  19  37  63  88 109 140 184 233 283 335
#
# _framework density 18.727519000000001
#
# number of rings (size 3 to 8) (size 9 to 14) (size 15 to 20)
#    0.000    2.000    0.000    3.900    0.000   10.000 
#    0.000    4.000    0.000    0.000    0.000    0.000 
#    0.000    0.000    0.000    0.000    0.000    0.000 
#
# Total GULP energy -223457.870177 kJ/mol
# GULP energy per Si atom -5586.446754 kJ/mol
# Density = 1.868489 g / cm^3
# Si number density = 18.727519 Si / 1000 Ang^3
#
#
#
# Elastic Constant Matrix: (Units=GPa)
#
#
# Indices 1 2 3 4 5 6 
#
# 1 148.8831 51.2812 42.3687 0.0000 0.0000 0.0000
# 2 51.2812 43.9309 38.3196 0.0000 0.0000 0.0000
# 3 42.3687 38.3196 68.1305 0.0000 0.0000 0.0000
# 4 0.0000 0.0000 0.0000 25.1077 0.0000 0.0000
# 5 0.0000 0.0000 0.0000 0.0000 0.1742 0.0000
# 6 0.0000 0.0000 0.0000 0.0000 0.0000 -195.3189
#
#
#
# Elastic Compliance Matrix: (Units=1/GPa)
#
#
# Indices 1 2 3 4 5 6 
#
# 1 0.011254 -0.013805 0.000766 0.000000 0.000000 0.000000
# 2 -0.013805 0.061620 -0.026073 0.000000 0.000000 0.000000
# 3 0.000766 -0.026073 0.028866 0.000000 0.000000 0.000000
# 4 0.000000 0.000000 0.000000 0.039828 0.000000 0.000000
# 5 0.000000 0.000000 0.000000 0.000000 5.741270 0.000000
# 6 0.000000 0.000000 0.000000 0.000000 0.000000 -0.005120
#
#
# Mechanical properties :
#
#
# Convention : Reuss Voigt Hill
#
# Bulk Modulus (GPa) = 42.52374 58.32038 50.42206
# Shear Modulus (GPa) = 0.83839 -25.40907 -12.28534
#
# Velocity S-wave (km/s) = 0.66982 -3.68744 -2.56404
# Velocity P-wave (km/s) = 4.83260 3.61656 4.26811
#
# Compressibility (1/GPa) = 0.02351627
#
# Stress axis : x y z
#
# Youngs Moduli (GPa) = 88.86085 16.22840 34.64273
#
# Poissons Ratio (x) = 0.22403 -0.02654
# Poissons Ratio (y) = 1.22669 0.90325
# Poissons Ratio (z) = -0.06807 0.42313
#
# Static dielectric constant tensor:
#      x y z
#    x 1.629410 0.000000 0.000000 
#    y 0.000000 1.616060 0.000000 
#    z 0.000000 0.000000 1.636950 
# 
# From -- ./inp_files/23867.got.cif
#   From: 2010.05.17/outbox.cif.g08.bks.cpg/sg51_12_cif.got.tgz:23867.got - 2010.06.03 11:52:47.
