data_PCOD9403218
_publ_section_title
;
Structure prediction by ZEFSAII (Michael W. Deem and Ramdas Pophale) SiO2 
 PCOD9403218
Probable space group: P M M A
;
_chemical_formula_sum "Si O2"
_cell_formula_units_Z 64
_cell_length_a 18.620752
_cell_length_b 9.534959
_cell_length_c 21.238139
_cell_angle_alpha 90.000000
_cell_angle_beta 90.000000
_cell_angle_gamma 90.000000
_cell_volume 3770.791373
_symmetry_space_group_name_H-M "P M M A"
_symmetry_group_IT_number 51
_symmetry_cell_setting 'orthorhombic'
loop_
_space_group_symop_operation_xyz
x,y,z
1/2-x,-y,z
1/2+x,-y,-z
-x,y,-z
-x,-y,-z
1/2+x,y,-z
1/2-x,y,z
x,-y,z
loop_
_atom_site_type_symbol
_atom_site_label
_atom_site_fract_x
_atom_site_fract_y
_atom_site_fract_z
Si Si1 0.086401 0.667220 0.820914
Si Si2 0.837599 0.161354 0.431871
Si Si3 0.416931 0.332078 0.183324
Si Si4 0.664078 0.334654 0.308828
Si Si5 0.667247 0.670584 0.691989
Si Si6 0.835410 0.166819 0.924983
Si Si7 0.662409 0.337933 0.552552
Si Si8 0.335228 0.166982 0.930570
O O1 0.097205 0.500000 0.829172
O O2 0.124719 0.706830 0.755392
O O3 0.120906 0.748516 0.879079
O O4 0.001719 0.694424 0.816508
O O5 0.750000 0.162955 0.432709
O O6 0.859020 0.244426 0.369008
O O7 0.861414 0.242153 0.494780
O O8 0.860604 0.000000 0.430970
O O9 0.405797 0.500000 0.177290
O O10 0.381070 0.286553 0.249311
O O11 0.379182 0.253642 0.125829
O O12 0.750000 0.318193 0.300655
O O13 0.650328 0.500000 0.320636
O O14 0.750000 0.716010 0.701168
O O15 0.667934 0.500000 0.690183
O O16 0.641265 0.713346 0.622344
O O17 0.750000 0.191242 0.917165
O O18 0.847578 0.000000 0.917372
O O19 0.854290 0.203938 0.997238
O O20 0.750000 0.338620 0.553193
O O21 0.640030 0.500000 0.543589
O O22 0.250000 0.193207 0.922699
O O23 0.346464 0.000000 0.923270
#
# Coordination Sequence:
#
# PCOD9403218 Si02
#       8
#     8   8   8   8   8   8   8   8
#     4  10  21  34  49  73 103 131 161 201 245 289
#     4   9  16  25  40  66  95 117 145 193 245 286
#     4  10  20  33  50  74 103 132 163 200 242 289
#     4   9  17  30  47  65  89 124 161 195 236 287
#     4   8  14  26  46  70  94 123 160 198 235 280
#     4   9  19  36  55  75  99 127 162 202 242 287
#     4   8  13  23  41  64  89 118 152 190 234 283
#     4   9  19  36  56  75  96 126 164 203 242 288
#
# _framework density 16.972564999999999
#
# number of rings (size 3 to 8) (size 9 to 14) (size 15 to 20)
#    0.000    3.000    0.000    2.625    0.000    5.000 
#    0.000    5.625    0.000    3.000    0.000    5.250 
#    0.000    0.000    0.000    0.000    0.000    0.000 
#
# Total GULP energy -356686.872516 kJ/mol
# GULP energy per Si atom -5573.232383 kJ/mol
# Density = 1.693394 g / cm^3
# Si number density = 16.972565 Si / 1000 Ang^3
#
#
#
# Elastic Constant Matrix: (Units=GPa)
#
#
# Indices 1 2 3 4 5 6 
#
# 1 44.7663 44.2926 80.2318 0.0000 0.0000 0.0000
# 2 44.2926 60.4280 90.2357 0.0000 0.0000 0.0000
# 3 80.2318 90.2357 208.5602 0.0000 0.0000 0.0000
# 4 0.0000 0.0000 0.0000 -26.7149 0.0000 0.0000
# 5 0.0000 0.0000 0.0000 0.0000 -5.8273 0.0000
# 6 0.0000 0.0000 0.0000 0.0000 0.0000 18.1054
#
#
#
# Elastic Compliance Matrix: (Units=1/GPa)
#
#
# Indices 1 2 3 4 5 6 
#
# 1 0.104050 -0.046606 -0.019863 0.000000 0.000000 0.000000
# 2 -0.046606 0.067634 -0.011334 0.000000 0.000000 0.000000
# 3 -0.019863 -0.011334 0.017339 0.000000 0.000000 0.000000
# 4 0.000000 0.000000 0.000000 -0.037432 0.000000 0.000000
# 5 0.000000 0.000000 0.000000 0.000000 -0.171607 0.000000
# 6 0.000000 0.000000 0.000000 0.000000 0.000000 0.055232
#
#
# Mechanical properties :
#
#
# Convention : Reuss Voigt Hill
#
# Bulk Modulus (GPa) = 29.92330 82.58607 56.25469
# Shear Modulus (GPa) = 24.75734 3.71226 14.23480
#
# Velocity S-wave (km/s) = 3.82339 1.48053 2.89916
# Velocity P-wave (km/s) = 6.09588 7.18935 6.66508
#
# Compressibility (1/GPa) = 0.03341877
#
# Stress axis : x y z
#
# Youngs Moduli (GPa) = 9.61080 14.78545 57.67196
#
# Poissons Ratio (x) = 0.68909 1.14552
# Poissons Ratio (y) = 0.44792 0.65363
# Poissons Ratio (z) = 0.19090 0.16757
#
# Static dielectric constant tensor:
#      x y z
#    x 1.552660 0.000000 0.000000 
#    y 0.000000 1.561490 0.000000 
#    z 0.000000 0.000000 1.567510 
# 
# From -- ./inp_files/33777.got.cif
#   From: 2010.05.17/outbox.cif.g08.bks.cpg/sg51_17_cif.got.tgz:33777.got - 2010.06.03 11:52:47.
