data_PCOD9403761
_publ_section_title
;
Structure prediction by ZEFSAII (Michael W. Deem and Ramdas Pophale) SiO2 
 PCOD9403761
Probable space group: P M M A
;
_chemical_formula_sum "Si O2"
_cell_formula_units_Z 40
_cell_length_a 26.127847
_cell_length_b 9.117363
_cell_length_c 9.750236
_cell_angle_alpha 90.000000
_cell_angle_beta 90.000000
_cell_angle_gamma 90.000000
_cell_volume 2322.672608
_symmetry_space_group_name_H-M "P M M A"
_symmetry_group_IT_number 51
_symmetry_cell_setting 'orthorhombic'
loop_
_space_group_symop_operation_xyz
x,y,z
1/2-x,-y,z
1/2+x,-y,-z
-x,y,-z
-x,-y,-z
1/2+x,y,-z
1/2-x,y,z
x,-y,z
loop_
_atom_site_type_symbol
_atom_site_label
_atom_site_fract_x
_atom_site_fract_y
_atom_site_fract_z
Si Si1 0.880570 0.827127 0.026673
Si Si2 0.029967 0.825973 0.752856
Si Si3 0.079171 0.674011 0.230967
Si Si4 0.809832 0.824214 0.277261
Si Si5 0.604810 0.674744 0.456001
O O1 0.931518 0.804231 0.119120
O O2 0.833834 0.789623 0.128094
O O3 0.877854 0.000000 0.993339
O O4 0.885134 0.733981 0.889786
O O5 0.057640 0.750803 0.623332
O O6 0.975354 0.754637 0.779996
O O7 0.025102 0.000000 0.730419
O O8 0.071805 0.500000 0.217334
O O9 0.101086 0.703950 0.382422
O O10 0.750000 0.790265 0.285455
O O11 0.844130 0.740379 0.388132
O O12 0.816862 0.000000 0.296204
O O13 0.602305 0.500000 0.433994
#
# Coordination Sequence:
#
# PCOD9403761 Si02
#       5
#     8   8   8   8   8
#     4   9  19  34  52  76 104 133 169 212 255 301
#     4  10  20  34  53  76 103 139 179 213 249 298
#     4  11  22  33  48  75 110 142 171 207 251 301
#     4   9  19  38  61  80  98 126 169 217 261 307
#     4  10  21  35  51  76 108 138 171 210 252 301
#
# _framework density 17.221539
#
# number of rings (size 3 to 8) (size 9 to 14) (size 15 to 20)
#    0.000    2.200    0.000    4.200    0.000   12.400 
#    0.000    1.000    0.000    3.600    0.000    0.000 
#    0.000    0.000    0.000    0.000    0.000    0.000 
#
# Total GULP energy -223341.680809 kJ/mol
# GULP energy per Si atom -5583.542020 kJ/mol
# Density = 1.718234 g / cm^3
# Si number density = 17.221539 Si / 1000 Ang^3
#
#
#
# Elastic Constant Matrix: (Units=GPa)
#
#
# Indices 1 2 3 4 5 6 
#
# 1 53.7037 16.7423 1.5969 0.0000 0.0000 0.0000
# 2 16.7423 50.6616 45.8194 0.0000 0.0000 0.0000
# 3 1.5969 45.8194 70.3868 0.0000 0.0000 0.0000
# 4 0.0000 0.0000 0.0000 34.4080 0.0000 0.0000
# 5 0.0000 0.0000 0.0000 0.0000 4.3514 0.0000
# 6 0.0000 0.0000 0.0000 0.0000 0.0000 -68.8911
#
#
#
# Elastic Compliance Matrix: (Units=1/GPa)
#
#
# Indices 1 2 3 4 5 6 
#
# 1 0.023905 -0.018017 0.011186 0.000000 0.000000 0.000000
# 2 -0.018017 0.061576 -0.039675 0.000000 0.000000 0.000000
# 3 0.011186 -0.039675 0.039780 0.000000 0.000000 0.000000
# 4 0.000000 0.000000 0.000000 0.029063 0.000000 0.000000
# 5 0.000000 0.000000 0.000000 0.000000 0.229810 0.000000
# 6 0.000000 0.000000 0.000000 0.000000 0.000000 -0.014516
#
#
# Mechanical properties :
#
#
# Convention : Reuss Voigt Hill
#
# Bulk Modulus (GPa) = 31.00819 33.67439 32.34129
# Shear Modulus (GPa) = 10.56235 1.34656 5.95445
#
# Velocity S-wave (km/s) = 2.47922 0.88521 1.86147
# Velocity P-wave (km/s) = 5.12249 4.54323 4.84153
#
# Compressibility (1/GPa) = 0.03224955
#
# Stress axis : x y z
#
# Youngs Moduli (GPa) = 41.83256 16.24017 25.13802
#
# Poissons Ratio (x) = 0.29259 -0.28119
# Poissons Ratio (y) = 0.75368 0.99735
# Poissons Ratio (z) = -0.46793 0.64433
#
# Static dielectric constant tensor:
#      x y z
#    x 1.560780 0.000000 0.000000 
#    y 0.000000 1.573930 0.000000 
#    z 0.000000 0.000000 1.578360 
# 
# From -- ./inp_files/11412.got.cif
#   From: 2010.05.17/outbox.cif.g08.bks.cpg/sg51_6_cif.got.tgz:11412.got - 2010.06.03 11:52:47.
