data_PCOD9403924
_publ_section_title
;
Structure prediction by ZEFSAII (Michael W. Deem and Ramdas Pophale) SiO2 
 PCOD9403924
Probable space group: P M M A
;
_chemical_formula_sum "Si O2"
_cell_formula_units_Z 48
_cell_length_a 9.034330
_cell_length_b 9.404170
_cell_length_c 32.066911
_cell_angle_alpha 90.000000
_cell_angle_beta 90.000000
_cell_angle_gamma 90.000000
_cell_volume 2724.416789
_symmetry_space_group_name_H-M "P M M A"
_symmetry_group_IT_number 51
_symmetry_cell_setting 'orthorhombic'
loop_
_space_group_symop_operation_xyz
x,y,z
1/2-x,-y,z
1/2+x,-y,-z
-x,y,-z
-x,-y,-z
1/2+x,y,-z
1/2-x,y,z
x,-y,z
loop_
_atom_site_type_symbol
_atom_site_label
_atom_site_fract_x
_atom_site_fract_y
_atom_site_fract_z
Si Si1 0.430149 0.163948 0.875872
Si Si2 0.072494 0.667736 0.957199
Si Si3 0.073168 0.667611 0.294200
Si Si4 0.420357 0.173129 0.457688
Si Si5 0.073489 0.830955 0.628959
Si Si6 0.572853 0.170123 0.217703
O O1 0.250000 0.166954 0.875750
O O2 0.480260 0.254720 0.915311
O O3 0.473864 0.211779 0.829394
O O4 0.474915 0.000000 0.880992
O O5 0.250000 0.684458 0.960143
O O6 0.040119 0.500000 0.953663
O O7 0.000000 0.721305 0.000000
O O8 0.250000 0.684022 0.296296
O O9 0.038028 0.500000 0.293655
O O10 0.999627 0.743187 0.333933
O O11 0.011016 0.743433 0.252941
O O12 0.500000 0.221806 0.500000
O O13 0.250000 0.219560 0.456255
O O14 0.506390 0.212909 0.415687
O O15 0.420652 0.000000 0.458804
O O16 0.250000 0.812621 0.628916
O O17 0.043136 0.000000 0.634816
O O18 0.750000 0.192757 0.221761
O O19 0.548337 0.000000 0.222089
#
# Coordination Sequence:
#
# PCOD9403924 Si02
#       6
#     8   8   8   8   8   8
#     4   8  15  29  49  72  96 121 153 196 242 288
#     4   9  17  29  45  66  93 126 162 197 235 281
#     4  11  24  38  51  72 103 136 169 206 250 301
#     4   9  16  27  46  74 107 139 171 210 254 298
#     4  10  20  34  54  79 104 133 172 214 255 301
#     4   9  18  34  56  79 100 125 162 207 253 302
#
# _framework density 17.618448999999998
#
# number of rings (size 3 to 8) (size 9 to 14) (size 15 to 20)
#    0.000    2.667    0.000    3.000    0.000    7.667 
#    0.000    2.500    0.000    3.500    0.000    0.000 
#    0.000    0.000    0.000    0.000    0.000    0.000 
#
# Total GULP energy -267683.028061 kJ/mol
# GULP energy per Si atom -5576.729751 kJ/mol
# Density = 1.757835 g / cm^3
# Si number density = 17.618449 Si / 1000 Ang^3
#
#
#
# Elastic Constant Matrix: (Units=GPa)
#
#
# Indices 1 2 3 4 5 6 
#
# 1 61.1835 50.4311 75.0966 0.0000 0.0000 0.0000
# 2 50.4311 56.3421 87.9638 0.0000 0.0000 0.0000
# 3 75.0966 87.9638 221.9619 0.0000 0.0000 0.0000
# 4 0.0000 0.0000 0.0000 -23.4418 0.0000 0.0000
# 5 0.0000 0.0000 0.0000 0.0000 33.5466 0.0000
# 6 0.0000 0.0000 0.0000 0.0000 0.0000 20.0340
#
#
#
# Elastic Compliance Matrix: (Units=1/GPa)
#
#
# Indices 1 2 3 4 5 6 
#
# 1 0.062946 -0.060567 0.002706 0.000000 0.000000 0.000000
# 2 -0.060567 0.104830 -0.021052 0.000000 0.000000 0.000000
# 3 0.002706 -0.021052 0.011933 0.000000 0.000000 0.000000
# 4 0.000000 0.000000 0.000000 -0.042659 0.000000 0.000000
# 5 0.000000 0.000000 0.000000 0.000000 0.029809 0.000000
# 6 0.000000 0.000000 0.000000 0.000000 0.000000 0.049915
#
#
# Mechanical properties :
#
#
# Convention : Reuss Voigt Hill
#
# Bulk Modulus (GPa) = 45.70052 85.16340 65.43196
# Shear Modulus (GPa) = 13.09261 14.42747 13.76004
#
# Velocity S-wave (km/s) = 2.72898 2.86472 2.79767
# Velocity P-wave (km/s) = 5.99375 7.70615 6.90325
#
# Compressibility (1/GPa) = 0.02188159
#
# Stress axis : x y z
#
# Youngs Moduli (GPa) = 15.88670 9.53925 83.80335
#
# Poissons Ratio (x) = 0.57777 -0.22681
# Poissons Ratio (y) = 0.96222 1.76426
# Poissons Ratio (z) = -0.04300 0.20082
#
# Static dielectric constant tensor:
#      x y z
#    x 1.590160 0.000000 0.000000 
#    y 0.000000 1.583510 0.000000 
#    z 0.000000 0.000000 1.592770 
# 
# From -- ./inp_files/37024.got.cif
#   From: 2010.05.17/outbox.cif.g08.bks.cpg/sg51_19_cif.got.tgz:37024.got - 2010.06.03 11:52:47.
