data_PCOD9403607
_publ_section_title
;
Structure prediction by ZEFSAII (Michael W. Deem and Ramdas Pophale) SiO2 
 PCOD9403607
Probable space group: P M M A
;
_chemical_formula_sum "Si O2"
_cell_formula_units_Z 64
_cell_length_a 8.879074
_cell_length_b 19.594889
_cell_length_c 24.055725
_cell_angle_alpha 90.000000
_cell_angle_beta 90.000000
_cell_angle_gamma 90.000000
_cell_volume 4185.322551
_symmetry_space_group_name_H-M "P M M A"
_symmetry_group_IT_number 51
_symmetry_cell_setting 'orthorhombic'
loop_
_space_group_symop_operation_xyz
x,y,z
1/2-x,-y,z
1/2+x,-y,-z
-x,y,-z
-x,-y,-z
1/2+x,y,-z
1/2-x,y,z
x,-y,z
loop_
_atom_site_type_symbol
_atom_site_label
_atom_site_fract_x
_atom_site_fract_y
_atom_site_fract_z
Si Si1 0.070809 0.344621 0.335833
Si Si2 0.070187 0.215814 0.058866
Si Si3 0.568375 0.923944 0.885841
Si Si4 0.070461 0.218995 0.722039
Si Si5 0.430935 0.421148 0.769145
Si Si6 0.431424 0.923630 0.762915
Si Si7 0.930020 0.420208 0.439595
Si Si8 0.071525 0.294057 0.839594
O O1 0.250000 0.347093 0.338570
O O2 0.015084 0.268795 0.319730
O O3 0.011538 0.392543 0.285623
O O4 0.999438 0.372619 0.392397
O O5 0.250000 0.216140 0.054932
O O6 0.019331 0.139102 0.076206
O O7 0.017862 0.265044 0.108464
O O8 0.000000 0.234865 0.000000
O O9 0.750000 0.921928 0.882219
O O10 0.502473 0.915184 0.823985
O O11 0.524136 0.000000 0.905586
O O12 0.250000 0.224175 0.711535
O O13 0.024053 0.139853 0.724327
O O14 0.044877 0.248299 0.784438
O O15 0.250000 0.415013 0.760144
O O16 0.466915 0.500000 0.779058
O O17 0.468256 0.370542 0.819923
O O18 0.250000 0.919968 0.768964
O O19 0.470420 0.000000 0.742985
O O20 0.750000 0.412555 0.441427
O O21 0.963235 0.500000 0.426244
O O22 0.000000 0.406088 0.500000
O O23 0.250000 0.290957 0.851664
#
# Coordination Sequence:
#
# PCOD9403607 Si02
#       8
#     8   8   8   8   8   8   8   8
#     4  11  21  30  45  71 101 131 165 200 231 267
#     4  11  22  33  47  64  85 114 148 186 226 272
#     4   9  18  31  45  63  88 116 146 182 224 270
#     4   9  17  30  47  67  94 125 155 191 236 280
#     4   9  18  33  52  72  94 121 149 183 232 282
#     4   9  16  27  46  69  91 119 154 189 228 278
#     4  10  20  34  51  70  97 134 171 204 238 276
#     4   9  17  31  49  68  89 113 143 181 226 279
#
# _framework density 15.291534
#
# number of rings (size 3 to 8) (size 9 to 14) (size 15 to 20)
#    0.000    2.375    1.250    3.000    0.000    5.750 
#    0.000    0.000    0.000    0.375    0.000    0.000 
#    0.000    0.500    0.000    1.375    0.000    2.000 
#
# Total GULP energy -356877.262856 kJ/mol
# GULP energy per Si atom -5576.207232 kJ/mol
# Density = 1.525673 g / cm^3
# Si number density = 15.291534 Si / 1000 Ang^3
#
#
#
# Elastic Constant Matrix: (Units=GPa)
#
#
# Indices 1 2 3 4 5 6 
#
# 1 42.6951 40.2138 43.3498 0.0000 0.0000 0.0000
# 2 40.2138 110.5899 53.7066 0.0000 0.0000 0.0000
# 3 43.3498 53.7066 90.1441 0.0000 0.0000 0.0000
# 4 0.0000 0.0000 0.0000 22.7591 0.0000 0.0000
# 5 0.0000 0.0000 0.0000 0.0000 23.9541 0.0000
# 6 0.0000 0.0000 0.0000 0.0000 0.0000 17.0695
#
#
#
# Elastic Compliance Matrix: (Units=1/GPa)
#
#
# Indices 1 2 3 4 5 6 
#
# 1 0.052043 -0.009527 -0.019351 0.000000 0.000000 0.000000
# 2 -0.009527 0.014468 -0.004038 0.000000 0.000000 0.000000
# 3 -0.019351 -0.004038 0.022805 0.000000 0.000000 0.000000
# 4 0.000000 0.000000 0.000000 0.043938 0.000000 0.000000
# 5 0.000000 0.000000 0.000000 0.000000 0.041747 0.000000
# 6 0.000000 0.000000 0.000000 0.000000 0.000000 0.058584
#
#
# Mechanical properties :
#
#
# Convention : Reuss Voigt Hill
#
# Bulk Modulus (GPa) = 42.58341 57.55216 50.06779
# Shear Modulus (GPa) = 16.27363 19.83380 18.05372
#
# Velocity S-wave (km/s) = 3.26579 3.60536 3.43976
# Velocity P-wave (km/s) = 6.49066 7.41955 6.97060
#
# Compressibility (1/GPa) = 0.02348332
#
# Stress axis : x y z
#
# Youngs Moduli (GPa) = 19.21489 69.11905 43.84948
#
# Poissons Ratio (x) = 0.65848 0.84854
# Poissons Ratio (y) = 0.18305 0.17708
# Poissons Ratio (z) = 0.37183 0.27913
#
# Static dielectric constant tensor:
#      x y z
#    x 1.507560 0.000000 0.000000 
#    y 0.000000 1.537610 0.000000 
#    z 0.000000 0.000000 1.467390 
# 
# From -- ./inp_files/35180.got.cif
#   From: 2010.05.17/outbox.cif.g08.bks.cpg/sg51_18_cif.got.tgz:35180.got - 2010.06.03 11:52:47.
