data_PCOD9403137
_publ_section_title
;
Structure prediction by ZEFSAII (Michael W. Deem and Ramdas Pophale) SiO2 
 PCOD9403137
Probable space group: P M M A
;
_chemical_formula_sum "Si O2"
_cell_formula_units_Z 48
_cell_length_a 9.129122
_cell_length_b 7.880276
_cell_length_c 35.809170
_cell_angle_alpha 90.000000
_cell_angle_beta 90.000000
_cell_angle_gamma 90.000000
_cell_volume 2576.111726
_symmetry_space_group_name_H-M "P M M A"
_symmetry_group_IT_number 51
_symmetry_cell_setting 'orthorhombic'
loop_
_space_group_symop_operation_xyz
x,y,z
1/2-x,-y,z
1/2+x,-y,-z
-x,y,-z
-x,-y,-z
1/2+x,y,-z
1/2-x,y,z
x,-y,z
loop_
_atom_site_type_symbol
_atom_site_label
_atom_site_fract_x
_atom_site_fract_y
_atom_site_fract_z
Si Si1 0.925855 0.694979 0.539739
Si Si2 0.073298 0.000000 0.405417
Si Si3 0.571490 0.312446 0.272934
Si Si4 0.918623 0.295178 0.112152
Si Si5 0.427624 0.000000 0.675224
Si Si6 0.079532 0.201521 0.807153
Si Si7 0.418018 0.292279 0.037520
O O1 0.750000 0.703977 0.535236
O O2 0.963649 0.500000 0.549978
O O3 0.000000 0.732876 0.500000
O O4 0.967799 0.833378 0.570570
O O5 0.997035 0.000000 0.365474
O O6 0.250000 0.000000 0.401009
O O7 0.750000 0.303449 0.271086
O O8 0.530447 0.500000 0.285819
O O9 0.517650 0.283053 0.230494
O O10 0.526342 0.164497 0.300850
O O11 0.750000 0.234425 0.109914
O O12 0.916172 0.500000 0.111560
O O13 0.984108 0.242305 0.152197
O O14 0.004810 0.236080 0.075690
O O15 0.250000 0.000000 0.672489
O O16 0.250000 0.259364 0.809714
O O17 0.079064 0.000000 0.801451
O O18 0.250000 0.239423 0.036596
O O19 0.421473 0.500000 0.037625
O O20 0.500000 0.236988 0.000000
#
# Coordination Sequence:
#
# PCOD9403137 Si02
#       7
#     8   4   8   8   4   8   8
#     4   9  18  33  53  77 104 135 173 216 260 306
#     4  10  21  35  51  72 104 142 174 207 255 310
#     4   9  16  28  47  71 100 130 161 205 258 300
#     4   9  16  25  40  65  91 113 143 182 226 279
#     4  10  20  33  49  74 103 132 173 219 254 294
#     4   9  15  25  43  67  94 120 149 190 239 289
#     4   9  16  26  41  61  87 118 149 184 226 272
#
# _framework density 18.632732000000001
#
# number of rings (size 3 to 8) (size 9 to 14) (size 15 to 20)
#    0.000    2.833    0.833    1.250    0.000    5.333 
#    0.000    0.000    0.000    2.000    0.000    0.000 
#    0.000    0.000    0.000    0.000    0.000    0.000 
#
# Total GULP energy -267593.887637 kJ/mol
# GULP energy per Si atom -5574.872659 kJ/mol
# Density = 1.859032 g / cm^3
# Si number density = 18.632732 Si / 1000 Ang^3
#
#
#
# Elastic Constant Matrix: (Units=GPa)
#
#
# Indices 1 2 3 4 5 6 
#
# 1 32.4692 25.0868 47.1276 0.0000 0.0000 0.0000
# 2 25.0868 94.2021 88.6755 0.0000 0.0000 0.0000
# 3 47.1276 88.6755 191.3069 0.0000 0.0000 0.0000
# 4 0.0000 0.0000 0.0000 18.3414 0.0000 0.0000
# 5 0.0000 0.0000 0.0000 0.0000 26.8433 0.0000
# 6 0.0000 0.0000 0.0000 0.0000 0.0000 3.9673
#
#
#
# Elastic Compliance Matrix: (Units=1/GPa)
#
#
# Indices 1 2 3 4 5 6 
#
# 1 0.048399 -0.002955 -0.010553 0.000000 0.000000 0.000000
# 2 -0.002955 0.019013 -0.008085 0.000000 0.000000 0.000000
# 3 -0.010553 -0.008085 0.011575 0.000000 0.000000 0.000000
# 4 0.000000 0.000000 0.000000 0.054521 0.000000 0.000000
# 5 0.000000 0.000000 0.000000 0.000000 0.037253 0.000000
# 6 0.000000 0.000000 0.000000 0.000000 0.000000 0.252062
#
#
# Mechanical properties :
#
#
# Convention : Reuss Voigt Hill
#
# Bulk Modulus (GPa) = 27.93287 71.08424 49.50856
# Shear Modulus (GPa) = 10.46150 20.30295 15.38222
#
# Velocity S-wave (km/s) = 2.37208 3.30455 2.87635
# Velocity P-wave (km/s) = 4.74618 7.26588 6.13674
#
# Compressibility (1/GPa) = 0.03580012
#
# Stress axis : x y z
#
# Youngs Moduli (GPa) = 20.66163 52.59493 86.39616
#
# Poissons Ratio (x) = 0.15542 0.91175
# Poissons Ratio (y) = 0.06106 0.69853
# Poissons Ratio (z) = 0.21804 0.42524
#
# Static dielectric constant tensor:
#      x y z
#    x 1.632910 0.000000 0.000000 
#    y 0.000000 1.667030 0.000000 
#    z 0.000000 0.000000 1.628600 
# 
# From -- ./inp_files/37222.got.cif
#   From: 2010.05.17/outbox.cif.g08.bks.cpg/sg51_19_cif.got.tgz:37222.got - 2010.06.03 11:52:47.
