data_PCOD9403977
_publ_section_title
;
Structure prediction by ZEFSAII (Michael W. Deem and Ramdas Pophale) SiO2 
 PCOD9403977
Probable space group: P M M A
;
_chemical_formula_sum "Si O2"
_cell_formula_units_Z 40
_cell_length_a 14.657451
_cell_length_b 9.537839
_cell_length_c 14.514023
_cell_angle_alpha 90.000000
_cell_angle_beta 90.000000
_cell_angle_gamma 90.000000
_cell_volume 2029.066334
_symmetry_space_group_name_H-M "P M M A"
_symmetry_group_IT_number 51
_symmetry_cell_setting 'orthorhombic'
loop_
_space_group_symop_operation_xyz
x,y,z
1/2-x,-y,z
1/2+x,-y,-z
-x,y,-z
-x,-y,-z
1/2+x,y,-z
1/2-x,y,z
x,-y,z
loop_
_atom_site_type_symbol
_atom_site_label
_atom_site_fract_x
_atom_site_fract_y
_atom_site_fract_z
Si Si1 0.489643 0.161554 0.390727
Si Si2 0.594373 0.661819 0.058830
Si Si3 0.858990 0.834333 0.238307
Si Si4 0.359903 0.662199 0.272431
Si Si5 0.354370 0.846375 0.103027
O O1 0.500000 0.174863 0.500000
O O2 0.582002 0.187176 0.331593
O O3 0.411918 0.265715 0.355803
O O4 0.462414 0.000000 0.370440
O O5 0.625729 0.500000 0.063113
O O6 0.601230 0.733394 0.158704
O O7 0.500000 0.659907 0.000000
O O8 0.648969 0.766690 0.993000
O O9 0.750000 0.808611 0.249658
O O10 0.869204 0.000000 0.212818
O O11 0.250000 0.669572 0.281902
O O12 0.384420 0.500000 0.261667
O O13 0.392482 0.746768 0.182179
O O14 0.250000 0.865195 0.131579
O O15 0.398809 0.000000 0.096936
#
# Coordination Sequence:
#
# PCOD9403977 Si02
#       5
#     8   8   8   8   8
#     4  10  22  40  63  89 115 149 196 250 307 364
#     4  11  23  36  53  81 116 153 194 239 287 343
#     4  10  22  40  60  85 120 160 202 249 301 360
#     4  10  21  37  58  86 120 155 192 240 298 358
#     4  10  20  34  54  80 109 143 183 226 274 331
#
# _framework density 19.7135
#
# number of rings (size 3 to 8) (size 9 to 14) (size 15 to 20)
#    0.000    1.800    0.000    3.600    0.000   12.000 
#    0.000    2.000    0.000    0.000    0.000    0.000 
#    0.000    0.000    0.000    0.000    0.000    0.000 
#
# Total GULP energy -223076.496187 kJ/mol
# GULP energy per Si atom -5576.912405 kJ/mol
# Density = 1.966863 g / cm^3
# Si number density = 19.713500 Si / 1000 Ang^3
#
#
#
# Elastic Constant Matrix: (Units=GPa)
#
#
# Indices 1 2 3 4 5 6 
#
# 1 74.5625 59.0314 32.2989 0.0000 0.0000 0.0000
# 2 59.0314 172.1109 87.9475 0.0000 0.0000 0.0000
# 3 32.2989 87.9475 112.8470 0.0000 0.0000 0.0000
# 4 0.0000 0.0000 0.0000 205.3624 0.0000 0.0000
# 5 0.0000 0.0000 0.0000 0.0000 24.3982 0.0000
# 6 0.0000 0.0000 0.0000 0.0000 0.0000 8.1603
#
#
#
# Elastic Compliance Matrix: (Units=1/GPa)
#
#
# Indices 1 2 3 4 5 6 
#
# 1 0.018434 -0.006026 -0.000579 0.000000 0.000000 0.000000
# 2 -0.006026 0.011626 -0.007336 0.000000 0.000000 0.000000
# 3 -0.000579 -0.007336 0.014744 0.000000 0.000000 0.000000
# 4 0.000000 0.000000 0.000000 0.004869 0.000000 0.000000
# 5 0.000000 0.000000 0.000000 0.000000 0.040987 0.000000
# 6 0.000000 0.000000 0.000000 0.000000 0.000000 0.122545
#
#
# Mechanical properties :
#
#
# Convention : Reuss Voigt Hill
#
# Bulk Modulus (GPa) = 59.09832 79.78623 69.44228
# Shear Modulus (GPa) = 20.26526 59.60034 39.93280
#
# Velocity S-wave (km/s) = 3.20970 5.50444 4.50561
# Velocity P-wave (km/s) = 6.61664 8.99774 7.89744
#
# Compressibility (1/GPa) = 0.01692095
#
# Stress axis : x y z
#
# Youngs Moduli (GPa) = 54.24855 86.01712 67.82255
#
# Poissons Ratio (x) = 0.51838 0.03929
# Poissons Ratio (y) = 0.32692 0.49752
# Poissons Ratio (z) = 0.03143 0.63098
#
# Static dielectric constant tensor:
#      x y z
#    x 1.764320 0.000000 0.000000 
#    y 0.000000 1.714910 0.000000 
#    z 0.000000 0.000000 1.674750 
# 
# From -- ./inp_files/17096.got.cif
#   From: 2010.05.17/outbox.cif.g08.bks.cpg/sg51_9_cif.got.tgz:17096.got - 2010.06.03 11:52:47.
