data_PCOD9403134
_publ_section_title
;
Structure prediction by ZEFSAII (Michael W. Deem and Ramdas Pophale) SiO2 
 PCOD9403134
Probable space group: P M M A
;
_chemical_formula_sum "Si O2"
_cell_formula_units_Z 64
_cell_length_a 23.944275
_cell_length_b 8.825760
_cell_length_c 18.475579
_cell_angle_alpha 90.000000
_cell_angle_beta 90.000000
_cell_angle_gamma 90.000000
_cell_volume 3904.378051
_symmetry_space_group_name_H-M "P M M A"
_symmetry_group_IT_number 51
_symmetry_cell_setting 'orthorhombic'
loop_
_space_group_symop_operation_xyz
x,y,z
1/2-x,-y,z
1/2+x,-y,-z
-x,y,-z
-x,-y,-z
1/2+x,y,-z
1/2-x,y,z
x,-y,z
loop_
_atom_site_type_symbol
_atom_site_label
_atom_site_fract_x
_atom_site_fract_y
_atom_site_fract_z
Si Si1 0.881523 0.682334 0.858800
Si Si2 0.497021 0.818043 0.085537
Si Si3 0.611996 0.682168 0.137328
Si Si4 0.817889 0.825065 0.563043
Si Si5 0.813154 0.683992 0.000665
Si Si6 0.684526 0.819734 0.264926
Si Si7 0.684610 0.183575 0.725043
Si Si8 0.682255 0.671781 0.415822
O O1 0.884349 0.500000 0.856308
O O2 0.941848 0.749012 0.878264
O O3 0.854608 0.745538 0.785579
O O4 0.841077 0.728354 0.925226
O O5 0.551551 0.755003 0.125806
O O6 0.495447 0.000000 0.089324
O O7 0.500000 0.774665 0.000000
O O8 0.607406 0.500000 0.137463
O O9 0.649085 0.730739 0.068072
O O10 0.644732 0.737310 0.208076
O O11 0.750000 0.824237 0.562313
O O12 0.832800 0.769818 0.643467
O O13 0.837618 0.732684 0.493410
O O14 0.835242 0.000000 0.555362
O O15 0.750000 0.740047 0.007207
O O16 0.811622 0.500000 0.001697
O O17 0.750000 0.775096 0.253962
O O18 0.668451 0.774218 0.346787
O O19 0.680860 0.000000 0.255886
O O20 0.750000 0.226074 0.736467
O O21 0.682158 0.000000 0.727557
O O22 0.750000 0.671420 0.419550
O O23 0.663691 0.500000 0.403271
#
# Coordination Sequence:
#
# PCOD9403134 Si02
#       8
#     8   8   8   8   8   8   8   8
#     4  11  21  34  53  75 101 132 172 215 257 302
#     4  11  23  39  57  74  97 128 169 217 263 309
#     4  11  21  35  55  75 100 131 170 215 259 303
#     4   8  14  26  44  66  97 137 173 204 245 299
#     4   9  18  31  48  72 101 131 161 198 249 304
#     4  10  20  33  49  73 107 141 172 207 252 307
#     4   9  18  32  49  73 107 142 173 208 255 308
#     4   9  16  26  43  69 100 134 172 210 249 295
#
# _framework density 16.391856000000001
#
# number of rings (size 3 to 8) (size 9 to 14) (size 15 to 20)
#    0.000    2.250    1.250    3.375    0.000    4.500 
#    0.000    1.250    0.000    3.000    0.000    0.875 
#    0.000    7.000    0.000    0.000    0.000    0.000 
#
# Total GULP energy -356935.016582 kJ/mol
# GULP energy per Si atom -5577.109634 kJ/mol
# Density = 1.635455 g / cm^3
# Si number density = 16.391856 Si / 1000 Ang^3
#
#
#
# Elastic Constant Matrix: (Units=GPa)
#
#
# Indices 1 2 3 4 5 6 
#
# 1 61.2551 13.6154 19.9873 0.0000 0.0000 0.0000
# 2 13.6154 40.6147 22.4082 0.0000 0.0000 0.0000
# 3 19.9873 22.4082 97.7149 0.0000 0.0000 0.0000
# 4 0.0000 0.0000 0.0000 28.7965 0.0000 0.0000
# 5 0.0000 0.0000 0.0000 0.0000 0.0323 0.0000
# 6 0.0000 0.0000 0.0000 0.0000 0.0000 18.3289
#
#
#
# Elastic Compliance Matrix: (Units=1/GPa)
#
#
# Indices 1 2 3 4 5 6 
#
# 1 0.018226 -0.004640 -0.002664 0.000000 0.000000 0.000000
# 2 -0.004640 0.029369 -0.005786 0.000000 0.000000 0.000000
# 3 -0.002664 -0.005786 0.012106 0.000000 0.000000 0.000000
# 4 0.000000 0.000000 0.000000 0.034726 0.000000 0.000000
# 5 0.000000 0.000000 0.000000 0.000000 30.955476 0.000000
# 6 0.000000 0.000000 0.000000 0.000000 0.000000 0.054559
#
#
# Mechanical properties :
#
#
# Convention : Reuss Voigt Hill
#
# Bulk Modulus (GPa) = 29.83223 34.62294 32.22759
# Shear Modulus (GPa) = 0.16056 19.00313 9.58184
#
# Velocity S-wave (km/s) = 0.31331 3.40855 2.42037
# Velocity P-wave (km/s) = 4.28600 6.05465 5.24541
#
# Compressibility (1/GPa) = 0.03352079
#
# Stress axis : x y z
#
# Youngs Moduli (GPa) = 54.86731 34.04907 82.60635
#
# Poissons Ratio (x) = 0.15799 0.22006
# Poissons Ratio (y) = 0.25459 0.47796
# Poissons Ratio (z) = 0.14616 0.19701
#
# Static dielectric constant tensor:
#      x y z
#    x 1.525050 0.000000 0.000000 
#    y 0.000000 1.550110 0.000000 
#    z 0.000000 0.000000 1.549850 
# 
# From -- ./inp_files/30837.got.cif
#   From: 2010.05.17/outbox.cif.g08.bks.cpg/sg51_16_cif.got.tgz:30837.got - 2010.06.03 11:52:47.
