data_PCOD9403226
_publ_section_title
;
Structure prediction by ZEFSAII (Michael W. Deem and Ramdas Pophale) SiO2 
 PCOD9403226
Probable space group: P M M A
;
_chemical_formula_sum "Si O2"
_cell_formula_units_Z 56
_cell_length_a 14.962683
_cell_length_b 9.149795
_cell_length_c 21.349714
_cell_angle_alpha 90.000000
_cell_angle_beta 90.000000
_cell_angle_gamma 90.000000
_cell_volume 2922.892888
_symmetry_space_group_name_H-M "P M M A"
_symmetry_group_IT_number 51
_symmetry_cell_setting 'orthorhombic'
loop_
_space_group_symop_operation_xyz
x,y,z
1/2-x,-y,z
1/2+x,-y,-z
-x,y,-z
-x,-y,-z
1/2+x,y,-z
1/2-x,y,z
x,-y,z
loop_
_atom_site_type_symbol
_atom_site_label
_atom_site_fract_x
_atom_site_fract_y
_atom_site_fract_z
Si Si1 0.147549 0.836830 0.974916
Si Si2 0.849851 0.173425 0.785375
Si Si3 0.352801 0.822932 0.477552
Si Si4 0.023135 0.675538 0.728424
Si Si5 0.027943 0.176607 0.597769
Si Si6 0.099103 0.335521 0.093164
Si Si7 0.896571 0.335537 0.143298
O O1 0.250000 0.842757 0.996281
O O2 0.147399 0.774892 0.904788
O O3 0.109205 0.000000 0.976347
O O4 0.101071 0.730199 0.024056
O O5 0.750000 0.199990 0.760106
O O6 0.853199 0.231412 0.856702
O O7 0.927439 0.257165 0.748434
O O8 0.867018 0.000000 0.784024
O O9 0.250000 0.770487 0.470664
O O10 0.399631 0.786220 0.543989
O O11 0.428132 0.780046 0.426424
O O12 0.349357 0.000000 0.475090
O O13 0.016404 0.500000 0.725915
O O14 0.048728 0.744526 0.662458
O O15 0.092646 0.710427 0.784584
O O16 0.028250 0.000000 0.605006
O O17 0.136273 0.500000 0.093704
O O18 0.998122 0.343229 0.117891
O O19 0.858924 0.500000 0.139533
#
# Coordination Sequence:
#
# PCOD9403226 Si02
#       7
#     8   8   8   8   8   8   8
#     4  11  23  35  49  73 100 125 162 213 262 306
#     4  10  20  33  50  74 103 134 172 216 258 306
#     4   8  15  30  53  81 111 141 175 215 256 300
#     4  10  21  36  53  74 104 139 172 210 256 307
#     4   9  17  31  54  81 107 139 178 216 255 302
#     4  10  20  34  53  75  99 129 165 206 257 317
#     4   9  20  37  53  70  94 129 171 208 249 305
#
# _framework density 19.159102000000001
#
# number of rings (size 3 to 8) (size 9 to 14) (size 15 to 20)
#    0.000    2.429    0.000    4.286    0.000    9.714 
#    0.000    3.571    0.000    3.857    0.000    0.000 
#    0.000    0.000    0.000    0.000    0.000    0.000 
#
# Total GULP energy -312282.675286 kJ/mol
# GULP energy per Si atom -5576.476344 kJ/mol
# Density = 1.911549 g / cm^3
# Si number density = 19.159102 Si / 1000 Ang^3
#
#
#
# Elastic Constant Matrix: (Units=GPa)
#
#
# Indices 1 2 3 4 5 6 
#
# 1 48.9609 -2.6212 -4.8798 0.0000 0.0000 0.0000
# 2 -2.6212 46.4983 21.1969 0.0000 0.0000 0.0000
# 3 -4.8798 21.1969 102.8963 0.0000 0.0000 0.0000
# 4 0.0000 0.0000 0.0000 21.5761 0.0000 0.0000
# 5 0.0000 0.0000 0.0000 0.0000 12.2832 0.0000
# 6 0.0000 0.0000 0.0000 0.0000 0.0000 18.5590
#
#
#
# Elastic Compliance Matrix: (Units=1/GPa)
#
#
# Indices 1 2 3 4 5 6 
#
# 1 0.020548 0.000788 0.000812 0.000000 0.000000 0.000000
# 2 0.000788 0.023765 -0.004858 0.000000 0.000000 0.000000
# 3 0.000812 -0.004858 0.010758 0.000000 0.000000 0.000000
# 4 0.000000 0.000000 0.000000 0.046348 0.000000 0.000000
# 5 0.000000 0.000000 0.000000 0.000000 0.081412 0.000000
# 6 0.000000 0.000000 0.000000 0.000000 0.000000 0.053882
#
#
# Mechanical properties :
#
#
# Convention : Reuss Voigt Hill
#
# Bulk Modulus (GPa) = 20.59541 25.08304 22.83923
# Shear Modulus (GPa) = 19.27422 22.79429 21.03426
#
# Velocity S-wave (km/s) = 3.17520 3.45300 3.31701
# Velocity P-wave (km/s) = 4.92093 5.38683 5.15915
#
# Compressibility (1/GPa) = 0.04855450
#
# Stress axis : x y z
#
# Youngs Moduli (GPa) = 48.66747 42.07812 92.95521
#
# Poissons Ratio (x) = -0.03316 -0.07549
# Poissons Ratio (y) = -0.03835 0.45161
# Poissons Ratio (z) = -0.03952 0.20443
#
# Static dielectric constant tensor:
#      x y z
#    x 1.699420 0.000000 0.000000 
#    y 0.000000 1.656160 0.000000 
#    z 0.000000 0.000000 1.668190 
# 
# From -- ./inp_files/33333.got.cif
#   From: 2010.05.17/outbox.cif.g08.bks.cpg/sg51_17_cif.got.tgz:33333.got - 2010.06.03 11:52:47.
