data_PCOD9403133
_publ_section_title
;
Structure prediction by ZEFSAII (Michael W. Deem and Ramdas Pophale) SiO2 
 PCOD9403133
Probable space group: P M M A
;
_chemical_formula_sum "Si O2"
_cell_formula_units_Z 64
_cell_length_a 25.445085
_cell_length_b 8.890156
_cell_length_c 15.691023
_cell_angle_alpha 90.000000
_cell_angle_beta 90.000000
_cell_angle_gamma 90.000000
_cell_volume 3549.478475
_symmetry_space_group_name_H-M "P M M A"
_symmetry_group_IT_number 51
_symmetry_cell_setting 'orthorhombic'
loop_
_space_group_symop_operation_xyz
x,y,z
1/2-x,-y,z
1/2+x,-y,-z
-x,y,-z
-x,-y,-z
1/2+x,y,-z
1/2-x,y,z
x,-y,z
loop_
_atom_site_type_symbol
_atom_site_label
_atom_site_fract_x
_atom_site_fract_y
_atom_site_fract_z
Si Si1 0.812406 0.321216 0.200630
Si Si2 0.973942 0.330764 0.243211
Si Si3 0.906765 0.327800 0.687469
Si Si4 0.126449 0.681123 0.132276
Si Si5 0.114044 0.176781 0.658452
Si Si6 0.186723 0.826767 0.979028
Si Si7 0.061283 0.819032 0.486677
Si Si8 0.984648 0.169035 0.903065
O O1 0.750000 0.290876 0.209734
O O2 0.819759 0.500000 0.193961
O O3 0.843111 0.258842 0.282806
O O4 0.830494 0.245694 0.111335
O O5 0.953198 0.500000 0.254251
O O6 0.940809 0.210663 0.294613
O O7 0.034240 0.329473 0.273415
O O8 0.975614 0.277333 0.146399
O O9 0.893217 0.500000 0.664911
O O10 0.869503 0.278899 0.766473
O O11 0.913675 0.232064 0.602412
O O12 0.122402 0.500000 0.129089
O O13 0.072533 0.758943 0.103654
O O14 0.168116 0.738896 0.063289
O O15 0.100155 0.231051 0.563009
O O16 0.126019 0.000000 0.656458
O O17 0.250000 0.825663 0.977734
O O18 0.168315 0.000000 0.983332
O O19 0.000000 0.765337 0.500000
O O20 0.058857 0.000000 0.489838
O O21 0.984879 0.000000 0.865295
O O22 0.000000 0.159191 0.000000
#
# Coordination Sequence:
#
# PCOD9403133 Si02
#       8
#     8   8   8   8   8   8   8   8
#     4  10  22  40  60  82 109 142 181 228 279 328
#     4  10  20  33  49  73 105 142 183 223 267 318
#     4   9  19  34  52  76 108 145 182 224 269 315
#     4  10  21  36  54  79 109 143 182 223 273 327
#     4  11  22  35  55  81 110 144 183 227 276 329
#     4  10  21  38  61  87 112 142 183 229 277 330
#     4  10  20  34  53  80 111 146 185 225 271 324
#     4  10  21  34  48  69 102 144 184 221 266 319
#
# _framework density 18.030816999999999
#
# number of rings (size 3 to 8) (size 9 to 14) (size 15 to 20)
#    0.000    2.000    1.250    3.000    1.750    6.250 
#    0.000    0.000    0.000    0.750    0.000    0.000 
#    0.000    0.000    0.000    0.000    0.000    0.000 
#
# Total GULP energy -356680.445017 kJ/mol
# GULP energy per Si atom -5573.131953 kJ/mol
# Density = 1.798978 g / cm^3
# Si number density = 18.030817 Si / 1000 Ang^3
#
#
#
# Elastic Constant Matrix: (Units=GPa)
#
#
# Indices 1 2 3 4 5 6 
#
# 1 30.4345 16.7505 34.8740 0.0000 0.0000 0.0000
# 2 16.7505 47.8568 39.4824 0.0000 0.0000 0.0000
# 3 34.8740 39.4824 143.1623 0.0000 0.0000 0.0000
# 4 0.0000 0.0000 0.0000 31.1652 0.0000 0.0000
# 5 0.0000 0.0000 0.0000 0.0000 27.2473 0.0000
# 6 0.0000 0.0000 0.0000 0.0000 0.0000 23.9143
#
#
#
# Elastic Compliance Matrix: (Units=1/GPa)
#
#
# Indices 1 2 3 4 5 6 
#
# 1 0.048631 -0.009383 -0.009259 0.000000 0.000000 0.000000
# 2 -0.009383 0.028861 -0.005674 0.000000 0.000000 0.000000
# 3 -0.009259 -0.005674 0.010805 0.000000 0.000000 0.000000
# 4 0.000000 0.000000 0.000000 0.032087 0.000000 0.000000
# 5 0.000000 0.000000 0.000000 0.000000 0.036701 0.000000
# 6 0.000000 0.000000 0.000000 0.000000 0.000000 0.041816
#
#
# Mechanical properties :
#
#
# Convention : Reuss Voigt Hill
#
# Bulk Modulus (GPa) = 25.21044 44.85192 35.03118
# Shear Modulus (GPa) = 19.17518 25.15514 22.16516
#
# Velocity S-wave (km/s) = 3.26462 3.73918 3.50993
# Velocity P-wave (km/s) = 5.31249 6.60084 5.99140
#
# Compressibility (1/GPa) = 0.03966610
#
# Stress axis : x y z
#
# Youngs Moduli (GPa) = 20.56303 34.64915 92.54779
#
# Poissons Ratio (x) = 0.32511 0.85687
# Poissons Ratio (y) = 0.19294 0.52509
# Poissons Ratio (z) = 0.19039 0.19659
#
# Static dielectric constant tensor:
#      x y z
#    x 1.632470 0.000000 0.000000 
#    y 0.000000 1.626180 0.000000 
#    z 0.000000 0.000000 1.657600 
# 
# From -- ./inp_files/26255.got.cif
#   From: 2010.05.17/outbox.cif.g08.bks.cpg/sg51_14_cif.got.tgz:26255.got - 2010.06.03 11:52:47.
