data_PCOD9403343
_publ_section_title
;
Structure prediction by ZEFSAII (Michael W. Deem and Ramdas Pophale) SiO2 
 PCOD9403343
Probable space group: P M M A
;
_chemical_formula_sum "Si O2"
_cell_formula_units_Z 40
_cell_length_a 19.095109
_cell_length_b 7.518295
_cell_length_c 13.052043
_cell_angle_alpha 90.000000
_cell_angle_beta 90.000000
_cell_angle_gamma 90.000000
_cell_volume 1873.786044
_symmetry_space_group_name_H-M "P M M A"
_symmetry_group_IT_number 51
_symmetry_cell_setting 'orthorhombic'
loop_
_space_group_symop_operation_xyz
x,y,z
1/2-x,-y,z
1/2+x,-y,-z
-x,y,-z
-x,-y,-z
1/2+x,y,-z
1/2-x,y,z
x,-y,z
loop_
_atom_site_type_symbol
_atom_site_label
_atom_site_fract_x
_atom_site_fract_y
_atom_site_fract_z
Si Si1 0.671849 0.710804 0.699196
Si Si2 0.922079 0.288826 0.516274
Si Si3 0.924023 0.217139 0.125820
Si Si4 0.582926 0.214022 0.893884
Si Si5 0.330411 0.785061 0.684061
O O1 0.750000 0.785498 0.690516
O O2 0.676856 0.500000 0.679459
O O3 0.618506 0.785739 0.614844
O O4 0.640124 0.732606 0.811688
O O5 0.930561 0.500000 0.533717
O O6 0.874047 0.264470 0.416609
O O7 0.000000 0.214452 0.500000
O O8 0.872544 0.277676 0.215353
O O9 0.004981 0.273049 0.140327
O O10 0.923291 0.000000 0.127327
O O11 0.903837 0.273319 0.010574
O O12 0.580944 0.000000 0.896638
O O13 0.250000 0.722159 0.680229
O O14 0.328446 0.000000 0.688306
#
# Coordination Sequence:
#
# PCOD9403343 Si02
#       5
#     8   8   8   8   8
#     4  10  21  35  49  70 104 136 160 201 259 302
#     4  10  21  37  56  75  97 131 173 212 253 301
#     4   8  16  32  52  76 105 132 162 207 255 289
#     4   9  17  32  55  77  98 131 173 208 240 290
#     4  10  20  33  51  76 105 135 166 204 253 304
#
# _framework density 21.347154
#
# number of rings (size 3 to 8) (size 9 to 14) (size 15 to 20)
#    0.000    2.600    0.000    3.000    0.000    3.600 
#    0.000    5.000    0.000    0.000    0.000    0.000 
#    0.000    0.000    0.000    0.000    0.000    0.000 
#
# Total GULP energy -223395.401691 kJ/mol
# GULP energy per Si atom -5584.885042 kJ/mol
# Density = 2.129857 g / cm^3
# Si number density = 21.347154 Si / 1000 Ang^3
#
#
#
# Elastic Constant Matrix: (Units=GPa)
#
#
# Indices 1 2 3 4 5 6 
#
# 1 130.5244 -3.2171 52.6177 0.0000 0.0000 0.0000
# 2 -3.2171 51.2455 -15.3704 0.0000 0.0000 0.0000
# 3 52.6177 -15.3704 80.2214 0.0000 0.0000 0.0000
# 4 0.0000 0.0000 0.0000 46.9280 0.0000 0.0000
# 5 0.0000 0.0000 0.0000 0.0000 -622.5170 0.0000
# 6 0.0000 0.0000 0.0000 0.0000 0.0000 10.1688
#
#
#
# Elastic Compliance Matrix: (Units=1/GPa)
#
#
# Indices 1 2 3 4 5 6 
#
# 1 0.010522 -0.001495 -0.007188 0.000000 0.000000 0.000000
# 2 -0.001495 0.020916 0.004988 0.000000 0.000000 0.000000
# 3 -0.007188 0.004988 0.018136 0.000000 0.000000 0.000000
# 4 0.000000 0.000000 0.000000 0.021309 0.000000 0.000000
# 5 0.000000 0.000000 0.000000 0.000000 -0.001606 0.000000
# 6 0.000000 0.000000 0.000000 0.000000 0.000000 0.098340
#
#
# Mechanical properties :
#
#
# Convention : Reuss Voigt Hill
#
# Bulk Modulus (GPa) = 23.70554 36.67240 30.18897
# Shear Modulus (GPa) = 26.44537 -97.88664 -35.72063
#
# Velocity S-wave (km/s) = 3.52351 -6.77895 -4.09506
# Velocity P-wave (km/s) = 5.26141 6.63746 2.86125
#
# Compressibility (1/GPa) = 0.04218423
#
# Stress axis : x y z
#
# Youngs Moduli (GPa) = 95.03650 47.80974 55.13882
#
# Poissons Ratio (x) = 0.07150 0.39635
# Poissons Ratio (y) = 0.14212 -0.27505
# Poissons Ratio (z) = 0.68314 -0.23849
#
# Static dielectric constant tensor:
#      x y z
#    x 1.711760 0.000000 0.000000 
#    y 0.000000 1.808600 0.000000 
#    z 0.000000 0.000000 1.746290 
# 
# From -- ./inp_files/16195.got.cif
#   From: 2010.05.17/outbox.cif.g08.bks.cpg/sg51_9_cif.got.tgz:16195.got - 2010.06.03 11:52:47.
