data_PCOD9403890
_publ_section_title
;
Structure prediction by ZEFSAII (Michael W. Deem and Ramdas Pophale) SiO2 
 PCOD9403890
Probable space group: P M M A
;
_chemical_formula_sum "Si O2"
_cell_formula_units_Z 48
_cell_length_a 7.889862
_cell_length_b 9.382116
_cell_length_c 32.427212
_cell_angle_alpha 90.000000
_cell_angle_beta 90.000000
_cell_angle_gamma 90.000000
_cell_volume 2400.378987
_symmetry_space_group_name_H-M "P M M A"
_symmetry_group_IT_number 51
_symmetry_cell_setting 'orthorhombic'
loop_
_space_group_symop_operation_xyz
x,y,z
1/2-x,-y,z
1/2+x,-y,-z
-x,y,-z
-x,-y,-z
1/2+x,y,-z
1/2-x,y,z
x,-y,z
loop_
_atom_site_type_symbol
_atom_site_label
_atom_site_fract_x
_atom_site_fract_y
_atom_site_fract_z
Si Si1 0.954062 0.161553 0.124407
Si Si2 0.453300 0.664798 0.543850
Si Si3 0.045859 0.663385 0.954242
Si Si4 0.047629 0.661907 0.205380
Si Si5 0.542944 0.333437 0.366019
Si Si6 0.454086 0.161899 0.713555
O O1 0.750000 0.154276 0.121230
O O2 0.017703 0.239391 0.083067
O O3 0.993576 0.254029 0.164574
O O4 0.018576 0.000000 0.128284
O O5 0.500000 0.733018 0.500000
O O6 0.250000 0.660911 0.544997
O O7 0.515513 0.500000 0.542768
O O8 0.510335 0.721178 0.588497
O O9 0.250000 0.659172 0.951708
O O10 0.983357 0.500000 0.950065
O O11 0.000000 0.714931 0.000000
O O12 0.250000 0.654954 0.205361
O O13 0.979857 0.500000 0.205523
O O14 0.993810 0.746866 0.246053
O O15 0.750000 0.331496 0.365351
O O16 0.494028 0.500000 0.361758
O O17 0.482213 0.240706 0.327640
O O18 0.250000 0.155199 0.710305
O O19 0.517903 0.000000 0.717088
#
# Coordination Sequence:
#
# PCOD9403890 Si02
#       6
#     8   8   8   8   8   8
#     4  10  21  37  57  81 108 139 176 214 253 302
#     4   8  13  22  38  61  88 118 154 197 243 287
#     4   9  18  33  53  77 106 140 177 216 255 295
#     4  11  24  39  55  77 104 134 169 209 255 306
#     4   8  14  26  45  68  94 125 161 201 245 293
#     4  10  20  34  54  78 101 129 167 208 252 303
#
# _framework density 19.996842000000001
#
# number of rings (size 3 to 8) (size 9 to 14) (size 15 to 20)
#    0.000    2.667    0.000    3.000    0.000    6.333 
#    0.000    2.500    0.000    3.500    0.000    0.000 
#    0.000    0.000    0.000    0.000    0.000    0.000 
#
# Total GULP energy -267715.227350 kJ/mol
# GULP energy per Si atom -5577.400570 kJ/mol
# Density = 1.995133 g / cm^3
# Si number density = 19.996842 Si / 1000 Ang^3
#
#
#
# Elastic Constant Matrix: (Units=GPa)
#
#
# Indices 1 2 3 4 5 6 
#
# 1 17.6906 8.6866 5.6016 0.0000 0.0000 0.0000
# 2 8.6866 139.5410 120.1846 0.0000 0.0000 0.0000
# 3 5.6016 120.1846 242.2763 0.0000 0.0000 0.0000
# 4 0.0000 0.0000 0.0000 -4.9893 0.0000 0.0000
# 5 0.0000 0.0000 0.0000 0.0000 24.0068 0.0000
# 6 0.0000 0.0000 0.0000 0.0000 0.0000 11.0967
#
#
#
# Elastic Compliance Matrix: (Units=1/GPa)
#
#
# Indices 1 2 3 4 5 6 
#
# 1 0.058396 -0.004317 0.000791 0.000000 0.000000 0.000000
# 2 -0.004317 0.012831 -0.006265 0.000000 0.000000 0.000000
# 3 0.000791 -0.006265 0.007217 0.000000 0.000000 0.000000
# 4 0.000000 0.000000 0.000000 -0.200429 0.000000 0.000000
# 5 0.000000 0.000000 0.000000 0.000000 0.041655 0.000000
# 6 0.000000 0.000000 0.000000 0.000000 0.000000 0.090117
#
#
# Mechanical properties :
#
#
# Convention : Reuss Voigt Hill
#
# Bulk Modulus (GPa) = 16.98851 74.27258 45.63055
# Shear Modulus (GPa) = 102.06082 23.69185 62.87634
#
# Velocity S-wave (km/s) = 7.15187 3.44580 5.61350
# Velocity P-wave (km/s) = 8.75860 7.28383 8.05504
#
# Compressibility (1/GPa) = 0.05886333
#
# Stress axis : x y z
#
# Youngs Moduli (GPa) = 17.12433 77.93426 138.55705
#
# Poissons Ratio (x) = 0.33642 -0.10963
# Poissons Ratio (y) = 0.07392 0.86811
# Poissons Ratio (z) = -0.01355 0.48829
#
# Static dielectric constant tensor:
#      x y z
#    x 1.731380 0.000000 0.000000 
#    y 0.000000 1.694930 0.000000 
#    z 0.000000 0.000000 1.707020 
# 
# From -- ./inp_files/36932.got.cif
#   From: 2010.05.17/outbox.cif.g08.bks.cpg/sg51_19_cif.got.tgz:36932.got - 2010.06.03 11:52:47.
