data_PCOD9403471
_publ_section_title
;
Structure prediction by ZEFSAII (Michael W. Deem and Ramdas Pophale) SiO2 
 PCOD9403471
Probable space group: P M M A
;
_chemical_formula_sum "Si O2"
_cell_formula_units_Z 56
_cell_length_a 14.680874
_cell_length_b 14.238076
_cell_length_c 12.465475
_cell_angle_alpha 90.000000
_cell_angle_beta 90.000000
_cell_angle_gamma 90.000000
_cell_volume 2605.625826
_symmetry_space_group_name_H-M "P M M A"
_symmetry_group_IT_number 51
_symmetry_cell_setting 'orthorhombic'
loop_
_space_group_symop_operation_xyz
x,y,z
1/2-x,-y,z
1/2+x,-y,-z
-x,y,-z
-x,-y,-z
1/2+x,y,-z
1/2-x,y,z
x,-y,z
loop_
_atom_site_type_symbol
_atom_site_label
_atom_site_fract_x
_atom_site_fract_y
_atom_site_fract_z
Si Si1 0.641119 0.780817 0.272034
Si Si2 0.470272 0.387922 0.624767
Si Si3 0.648655 0.804534 0.037098
Si Si4 0.141369 0.887102 0.190406
Si Si5 0.608946 0.398638 0.985714
Si Si6 0.347769 0.391845 0.265347
Si Si7 0.002785 0.111073 0.380235
O O1 0.750000 0.777612 0.268039
O O2 0.604543 0.683005 0.325059
O O3 0.597767 0.863128 0.341324
O O4 0.604799 0.812490 0.153645
O O5 0.500000 0.382021 0.500000
O O6 0.451153 0.500000 0.646984
O O7 0.561542 0.353971 0.684293
O O8 0.750000 0.847354 0.041197
O O9 0.610464 0.839872 0.922952
O O10 0.653684 0.692025 0.033509
O O11 0.250000 0.865495 0.205313
O O12 0.079305 0.858171 0.292529
O O13 0.133676 0.000000 0.178272
O O14 0.635877 0.500000 0.030959
O O15 0.636674 0.396130 0.861518
O O16 0.500000 0.390614 0.000000
O O17 0.250000 0.347315 0.289300
O O18 0.343707 0.500000 0.303841
O O19 0.000000 0.152807 0.500000
O O20 0.016685 0.000000 0.388130
#
# Coordination Sequence:
#
# PCOD9403471 Si02
#       7
#     8   8   8   8   8   8   8
#     4  11  25  42  60  90 131 170 213 262 315 383
#     4  10  22  41  63  88 123 169 220 272 324 380
#     4  10  22  37  57  87 123 166 210 257 310 373
#     4   9  20  40  66  97 129 162 206 260 319 384
#     4  10  20  33  52  80 116 159 204 252 304 360
#     4   9  18  33  54  82 113 148 201 264 316 363
#     4  10  23  44  69  96 125 160 206 261 320 385
#
# _framework density 21.491956999999999
#
# number of rings (size 3 to 8) (size 9 to 14) (size 15 to 20)
#    0.000    2.143    0.000    1.714    4.000    4.857 
#    0.000    7.143    0.000    0.000    0.000    0.000 
#    0.000    0.000    0.000    0.000    0.000    0.000 
#
# Total GULP energy -311849.422167 kJ/mol
# GULP energy per Si atom -5568.739682 kJ/mol
# Density = 2.144304 g / cm^3
# Si number density = 21.491957 Si / 1000 Ang^3
#
#
#
# Elastic Constant Matrix: (Units=GPa)
#
#
# Indices 1 2 3 4 5 6 
#
# 1 107.4505 -10.4148 35.3794 0.0000 0.0000 0.0000
# 2 -10.4148 25.8905 14.3617 0.0000 0.0000 0.0000
# 3 35.3794 14.3617 124.5991 0.0000 0.0000 0.0000
# 4 0.0000 0.0000 0.0000 23.8635 0.0000 0.0000
# 5 0.0000 0.0000 0.0000 0.0000 -28.5097 0.0000
# 6 0.0000 0.0000 0.0000 0.0000 0.0000 28.8738
#
#
#
# Elastic Compliance Matrix: (Units=1/GPa)
#
#
# Indices 1 2 3 4 5 6 
#
# 1 0.011269 0.006739 -0.003977 0.000000 0.000000 0.000000
# 2 0.006739 0.045292 -0.007134 0.000000 0.000000 0.000000
# 3 -0.003977 -0.007134 0.009977 0.000000 0.000000 0.000000
# 4 0.000000 0.000000 0.000000 0.041905 0.000000 0.000000
# 5 0.000000 0.000000 0.000000 0.000000 -0.035076 0.000000
# 6 0.000000 0.000000 0.000000 0.000000 0.000000 0.034634
#
#
# Mechanical properties :
#
#
# Convention : Reuss Voigt Hill
#
# Bulk Modulus (GPa) = 17.30243 37.39920 27.35081
# Shear Modulus (GPa) = 36.76209 19.41977 28.09093
#
# Velocity S-wave (km/s) = 4.14031 3.00923 3.61923
# Velocity P-wave (km/s) = 5.56097 5.43260 5.49716
#
# Compressibility (1/GPa) = 0.05779535
#
# Stress axis : x y z
#
# Youngs Moduli (GPa) = 88.73790 22.07880 100.22881
#
# Poissons Ratio (x) = -0.14879 0.39857
# Poissons Ratio (y) = -0.59800 0.71504
# Poissons Ratio (z) = 0.35287 0.15751
#
# Static dielectric constant tensor:
#      x y z
#    x 1.864330 0.000000 0.000000 
#    y 0.000000 1.810740 0.000000 
#    z 0.000000 0.000000 1.813320 
# 
# From -- ./inp_files/16628.got.cif
#   From: 2010.05.17/outbox.cif.g08.bks.cpg/sg51_9_cif.got.tgz:16628.got - 2010.06.03 11:52:47.
