data_PCOD9403198
_publ_section_title
;
Structure prediction by ZEFSAII (Michael W. Deem and Ramdas Pophale) SiO2 
 PCOD9403198
Probable space group: P M M A
;
_chemical_formula_sum "Si O2"
_cell_formula_units_Z 40
_cell_length_a 25.980738
_cell_length_b 9.055095
_cell_length_c 9.760864
_cell_angle_alpha 90.000000
_cell_angle_beta 90.000000
_cell_angle_gamma 90.000000
_cell_volume 2296.321838
_symmetry_space_group_name_H-M "P M M A"
_symmetry_group_IT_number 51
_symmetry_cell_setting 'orthorhombic'
loop_
_space_group_symop_operation_xyz
x,y,z
1/2-x,-y,z
1/2+x,-y,-z
-x,y,-z
-x,-y,-z
1/2+x,y,-z
1/2-x,y,z
x,-y,z
loop_
_atom_site_type_symbol
_atom_site_label
_atom_site_fract_x
_atom_site_fract_y
_atom_site_fract_z
Si Si1 0.971365 0.825033 0.736948
Si Si2 0.918998 0.676310 0.275760
Si Si3 0.902435 0.323571 0.959673
Si Si4 0.691090 0.323016 0.762280
Si Si5 0.624541 0.825091 0.534272
O O1 0.946443 0.762152 0.876374
O O2 0.928372 0.799905 0.620036
O O3 0.023989 0.742039 0.704735
O O4 0.980598 0.000000 0.747276
O O5 0.919949 0.500000 0.291805
O O6 0.882187 0.747762 0.388685
O O7 0.902793 0.711371 0.119890
O O8 0.911643 0.500000 0.944747
O O9 0.848395 0.288131 0.885513
O O10 0.750000 0.281993 0.791010
O O11 0.688820 0.500000 0.741831
O O12 0.669179 0.243709 0.627695
O O13 0.631327 0.000000 0.519455
#
# Coordination Sequence:
#
# PCOD9403198 Si02
#       5
#     8   8   8   8   8
#     4  10  20  33  50  73 102 139 177 208 246 299
#     4  11  21  32  49  75 107 139 170 208 252 298
#     4   9  19  34  51  75 104 132 167 209 252 300
#     4   9  18  36  60  78  94 124 166 209 253 302
#     4  10  21  35  51  74 104 135 169 209 251 298
#
# _framework density 17.419160999999999
#
# number of rings (size 3 to 8) (size 9 to 14) (size 15 to 20)
#    0.000    2.200    0.000    3.000    0.000    9.200 
#    0.000    1.000    0.000    3.600    0.000    0.000 
#    0.000    0.000    0.000    0.000    0.000    0.000 
#
# Total GULP energy -223344.496858 kJ/mol
# GULP energy per Si atom -5583.612421 kJ/mol
# Density = 1.737951 g / cm^3
# Si number density = 17.419161 Si / 1000 Ang^3
#
#
#
# Elastic Constant Matrix: (Units=GPa)
#
#
# Indices 1 2 3 4 5 6 
#
# 1 52.7573 13.4791 -8.5968 0.0000 0.0000 0.0000
# 2 13.4791 30.3179 29.2095 0.0000 0.0000 0.0000
# 3 -8.5968 29.2095 66.0776 0.0000 0.0000 0.0000
# 4 0.0000 0.0000 0.0000 14.4204 0.0000 0.0000
# 5 0.0000 0.0000 0.0000 0.0000 8.7432 0.0000
# 6 0.0000 0.0000 0.0000 0.0000 0.0000 10.4043
#
#
#
# Elastic Compliance Matrix: (Units=1/GPa)
#
#
# Indices 1 2 3 4 5 6 
#
# 1 0.028998 -0.028787 0.016498 0.000000 0.000000 0.000000
# 2 -0.028787 0.086029 -0.041774 0.000000 0.000000 0.000000
# 3 0.016498 -0.041774 0.035746 0.000000 0.000000 0.000000
# 4 0.000000 0.000000 0.000000 0.069346 0.000000 0.000000
# 5 0.000000 0.000000 0.000000 0.000000 0.114375 0.000000
# 6 0.000000 0.000000 0.000000 0.000000 0.000000 0.096114
#
#
# Mechanical properties :
#
#
# Convention : Reuss Voigt Hill
#
# Bulk Modulus (GPa) = 23.44840 24.14848 23.79844
# Shear Modulus (GPa) = 9.04240 14.38431 11.71335
#
# Velocity S-wave (km/s) = 2.28086 2.87675 2.59596
# Velocity P-wave (km/s) = 4.51962 4.99275 4.76206
#
# Compressibility (1/GPa) = 0.04264683
#
# Stress axis : x y z
#
# Youngs Moduli (GPa) = 34.48531 11.62396 27.97488
#
# Poissons Ratio (x) = 0.33462 -0.46153
# Poissons Ratio (y) = 0.99272 1.16863
# Poissons Ratio (z) = -0.56893 0.48558
#
# Static dielectric constant tensor:
#      x y z
#    x 1.574360 0.000000 0.000000 
#    y 0.000000 1.576590 0.000000 
#    z 0.000000 0.000000 1.586200 
# 
# From -- ./inp_files/11413.got.cif
#   From: 2010.05.17/outbox.cif.g08.bks.cpg/sg51_6_cif.got.tgz:11413.got - 2010.06.03 11:52:47.
