data_PCOD9403395
_publ_section_title
;
Structure prediction by ZEFSAII (Michael W. Deem and Ramdas Pophale) SiO2 
 PCOD9403395
Probable space group: P M M A
;
_chemical_formula_sum "Si O2"
_cell_formula_units_Z 64
_cell_length_a 29.163971
_cell_length_b 7.716258
_cell_length_c 13.352382
_cell_angle_alpha 90.000000
_cell_angle_beta 90.000000
_cell_angle_gamma 90.000000
_cell_volume 3004.776310
_symmetry_space_group_name_H-M "P M M A"
_symmetry_group_IT_number 51
_symmetry_cell_setting 'orthorhombic'
loop_
_space_group_symop_operation_xyz
x,y,z
1/2-x,-y,z
1/2+x,-y,-z
-x,y,-z
-x,-y,-z
1/2+x,y,-z
1/2-x,y,z
x,-y,z
loop_
_atom_site_type_symbol
_atom_site_label
_atom_site_fract_x
_atom_site_fract_y
_atom_site_fract_z
Si Si1 0.147176 0.295418 0.526295
Si Si2 0.639177 0.209430 0.864786
Si Si3 0.802953 0.712743 0.272749
Si Si4 0.864482 0.293301 0.088473
Si Si5 0.048880 0.209159 0.459357
Si Si6 0.198439 0.206287 0.322314
Si Si7 0.954263 0.790606 0.768528
Si Si8 0.032063 0.705542 0.911240
O O1 0.154053 0.500000 0.526120
O O2 0.172208 0.227240 0.625469
O O3 0.093003 0.260063 0.523426
O O4 0.169663 0.230124 0.423478
O O5 0.671739 0.273851 0.775344
O O6 0.587351 0.269453 0.839524
O O7 0.638663 0.000000 0.861451
O O8 0.652951 0.262057 0.976060
O O9 0.750000 0.766550 0.270188
O O10 0.803221 0.500000 0.272820
O O11 0.831393 0.772527 0.175774
O O12 0.867380 0.500000 0.103564
O O13 0.916581 0.222256 0.093754
O O14 0.054866 0.268056 0.344624
O O15 0.000000 0.271279 0.500000
O O16 0.047690 0.000000 0.458076
O O17 0.250000 0.276793 0.332446
O O18 0.201890 0.000000 0.307598
O O19 0.002864 0.731321 0.810870
O O20 0.954149 0.000000 0.768643
O O21 0.036514 0.500000 0.930011
O O22 0.000000 0.779749 0.000000
#
# Coordination Sequence:
#
# PCOD9403395 Si02
#       8
#     8   8   8   8   8   8   8   8
#     4  11  22  37  61  89 117 149 192 242 288 345
#     4  10  20  36  56  82 115 147 185 234 287 343
#     4   9  20  39  59  80 112 152 191 239 294 341
#     4  10  21  37  57  81 111 151 195 234 285 345
#     4  10  22  40  59  83 118 156 190 229 284 350
#     4  10  21  39  62  85 114 152 190 235 296 355
#     4  10  20  35  55  78 109 148 185 224 278 339
#     4  10  20  33  51  78 110 142 181 229 274 328
#
# _framework density 21.299422
#
# number of rings (size 3 to 8) (size 9 to 14) (size 15 to 20)
#    0.000    2.000    2.500    0.750    1.750    3.250 
#    0.000    1.250    0.000    1.500    0.000    0.000 
#    0.000    0.000    0.000    0.000    0.000    0.000 
#
# Total GULP energy -357534.782924 kJ/mol
# GULP energy per Si atom -5586.480983 kJ/mol
# Density = 2.125094 g / cm^3
# Si number density = 21.299422 Si / 1000 Ang^3
#
#
#
# Elastic Constant Matrix: (Units=GPa)
#
#
# Indices 1 2 3 4 5 6 
#
# 1 171.6029 3.7283 99.2136 0.0000 0.0000 0.0000
# 2 3.7283 28.4727 -1.5618 0.0000 0.0000 0.0000
# 3 99.2136 -1.5618 165.5013 0.0000 0.0000 0.0000
# 4 0.0000 0.0000 0.0000 9.6537 0.0000 0.0000
# 5 0.0000 0.0000 0.0000 0.0000 26.4140 0.0000
# 6 0.0000 0.0000 0.0000 0.0000 0.0000 12.9215
#
#
#
# Elastic Compliance Matrix: (Units=1/GPa)
#
#
# Indices 1 2 3 4 5 6 
#
# 1 0.008980 -0.001472 -0.005397 0.000000 0.000000 0.000000
# 2 -0.001472 0.035381 0.001216 0.000000 0.000000 0.000000
# 3 -0.005397 0.001216 0.009289 0.000000 0.000000 0.000000
# 4 0.000000 0.000000 0.000000 0.103587 0.000000 0.000000
# 5 0.000000 0.000000 0.000000 0.000000 0.037859 0.000000
# 6 0.000000 0.000000 0.000000 0.000000 0.000000 0.077390
#
#
# Mechanical properties :
#
#
# Convention : Reuss Voigt Hill
#
# Bulk Modulus (GPa) = 23.61592 63.14857 43.38225
# Shear Modulus (GPa) = 16.78383 27.41096 22.09740
#
# Velocity S-wave (km/s) = 2.81017 3.59128 3.22446
# Velocity P-wave (km/s) = 4.65200 6.84900 5.85448
#
# Compressibility (1/GPa) = 0.04234432
#
# Stress axis : x y z
#
# Youngs Moduli (GPa) = 111.36241 28.26393 107.65339
#
# Poissons Ratio (x) = 0.04160 0.58100
# Poissons Ratio (y) = 0.16391 -0.13093
# Poissons Ratio (z) = 0.60102 -0.03437
#
# Static dielectric constant tensor:
#      x y z
#    x 1.764670 0.000000 0.000000 
#    y 0.000000 1.790220 0.000000 
#    z 0.000000 0.000000 1.756980 
# 
# From -- ./inp_files/19438.got.cif
#   From: 2010.05.17/outbox.cif.g08.bks.cpg/sg51_10_cif.got.tgz:19438.got - 2010.06.03 11:52:47.
