data_PCOD9403983
_publ_section_title
;
Structure prediction by ZEFSAII (Michael W. Deem and Ramdas Pophale) SiO2 
 PCOD9403983
Probable space group: P M M A
;
_chemical_formula_sum "Si O2"
_cell_formula_units_Z 44
_cell_length_a 9.577507
_cell_length_b 7.626693
_cell_length_c 30.821963
_cell_angle_alpha 90.000000
_cell_angle_beta 90.000000
_cell_angle_gamma 90.000000
_cell_volume 2251.381213
_symmetry_space_group_name_H-M "P M M A"
_symmetry_group_IT_number 51
_symmetry_cell_setting 'orthorhombic'
loop_
_space_group_symop_operation_xyz
x,y,z
1/2-x,-y,z
1/2+x,-y,-z
-x,y,-z
-x,-y,-z
1/2+x,y,-z
1/2-x,y,z
x,-y,z
loop_
_atom_site_type_symbol
_atom_site_label
_atom_site_fract_x
_atom_site_fract_y
_atom_site_fract_z
Si Si1 0.589804 0.712802 0.302143
Si Si2 0.590851 0.289505 0.779096
Si Si3 0.590616 0.789807 0.876796
Si Si4 0.587745 0.201467 0.613149
Si Si5 0.416784 0.500000 0.455432
Si Si6 0.910560 0.785367 0.041844
O O1 0.750000 0.771555 0.302685
O O2 0.589707 0.500000 0.301722
O O3 0.508704 0.774735 0.259140
O O4 0.507293 0.769795 0.344913
O O5 0.750000 0.222413 0.774371
O O6 0.596540 0.500000 0.775421
O O7 0.542884 0.248689 0.827875
O O8 0.750000 0.722403 0.881566
O O9 0.488435 0.725957 0.914432
O O10 0.597412 0.000000 0.881192
O O11 0.750000 0.239181 0.624959
O O12 0.549338 0.332133 0.574447
O O13 0.578415 0.000000 0.599200
O O14 0.250000 0.500000 0.463618
O O15 0.500000 0.500000 0.500000
O O16 0.750000 0.728228 0.039555
O O17 0.909166 0.000000 0.042024
O O18 0.000000 0.731681 0.000000
#
# Coordination Sequence:
#
# PCOD9403983 Si02
#       6
#     8   8   8   8   4   8
#     4  10  20  34  54  80 110 144 183 228 278 328
#     4   9  18  32  50  71  99 138 177 212 257 317
#     4   9  17  29  45  66  92 121 157 203 252 304
#     4  10  21  38  61  87 115 152 196 237 281 336
#     4  10  22  40  62  88 120 156 194 238 285 336
#     4   9  16  26  42  64  89 118 153 196 249 306
#
# _framework density 19.543558000000001
#
# number of rings (size 3 to 8) (size 9 to 14) (size 15 to 20)
#    0.000    2.545    0.909    1.091    0.000    5.818 
#    0.000    1.818    0.000    0.545    0.000    0.000 
#    0.000    0.000    0.000    0.000    0.000    0.000 
#
# Total GULP energy -245670.948440 kJ/mol
# GULP energy per Si atom -5583.430646 kJ/mol
# Density = 1.949908 g / cm^3
# Si number density = 19.543558 Si / 1000 Ang^3
#
#
#
# Elastic Constant Matrix: (Units=GPa)
#
#
# Indices 1 2 3 4 5 6 
#
# 1 132.6940 33.5744 131.6314 0.0000 0.0000 0.0000
# 2 33.5744 55.8992 37.4850 0.0000 0.0000 0.0000
# 3 131.6314 37.4850 213.1413 0.0000 0.0000 0.0000
# 4 0.0000 0.0000 0.0000 19.0206 0.0000 0.0000
# 5 0.0000 0.0000 0.0000 0.0000 41.2512 0.0000
# 6 0.0000 0.0000 0.0000 0.0000 0.0000 10.5548
#
#
#
# Elastic Compliance Matrix: (Units=1/GPa)
#
#
# Indices 1 2 3 4 5 6 
#
# 1 0.020326 -0.004297 -0.011797 0.000000 0.000000 0.000000
# 2 -0.004297 0.021190 -0.001073 0.000000 0.000000 0.000000
# 3 -0.011797 -0.001073 0.012166 0.000000 0.000000 0.000000
# 4 0.000000 0.000000 0.000000 0.052575 0.000000 0.000000
# 5 0.000000 0.000000 0.000000 0.000000 0.024242 0.000000
# 6 0.000000 0.000000 0.000000 0.000000 0.000000 0.094744
#
#
# Mechanical properties :
#
#
# Convention : Reuss Voigt Hill
#
# Bulk Modulus (GPa) = 51.68632 89.67956 70.68294
# Shear Modulus (GPa) = 18.79514 27.43490 23.11502
#
# Velocity S-wave (km/s) = 3.10450 3.75077 3.44284
# Velocity P-wave (km/s) = 6.27333 8.04639 7.21454
#
# Compressibility (1/GPa) = 0.01934748
#
# Stress axis : x y z
#
# Youngs Moduli (GPa) = 49.19740 47.19260 82.19559
#
# Poissons Ratio (x) = 0.20281 0.96968
# Poissons Ratio (y) = 0.21142 0.08817
# Poissons Ratio (z) = 0.58040 0.05062
#
# Static dielectric constant tensor:
#      x y z
#    x 1.670320 0.000000 0.000000 
#    y 0.000000 1.727070 0.000000 
#    z 0.000000 0.000000 1.635800 
# 
# From -- ./inp_files/36747.got.cif
#   From: 2010.05.17/outbox.cif.g08.bks.cpg/sg51_19_cif.got.tgz:36747.got - 2010.06.03 11:52:47.
