data_PCOD9403738
_publ_section_title
;
Structure prediction by ZEFSAII (Michael W. Deem and Ramdas Pophale) SiO2 
 PCOD9403738
Probable space group: P M M A
;
_chemical_formula_sum "Si O2"
_cell_formula_units_Z 52
_cell_length_a 8.401260
_cell_length_b 22.227624
_cell_length_c 15.161594
_cell_angle_alpha 90.000000
_cell_angle_beta 90.000000
_cell_angle_gamma 90.000000
_cell_volume 2831.276797
_symmetry_space_group_name_H-M "P M M A"
_symmetry_group_IT_number 51
_symmetry_cell_setting 'orthorhombic'
loop_
_space_group_symop_operation_xyz
x,y,z
1/2-x,-y,z
1/2+x,-y,-z
-x,y,-z
-x,-y,-z
1/2+x,y,-z
1/2-x,y,z
x,-y,z
loop_
_atom_site_type_symbol
_atom_site_label
_atom_site_fract_x
_atom_site_fract_y
_atom_site_fract_z
Si Si1 0.560847 0.803627 0.404057
Si Si2 0.942747 0.066876 0.332023
Si Si3 0.934966 0.735839 0.763660
Si Si4 0.441294 0.500000 0.100238
Si Si5 0.065218 0.931941 0.132492
Si Si6 0.443137 0.633007 0.101814
Si Si7 0.068818 0.187055 0.909190
O O1 0.500000 0.785886 0.500000
O O2 0.750000 0.805753 0.405159
O O3 0.505712 0.872416 0.382363
O O4 0.510900 0.756853 0.327880
O O5 0.750000 0.070089 0.320134
O O6 0.025626 0.068698 0.236735
O O7 0.977261 0.000000 0.371011
O O8 0.750000 0.724096 0.747583
O O9 0.999102 0.681350 0.825341
O O10 0.960776 0.791941 0.828858
O O11 0.250000 0.500000 0.103011
O O12 0.492208 0.565764 0.133583
O O13 0.500000 0.500000 0.000000
O O14 0.250000 0.915122 0.117709
O O15 0.946839 0.884567 0.089444
O O16 0.041272 0.000000 0.102277
O O17 0.250000 0.636429 0.098586
O O18 0.500000 0.641899 0.000000
O O19 0.250000 0.205589 0.895415
O O20 0.000000 0.212109 0.000000
#
# Coordination Sequence:
#
# PCOD9403738 Si02
#       7
#     8   8   8   4   8   8   8
#     4  11  23  38  57  80 105 138 175 220 273 326
#     4   9  18  34  55  77 101 130 166 210 266 328
#     4  11  22  37  55  78 108 141 178 220 263 314
#     4   8  14  28  48  76 113 148 183 216 253 300
#     4  10  20  34  53  75  98 128 167 212 263 316
#     4   9  18  31  52  81 114 151 184 218 257 302
#     4  12  24  37  53  74 101 137 176 217 262 312
#
# _framework density 18.366271000000001
#
# number of rings (size 3 to 8) (size 9 to 14) (size 15 to 20)
#    0.000    1.846    1.538    3.231    0.000    4.615 
#    0.000    0.000    0.000    0.000    0.000    0.538 
#    0.000    0.000    0.000    0.000    0.000    0.000 
#
# Total GULP energy -289967.950182 kJ/mol
# GULP energy per Si atom -5576.306734 kJ/mol
# Density = 1.832447 g / cm^3
# Si number density = 18.366271 Si / 1000 Ang^3
#
#
#
# Elastic Constant Matrix: (Units=GPa)
#
#
# Indices 1 2 3 4 5 6 
#
# 1 22.2635 21.9186 15.4500 0.0000 0.0000 0.0000
# 2 21.9186 121.7756 46.1455 0.0000 0.0000 0.0000
# 3 15.4500 46.1455 116.9099 0.0000 0.0000 0.0000
# 4 0.0000 0.0000 0.0000 546.8461 0.0000 0.0000
# 5 0.0000 0.0000 0.0000 0.0000 24.3109 0.0000
# 6 0.0000 0.0000 0.0000 0.0000 0.0000 13.4197
#
#
#
# Elastic Compliance Matrix: (Units=1/GPa)
#
#
# Indices 1 2 3 4 5 6 
#
# 1 0.056164 -0.008580 -0.004036 0.000000 0.000000 0.000000
# 2 -0.008580 0.010967 -0.003195 0.000000 0.000000 0.000000
# 3 -0.004036 -0.003195 0.010348 0.000000 0.000000 0.000000
# 4 0.000000 0.000000 0.000000 0.001829 0.000000 0.000000
# 5 0.000000 0.000000 0.000000 0.000000 0.041134 0.000000
# 6 0.000000 0.000000 0.000000 0.000000 0.000000 0.074517
#
#
# Mechanical properties :
#
#
# Convention : Reuss Voigt Hill
#
# Bulk Modulus (GPa) = 21.80640 47.55304 34.67972
# Shear Modulus (GPa) = 20.67265 128.74433 74.70849
#
# Velocity S-wave (km/s) = 3.35860 8.38155 6.38477
# Velocity P-wave (km/s) = 5.19029 10.93686 8.56020
#
# Compressibility (1/GPa) = 0.04585810
#
# Stress axis : x y z
#
# Youngs Moduli (GPa) = 17.80498 91.18455 96.63737
#
# Poissons Ratio (x) = 0.78234 0.39000
# Poissons Ratio (y) = 0.15276 0.30874
# Poissons Ratio (z) = 0.07186 0.29132
#
# Static dielectric constant tensor:
#      x y z
#    x 1.626830 0.000000 0.000000 
#    y 0.000000 1.712030 0.000000 
#    z 0.000000 0.000000 1.619760 
# 
# From -- ./inp_files/22097.got.cif
#   From: 2010.05.17/outbox.cif.g08.bks.cpg/sg51_12_cif.got.tgz:22097.got - 2010.06.03 11:52:47.
