data_PCOD9403967
_publ_section_title
;
Structure prediction by ZEFSAII (Michael W. Deem and Ramdas Pophale) SiO2 
 PCOD9403967
Probable space group: P M M A
;
_chemical_formula_sum "Si O2"
_cell_formula_units_Z 40
_cell_length_a 9.337446
_cell_length_b 8.411442
_cell_length_c 26.628064
_cell_angle_alpha 90.000000
_cell_angle_beta 90.000000
_cell_angle_gamma 90.000000
_cell_volume 2091.405039
_symmetry_space_group_name_H-M "P M M A"
_symmetry_group_IT_number 51
_symmetry_cell_setting 'orthorhombic'
loop_
_space_group_symop_operation_xyz
x,y,z
1/2-x,-y,z
1/2+x,-y,-z
-x,y,-z
-x,-y,-z
1/2+x,y,-z
1/2-x,y,z
x,-y,z
loop_
_atom_site_type_symbol
_atom_site_label
_atom_site_fract_x
_atom_site_fract_y
_atom_site_fract_z
Si Si1 0.914681 0.692101 0.149166
Si Si2 0.084602 0.305706 0.049913
Si Si3 0.083587 0.689853 0.657998
Si Si4 0.082907 0.808373 0.549528
Si Si5 0.914287 0.190036 0.754112
O O1 0.750000 0.747597 0.148339
O O2 0.912182 0.500000 0.148017
O O3 0.001691 0.746194 0.099994
O O4 0.994857 0.744039 0.199428
O O5 0.250000 0.254330 0.049613
O O6 0.085064 0.500000 0.049949
O O7 0.000000 0.255521 0.000000
O O8 0.250000 0.744225 0.662979
O O9 0.082485 0.500000 0.661938
O O10 0.031822 0.739768 0.602622
O O11 0.988484 0.760282 0.702209
O O12 0.250000 0.766083 0.544470
O O13 0.000000 0.753750 0.500000
O O14 0.071690 0.000000 0.552118
O O15 0.750000 0.247861 0.756427
O O16 0.913205 0.000000 0.757257
#
# Coordination Sequence:
#
# PCOD9403967 Si02
#       5
#     8   8   8   8   8
#     4  10  20  34  54  80 108 139 177 220 266 317
#     4   9  16  27  46  74 108 143 178 218 263 311
#     4  10  21  37  57  81 108 139 177 220 266 317
#     4   9  18  33  53  77 107 143 180 217 258 307
#     4  11  24  39  55  77 105 138 177 220 267 321
#
# _framework density 19.125897999999999
#
# number of rings (size 3 to 8) (size 9 to 14) (size 15 to 20)
#    0.000    2.200    0.000    3.000    0.000   10.000 
#    0.000    2.000    0.000    0.600    0.000    0.000 
#    0.000    0.000    0.000    0.000    0.000    0.000 
#
# Total GULP energy -223385.606837 kJ/mol
# GULP energy per Si atom -5584.640171 kJ/mol
# Density = 1.908237 g / cm^3
# Si number density = 19.125898 Si / 1000 Ang^3
#
#
#
# Elastic Constant Matrix: (Units=GPa)
#
#
# Indices 1 2 3 4 5 6 
#
# 1 164.0905 20.8587 116.7908 0.0000 0.0000 0.0000
# 2 20.8587 6.5234 20.1440 0.0000 0.0000 0.0000
# 3 116.7908 20.1440 193.5010 0.0000 0.0000 0.0000
# 4 0.0000 0.0000 0.0000 64.3240 0.0000 0.0000
# 5 0.0000 0.0000 0.0000 0.0000 43.0499 0.0000
# 6 0.0000 0.0000 0.0000 0.0000 0.0000 -2.1681
#
#
#
# Elastic Compliance Matrix: (Units=1/GPa)
#
#
# Indices 1 2 3 4 5 6 
#
# 1 0.013072 -0.025695 -0.005215 0.000000 0.000000 0.000000
# 2 -0.025695 0.276429 -0.013268 0.000000 0.000000 0.000000
# 3 -0.005215 -0.013268 0.009697 0.000000 0.000000 0.000000
# 4 0.000000 0.000000 0.000000 0.015546 0.000000 0.000000
# 5 0.000000 0.000000 0.000000 0.000000 0.023229 0.000000
# 6 0.000000 0.000000 0.000000 0.000000 0.000000 -0.461243
#
#
# Mechanical properties :
#
#
# Convention : Reuss Voigt Hill
#
# Bulk Modulus (GPa) = 4.74291 75.52242 40.13267
# Shear Modulus (GPa) = 141.37035 34.79592 88.08313
#
# Velocity S-wave (km/s) = 8.60675 4.26996 6.79370
# Velocity P-wave (km/s) = 10.06247 7.99267 9.08670
#
# Compressibility (1/GPa) = 0.21084105
#
# Stress axis : x y z
#
# Youngs Moduli (GPa) = 76.49748 3.61757 103.12651
#
# Poissons Ratio (x) = 0.09295 0.53781
# Poissons Ratio (y) = 1.96563 1.36830
# Poissons Ratio (z) = 0.39894 0.04800
#
# Static dielectric constant tensor:
#      x y z
#    x 1.657590 0.000000 0.000000 
#    y 0.000000 1.663180 0.000000 
#    z 0.000000 0.000000 1.629410 
# 
# From -- ./inp_files/34303.got.cif
#   From: 2010.05.17/outbox.cif.g08.bks.cpg/sg51_18_cif.got.tgz:34303.got - 2010.06.03 11:52:47.
