data_PCOD9403714
_publ_section_title
;
Structure prediction by ZEFSAII (Michael W. Deem and Ramdas Pophale) SiO2 
 PCOD9403714
Probable space group: P M M A
;
_chemical_formula_sum "Si O2"
_cell_formula_units_Z 64
_cell_length_a 8.735419
_cell_length_b 20.652523
_cell_length_c 19.377068
_cell_angle_alpha 90.000000
_cell_angle_beta 90.000000
_cell_angle_gamma 90.000000
_cell_volume 3495.786645
_symmetry_space_group_name_H-M "P M M A"
_symmetry_group_IT_number 51
_symmetry_cell_setting 'orthorhombic'
loop_
_space_group_symop_operation_xyz
x,y,z
1/2-x,-y,z
1/2+x,-y,-z
-x,y,-z
-x,-y,-z
1/2+x,y,-z
1/2-x,y,z
x,-y,z
loop_
_atom_site_type_symbol
_atom_site_label
_atom_site_fract_x
_atom_site_fract_y
_atom_site_fract_z
Si Si1 0.568201 0.291800 0.223722
Si Si2 0.420320 0.423285 0.931420
Si Si3 0.425729 0.252276 0.075051
Si Si4 0.428882 0.826741 0.306455
Si Si5 0.068513 0.573571 0.215651
Si Si6 0.575810 0.927347 0.212831
Si Si7 0.435328 0.074068 0.423302
Si Si8 0.573523 0.903735 0.927217
O O1 0.750000 0.290131 0.220602
O O2 0.505319 0.276800 0.145826
O O3 0.509887 0.237446 0.277541
O O4 0.511815 0.363254 0.246916
O O5 0.250000 0.395724 0.919347
O O6 0.401268 0.500000 0.941971
O O7 0.527331 0.418717 0.865192
O O8 0.500000 0.398191 0.000000
O O9 0.250000 0.275382 0.075411
O O10 0.426458 0.174294 0.079239
O O11 0.500000 0.265904 0.000000
O O12 0.250000 0.812359 0.315757
O O13 0.454987 0.879857 0.247037
O O14 0.486792 0.867337 0.373220
O O15 0.250000 0.577111 0.225832
O O16 0.017506 0.500000 0.235331
O O17 0.750000 0.903707 0.223545
O O18 0.534472 0.928872 0.132908
O O19 0.564296 0.000000 0.240657
O O20 0.500000 0.083239 0.500000
O O21 0.250000 0.075615 0.424100
O O22 0.479119 0.000000 0.401755
O O23 0.750000 0.924882 0.920937
O O24 0.500000 0.920987 0.000000
#
# Coordination Sequence:
#
# PCOD9403714 Si02
#       8
#     8   8   8   8   8   8   8   8
#     4  12  24  37  56  80 108 142 181 229 281 334
#     4   9  16  27  44  66  92 122 160 209 266 327
#     4  10  20  35  54  75  99 132 176 228 283 342
#     4  11  22  38  58  82 113 149 187 225 265 316
#     4  10  21  37  55  74  99 132 172 220 273 331
#     4  11  23  36  52  76 105 138 178 225 275 325
#     4   9  19  36  60  90 123 158 192 225 263 309
#     4  10  20  34  53  71  94 129 171 225 280 332
#
# _framework density 18.307753999999999
#
# number of rings (size 3 to 8) (size 9 to 14) (size 15 to 20)
#    0.000    1.750    1.250    3.750    0.000    6.500 
#    0.000    3.750    0.000    0.000    0.000    0.000 
#    0.000    0.500    0.000    1.625    0.000    2.000 
#
# Total GULP energy -357145.721305 kJ/mol
# GULP energy per Si atom -5580.401895 kJ/mol
# Density = 1.826608 g / cm^3
# Si number density = 18.307754 Si / 1000 Ang^3
#
#
#
# Elastic Constant Matrix: (Units=GPa)
#
#
# Indices 1 2 3 4 5 6 
#
# 1 82.1104 42.4903 22.1468 0.0000 0.0000 0.0000
# 2 42.4903 142.6015 44.2881 0.0000 0.0000 0.0000
# 3 22.1468 44.2881 84.2511 0.0000 0.0000 0.0000
# 4 0.0000 0.0000 0.0000 -6.9578 0.0000 0.0000
# 5 0.0000 0.0000 0.0000 0.0000 21.3115 0.0000
# 6 0.0000 0.0000 0.0000 0.0000 0.0000 51.0191
#
#
#
# Elastic Compliance Matrix: (Units=1/GPa)
#
#
# Indices 1 2 3 4 5 6 
#
# 1 0.014638 -0.003785 -0.001859 0.000000 0.000000 0.000000
# 2 -0.003785 0.009359 -0.003925 0.000000 0.000000 0.000000
# 3 -0.001859 -0.003925 0.014421 0.000000 0.000000 0.000000
# 4 0.000000 0.000000 0.000000 -0.143723 0.000000 0.000000
# 5 0.000000 0.000000 0.000000 0.000000 0.046923 0.000000
# 6 0.000000 0.000000 0.000000 0.000000 0.000000 0.019601
#
#
# Mechanical properties :
#
#
# Convention : Reuss Voigt Hill
#
# Bulk Modulus (GPa) = 51.86038 58.53483 55.19760
# Shear Modulus (GPa) = -378.29380 26.41041 -175.94169
#
# Velocity S-wave (km/s) = -14.39024 3.80225 -9.81381
# Velocity P-wave (km/s) = 15.73902 7.16368 9.90955
#
# Compressibility (1/GPa) = 0.01928254
#
# Stress axis : x y z
#
# Youngs Moduli (GPa) = 68.31332 106.84665 69.34297
#
# Poissons Ratio (x) = 0.40436 0.12888
# Poissons Ratio (y) = 0.25853 0.27217
# Poissons Ratio (z) = 0.12696 0.41937
#
# Static dielectric constant tensor:
#      x y z
#    x 1.648640 0.000000 0.000000 
#    y 0.000000 1.698570 0.000000 
#    z 0.000000 0.000000 1.617380 
# 
# From -- ./inp_files/28424.got.cif
#   From: 2010.05.17/outbox.cif.g08.bks.cpg/sg51_15_cif.got.tgz:28424.got - 2010.06.03 11:52:47.
