data_PCOD9403290
_publ_section_title
;
Structure prediction by ZEFSAII (Michael W. Deem and Ramdas Pophale) SiO2 
 PCOD9403290
Probable space group: P M M A
;
_chemical_formula_sum "Si O2"
_cell_formula_units_Z 48
_cell_length_a 7.517690
_cell_length_b 9.408160
_cell_length_c 32.455091
_cell_angle_alpha 90.000000
_cell_angle_beta 90.000000
_cell_angle_gamma 90.000000
_cell_volume 2295.471679
_symmetry_space_group_name_H-M "P M M A"
_symmetry_group_IT_number 51
_symmetry_cell_setting 'orthorhombic'
loop_
_space_group_symop_operation_xyz
x,y,z
1/2-x,-y,z
1/2+x,-y,-z
-x,y,-z
-x,-y,-z
1/2+x,y,-z
1/2-x,y,z
x,-y,z
loop_
_atom_site_type_symbol
_atom_site_label
_atom_site_fract_x
_atom_site_fract_y
_atom_site_fract_z
Si Si1 0.533134 0.833808 0.634137
Si Si2 0.536861 0.837788 0.046248
Si Si3 0.467877 0.663699 0.285506
Si Si4 0.963206 0.838703 0.794086
Si Si5 0.537429 0.163190 0.544274
Si Si6 0.536453 0.339343 0.123946
O O1 0.750000 0.831725 0.634951
O O2 0.473264 0.740458 0.672535
O O3 0.476100 0.780155 0.588675
O O4 0.482067 0.000000 0.638383
O O5 0.750000 0.844915 0.050510
O O6 0.468509 0.738954 0.082870
O O7 0.468178 0.000000 0.049637
O O8 0.500000 0.785711 0.000000
O O9 0.250000 0.664485 0.285463
O O10 0.523648 0.500000 0.283472
O O11 0.528074 0.751849 0.245635
O O12 0.750000 0.847168 0.789890
O O13 0.999654 0.754119 0.835883
O O14 0.032102 0.000000 0.795646
O O15 0.500000 0.232781 0.500000
O O16 0.750000 0.155938 0.546861
O O17 0.468541 0.000000 0.542267
O O18 0.750000 0.347939 0.120145
O O19 0.468087 0.500000 0.128295
#
# Coordination Sequence:
#
# PCOD9403290 Si02
#       6
#     8   8   8   8   8   8
#     4   8  13  22  37  57  81 110 145 183 223 269
#     4   9  18  33  52  73  98 129 165 203 240 279
#     4   9  16  26  42  65  92 119 149 189 234 277
#     4  10  20  33  51  75 100 126 159 200 243 285
#     4   8  13  21  35  56  80 106 138 177 219 262
#     4  10  21  36  53  74 102 135 167 198 237 287
#
# _framework density 20.910733
#
# number of rings (size 3 to 8) (size 9 to 14) (size 15 to 20)
#    0.000    3.000    0.000    2.500    0.000    5.000 
#    0.000    1.667    0.000    1.500    0.000    2.333 
#    0.000    0.000    0.000    0.000    0.000    0.000 
#
# Total GULP energy -267731.819907 kJ/mol
# GULP energy per Si atom -5577.746248 kJ/mol
# Density = 2.086314 g / cm^3
# Si number density = 20.910733 Si / 1000 Ang^3
#
#
#
# Elastic Constant Matrix: (Units=GPa)
#
#
# Indices 1 2 3 4 5 6 
#
# 1 52.8991 5.8770 2.0660 0.0000 0.0000 0.0000
# 2 5.8770 149.7136 132.6381 0.0000 0.0000 0.0000
# 3 2.0660 132.6381 258.4856 0.0000 0.0000 0.0000
# 4 0.0000 0.0000 0.0000 -43.9868 0.0000 0.0000
# 5 0.0000 0.0000 0.0000 0.0000 17.4382 0.0000
# 6 0.0000 0.0000 0.0000 0.0000 0.0000 5.1377
#
#
#
# Elastic Compliance Matrix: (Units=1/GPa)
#
#
# Indices 1 2 3 4 5 6 
#
# 1 0.019012 -0.001122 0.000424 0.000000 0.000000 0.000000
# 2 -0.001122 0.012313 -0.006309 0.000000 0.000000 0.000000
# 3 0.000424 -0.006309 0.007103 0.000000 0.000000 0.000000
# 4 0.000000 0.000000 0.000000 -0.022734 0.000000 0.000000
# 5 0.000000 0.000000 0.000000 0.000000 0.057346 0.000000
# 6 0.000000 0.000000 0.000000 0.000000 0.000000 0.194641
#
#
# Mechanical properties :
#
#
# Convention : Reuss Voigt Hill
#
# Bulk Modulus (GPa) = 40.96127 82.47339 61.71733
# Shear Modulus (GPa) = 17.25130 17.08562 17.16846
#
# Velocity S-wave (km/s) = 2.87539 2.86155 2.86848
# Velocity P-wave (km/s) = 5.53670 7.10241 6.36786
#
# Compressibility (1/GPa) = 0.02441330
#
# Stress axis : x y z
#
# Youngs Moduli (GPa) = 52.59839 81.21353 140.78815
#
# Poissons Ratio (x) = 0.09109 -0.05963
# Poissons Ratio (y) = 0.05899 0.88829
# Poissons Ratio (z) = -0.02228 0.51241
#
# Static dielectric constant tensor:
#      x y z
#    x 1.819110 0.000000 0.000000 
#    y 0.000000 1.718320 0.000000 
#    z 0.000000 0.000000 1.749110 
# 
# From -- ./inp_files/36503.got.cif
#   From: 2010.05.17/outbox.cif.g08.bks.cpg/sg51_19_cif.got.tgz:36503.got - 2010.06.03 11:52:47.
