data_PCOD9403203
_publ_section_title
;
Structure prediction by ZEFSAII (Michael W. Deem and Ramdas Pophale) SiO2 
 PCOD9403203
Probable space group: P M M A
;
_chemical_formula_sum "Si O2"
_cell_formula_units_Z 52
_cell_length_a 8.680736
_cell_length_b 27.436893
_cell_length_c 14.077372
_cell_angle_alpha 90.000000
_cell_angle_beta 90.000000
_cell_angle_gamma 90.000000
_cell_volume 3352.841824
_symmetry_space_group_name_H-M "P M M A"
_symmetry_group_IT_number 51
_symmetry_cell_setting 'orthorhombic'
loop_
_space_group_symop_operation_xyz
x,y,z
1/2-x,-y,z
1/2+x,-y,-z
-x,y,-z
-x,-y,-z
1/2+x,y,-z
1/2-x,y,z
x,-y,z
loop_
_atom_site_type_symbol
_atom_site_label
_atom_site_fract_x
_atom_site_fract_y
_atom_site_fract_z
Si Si1 0.064920 0.351570 0.793521
Si Si2 0.063638 0.106744 0.607158
Si Si3 0.564413 0.000000 0.393210
Si Si4 0.434508 0.299389 0.603303
Si Si5 0.566144 0.256774 0.896069
Si Si6 0.936486 0.796900 0.283183
Si Si7 0.934418 0.555823 0.894313
O O1 0.250000 0.349624 0.800193
O O2 0.019159 0.336942 0.686198
O O3 0.996930 0.309295 0.860952
O O4 0.004472 0.403741 0.825755
O O5 0.250000 0.108222 0.601261
O O6 0.015098 0.151285 0.673996
O O7 0.000000 0.112417 0.500000
O O8 0.017216 0.053023 0.645840
O O9 0.500000 0.000000 0.500000
O O10 0.750000 0.000000 0.395426
O O11 0.500000 0.309224 0.500000
O O12 0.250000 0.300042 0.597573
O O13 0.479824 0.245916 0.642527
O O14 0.750000 0.258033 0.898620
O O15 0.508514 0.218322 0.817122
O O16 0.500000 0.246113 0.000000
O O17 0.750000 0.796041 0.273734
O O18 0.750000 0.560369 0.896845
O O19 0.973469 0.500000 0.867580
O O20 0.000000 0.564200 0.000000
#
# Coordination Sequence:
#
# PCOD9403203 Si02
#       7
#     8   8   4   8   8   8   8
#     4  10  20  34  50  70  96 124 153 185 223 267
#     4   9  16  26  42  63  92 124 155 190 226 267
#     4   8  14  24  38  60  87 120 155 186 225 268
#     4   9  18  30  45  65  90 119 151 186 223 262
#     4  11  21  33  49  68  91 119 149 184 225 271
#     4   9  18  31  44  64  92 121 152 187 226 268
#     4  10  20  33  50  73  98 123 152 187 227 270
#
# _framework density 15.509232000000001
#
# number of rings (size 3 to 8) (size 9 to 14) (size 15 to 20)
#    0.000    2.462    0.000    4.154    0.000    4.615 
#    0.000    0.000    0.000    0.462    0.000    0.538 
#    0.000    0.000    0.000    0.000    0.000    0.000 
#
# Total GULP energy -289870.313657 kJ/mol
# GULP energy per Si atom -5574.429109 kJ/mol
# Density = 1.547393 g / cm^3
# Si number density = 15.509232 Si / 1000 Ang^3
#
#
#
# Elastic Constant Matrix: (Units=GPa)
#
#
# Indices 1 2 3 4 5 6 
#
# 1 44.1919 42.1618 36.0417 0.0000 0.0000 0.0000
# 2 42.1618 152.0981 82.9190 0.0000 0.0000 0.0000
# 3 36.0417 82.9190 115.8843 0.0000 0.0000 0.0000
# 4 0.0000 0.0000 0.0000 21.9224 0.0000 0.0000
# 5 0.0000 0.0000 0.0000 0.0000 27.2094 0.0000
# 6 0.0000 0.0000 0.0000 0.0000 0.0000 -85.8290
#
#
#
# Elastic Compliance Matrix: (Units=1/GPa)
#
#
# Indices 1 2 3 4 5 6 
#
# 1 0.033231 -0.005865 -0.006139 0.000000 0.000000 0.000000
# 2 -0.005865 0.011815 -0.006630 0.000000 0.000000 0.000000
# 3 -0.006139 -0.006630 0.015282 0.000000 0.000000 0.000000
# 4 0.000000 0.000000 0.000000 0.045616 0.000000 0.000000
# 5 0.000000 0.000000 0.000000 0.000000 0.036752 0.000000
# 6 0.000000 0.000000 0.000000 0.000000 0.000000 -0.011651
#
#
# Mechanical properties :
#
#
# Convention : Reuss Voigt Hill
#
# Bulk Modulus (GPa) = 43.36331 70.49103 56.92717
# Shear Modulus (GPa) = 28.40940 2.73068 15.57004
#
# Velocity S-wave (km/s) = 4.28457 1.32835 3.17191
# Velocity P-wave (km/s) = 7.24548 6.92115 7.08517
#
# Compressibility (1/GPa) = 0.02306097
#
# Stress axis : x y z
#
# Youngs Moduli (GPa) = 30.09272 84.63931 65.43496
#
# Poissons Ratio (x) = 0.49641 0.40168
# Poissons Ratio (y) = 0.17649 0.43382
# Poissons Ratio (z) = 0.18473 0.56114
#
# Static dielectric constant tensor:
#      x y z
#    x 1.520160 0.000000 0.000000 
#    y 0.000000 1.535020 0.000000 
#    z 0.000000 0.000000 1.486820 
# 
# From -- ./inp_files/14737.got.cif
#   From: 2010.05.17/outbox.cif.g08.bks.cpg/sg51_8_cif.got.tgz:14737.got - 2010.06.03 11:52:47.
