data_PCOD9403893
_publ_section_title
;
Structure prediction by ZEFSAII (Michael W. Deem and Ramdas Pophale) SiO2 
 PCOD9403893
Probable space group: P M M A
;
_chemical_formula_sum "Si O2"
_cell_formula_units_Z 48
_cell_length_a 14.133768
_cell_length_b 8.682349
_cell_length_c 21.421173
_cell_angle_alpha 90.000000
_cell_angle_beta 90.000000
_cell_angle_gamma 90.000000
_cell_volume 2628.684388
_symmetry_space_group_name_H-M "P M M A"
_symmetry_group_IT_number 51
_symmetry_cell_setting 'orthorhombic'
loop_
_space_group_symop_operation_xyz
x,y,z
1/2-x,-y,z
1/2+x,-y,-z
-x,y,-z
-x,-y,-z
1/2+x,y,-z
1/2-x,y,z
x,-y,z
loop_
_atom_site_type_symbol
_atom_site_label
_atom_site_fract_x
_atom_site_fract_y
_atom_site_fract_z
Si Si1 0.359591 0.185205 0.469143
Si Si2 0.862838 0.818905 0.030572
Si Si3 0.458824 0.316061 0.592075
Si Si4 0.141288 0.683473 0.103514
Si Si5 0.860904 0.813529 0.285233
Si Si6 0.037967 0.185547 0.842577
O O1 0.250000 0.226770 0.457945
O O2 0.394277 0.247090 0.536371
O O3 0.435183 0.254065 0.420588
O O4 0.367232 0.000000 0.469010
O O5 0.750000 0.806469 0.038592
O O6 0.910874 0.760899 0.093787
O O7 0.885969 0.000000 0.022549
O O8 0.887849 0.734289 0.966500
O O9 0.458389 0.500000 0.587650
O O10 0.416577 0.260033 0.657309
O O11 0.250000 0.734879 0.112383
O O12 0.138016 0.500000 0.107713
O O13 0.068985 0.756836 0.152138
O O14 0.750000 0.772549 0.287167
O O15 0.907308 0.765428 0.219508
O O16 0.867129 0.000000 0.289765
O O17 0.039824 0.000000 0.843567
#
# Coordination Sequence:
#
# PCOD9403893 Si02
#       6
#     8   8   8   8   8   8
#     4  10  20  36  60  86 112 145 185 226 265 307
#     4   9  17  31  52  77 103 130 165 212 263 313
#     4  11  22  35  55  84 117 149 180 218 265 316
#     4  10  21  35  50  71 101 136 172 212 263 319
#     4  10  21  38  58  79 107 142 178 217 262 315
#     4  10  20  34  54  78 101 131 174 219 262 309
#
# _framework density 18.260083000000002
#
# number of rings (size 3 to 8) (size 9 to 14) (size 15 to 20)
#    0.000    2.000    0.000    5.000    0.000   10.000 
#    0.000    0.833    0.000    4.000    0.000    0.000 
#    0.000    0.000    0.000    0.000    0.000    0.000 
#
# Total GULP energy -268058.042580 kJ/mol
# GULP energy per Si atom -5584.542554 kJ/mol
# Density = 1.821852 g / cm^3
# Si number density = 18.260083 Si / 1000 Ang^3
#
#
#
# Elastic Constant Matrix: (Units=GPa)
#
#
# Indices 1 2 3 4 5 6 
#
# 1 158.4430 42.0227 91.3681 0.0000 0.0000 0.0000
# 2 42.0227 40.0383 32.2854 0.0000 0.0000 0.0000
# 3 91.3681 32.2854 103.9226 0.0000 0.0000 0.0000
# 4 0.0000 0.0000 0.0000 255.7506 0.0000 0.0000
# 5 0.0000 0.0000 0.0000 0.0000 27.5603 0.0000
# 6 0.0000 0.0000 0.0000 0.0000 0.0000 11.7150
#
#
#
# Elastic Compliance Matrix: (Units=1/GPa)
#
#
# Indices 1 2 3 4 5 6 
#
# 1 0.013905 -0.006319 -0.010262 0.000000 0.000000 0.000000
# 2 -0.006319 0.036196 -0.005689 0.000000 0.000000 0.000000
# 3 -0.010262 -0.005689 0.020412 0.000000 0.000000 0.000000
# 4 0.000000 0.000000 0.000000 0.003910 0.000000 0.000000
# 5 0.000000 0.000000 0.000000 0.000000 0.036284 0.000000
# 6 0.000000 0.000000 0.000000 0.000000 0.000000 0.085361
#
#
# Mechanical properties :
#
#
# Convention : Reuss Voigt Hill
#
# Bulk Modulus (GPa) = 38.50217 70.41736 54.45976
# Shear Modulus (GPa) = 20.05878 68.12037 44.08957
#
# Velocity S-wave (km/s) = 3.31796 6.11446 4.91912
# Velocity P-wave (km/s) = 5.98412 9.40724 7.88371
#
# Compressibility (1/GPa) = 0.02597256
#
# Stress axis : x y z
#
# Youngs Moduli (GPa) = 71.91495 27.62736 48.98978
#
# Poissons Ratio (x) = 0.17459 0.50274
# Poissons Ratio (y) = 0.45446 0.27870
# Poissons Ratio (z) = 0.73801 0.15717
#
# Static dielectric constant tensor:
#      x y z
#    x 1.642140 0.000000 0.000000 
#    y 0.000000 1.612710 0.000000 
#    z 0.000000 0.000000 1.600860 
# 
# From -- ./inp_files/29444.got.cif
#   From: 2010.05.17/outbox.cif.g08.bks.cpg/sg51_15_cif.got.tgz:29444.got - 2010.06.03 11:52:47.
