data_PCOD9403477
_publ_section_title
;
Structure prediction by ZEFSAII (Michael W. Deem and Ramdas Pophale) SiO2 
 PCOD9403477
Probable space group: P M M A
;
_chemical_formula_sum "Si O2"
_cell_formula_units_Z 52
_cell_length_a 8.920016
_cell_length_b 10.848083
_cell_length_c 30.216143
_cell_angle_alpha 90.000000
_cell_angle_beta 90.000000
_cell_angle_gamma 90.000000
_cell_volume 2923.867311
_symmetry_space_group_name_H-M "P M M A"
_symmetry_group_IT_number 51
_symmetry_cell_setting 'orthorhombic'
loop_
_space_group_symop_operation_xyz
x,y,z
1/2-x,-y,z
1/2+x,-y,-z
-x,y,-z
-x,-y,-z
1/2+x,y,-z
1/2-x,y,z
x,-y,z
loop_
_atom_site_type_symbol
_atom_site_label
_atom_site_fract_x
_atom_site_fract_y
_atom_site_fract_z
Si Si1 0.581699 0.144692 0.043136
Si Si2 0.921783 0.351002 0.298648
Si Si3 0.929891 0.500000 0.049220
Si Si4 0.926680 0.713139 0.890261
Si Si5 0.571103 0.355178 0.608971
Si Si6 0.570771 0.647122 0.200414
Si Si7 0.430038 0.859357 0.548959
O O1 0.750000 0.195228 0.048570
O O2 0.479157 0.163260 0.085783
O O3 0.597153 0.000000 0.035425
O O4 0.500000 0.199107 0.000000
O O5 0.750000 0.309257 0.306506
O O6 0.916405 0.500000 0.295547
O O7 0.971964 0.308976 0.249832
O O8 0.023869 0.323574 0.340643
O O9 0.750000 0.500000 0.046407
O O10 0.989131 0.613884 0.078702
O O11 0.000000 0.500000 0.000000
O O12 0.750000 0.693121 0.892206
O O13 0.984573 0.705832 0.840344
O O14 0.750000 0.349394 0.603839
O O15 0.525757 0.500000 0.600691
O O16 0.494425 0.252933 0.577992
O O17 0.750000 0.665154 0.195859
O O18 0.543426 0.500000 0.197656
O O19 0.500000 0.849802 0.500000
O O20 0.250000 0.849203 0.546724
O O21 0.465303 0.000000 0.565235
#
# Coordination Sequence:
#
# PCOD9403477 Si02
#       7
#     8   8   4   8   8   8   8
#     4  10  21  38  58  76  95 124 163 205 249 299
#     4   8  15  29  50  75 103 138 177 217 263 310
#     4  12  24  38  52  70 102 136 168 204 247 302
#     4  12  23  34  51  77 105 133 165 203 252 304
#     4  10  20  33  52  81 114 147 184 228 278 327
#     4   9  17  31  51  74 103 139 174 210 253 308
#     4  10  21  37  57  80 108 146 190 233 279 333
#
# _framework density 17.784665
#
# number of rings (size 3 to 8) (size 9 to 14) (size 15 to 20)
#    0.000    2.000    0.769    4.846    0.000    3.692 
#    0.000    1.538    0.000    0.923    0.000    6.462 
#    0.000    0.000    0.000    0.000    0.000    0.000 
#
# Total GULP energy -289877.603004 kJ/mol
# GULP energy per Si atom -5574.569289 kJ/mol
# Density = 1.774419 g / cm^3
# Si number density = 17.784665 Si / 1000 Ang^3
#
#
#
# Elastic Constant Matrix: (Units=GPa)
#
#
# Indices 1 2 3 4 5 6 
#
# 1 93.5173 43.8867 65.8470 0.0000 0.0000 0.0000
# 2 43.8867 66.0210 53.7015 0.0000 0.0000 0.0000
# 3 65.8470 53.7015 130.6663 0.0000 0.0000 0.0000
# 4 0.0000 0.0000 0.0000 6.1250 0.0000 0.0000
# 5 0.0000 0.0000 0.0000 0.0000 35.9813 0.0000
# 6 0.0000 0.0000 0.0000 0.0000 0.0000 20.9470
#
#
#
# Elastic Compliance Matrix: (Units=1/GPa)
#
#
# Indices 1 2 3 4 5 6 
#
# 1 0.018555 -0.007103 -0.006431 0.000000 0.000000 0.000000
# 2 -0.007103 0.025472 -0.006889 0.000000 0.000000 0.000000
# 3 -0.006431 -0.006889 0.013725 0.000000 0.000000 0.000000
# 4 0.000000 0.000000 0.000000 0.163265 0.000000 0.000000
# 5 0.000000 0.000000 0.000000 0.000000 0.027792 0.000000
# 6 0.000000 0.000000 0.000000 0.000000 0.000000 0.047739
#
#
# Mechanical properties :
#
#
# Convention : Reuss Voigt Hill
#
# Bulk Modulus (GPa) = 59.15228 68.56388 63.85808
# Shear Modulus (GPa) = 14.57597 21.06196 17.81897
#
# Velocity S-wave (km/s) = 2.86594 3.44507 3.16876
# Velocity P-wave (km/s) = 6.65462 7.37974 7.02654
#
# Compressibility (1/GPa) = 0.01690552
#
# Stress axis : x y z
#
# Youngs Moduli (GPa) = 53.89417 39.25897 72.85839
#
# Poissons Ratio (x) = 0.27886 0.46857
# Poissons Ratio (y) = 0.38281 0.50193
# Poissons Ratio (z) = 0.34660 0.27046
#
# Static dielectric constant tensor:
#      x y z
#    x 1.613190 0.000000 0.000000 
#    y 0.000000 1.675730 0.000000 
#    z 0.000000 0.000000 1.603850 
# 
# From -- ./inp_files/36255.got.cif
#   From: 2010.05.17/outbox.cif.g08.bks.cpg/sg51_19_cif.got.tgz:36255.got - 2010.06.03 11:52:47.
