data_PCOD9403030
_publ_section_title
;
Structure prediction by ZEFSAII (Michael W. Deem and Ramdas Pophale) SiO2 
 PCOD9403030
Probable space group: P M M A
;
_chemical_formula_sum "Si O2"
_cell_formula_units_Z 56
_cell_length_a 8.939257
_cell_length_b 13.805887
_cell_length_c 30.942527
_cell_angle_alpha 90.000000
_cell_angle_beta 90.000000
_cell_angle_gamma 90.000000
_cell_volume 3818.752538
_symmetry_space_group_name_H-M "P M M A"
_symmetry_group_IT_number 51
_symmetry_cell_setting 'orthorhombic'
loop_
_space_group_symop_operation_xyz
x,y,z
1/2-x,-y,z
1/2+x,-y,-z
-x,y,-z
-x,-y,-z
1/2+x,y,-z
1/2-x,y,z
x,-y,z
loop_
_atom_site_type_symbol
_atom_site_label
_atom_site_fract_x
_atom_site_fract_y
_atom_site_fract_z
Si Si1 0.929630 0.112981 0.047599
Si Si2 0.922697 0.617996 0.544449
Si Si3 0.427031 0.730434 0.112049
Si Si4 0.422680 0.618122 0.633418
Si Si5 0.080104 0.385289 0.957206
Si Si6 0.571131 0.614076 0.188084
Si Si7 0.919875 0.617008 0.721169
O O1 0.750000 0.124482 0.045258
O O2 0.997408 0.180897 0.085360
O O3 0.961817 0.000000 0.057186
O O4 0.000000 0.132598 0.000000
O O5 0.750000 0.646881 0.545328
O O6 0.927094 0.500000 0.544341
O O7 0.000000 0.649972 0.500000
O O8 0.005197 0.649548 0.588152
O O9 0.250000 0.745100 0.115176
O O10 0.471975 0.640742 0.081542
O O11 0.495904 0.694184 0.157254
O O12 0.250000 0.646806 0.635979
O O13 0.426832 0.500000 0.633514
O O14 0.511391 0.651522 0.675883
O O15 0.250000 0.348106 0.951461
O O16 0.091801 0.500000 0.960948
O O17 0.000000 0.347312 0.000000
O O18 0.750000 0.618295 0.183101
O O19 0.527247 0.500000 0.178985
O O20 0.521344 0.636142 0.237108
O O21 0.750000 0.651685 0.727517
O O22 0.913793 0.500000 0.718011
#
# Coordination Sequence:
#
# PCOD9403030 Si02
#       7
#     8   8   8   8   8   8   8
#     4  10  21  38  58  76  93 112 135 164 197 235
#     4   9  15  21  28  39  56  78 106 144 191 240
#     4  12  23  33  48  68  90 113 136 164 198 237
#     4   9  15  22  32  45  61  84 115 150 190 236
#     4  10  20  33  47  63  85 112 140 167 193 226
#     4  10  20  33  47  63  85 112 141 172 204 240
#     4   9  16  26  39  54  72  95 125 160 197 237
#
# _framework density 14.664474
#
# number of rings (size 3 to 8) (size 9 to 14) (size 15 to 20)
#    0.000    2.143    0.000    4.714    0.000    9.429 
#    0.000    0.000    0.000    0.000    0.000    0.000 
#    0.000    0.000    0.000    0.000    0.000    0.000 
#
# Total GULP energy -311968.548540 kJ/mol
# GULP energy per Si atom -5570.866938 kJ/mol
# Density = 1.463110 g / cm^3
# Si number density = 14.664474 Si / 1000 Ang^3
#
#
#
# Elastic Constant Matrix: (Units=GPa)
#
#
# Indices 1 2 3 4 5 6 
#
# 1 103.2482 26.4190 50.1813 0.0000 0.0000 0.0000
# 2 26.4190 49.8936 26.2656 0.0000 0.0000 0.0000
# 3 50.1813 26.2656 115.9723 0.0000 0.0000 0.0000
# 4 0.0000 0.0000 0.0000 -5.7167 0.0000 0.0000
# 5 0.0000 0.0000 0.0000 0.0000 29.3510 0.0000
# 6 0.0000 0.0000 0.0000 0.0000 0.0000 11.4609
#
#
#
# Elastic Compliance Matrix: (Units=1/GPa)
#
#
# Indices 1 2 3 4 5 6 
#
# 1 0.013093 -0.004485 -0.004649 0.000000 0.000000 0.000000
# 2 -0.004485 0.024292 -0.003561 0.000000 0.000000 0.000000
# 3 -0.004649 -0.003561 0.011441 0.000000 0.000000 0.000000
# 4 0.000000 0.000000 0.000000 -0.174925 0.000000 0.000000
# 5 0.000000 0.000000 0.000000 0.000000 0.034070 0.000000
# 6 0.000000 0.000000 0.000000 0.000000 0.000000 0.087253
#
#
# Mechanical properties :
#
#
# Convention : Reuss Voigt Hill
#
# Bulk Modulus (GPa) = 42.67147 52.76066 47.71606
# Shear Modulus (GPa) = 175.89198 18.10227 96.99712
#
# Velocity S-wave (km/s) = 10.96379 3.51726 8.14174
# Velocity P-wave (km/s) = 13.76352 7.24924 10.99968
#
# Compressibility (1/GPa) = 0.02343486
#
# Stress axis : x y z
#
# Youngs Moduli (GPa) = 76.37780 41.16555 87.40425
#
# Poissons Ratio (x) = 0.18463 0.40638
# Poissons Ratio (y) = 0.34256 0.31125
# Poissons Ratio (z) = 0.35512 0.14659
#
# Static dielectric constant tensor:
#      x y z
#    x 1.500650 0.000000 0.000000 
#    y 0.000000 1.475840 0.000000 
#    z 0.000000 0.000000 1.480800 
# 
# From -- ./inp_files/37440.got.cif
#   From: 2010.05.17/outbox.cif.g08.bks.cpg/sg51_19_cif.got.tgz:37440.got - 2010.06.03 11:52:47.
