data_PCOD9403244
_publ_section_title
;
Structure prediction by ZEFSAII (Michael W. Deem and Ramdas Pophale) SiO2 
 PCOD9403244
Probable space group: P M M A
;
_chemical_formula_sum "Si O2"
_cell_formula_units_Z 56
_cell_length_a 8.919232
_cell_length_b 22.774103
_cell_length_c 15.356512
_cell_angle_alpha 90.000000
_cell_angle_beta 90.000000
_cell_angle_gamma 90.000000
_cell_volume 3119.330018
_symmetry_space_group_name_H-M "P M M A"
_symmetry_group_IT_number 51
_symmetry_cell_setting 'orthorhombic'
loop_
_space_group_symop_operation_xyz
x,y,z
1/2-x,-y,z
1/2+x,-y,-z
-x,y,-z
-x,-y,-z
1/2+x,y,-z
1/2-x,y,z
x,-y,z
loop_
_atom_site_type_symbol
_atom_site_label
_atom_site_fract_x
_atom_site_fract_y
_atom_site_fract_z
Si Si1 0.430087 0.434917 0.768205
Si Si2 0.926799 0.395745 0.591425
Si Si3 0.569717 0.837301 0.279920
Si Si4 0.428000 0.744407 0.407263
Si Si5 0.072290 0.930294 0.406770
Si Si6 0.569871 0.202669 0.092177
Si Si7 0.069196 0.339174 0.907642
O O1 0.250000 0.430499 0.760555
O O2 0.466086 0.500000 0.802631
O O3 0.500260 0.426887 0.673586
O O4 0.481570 0.383106 0.832116
O O5 0.750000 0.406454 0.588435
O O6 0.951327 0.325449 0.602694
O O7 0.000000 0.413239 0.500000
O O8 0.750000 0.837279 0.285013
O O9 0.506528 0.780693 0.331038
O O10 0.503185 0.892768 0.330825
O O11 0.525849 0.833129 0.178322
O O12 0.500000 0.761650 0.500000
O O13 0.250000 0.755983 0.408234
O O14 0.250000 0.918747 0.409633
O O15 0.000000 0.914494 0.500000
O O16 0.049230 0.000000 0.393938
O O17 0.750000 0.200420 0.084542
O O18 0.527385 0.271116 0.108038
O O19 0.500000 0.184259 0.000000
O O20 0.250000 0.341803 0.912502
O O21 0.000000 0.356613 0.000000
#
# Coordination Sequence:
#
# PCOD9403244 Si02
#       7
#     8   8   8   8   8   8   8
#     4  10  21  36  53  73  99 132 169 210 256 308
#     4  10  21  36  54  74  98 131 169 211 258 308
#     4  11  21  33  53  80 109 141 176 215 260 307
#     4  10  20  33  50  75 105 135 168 208 257 311
#     4  10  21  37  56  79 110 148 186 222 259 300
#     4   9  19  34  53  77 104 135 169 210 259 310
#     4   9  18  34  54  76 103 133 166 205 255 312
#
# _framework density 17.952573999999998
#
# number of rings (size 3 to 8) (size 9 to 14) (size 15 to 20)
#    0.000    2.143    0.000    3.000    0.000    6.286 
#    0.000    2.857    0.000    0.429    0.000    0.000 
#    0.000    0.000    0.000    0.000    0.000    0.000 
#
# Total GULP energy -312719.666422 kJ/mol
# GULP energy per Si atom -5584.279758 kJ/mol
# Density = 1.791171 g / cm^3
# Si number density = 17.952574 Si / 1000 Ang^3
#
#
#
# Elastic Constant Matrix: (Units=GPa)
#
#
# Indices 1 2 3 4 5 6 
#
# 1 46.6045 34.5243 45.8041 0.0000 0.0000 0.0000
# 2 34.5243 52.8270 58.4144 0.0000 0.0000 0.0000
# 3 45.8041 58.4144 156.9646 0.0000 0.0000 0.0000
# 4 0.0000 0.0000 0.0000 -58.8949 0.0000 0.0000
# 5 0.0000 0.0000 0.0000 0.0000 34.3858 0.0000
# 6 0.0000 0.0000 0.0000 0.0000 0.0000 38.5064
#
#
#
# Elastic Compliance Matrix: (Units=1/GPa)
#
#
# Indices 1 2 3 4 5 6 
#
# 1 0.042714 -0.024014 -0.003527 0.000000 0.000000 0.000000
# 2 -0.024014 0.045668 -0.009988 0.000000 0.000000 0.000000
# 3 -0.003527 -0.009988 0.011117 0.000000 0.000000 0.000000
# 4 0.000000 0.000000 0.000000 -0.016979 0.000000 0.000000
# 5 0.000000 0.000000 0.000000 0.000000 0.029082 0.000000
# 6 0.000000 0.000000 0.000000 0.000000 0.000000 0.025970
#
#
# Mechanical properties :
#
#
# Convention : Reuss Voigt Hill
#
# Bulk Modulus (GPa) = 40.91676 59.32021 50.11849
# Shear Modulus (GPa) = 22.64732 10.64299 16.64515
#
# Velocity S-wave (km/s) = 3.55562 2.43747 3.04826
# Velocity P-wave (km/s) = 6.30061 6.40595 6.35350
#
# Compressibility (1/GPa) = 0.02443986
#
# Stress axis : x y z
#
# Youngs Moduli (GPa) = 23.41168 21.89714 89.95139
#
# Poissons Ratio (x) = 0.52585 0.31729
# Poissons Ratio (y) = 0.56222 0.89841
# Poissons Ratio (z) = 0.08258 0.21870
#
# Static dielectric constant tensor:
#      x y z
#    x 1.596130 0.000000 0.000000 
#    y 0.000000 1.624470 0.000000 
#    z 0.000000 0.000000 1.587140 
# 
# From -- ./inp_files/21743.got.cif
#   From: 2010.05.17/outbox.cif.g08.bks.cpg/sg51_11_cif.got.tgz:21743.got - 2010.06.03 11:52:47.
