data_PCOD9403861
_publ_section_title
;
Structure prediction by ZEFSAII (Michael W. Deem and Ramdas Pophale) SiO2 
 PCOD9403861
Probable space group: P M M A
;
_chemical_formula_sum "Si O2"
_cell_formula_units_Z 56
_cell_length_a 8.886469
_cell_length_b 14.986329
_cell_length_c 23.601547
_cell_angle_alpha 90.000000
_cell_angle_beta 90.000000
_cell_angle_gamma 90.000000
_cell_volume 3143.148957
_symmetry_space_group_name_H-M "P M M A"
_symmetry_group_IT_number 51
_symmetry_cell_setting 'orthorhombic'
loop_
_space_group_symop_operation_xyz
x,y,z
1/2-x,-y,z
1/2+x,-y,-z
-x,y,-z
-x,-y,-z
1/2+x,y,-z
1/2-x,y,z
x,-y,z
loop_
_atom_site_type_symbol
_atom_site_label
_atom_site_fract_x
_atom_site_fract_y
_atom_site_fract_z
Si Si1 0.570966 0.896143 0.225625
Si Si2 0.921432 0.397715 0.236715
Si Si3 0.576181 0.345267 0.367110
Si Si4 0.431878 0.398586 0.062332
Si Si5 0.569158 0.000000 0.562946
Si Si6 0.430922 0.845894 0.347805
Si Si7 0.071617 0.500000 0.438655
Si Si8 0.427271 0.738514 0.158881
O O1 0.750000 0.882657 0.231526
O O2 0.495574 0.874560 0.286463
O O3 0.509168 0.829103 0.177694
O O4 0.542334 0.000000 0.212105
O O5 0.750000 0.375917 0.217640
O O6 0.953588 0.500000 0.222159
O O7 0.923739 0.385822 0.303950
O O8 0.038407 0.330465 0.209519
O O9 0.750000 0.337295 0.385413
O O10 0.498674 0.249557 0.363397
O O11 0.487323 0.412908 0.406339
O O12 0.250000 0.396467 0.059700
O O13 0.473945 0.500000 0.081677
O O14 0.479790 0.318657 0.104140
O O15 0.500000 0.386898 0.000000
O O16 0.500000 0.000000 0.500000
O O17 0.527819 0.915411 0.602404
O O18 0.750000 0.000000 0.556818
O O19 0.250000 0.842881 0.343664
O O20 0.250000 0.500000 0.441183
O O21 0.000000 0.500000 0.500000
O O22 0.250000 0.755526 0.153471
#
# Coordination Sequence:
#
# PCOD9403861 Si02
#       8
#     8   8   8   8   4   8   4   8
#     4  11  23  38  58  85 116 153 195 241 296 357
#     4  10  20  34  53  80 116 152 187 227 279 338
#     4  11  22  39  60  85 116 150 188 236 287 348
#     4   9  19  36  57  85 121 162 202 241 286 340
#     4  10  24  42  62  86 114 144 185 236 291 354
#     4  11  22  39  61  88 116 148 189 238 294 355
#     4  12  26  44  64  84 110 152 199 244 293 350
#     4  11  22  35  56  87 121 153 194 244 292 347
#
# _framework density 17.816528000000002
#
# number of rings (size 3 to 8) (size 9 to 14) (size 15 to 20)
#    0.000    1.429    2.857    2.786    0.000    5.143 
#    0.000    2.857    0.000    0.429    0.000    0.000 
#    0.000    0.000    0.000    0.000    0.000    0.000 
#
# Total GULP energy -312718.225109 kJ/mol
# GULP energy per Si atom -5584.254020 kJ/mol
# Density = 1.777598 g / cm^3
# Si number density = 17.816528 Si / 1000 Ang^3
#
#
#
# Elastic Constant Matrix: (Units=GPa)
#
#
# Indices 1 2 3 4 5 6 
#
# 1 80.7962 65.4159 47.1923 0.0000 0.0000 0.0000
# 2 65.4159 155.5871 68.6288 0.0000 0.0000 0.0000
# 3 47.1923 68.6288 107.4013 0.0000 0.0000 0.0000
# 4 0.0000 0.0000 0.0000 140.1358 0.0000 0.0000
# 5 0.0000 0.0000 0.0000 0.0000 30.1135 0.0000
# 6 0.0000 0.0000 0.0000 0.0000 0.0000 18.6705
#
#
#
# Elastic Compliance Matrix: (Units=1/GPa)
#
#
# Indices 1 2 3 4 5 6 
#
# 1 0.020436 -0.006449 -0.004859 0.000000 0.000000 0.000000
# 2 -0.006449 0.010985 -0.004186 0.000000 0.000000 0.000000
# 3 -0.004859 -0.004186 0.014120 0.000000 0.000000 0.000000
# 4 0.000000 0.000000 0.000000 0.007136 0.000000 0.000000
# 5 0.000000 0.000000 0.000000 0.000000 0.033208 0.000000
# 6 0.000000 0.000000 0.000000 0.000000 0.000000 0.053560
#
#
# Mechanical properties :
#
#
# Convention : Reuss Voigt Hill
#
# Bulk Modulus (GPa) = 68.70649 78.47317 73.58983
# Shear Modulus (GPa) = 28.52507 48.62048 38.57277
#
# Velocity S-wave (km/s) = 4.00565 5.22961 4.65800
# Velocity P-wave (km/s) = 7.74859 8.97807 8.38590
#
# Compressibility (1/GPa) = 0.01455467
#
# Stress axis : x y z
#
# Youngs Moduli (GPa) = 48.93257 91.03294 70.81960
#
# Poissons Ratio (x) = 0.58709 0.34410
# Poissons Ratio (y) = 0.31557 0.29642
# Poissons Ratio (z) = 0.23775 0.38103
#
# Static dielectric constant tensor:
#      x y z
#    x 1.604190 0.000000 0.000000 
#    y 0.000000 1.609530 0.000000 
#    z 0.000000 0.000000 1.589590 
# 
# From -- ./inp_files/32089.got.cif
#   From: 2010.05.17/outbox.cif.g08.bks.cpg/sg51_17_cif.got.tgz:32089.got - 2010.06.03 11:52:47.
