data_PCOD9403096
_publ_section_title
;
Structure prediction by ZEFSAII (Michael W. Deem and Ramdas Pophale) SiO2 
 PCOD9403096
Probable space group: P M M A
;
_chemical_formula_sum "Si O2"
_cell_formula_units_Z 64
_cell_length_a 20.724060
_cell_length_b 7.734818
_cell_length_c 20.718697
_cell_angle_alpha 90.000000
_cell_angle_beta 90.000000
_cell_angle_gamma 90.000000
_cell_volume 3321.141499
_symmetry_space_group_name_H-M "P M M A"
_symmetry_group_IT_number 51
_symmetry_cell_setting 'orthorhombic'
loop_
_space_group_symop_operation_xyz
x,y,z
1/2-x,-y,z
1/2+x,-y,-z
-x,y,-z
-x,-y,-z
1/2+x,y,-z
1/2-x,y,z
x,-y,z
loop_
_atom_site_type_symbol
_atom_site_label
_atom_site_fract_x
_atom_site_fract_y
_atom_site_fract_z
Si Si1 0.176738 0.292220 0.574792
Si Si2 0.176906 0.291387 0.076382
Si Si3 0.928119 0.290799 0.322869
Si Si4 0.567173 0.204543 0.821914
Si Si5 0.923208 0.296430 0.176648
Si Si6 0.574707 0.792897 0.676442
Si Si7 0.823942 0.288668 0.070239
Si Si8 0.676561 0.208438 0.571951
O O1 0.250000 0.226513 0.584579
O O2 0.178977 0.500000 0.581043
O O3 0.125442 0.227286 0.626983
O O4 0.157506 0.252351 0.501278
O O5 0.250000 0.232860 0.092001
O O6 0.177872 0.500000 0.075585
O O7 0.124048 0.237205 0.128002
O O8 0.161429 0.233451 0.003222
O O9 0.925129 0.500000 0.321228
O O10 0.917255 0.225554 0.249558
O O11 0.000883 0.243787 0.342488
O O12 0.497998 0.278515 0.842873
O O13 0.583017 0.273084 0.749900
O O14 0.557597 0.000000 0.816162
O O15 0.908557 0.500000 0.181382
O O16 0.874506 0.224528 0.123256
O O17 0.626341 0.725033 0.625044
O O18 0.582946 0.000000 0.678452
O O19 0.750000 0.239934 0.085172
O O20 0.825937 0.500000 0.069781
O O21 0.750000 0.271750 0.582191
O O22 0.678127 0.000000 0.576371
#
# Coordination Sequence:
#
# PCOD9403096 Si02
#       8
#     8   8   8   8   8   8   8   8
#     4   9  18  32  48  69  98 126 151 185 232 280
#     4   9  18  33  51  71  96 124 156 196 238 280
#     4   9  18  31  48  71  97 124 154 190 230 274
#     4  10  20  33  49  70  97 127 158 194 237 284
#     4   9  17  31  51  72  95 125 160 196 233 275
#     4   9  19  34  50  68  92 123 157 195 234 272
#     4   8  15  29  50  74  96 121 158 200 236 273
#     4   9  18  33  51  69  89 117 156 196 230 270
#
# _framework density 19.270482999999999
#
# number of rings (size 3 to 8) (size 9 to 14) (size 15 to 20)
#    0.000    3.000    0.000    1.125    0.000    3.750 
#    0.000    9.375    0.000    2.625    0.000    3.500 
#    0.000    0.000    0.000    0.000    0.000    0.000 
#
# Total GULP energy -356840.318463 kJ/mol
# GULP energy per Si atom -5575.629976 kJ/mol
# Density = 1.922662 g / cm^3
# Si number density = 19.270483 Si / 1000 Ang^3
#
#
#
# Elastic Constant Matrix: (Units=GPa)
#
#
# Indices 1 2 3 4 5 6 
#
# 1 143.3459 -5.7596 127.8805 0.0000 0.0000 0.0000
# 2 -5.7596 25.0452 -1.2210 0.0000 0.0000 0.0000
# 3 127.8805 -1.2210 138.8302 0.0000 0.0000 0.0000
# 4 0.0000 0.0000 0.0000 4.7229 0.0000 0.0000
# 5 0.0000 0.0000 0.0000 0.0000 46.7013 0.0000
# 6 0.0000 0.0000 0.0000 0.0000 0.0000 -3.9383
#
#
#
# Elastic Compliance Matrix: (Units=1/GPa)
#
#
# Indices 1 2 3 4 5 6 
#
# 1 0.040497 0.007498 -0.037237 0.000000 0.000000 0.000000
# 2 0.007498 0.041333 -0.006543 0.000000 0.000000 0.000000
# 3 -0.037237 -0.006543 0.041445 0.000000 0.000000 0.000000
# 4 0.000000 0.000000 0.000000 0.211734 0.000000 0.000000
# 5 0.000000 0.000000 0.000000 0.000000 0.021413 0.000000
# 6 0.000000 0.000000 0.000000 0.000000 0.000000 -0.253915
#
#
# Mechanical properties :
#
#
# Convention : Reuss Voigt Hill
#
# Bulk Modulus (GPa) = 19.71943 61.00233 40.36088
# Shear Modulus (GPa) = 26.04506 21.91861 23.98183
#
# Velocity S-wave (km/s) = 3.68033 3.37622 3.53155
# Velocity P-wave (km/s) = 5.32118 6.85004 6.13344
#
# Compressibility (1/GPa) = 0.05071140
#
# Stress axis : x y z
#
# Youngs Moduli (GPa) = 24.69330 24.19368 24.12811
#
# Poissons Ratio (x) = -0.18140 0.89845
# Poissons Ratio (y) = -0.18514 0.15787
# Poissons Ratio (z) = 0.91950 0.15830
#
# Static dielectric constant tensor:
#      x y z
#    x 1.648330 0.000000 0.000000 
#    y 0.000000 1.719590 0.000000 
#    z 0.000000 0.000000 1.668280 
# 
# From -- ./inp_files/33952.got.cif
#   From: 2010.05.17/outbox.cif.g08.bks.cpg/sg51_17_cif.got.tgz:33952.got - 2010.06.03 11:52:47.
