data_PCOD9403850
_publ_section_title
;
Structure prediction by ZEFSAII (Michael W. Deem and Ramdas Pophale) SiO2 
 PCOD9403850
Probable space group: P M M A
;
_chemical_formula_sum "Si O2"
_cell_formula_units_Z 48
_cell_length_a 9.877489
_cell_length_b 8.633555
_cell_length_c 30.165904
_cell_angle_alpha 90.000000
_cell_angle_beta 90.000000
_cell_angle_gamma 90.000000
_cell_volume 2572.483272
_symmetry_space_group_name_H-M "P M M A"
_symmetry_group_IT_number 51
_symmetry_cell_setting 'orthorhombic'
loop_
_space_group_symop_operation_xyz
x,y,z
1/2-x,-y,z
1/2+x,-y,-z
-x,y,-z
-x,-y,-z
1/2+x,y,-z
1/2-x,y,z
x,-y,z
loop_
_atom_site_type_symbol
_atom_site_label
_atom_site_fract_x
_atom_site_fract_y
_atom_site_fract_z
Si Si1 0.498776 0.185863 0.105547
Si Si2 0.910479 0.817112 0.799253
Si Si3 0.750000 0.314053 0.949677
Si Si4 0.093670 0.684484 0.296983
Si Si5 0.907867 0.187054 0.373936
Si Si6 0.250000 0.314350 0.947602
Si Si7 0.408758 0.188856 0.457725
O O1 0.488314 0.236628 0.156873
O O2 0.375356 0.249214 0.077207
O O3 0.625024 0.249544 0.079371
O O4 0.496303 0.000000 0.106103
O O5 0.750000 0.801173 0.809008
O O6 0.938083 0.728633 0.753780
O O7 0.936955 0.000000 0.792047
O O8 0.750000 0.500000 0.949053
O O9 0.750000 0.263897 0.001025
O O10 0.250000 0.738163 0.305946
O O11 0.091427 0.500000 0.302242
O O12 0.984614 0.758654 0.329768
O O13 0.750000 0.238996 0.377223
O O14 0.005120 0.237699 0.414573
O O15 0.904790 0.000000 0.374809
O O16 0.250000 0.500000 0.947540
O O17 0.500000 0.235585 0.500000
O O18 0.250000 0.239627 0.458440
O O19 0.404424 0.000000 0.457833
#
# Coordination Sequence:
#
# PCOD9403850 Si02
#       7
#     8   8   4   8   8   4   8
#     4  11  22  39  62  88 114 147 192 240 287 339
#     4   9  18  36  60  85 111 140 180 230 282 337
#     4  11  23  39  61  85 117 155 191 233 282 343
#     4  10  21  36  56  82 108 139 182 229 278 335
#     4  10  20  34  53  79 111 149 190 231 280 334
#     4  11  25  41  55  83 121 157 191 229 286 345
#     4   9  16  27  47  77 112 148 188 236 285 333
#
# _framework density 18.659015
#
# number of rings (size 3 to 8) (size 9 to 14) (size 15 to 20)
#    0.000    2.000    0.833    3.000    0.000    8.667 
#    1.500    0.000    0.000    0.500    0.000    0.000 
#    0.000    0.000    0.000    0.000    0.000    0.000 
#
# Total GULP energy -267816.787821 kJ/mol
# GULP energy per Si atom -5579.516413 kJ/mol
# Density = 1.861655 g / cm^3
# Si number density = 18.659015 Si / 1000 Ang^3
#
#
#
# Elastic Constant Matrix: (Units=GPa)
#
#
# Indices 1 2 3 4 5 6 
#
# 1 173.8996 23.9285 90.1665 0.0000 0.0000 0.0000
# 2 23.9285 18.3530 22.7879 0.0000 0.0000 0.0000
# 3 90.1665 22.7879 148.2686 0.0000 0.0000 0.0000
# 4 0.0000 0.0000 0.0000 -76.8830 0.0000 0.0000
# 5 0.0000 0.0000 0.0000 0.0000 -149.3735 0.0000
# 6 0.0000 0.0000 0.0000 0.0000 0.0000 -43.8977
#
#
#
# Elastic Compliance Matrix: (Units=1/GPa)
#
#
# Indices 1 2 3 4 5 6 
#
# 1 0.008910 -0.006042 -0.004490 0.000000 0.000000 0.000000
# 2 -0.006042 0.071434 -0.007305 0.000000 0.000000 0.000000
# 3 -0.004490 -0.007305 0.010597 0.000000 0.000000 0.000000
# 4 0.000000 0.000000 0.000000 -0.013007 0.000000 0.000000
# 5 0.000000 0.000000 0.000000 0.000000 -0.006695 0.000000
# 6 0.000000 0.000000 0.000000 0.000000 0.000000 -0.022780
#
#
# Mechanical properties :
#
#
# Convention : Reuss Voigt Hill
#
# Bulk Modulus (GPa) = 18.09338 68.25411 43.17375
# Shear Modulus (GPa) = 48.75445 -40.45494 4.14975
#
# Velocity S-wave (km/s) = 5.11722 -4.66136 1.49292
# Velocity P-wave (km/s) = 6.68075 2.77274 5.11471
#
# Compressibility (1/GPa) = 0.05526882
#
# Stress axis : x y z
#
# Youngs Moduli (GPa) = 112.23771 13.99894 94.36205
#
# Poissons Ratio (x) = 0.08458 0.42365
# Poissons Ratio (y) = 0.67812 0.68929
# Poissons Ratio (z) = 0.50391 0.10226
#
# Static dielectric constant tensor:
#      x y z
#    x 1.615040 0.000000 0.000000 
#    y 0.000000 1.630280 0.000000 
#    z 0.000000 0.000000 1.633400 
# 
# From -- ./inp_files/37109.got.cif
#   From: 2010.05.17/outbox.cif.g08.bks.cpg/sg51_19_cif.got.tgz:37109.got - 2010.06.03 11:52:47.
