data_PCOD9403837
_publ_section_title
;
Structure prediction by ZEFSAII (Michael W. Deem and Ramdas Pophale) SiO2 
 PCOD9403837
Probable space group: P M M A
;
_chemical_formula_sum "Si O2"
_cell_formula_units_Z 56
_cell_length_a 8.865116
_cell_length_b 14.515722
_cell_length_c 26.181250
_cell_angle_alpha 90.000000
_cell_angle_beta 90.000000
_cell_angle_gamma 90.000000
_cell_volume 3369.096438
_symmetry_space_group_name_H-M "P M M A"
_symmetry_group_IT_number 51
_symmetry_cell_setting 'orthorhombic'
loop_
_space_group_symop_operation_xyz
x,y,z
1/2-x,-y,z
1/2+x,-y,-z
-x,y,-z
-x,-y,-z
1/2+x,y,-z
1/2-x,y,z
x,-y,z
loop_
_atom_site_type_symbol
_atom_site_label
_atom_site_fract_x
_atom_site_fract_y
_atom_site_fract_z
Si Si1 0.929823 0.891199 0.944841
Si Si2 0.429801 0.784559 0.849863
Si Si3 0.929769 0.393933 0.807325
Si Si4 0.069105 0.108508 0.246078
Si Si5 0.930174 0.108473 0.445074
Si Si6 0.570070 0.605837 0.305525
Si Si7 0.930675 0.783269 0.649507
O O1 0.750000 0.877404 0.945703
O O2 0.003864 0.832401 0.900082
O O3 0.958232 0.000000 0.935118
O O4 0.000000 0.869037 0.000000
O O5 0.250000 0.783682 0.851303
O O6 0.493937 0.681725 0.842870
O O7 0.486332 0.841829 0.800533
O O8 0.750000 0.379029 0.805276
O O9 0.957969 0.500000 0.822628
O O10 0.997044 0.381916 0.750481
O O11 0.250000 0.117882 0.238375
O O12 0.031246 0.157510 0.299615
O O13 0.033560 0.000000 0.247886
O O14 0.750000 0.119679 0.446373
O O15 0.000000 0.133049 0.500000
O O16 0.001084 0.167592 0.399800
O O17 0.963607 0.000000 0.436131
O O18 0.750000 0.618793 0.301748
O O19 0.541090 0.500000 0.321342
O O20 0.498426 0.682041 0.341909
O O21 0.750000 0.779237 0.645753
#
# Coordination Sequence:
#
# PCOD9403837 Si02
#       7
#     8   8   8   8   8   8   8
#     4  10  21  38  59  81 108 143 185 229 270 317
#     4  12  23  34  53  80 111 145 181 222 271 325
#     4  10  20  35  55  78 106 142 183 224 269 323
#     4  10  21  35  50  73 108 147 182 218 265 320
#     4  10  21  37  57  80 108 143 185 229 271 319
#     4  10  20  34  53  79 110 142 179 223 270 322
#     4  11  21  34  55  80 109 145 183 222 270 325
#
# _framework density 16.621668
#
# number of rings (size 3 to 8) (size 9 to 14) (size 15 to 20)
#    0.000    1.571    1.429    4.286    0.000    6.571 
#    0.000    0.000    0.000    0.857    0.000    0.000 
#    0.000    0.000    0.000    0.000    0.000    0.000 
#
# Total GULP energy -312907.010061 kJ/mol
# GULP energy per Si atom -5587.625180 kJ/mol
# Density = 1.658384 g / cm^3
# Si number density = 16.621668 Si / 1000 Ang^3
#
#
#
# Elastic Constant Matrix: (Units=GPa)
#
#
# Indices 1 2 3 4 5 6 
#
# 1 96.0973 80.7316 81.1052 0.0000 0.0000 0.0000
# 2 80.7316 130.6335 97.3441 0.0000 0.0000 0.0000
# 3 81.1052 97.3441 145.7148 0.0000 0.0000 0.0000
# 4 0.0000 0.0000 0.0000 20.3436 0.0000 0.0000
# 5 0.0000 0.0000 0.0000 0.0000 32.4102 0.0000
# 6 0.0000 0.0000 0.0000 0.0000 0.0000 26.6217
#
#
#
# Elastic Compliance Matrix: (Units=1/GPa)
#
#
# Indices 1 2 3 4 5 6 
#
# 1 0.024870 -0.010065 -0.007119 0.000000 0.000000 0.000000
# 2 -0.010065 0.019316 -0.007302 0.000000 0.000000 0.000000
# 3 -0.007119 -0.007302 0.015703 0.000000 0.000000 0.000000
# 4 0.000000 0.000000 0.000000 0.049156 0.000000 0.000000
# 5 0.000000 0.000000 0.000000 0.000000 0.030854 0.000000
# 6 0.000000 0.000000 0.000000 0.000000 0.000000 0.037563
#
#
# Mechanical properties :
#
#
# Convention : Reuss Voigt Hill
#
# Bulk Modulus (GPa) = 91.59290 98.97860 95.28575
# Shear Modulus (GPa) = 21.73215 23.42608 22.57912
#
# Velocity S-wave (km/s) = 3.61980 3.75823 3.68967
# Velocity P-wave (km/s) = 8.52612 8.86056 8.69495
#
# Compressibility (1/GPa) = 0.01091788
#
# Stress axis : x y z
#
# Youngs Moduli (GPa) = 40.20927 51.76950 63.68105
#
# Poissons Ratio (x) = 0.52105 0.45334
# Poissons Ratio (y) = 0.40470 0.46501
# Poissons Ratio (z) = 0.28624 0.37803
#
# Static dielectric constant tensor:
#      x y z
#    x 1.550510 0.000000 0.000000 
#    y 0.000000 1.560710 0.000000 
#    z 0.000000 0.000000 1.520880 
# 
# From -- ./inp_files/31986.got.cif
#   From: 2010.05.17/outbox.cif.g08.bks.cpg/sg51_16_cif.got.tgz:31986.got - 2010.06.03 11:52:47.
