data_PCOD9403206
_publ_section_title
;
Structure prediction by ZEFSAII (Michael W. Deem and Ramdas Pophale) SiO2 
 PCOD9403206
Probable space group: P M M A
;
_chemical_formula_sum "Si O2"
_cell_formula_units_Z 48
_cell_length_a 9.275826
_cell_length_b 7.328985
_cell_length_c 31.935989
_cell_angle_alpha 90.000000
_cell_angle_beta 90.000000
_cell_angle_gamma 90.000000
_cell_volume 2171.084847
_symmetry_space_group_name_H-M "P M M A"
_symmetry_group_IT_number 51
_symmetry_cell_setting 'orthorhombic'
loop_
_space_group_symop_operation_xyz
x,y,z
1/2-x,-y,z
1/2+x,-y,-z
-x,y,-z
-x,-y,-z
1/2+x,y,-z
1/2-x,y,z
x,-y,z
loop_
_atom_site_type_symbol
_atom_site_label
_atom_site_fract_x
_atom_site_fract_y
_atom_site_fract_z
Si Si1 0.583630 0.777406 0.874689
Si Si2 0.086343 0.782021 0.625479
Si Si3 0.416375 0.222586 0.958230
Si Si4 0.586627 0.717790 0.540259
Si Si5 0.416301 0.777154 0.292419
Si Si6 0.083698 0.777480 0.791182
O O1 0.750000 0.719714 0.874754
O O2 0.499885 0.719901 0.916440
O O3 0.500276 0.719801 0.832880
O O4 0.583817 0.000000 0.874683
O O5 0.250000 0.711777 0.623526
O O6 0.000588 0.748707 0.582798
O O7 0.998693 0.715242 0.665860
O O8 0.095609 0.000000 0.630282
O O9 0.250000 0.280295 0.958247
O O10 0.416169 0.000000 0.958231
O O11 0.500000 0.280112 0.000000
O O12 0.500000 0.788982 0.500000
O O13 0.750000 0.788698 0.542763
O O14 0.596945 0.500000 0.535065
O O15 0.250000 0.719589 0.292078
O O16 0.500596 0.720494 0.250702
O O17 0.415949 0.000000 0.292608
O O18 0.250000 0.719524 0.791273
O O19 0.084028 0.000000 0.791252
#
# Coordination Sequence:
#
# PCOD9403206 Si02
#       6
#     8   8   8   8   8   8
#     4   9  15  21  28  38  52  72 101 137 179 230
#     4  10  20  33  50  73  99 126 156 190 229 273
#     4   9  15  21  27  34  45  63  90 128 176 228
#     4  10  21  37  56  76  98 126 159 193 230 272
#     4   9  16  26  40  58  81 108 136 168 208 253
#     4   9  15  22  32  46  65  89 117 150 190 239
#
# _framework density 22.108763
#
# number of rings (size 3 to 8) (size 9 to 14) (size 15 to 20)
#    0.000    2.667    0.000    3.000    0.000   10.333 
#    0.000    0.000    0.000    0.000    0.000    0.000 
#    0.000    0.000    0.000    0.000    0.000    0.000 
#
# Total GULP energy -268389.927033 kJ/mol
# GULP energy per Si atom -5591.456813 kJ/mol
# Density = 2.205844 g / cm^3
# Si number density = 22.108763 Si / 1000 Ang^3
#
#
#
# Elastic Constant Matrix: (Units=GPa)
#
#
# Indices 1 2 3 4 5 6 
#
# 1 294.7973 8.6489 184.2715 0.0000 0.0000 0.0000
# 2 8.6489 87.5139 2.8559 0.0000 0.0000 0.0000
# 3 184.2715 2.8559 280.7683 0.0000 0.0000 0.0000
# 4 0.0000 0.0000 0.0000 38.2430 0.0000 0.0000
# 5 0.0000 0.0000 0.0000 0.0000 49.9302 0.0000
# 6 0.0000 0.0000 0.0000 0.0000 0.0000 -13.1315
#
#
#
# Elastic Compliance Matrix: (Units=1/GPa)
#
#
# Indices 1 2 3 4 5 6 
#
# 1 0.005769 -0.000447 -0.003782 0.000000 0.000000 0.000000
# 2 -0.000447 0.011465 0.000177 0.000000 0.000000 0.000000
# 3 -0.003782 0.000177 0.006042 0.000000 0.000000 0.000000
# 4 0.000000 0.000000 0.000000 0.026149 0.000000 0.000000
# 5 0.000000 0.000000 0.000000 0.000000 0.020028 0.000000
# 6 0.000000 0.000000 0.000000 0.000000 0.000000 -0.076153
#
#
# Mechanical properties :
#
#
# Convention : Reuss Voigt Hill
#
# Bulk Modulus (GPa) = 65.90974 117.18132 91.54553
# Shear Modulus (GPa) = 773.82887 46.16191 409.99539
#
# Velocity S-wave (km/s) = 18.72885 4.57436 13.63258
# Velocity P-wave (km/s) = 22.30627 9.00094 17.00862
#
# Compressibility (1/GPa) = 0.01517226
#
# Stress axis : x y z
#
# Youngs Moduli (GPa) = 173.33321 87.22083 165.50964
#
# Poissons Ratio (x) = 0.03897 0.62594
# Poissons Ratio (y) = 0.07744 -0.02923
# Poissons Ratio (z) = 0.65552 -0.01540
#
# Static dielectric constant tensor:
#      x y z
#    x 1.752570 0.000000 0.000000 
#    y 0.000000 1.881730 0.000000 
#    z 0.000000 0.000000 1.735270 
# 
# From -- ./inp_files/36155.got.cif
#   From: 2010.05.17/outbox.cif.g08.bks.cpg/sg51_19_cif.got.tgz:36155.got - 2010.06.03 11:52:47.
