data_PCOD9403321
_publ_section_title
;
Structure prediction by ZEFSAII (Michael W. Deem and Ramdas Pophale) SiO2 
 PCOD9403321
Probable space group: P M M A
;
_chemical_formula_sum "Si O2"
_cell_formula_units_Z 48
_cell_length_a 8.156233
_cell_length_b 9.625352
_cell_length_c 31.912525
_cell_angle_alpha 90.000000
_cell_angle_beta 90.000000
_cell_angle_gamma 90.000000
_cell_volume 2505.344270
_symmetry_space_group_name_H-M "P M M A"
_symmetry_group_IT_number 51
_symmetry_cell_setting 'orthorhombic'
loop_
_space_group_symop_operation_xyz
x,y,z
1/2-x,-y,z
1/2+x,-y,-z
-x,y,-z
-x,-y,-z
1/2+x,y,-z
1/2-x,y,z
x,-y,z
loop_
_atom_site_type_symbol
_atom_site_label
_atom_site_fract_x
_atom_site_fract_y
_atom_site_fract_z
Si Si1 0.052302 0.840661 0.453337
Si Si2 0.445114 0.842145 0.044935
Si Si3 0.052438 0.341433 0.877351
Si Si4 0.950818 0.339950 0.625550
Si Si5 0.051917 0.339446 0.783185
Si Si6 0.052783 0.841466 0.295136
O O1 0.250000 0.842838 0.452034
O O2 0.995887 0.737761 0.416847
O O3 0.000000 0.798666 0.500000
O O4 0.995298 0.000000 0.446218
O O5 0.250000 0.848477 0.044548
O O6 0.498044 0.755390 0.085040
O O7 0.511932 0.000000 0.047688
O O8 0.500000 0.782777 0.000000
O O9 0.250000 0.342374 0.876684
O O10 0.996694 0.500000 0.884363
O O11 0.998290 0.299923 0.830397
O O12 0.750000 0.340525 0.625734
O O13 0.004095 0.500000 0.627597
O O14 0.005822 0.250806 0.665649
O O15 0.250000 0.337983 0.782486
O O16 0.000428 0.500000 0.775427
O O17 0.989912 0.236683 0.747710
O O18 0.250000 0.847640 0.298422
O O19 0.990802 0.000000 0.296293
#
# Coordination Sequence:
#
# PCOD9403321 Si02
#       6
#     8   8   8   8   8   8
#     4   9  17  30  48  69  94 124 158 198 245 296
#     4  10  21  36  54  77 105 137 173 212 254 300
#     4   9  19  36  56  77 102 134 171 209 251 301
#     4   9  17  30  49  71  95 127 166 205 246 293
#     4   9  19  36  55  75 102 135 169 206 251 302
#     4  10  20  33  51  76 103 131 167 209 250 297
#
# _framework density 19.159043
#
# number of rings (size 3 to 8) (size 9 to 14) (size 15 to 20)
#    0.000    2.667    0.000    2.500    0.000    6.667 
#    0.000    5.833    0.000    3.000    0.000    0.000 
#    0.000    0.000    0.000    0.000    0.000    0.000 
#
# Total GULP energy -267797.822929 kJ/mol
# GULP energy per Si atom -5579.121311 kJ/mol
# Density = 1.911544 g / cm^3
# Si number density = 19.159043 Si / 1000 Ang^3
#
#
#
# Elastic Constant Matrix: (Units=GPa)
#
#
# Indices 1 2 3 4 5 6 
#
# 1 8.3032 14.0334 13.6760 0.0000 0.0000 0.0000
# 2 14.0334 145.3048 135.7674 0.0000 0.0000 0.0000
# 3 13.6760 135.7674 207.3980 0.0000 0.0000 0.0000
# 4 0.0000 0.0000 0.0000 36.6741 0.0000 0.0000
# 5 0.0000 0.0000 0.0000 0.0000 31.7037 0.0000
# 6 0.0000 0.0000 0.0000 0.0000 0.0000 19.4958
#
#
#
# Elastic Compliance Matrix: (Units=1/GPa)
#
#
# Indices 1 2 3 4 5 6 
#
# 1 0.144010 -0.012966 -0.001008 0.000000 0.000000 0.000000
# 2 -0.012966 0.018889 -0.011510 0.000000 0.000000 0.000000
# 3 -0.001008 -0.011510 0.012423 0.000000 0.000000 0.000000
# 4 0.000000 0.000000 0.000000 0.027267 0.000000 0.000000
# 5 0.000000 0.000000 0.000000 0.000000 0.031542 0.000000
# 6 0.000000 0.000000 0.000000 0.000000 0.000000 0.051293
#
#
# Mechanical properties :
#
#
# Convention : Reuss Voigt Hill
#
# Bulk Modulus (GPa) = 8.04164 76.43996 42.24080
# Shear Modulus (GPa) = 13.23295 30.74334 21.98815
#
# Velocity S-wave (km/s) = 2.63095 4.01014 3.39139
# Velocity P-wave (km/s) = 3.66546 7.83746 6.11806
#
# Compressibility (1/GPa) = 0.12435269
#
# Stress axis : x y z
#
# Youngs Moduli (GPa) = 6.94396 52.94073 80.49629
#
# Poissons Ratio (x) = 0.68645 0.08114
# Poissons Ratio (y) = 0.09004 0.92653
# Poissons Ratio (z) = 0.00700 0.60936
#
# Static dielectric constant tensor:
#      x y z
#    x 1.679760 0.000000 0.000000 
#    y 0.000000 1.661900 0.000000 
#    z 0.000000 0.000000 1.646480 
# 
# From -- ./inp_files/36947.got.cif
#   From: 2010.05.17/outbox.cif.g08.bks.cpg/sg51_19_cif.got.tgz:36947.got - 2010.06.03 11:52:47.
