data_PCOD9403524
_publ_section_title
;
Structure prediction by ZEFSAII (Michael W. Deem and Ramdas Pophale) SiO2 
 PCOD9403524
Probable space group: P M M A
;
_chemical_formula_sum "Si O2"
_cell_formula_units_Z 64
_cell_length_a 9.030173
_cell_length_b 14.382268
_cell_length_c 26.805750
_cell_angle_alpha 90.000000
_cell_angle_beta 90.000000
_cell_angle_gamma 90.000000
_cell_volume 3481.379845
_symmetry_space_group_name_H-M "P M M A"
_symmetry_group_IT_number 51
_symmetry_cell_setting 'orthorhombic'
loop_
_space_group_symop_operation_xyz
x,y,z
1/2-x,-y,z
1/2+x,-y,-z
-x,y,-z
-x,-y,-z
1/2+x,y,-z
1/2-x,y,z
x,-y,z
loop_
_atom_site_type_symbol
_atom_site_label
_atom_site_fract_x
_atom_site_fract_y
_atom_site_fract_z
Si Si1 0.926356 0.389504 0.752271
Si Si2 0.572960 0.280908 0.449662
Si Si3 0.417700 0.887229 0.698342
Si Si4 0.572400 0.608766 0.350108
Si Si5 0.072532 0.711662 0.145018
Si Si6 0.073466 0.107515 0.198983
Si Si7 0.925465 0.890331 0.595290
Si Si8 0.926528 0.390717 0.052756
O O1 0.750000 0.376429 0.746797
O O2 0.956205 0.500000 0.756846
O O3 0.971472 0.340363 0.803613
O O4 0.003900 0.355411 0.701678
O O5 0.500000 0.318938 0.500000
O O6 0.750000 0.282702 0.453578
O O7 0.527564 0.337309 0.400026
O O8 0.514733 0.176402 0.441230
O O9 0.250000 0.851631 0.691878
O O10 0.488925 0.861541 0.751042
O O11 0.518558 0.865056 0.650938
O O12 0.410608 0.000000 0.699297
O O13 0.750000 0.614050 0.346372
O O14 0.530607 0.500000 0.354832
O O15 0.250000 0.699481 0.139009
O O16 0.041369 0.820235 0.155106
O O17 0.990908 0.668910 0.097950
O O18 0.250000 0.112354 0.209144
O O19 0.036628 0.000000 0.188081
O O20 0.750000 0.875200 0.590819
O O21 0.955253 0.000000 0.587371
O O22 0.750000 0.380961 0.049498
O O23 0.960895 0.500000 0.061856
O O24 0.000000 0.365079 0.000000
#
# Coordination Sequence:
#
# PCOD9403524 Si02
#       8
#     8   8   8   8   8   8   8   8
#     4   9  18  32  51  78 110 142 177 218 268 325
#     4  11  24  40  58  81 105 135 175 222 272 325
#     4   9  17  30  49  74 104 138 177 221 267 317
#     4   9  20  39  59  79 106 139 175 218 269 323
#     4  10  20  33  53  82 114 151 190 232 275 320
#     4   9  18  32  49  74 111 153 193 230 271 319
#     4  10  21  37  57  79 105 139 176 217 266 322
#     4  10  21  37  58  84 114 149 187 230 280 333
#
# _framework density 18.383514999999999
#
# number of rings (size 3 to 8) (size 9 to 14) (size 15 to 20)
#    0.000    2.375    0.000    1.875    1.750    6.000 
#    0.000    1.250    0.000    0.375    0.000    0.000 
#    0.000    0.000    0.000    0.000    0.000    0.000 
#
# Total GULP energy -357345.660665 kJ/mol
# GULP energy per Si atom -5583.525948 kJ/mol
# Density = 1.834167 g / cm^3
# Si number density = 18.383515 Si / 1000 Ang^3
#
#
#
# Elastic Constant Matrix: (Units=GPa)
#
#
# Indices 1 2 3 4 5 6 
#
# 1 39.5547 33.3528 46.7899 0.0000 0.0000 0.0000
# 2 33.3528 72.5535 63.5211 0.0000 0.0000 0.0000
# 3 46.7899 63.5211 143.3503 0.0000 0.0000 0.0000
# 4 0.0000 0.0000 0.0000 29.9123 0.0000 0.0000
# 5 0.0000 0.0000 0.0000 0.0000 37.2477 0.0000
# 6 0.0000 0.0000 0.0000 0.0000 0.0000 18.1663
#
#
#
# Elastic Compliance Matrix: (Units=1/GPa)
#
#
# Indices 1 2 3 4 5 6 
#
# 1 0.048318 -0.013731 -0.009687 0.000000 0.000000 0.000000
# 2 -0.013731 0.026422 -0.007226 0.000000 0.000000 0.000000
# 3 -0.009687 -0.007226 0.013340 0.000000 0.000000 0.000000
# 4 0.000000 0.000000 0.000000 0.033431 0.000000 0.000000
# 5 0.000000 0.000000 0.000000 0.000000 0.026847 0.000000
# 6 0.000000 0.000000 0.000000 0.000000 0.000000 0.055047
#
#
# Mechanical properties :
#
#
# Convention : Reuss Voigt Hill
#
# Bulk Modulus (GPa) = 37.32490 60.30957 48.81723
# Shear Modulus (GPa) = 18.27335 24.51823 21.39579
#
# Velocity S-wave (km/s) = 3.15621 3.65596 3.41524
# Velocity P-wave (km/s) = 5.79912 7.12032 6.49341
#
# Compressibility (1/GPa) = 0.02679177
#
# Stress axis : x y z
#
# Youngs Moduli (GPa) = 20.69621 37.84796 74.96465
#
# Poissons Ratio (x) = 0.51969 0.72615
# Poissons Ratio (y) = 0.28418 0.54169
# Poissons Ratio (z) = 0.20048 0.27349
#
# Static dielectric constant tensor:
#      x y z
#    x 1.616880 0.000000 0.000000 
#    y 0.000000 1.671480 0.000000 
#    z 0.000000 0.000000 1.603890 
# 
# From -- ./inp_files/34908.got.cif
#   From: 2010.05.17/outbox.cif.g08.bks.cpg/sg51_18_cif.got.tgz:34908.got - 2010.06.03 11:52:47.
