data_PCOD9403693
_publ_section_title
;
Structure prediction by ZEFSAII (Michael W. Deem and Ramdas Pophale) SiO2 
 PCOD9403693
Probable space group: P M M A
;
_chemical_formula_sum "Si O2"
_cell_formula_units_Z 44
_cell_length_a 8.392976
_cell_length_b 28.712153
_cell_length_c 10.095815
_cell_angle_alpha 90.000000
_cell_angle_beta 90.000000
_cell_angle_gamma 90.000000
_cell_volume 2432.893648
_symmetry_space_group_name_H-M "P M M A"
_symmetry_group_IT_number 51
_symmetry_cell_setting 'orthorhombic'
loop_
_space_group_symop_operation_xyz
x,y,z
1/2-x,-y,z
1/2+x,-y,-z
-x,y,-z
-x,-y,-z
1/2+x,y,-z
1/2-x,y,z
x,-y,z
loop_
_atom_site_type_symbol
_atom_site_label
_atom_site_fract_x
_atom_site_fract_y
_atom_site_fract_z
Si Si1 0.442600 0.631475 0.148878
Si Si2 0.442664 0.000000 0.848520
Si Si3 0.441308 0.184860 0.352946
Si Si4 0.440960 0.080538 0.648109
Si Si5 0.057599 0.736727 0.148704
Si Si6 0.442560 0.552700 0.351254
O O1 0.250000 0.630941 0.149349
O O2 0.494192 0.684123 0.185379
O O3 0.499678 0.592022 0.249858
O O4 0.500000 0.622260 0.000000
O O5 0.494758 0.044744 0.761674
O O6 0.250000 0.000000 0.851199
O O7 0.500000 0.000000 0.000000
O O8 0.500000 0.196718 0.500000
O O9 0.250000 0.183861 0.352630
O O10 0.501937 0.132901 0.322751
O O11 0.498077 0.223532 0.249036
O O12 0.500000 0.067780 0.500000
O O13 0.250000 0.079980 0.644094
O O14 0.250000 0.737131 0.149376
O O15 0.000000 0.745911 0.000000
O O16 0.500000 0.562109 0.500000
O O17 0.250000 0.553249 0.350753
O O18 0.493956 0.500000 0.315305
#
# Coordination Sequence:
#
# PCOD9403693 Si02
#       6
#     8   4   8   8   8   8
#     4   9  18  33  50  70  97 128 163 202 243 290
#     4  10  23  38  54  78 106 134 167 204 244 292
#     4  10  20  34  52  76 102 130 165 204 245 290
#     4  10  20  36  56  78 102 132 168 204 244 291
#     4   9  19  34  51  71  98 131 165 201 244 292
#     4   9  18  32  49  70  97 127 160 200 245 292
#
# _framework density 18.085459
#
# number of rings (size 3 to 8) (size 9 to 14) (size 15 to 20)
#    0.000    2.545    0.000    2.455    0.000    5.455 
#    0.000    3.636    0.000    0.000    0.000    0.000 
#    0.000    0.000    0.000    0.000    0.000    0.000 
#
# Total GULP energy -245433.415099 kJ/mol
# GULP energy per Si atom -5578.032161 kJ/mol
# Density = 1.804430 g / cm^3
# Si number density = 18.085459 Si / 1000 Ang^3
#
#
#
# Elastic Constant Matrix: (Units=GPa)
#
#
# Indices 1 2 3 4 5 6 
#
# 1 19.4339 25.2158 20.5679 0.0000 0.0000 0.0000
# 2 25.2158 170.3817 146.6050 0.0000 0.0000 0.0000
# 3 20.5679 146.6050 153.4200 0.0000 0.0000 0.0000
# 4 0.0000 0.0000 0.0000 39.3485 0.0000 0.0000
# 5 0.0000 0.0000 0.0000 0.0000 32.0824 0.0000
# 6 0.0000 0.0000 0.0000 0.0000 0.0000 29.6325
#
#
#
# Elastic Compliance Matrix: (Units=1/GPa)
#
#
# Indices 1 2 3 4 5 6 
#
# 1 0.063876 -0.011729 0.002644 0.000000 0.000000 0.000000
# 2 -0.011729 0.035169 -0.032034 0.000000 0.000000 0.000000
# 3 0.002644 -0.032034 0.036775 0.000000 0.000000 0.000000
# 4 0.000000 0.000000 0.000000 0.025414 0.000000 0.000000
# 5 0.000000 0.000000 0.000000 0.000000 0.031170 0.000000
# 6 0.000000 0.000000 0.000000 0.000000 0.000000 0.033747
#
#
# Mechanical properties :
#
#
# Convention : Reuss Voigt Hill
#
# Bulk Modulus (GPa) = 18.66283 80.89034 49.77658
# Shear Modulus (GPa) = 15.32574 30.26914 22.79744
#
# Velocity S-wave (km/s) = 2.91418 4.09549 3.55426
# Velocity P-wave (km/s) = 4.65456 8.19682 6.66531
#
# Compressibility (1/GPa) = 0.05358244
#
# Stress axis : x y z
#
# Youngs Moduli (GPa) = 15.65533 28.43419 27.19241
#
# Poissons Ratio (x) = 0.33349 -0.07190
# Poissons Ratio (y) = 0.18361 0.87109
# Poissons Ratio (z) = -0.04140 0.91087
#
# Static dielectric constant tensor:
#      x y z
#    x 1.624050 0.000000 0.000000 
#    y 0.000000 1.634120 0.000000 
#    z 0.000000 0.000000 1.580880 
# 
# From -- ./inp_files/5881.got.cif
#   From: 2010.05.17/outbox.cif.g08.bks.cpg/sg51_3_cif.got.tgz:5881.got - 2010.06.03 11:52:47.
