data_PCOD9403432
_publ_section_title
;
Structure prediction by ZEFSAII (Michael W. Deem and Ramdas Pophale) SiO2 
 PCOD9403432
Probable space group: P M M A
;
_chemical_formula_sum "Si O2"
_cell_formula_units_Z 48
_cell_length_a 8.818126
_cell_length_b 31.735108
_cell_length_c 9.621986
_cell_angle_alpha 90.000000
_cell_angle_beta 90.000000
_cell_angle_gamma 90.000000
_cell_volume 2692.656791
_symmetry_space_group_name_H-M "P M M A"
_symmetry_group_IT_number 51
_symmetry_cell_setting 'orthorhombic'
loop_
_space_group_symop_operation_xyz
x,y,z
1/2-x,-y,z
1/2+x,-y,-z
-x,y,-z
-x,-y,-z
1/2+x,y,-z
1/2-x,y,z
x,-y,z
loop_
_atom_site_type_symbol
_atom_site_label
_atom_site_fract_x
_atom_site_fract_y
_atom_site_fract_z
Si Si1 0.431800 0.287393 0.653800
Si Si2 0.068968 0.881605 0.152052
Si Si3 0.931321 0.047252 0.346273
Si Si4 0.068162 0.546037 0.155911
Si Si5 0.431455 0.632287 0.845056
Si Si6 0.568392 0.784359 0.846561
O O1 0.500000 0.290363 0.500000
O O2 0.250000 0.284030 0.645557
O O3 0.468944 0.328641 0.745975
O O4 0.498294 0.247474 0.736018
O O5 0.250000 0.885907 0.147381
O O6 0.034034 0.833046 0.191167
O O7 0.999516 0.915815 0.254221
O O8 0.000000 0.888347 0.000000
O O9 0.750000 0.051056 0.352882
O O10 0.000000 0.050115 0.500000
O O11 0.967654 0.000000 0.292113
O O12 0.250000 0.549999 0.148706
O O13 0.032488 0.500000 0.219695
O O14 0.997088 0.588546 0.216288
O O15 0.000000 0.544918 0.000000
O O16 0.250000 0.628931 0.858206
O O17 0.500000 0.638483 0.000000
O O18 0.750000 0.779340 0.852810
O O19 0.500000 0.776331 0.000000
#
# Coordination Sequence:
#
# PCOD9403432 Si02
#       6
#     8   8   8   8   8   8
#     4  11  24  39  56  79 107 141 180 222 269 319
#     4  10  21  37  58  84 112 143 179 221 269 319
#     4  10  21  37  57  81 110 146 186 226 269 318
#     4   9  16  26  44  72 103 134 169 211 258 306
#     4  10  20  33  52  78 105 137 175 214 261 314
#     4  10  21  38  60  84 110 141 178 220 267 320
#
# _framework density 17.826260999999999
#
# number of rings (size 3 to 8) (size 9 to 14) (size 15 to 20)
#    0.000    2.000    0.000    4.500    0.000    9.000 
#    0.000    0.000    0.000    0.500    0.000    0.000 
#    0.000    0.000    0.000    0.000    0.000    0.000 
#
# Total GULP energy -267902.577156 kJ/mol
# GULP energy per Si atom -5581.303691 kJ/mol
# Density = 1.778569 g / cm^3
# Si number density = 17.826261 Si / 1000 Ang^3
#
#
#
# Elastic Constant Matrix: (Units=GPa)
#
#
# Indices 1 2 3 4 5 6 
#
# 1 81.2788 84.2404 53.9161 0.0000 0.0000 0.0000
# 2 84.2404 181.7910 104.5639 0.0000 0.0000 0.0000
# 3 53.9161 104.5639 93.5781 0.0000 0.0000 0.0000
# 4 0.0000 0.0000 0.0000 446.0656 0.0000 0.0000
# 5 0.0000 0.0000 0.0000 0.0000 31.1582 0.0000
# 6 0.0000 0.0000 0.0000 0.0000 0.0000 28.3018
#
#
#
# Elastic Compliance Matrix: (Units=1/GPa)
#
#
# Indices 1 2 3 4 5 6 
#
# 1 0.024184 -0.008934 -0.003951 0.000000 0.000000 0.000000
# 2 -0.008934 0.018697 -0.015744 0.000000 0.000000 0.000000
# 3 -0.003951 -0.015744 0.030555 0.000000 0.000000 0.000000
# 4 0.000000 0.000000 0.000000 0.002242 0.000000 0.000000
# 5 0.000000 0.000000 0.000000 0.000000 0.032094 0.000000
# 6 0.000000 0.000000 0.000000 0.000000 0.000000 0.035333
#
#
# Mechanical properties :
#
#
# Convention : Reuss Voigt Hill
#
# Bulk Modulus (GPa) = 61.81489 93.56542 77.69016
# Shear Modulus (GPa) = 24.30076 108.70027 66.50051
#
# Velocity S-wave (km/s) = 3.69616 7.81729 6.11439
# Velocity P-wave (km/s) = 7.27785 11.57935 9.67079
#
# Compressibility (1/GPa) = 0.01617733
#
# Stress axis : x y z
#
# Youngs Moduli (GPa) = 41.35021 53.48585 32.72801
#
# Poissons Ratio (x) = 0.47784 0.12930
# Poissons Ratio (y) = 0.36942 0.51527
# Poissons Ratio (z) = 0.16337 0.84208
#
# Static dielectric constant tensor:
#      x y z
#    x 1.594280 0.000000 0.000000 
#    y 0.000000 1.638420 0.000000 
#    z 0.000000 0.000000 1.563210 
# 
# From -- ./inp_files/6084.got.cif
#   From: 2010.05.17/outbox.cif.g08.bks.cpg/sg51_4_cif.got.tgz:6084.got - 2010.06.03 11:52:47.
