data_PCOD9403374
_publ_section_title
;
Structure prediction by ZEFSAII (Michael W. Deem and Ramdas Pophale) SiO2 
 PCOD9403374
Probable space group: P M M A
;
_chemical_formula_sum "Si O2"
_cell_formula_units_Z 56
_cell_length_a 8.969265
_cell_length_b 14.541922
_cell_length_c 23.878372
_cell_angle_alpha 90.000000
_cell_angle_beta 90.000000
_cell_angle_gamma 90.000000
_cell_volume 3114.464466
_symmetry_space_group_name_H-M "P M M A"
_symmetry_group_IT_number 51
_symmetry_cell_setting 'orthorhombic'
loop_
_space_group_symop_operation_xyz
x,y,z
1/2-x,-y,z
1/2+x,-y,-z
-x,y,-z
-x,-y,-z
1/2+x,y,-z
1/2-x,y,z
x,-y,z
loop_
_atom_site_type_symbol
_atom_site_label
_atom_site_fract_x
_atom_site_fract_y
_atom_site_fract_z
Si Si1 0.572339 0.279612 0.161010
Si Si2 0.070498 0.892340 0.212452
Si Si3 0.071997 0.392620 0.060882
Si Si4 0.076062 0.610135 0.261794
Si Si5 0.576873 0.889501 0.659469
Si Si6 0.928846 0.605192 0.381447
Si Si7 0.573194 0.785987 0.442131
O O1 0.750000 0.280827 0.157658
O O2 0.511199 0.176966 0.171232
O O3 0.500865 0.326925 0.106698
O O4 0.515748 0.337892 0.214456
O O5 0.250000 0.882929 0.207886
O O6 0.030311 0.866946 0.276861
O O7 0.034775 0.000000 0.203912
O O8 0.250000 0.379209 0.058638
O O9 0.044860 0.500000 0.076222
O O10 0.000000 0.377660 0.000000
O O11 0.250000 0.636919 0.258565
O O12 0.066217 0.500000 0.252966
O O13 0.011285 0.628544 0.323462
O O14 0.750000 0.861717 0.652811
O O15 0.481248 0.843733 0.611162
O O16 0.570428 0.000000 0.654965
O O17 0.750000 0.610106 0.372077
O O18 0.966147 0.500000 0.396573
O O19 0.968243 0.680382 0.427727
O O20 0.500000 0.816382 0.500000
O O21 0.750000 0.792553 0.447226
#
# Coordination Sequence:
#
# PCOD9403374 Si02
#       7
#     8   8   8   8   8   8   8
#     4  12  23  33  52  82 115 150 185 223 267 316
#     4   9  19  37  60  84 110 141 177 220 271 324
#     4  10  21  38  59  83 114 152 193 234 273 316
#     4  10  20  33  51  77 107 139 176 218 266 320
#     4   9  19  37  59  80 103 132 166 209 264 321
#     4   9  19  36  54  73 100 132 167 211 264 319
#     4  11  23  36  52  74  99 131 170 212 258 310
#
# _framework density 17.980619999999998
#
# number of rings (size 3 to 8) (size 9 to 14) (size 15 to 20)
#    0.000    2.000    0.000    4.714    0.000    8.571 
#    0.000    1.429    0.000    0.429    0.000    0.000 
#    0.000    0.000    0.000    0.000    0.000    0.000 
#
# Total GULP energy -312852.258860 kJ/mol
# GULP energy per Si atom -5586.647480 kJ/mol
# Density = 1.793970 g / cm^3
# Si number density = 17.980620 Si / 1000 Ang^3
#
#
#
# Elastic Constant Matrix: (Units=GPa)
#
#
# Indices 1 2 3 4 5 6 
#
# 1 76.3872 50.0118 55.2227 0.0000 0.0000 0.0000
# 2 50.0118 73.0146 62.9107 0.0000 0.0000 0.0000
# 3 55.2227 62.9107 95.6254 0.0000 0.0000 0.0000
# 4 0.0000 0.0000 0.0000 21.2557 0.0000 0.0000
# 5 0.0000 0.0000 0.0000 0.0000 27.7458 0.0000
# 6 0.0000 0.0000 0.0000 0.0000 0.0000 26.3874
#
#
#
# Elastic Compliance Matrix: (Units=1/GPa)
#
#
# Indices 1 2 3 4 5 6 
#
# 1 0.025921 -0.011214 -0.007592 0.000000 0.000000 0.000000
# 2 -0.011214 0.036470 -0.017517 0.000000 0.000000 0.000000
# 3 -0.007592 -0.017517 0.026366 0.000000 0.000000 0.000000
# 4 0.000000 0.000000 0.000000 0.047046 0.000000 0.000000
# 5 0.000000 0.000000 0.000000 0.000000 0.036042 0.000000
# 6 0.000000 0.000000 0.000000 0.000000 0.000000 0.037897
#
#
# Mechanical properties :
#
#
# Convention : Reuss Voigt Hill
#
# Bulk Modulus (GPa) = 62.06713 64.59085 63.32899
# Shear Modulus (GPa) = 17.37565 20.20326 18.78945
#
# Velocity S-wave (km/s) = 3.11200 3.35567 3.23613
# Velocity P-wave (km/s) = 6.89250 7.14244 7.01858
#
# Compressibility (1/GPa) = 0.01611159
#
# Stress axis : x y z
#
# Youngs Moduli (GPa) = 38.57809 27.41981 37.92713
#
# Poissons Ratio (x) = 0.30747 0.28795
# Poissons Ratio (y) = 0.43260 0.66439
# Poissons Ratio (z) = 0.29289 0.48032
#
# Static dielectric constant tensor:
#      x y z
#    x 1.593950 0.000000 0.000000 
#    y 0.000000 1.635530 0.000000 
#    z 0.000000 0.000000 1.579900 
# 
# From -- ./inp_files/31884.got.cif
#   From: 2010.05.17/outbox.cif.g08.bks.cpg/sg51_16_cif.got.tgz:31884.got - 2010.06.03 11:52:47.
