data_PCOD9403108
_publ_section_title
;
Structure prediction by ZEFSAII (Michael W. Deem and Ramdas Pophale) SiO2 
 PCOD9403108
Probable space group: P M M A
;
_chemical_formula_sum "Si O2"
_cell_formula_units_Z 44
_cell_length_a 7.720771
_cell_length_b 14.255854
_cell_length_c 19.188620
_cell_angle_alpha 90.000000
_cell_angle_beta 90.000000
_cell_angle_gamma 90.000000
_cell_volume 2112.018182
_symmetry_space_group_name_H-M "P M M A"
_symmetry_group_IT_number 51
_symmetry_cell_setting 'orthorhombic'
loop_
_space_group_symop_operation_xyz
x,y,z
1/2-x,-y,z
1/2+x,-y,-z
-x,y,-z
-x,-y,-z
1/2+x,y,-z
1/2-x,y,z
x,-y,z
loop_
_atom_site_type_symbol
_atom_site_label
_atom_site_fract_x
_atom_site_fract_y
_atom_site_fract_z
Si Si1 0.457605 0.500000 0.080988
Si Si2 0.037763 0.307751 0.154971
Si Si3 0.038457 0.605434 0.298258
Si Si4 0.549732 0.104301 0.842082
Si Si5 0.953493 0.895946 0.316370
Si Si6 0.955122 0.729989 0.580750
O O1 0.250000 0.500000 0.091958
O O2 0.519798 0.598652 0.114056
O O3 0.500000 0.500000 0.000000
O O4 0.250000 0.305234 0.152346
O O5 0.986091 0.327139 0.235141
O O6 0.975979 0.204257 0.131449
O O7 0.250000 0.604127 0.297642
O O8 0.980438 0.500000 0.284379
O O9 0.977153 0.643672 0.372558
O O10 0.750000 0.100646 0.864663
O O11 0.546822 0.115487 0.757842
O O12 0.473265 0.000000 0.857098
O O13 0.750000 0.892342 0.299944
O O14 0.991490 0.821225 0.375705
O O15 0.997053 0.000000 0.342619
O O16 0.750000 0.725087 0.584203
O O17 0.000000 0.730529 0.500000
#
# Coordination Sequence:
#
# PCOD9403108 Si02
#       6
#     4   8   8   8   8   8
#     4  10  20  34  56  82 113 142 172 207 248 301
#     4   9  15  28  52  79 102 134 171 207 249 296
#     4   9  16  29  51  76  97 124 168 211 252 305
#     4   9  16  28  50  79 104 128 169 218 258 301
#     4  10  20  33  49  71 100 132 167 211 265 317
#     4  11  22  35  51  70  96 131 172 218 265 314
#
# _framework density 20.833152999999999
#
# number of rings (size 3 to 8) (size 9 to 14) (size 15 to 20)
#    0.000    2.364    2.727    1.091    0.000    1.818 
#    0.000    0.909    0.000    2.182    0.000    0.000 
#    0.000    0.000    0.000    0.000    0.000    0.000 
#
# Total GULP energy -245260.388395 kJ/mol
# GULP energy per Si atom -5574.099736 kJ/mol
# Density = 2.078574 g / cm^3
# Si number density = 20.833153 Si / 1000 Ang^3
#
#
#
# Elastic Constant Matrix: (Units=GPa)
#
#
# Indices 1 2 3 4 5 6 
#
# 1 34.4525 3.7973 -3.2454 0.0000 0.0000 0.0000
# 2 3.7973 196.4389 28.3571 0.0000 0.0000 0.0000
# 3 -3.2454 28.3571 41.7424 0.0000 0.0000 0.0000
# 4 0.0000 0.0000 0.0000 17.9379 0.0000 0.0000
# 5 0.0000 0.0000 0.0000 0.0000 16.8511 0.0000
# 6 0.0000 0.0000 0.0000 0.0000 0.0000 -1.9875
#
#
#
# Elastic Compliance Matrix: (Units=1/GPa)
#
#
# Indices 1 2 3 4 5 6 
#
# 1 0.029414 -0.000996 0.002964 0.000000 0.000000 0.000000
# 2 -0.000996 0.005678 -0.003935 0.000000 0.000000 0.000000
# 3 0.002964 -0.003935 0.026860 0.000000 0.000000 0.000000
# 4 0.000000 0.000000 0.000000 0.055748 0.000000 0.000000
# 5 0.000000 0.000000 0.000000 0.000000 0.059343 0.000000
# 6 0.000000 0.000000 0.000000 0.000000 0.000000 -0.503151
#
#
# Mechanical properties :
#
#
# Convention : Reuss Voigt Hill
#
# Bulk Modulus (GPa) = 17.23611 36.71687 26.97649
# Shear Modulus (GPa) = -16.51069 22.80863 3.14897
#
# Velocity S-wave (km/s) = -2.81823 3.31240 1.23077
# Velocity P-wave (km/s) = 1.51608 5.68259 3.87255
#
# Compressibility (1/GPa) = 0.05801774
#
# Stress axis : x y z
#
# Youngs Moduli (GPa) = 33.99684 176.12152 37.23025
#
# Poissons Ratio (x) = 0.17550 -0.11035
# Poissons Ratio (y) = 0.03388 0.14649
# Poissons Ratio (z) = -0.10076 0.69298
#
# Static dielectric constant tensor:
#      x y z
#    x 1.763790 0.000000 0.000000 
#    y 0.000000 1.830090 0.000000 
#    z 0.000000 0.000000 1.649750 
# 
# From -- ./inp_files/27355.got.cif
#   From: 2010.05.17/outbox.cif.g08.bks.cpg/sg51_14_cif.got.tgz:27355.got - 2010.06.03 11:52:47.
