data_PCOD9403376
_publ_section_title
;
Structure prediction by ZEFSAII (Michael W. Deem and Ramdas Pophale) SiO2 
 PCOD9403376
Probable space group: P M M A
;
_chemical_formula_sum "Si O2"
_cell_formula_units_Z 48
_cell_length_a 9.273637
_cell_length_b 9.086618
_cell_length_c 31.807551
_cell_angle_alpha 90.000000
_cell_angle_beta 90.000000
_cell_angle_gamma 90.000000
_cell_volume 2680.294994
_symmetry_space_group_name_H-M "P M M A"
_symmetry_group_IT_number 51
_symmetry_cell_setting 'orthorhombic'
loop_
_space_group_symop_operation_xyz
x,y,z
1/2-x,-y,z
1/2+x,-y,-z
-x,y,-z
-x,-y,-z
1/2+x,y,-z
1/2-x,y,z
x,-y,z
loop_
_atom_site_type_symbol
_atom_site_label
_atom_site_fract_x
_atom_site_fract_y
_atom_site_fract_z
Si Si1 0.919881 0.323050 0.126943
Si Si2 0.577880 0.674119 0.457344
Si Si3 0.916266 0.679409 0.958165
Si Si4 0.078954 0.175183 0.204882
Si Si5 0.923145 0.827085 0.370612
Si Si6 0.577411 0.326914 0.707215
O O1 0.750000 0.291484 0.123804
O O2 0.936664 0.500000 0.131266
O O3 0.001194 0.277006 0.084241
O O4 0.990417 0.245181 0.166882
O O5 0.500000 0.722767 0.500000
O O6 0.750000 0.691625 0.462299
O O7 0.548132 0.500000 0.451432
O O8 0.532261 0.760354 0.415615
O O9 0.750000 0.727476 0.958053
O O10 0.916053 0.500000 0.958851
O O11 0.000000 0.728178 0.000000
O O12 0.250000 0.204932 0.198563
O O13 0.036503 0.246887 0.249368
O O14 0.058783 0.000000 0.206543
O O15 0.750000 0.808522 0.367314
O O16 0.998536 0.743893 0.332409
O O17 0.955914 0.000000 0.368819
O O18 0.750000 0.309772 0.702161
O O19 0.545059 0.500000 0.710153
#
# Coordination Sequence:
#
# PCOD9403376 Si02
#       6
#     8   8   8   8   8   8
#     4  10  20  33  51  77 107 139 177 218 260 310
#     4   9  18  33  52  74 102 137 177 220 263 308
#     4   9  16  27  46  73 105 139 175 218 265 310
#     4  10  21  37  56  77 103 136 173 214 262 314
#     4  10  21  36  54  78 109 143 177 214 260 314
#     4  10  21  37  58  82 106 135 174 218 263 313
#
# _framework density 17.908477000000001
#
# number of rings (size 3 to 8) (size 9 to 14) (size 15 to 20)
#    0.000    2.333    0.000    2.500    0.000    7.667 
#    0.000    1.667    0.000    0.500    0.000    0.000 
#    0.000    0.000    0.000    0.000    0.000    0.000 
#
# Total GULP energy -267968.016215 kJ/mol
# GULP energy per Si atom -5582.667004 kJ/mol
# Density = 1.786772 g / cm^3
# Si number density = 17.908477 Si / 1000 Ang^3
#
#
#
# Elastic Constant Matrix: (Units=GPa)
#
#
# Indices 1 2 3 4 5 6 
#
# 1 83.1570 58.7034 97.7023 0.0000 0.0000 0.0000
# 2 58.7034 60.8914 81.2674 0.0000 0.0000 0.0000
# 3 97.7023 81.2674 214.6730 0.0000 0.0000 0.0000
# 4 0.0000 0.0000 0.0000 -18.3533 0.0000 0.0000
# 5 0.0000 0.0000 0.0000 0.0000 41.8342 0.0000
# 6 0.0000 0.0000 0.0000 0.0000 0.0000 22.6523
#
#
#
# Elastic Compliance Matrix: (Units=1/GPa)
#
#
# Indices 1 2 3 4 5 6 
#
# 1 0.043411 -0.031293 -0.007911 0.000000 0.000000 0.000000
# 2 -0.031293 0.055751 -0.006863 0.000000 0.000000 0.000000
# 3 -0.007911 -0.006863 0.010857 0.000000 0.000000 0.000000
# 4 0.000000 0.000000 0.000000 -0.054486 0.000000 0.000000
# 5 0.000000 0.000000 0.000000 0.000000 0.023904 0.000000
# 6 0.000000 0.000000 0.000000 0.000000 0.000000 0.044146
#
#
# Mechanical properties :
#
#
# Convention : Reuss Voigt Hill
#
# Bulk Modulus (GPa) = 55.91377 92.67418 74.29398
# Shear Modulus (GPa) = 22.55531 17.29652 19.92592
#
# Velocity S-wave (km/s) = 3.55276 3.11115 3.33926
# Velocity P-wave (km/s) = 6.93680 8.04778 7.51286
#
# Compressibility (1/GPa) = 0.01788468
#
# Stress axis : x y z
#
# Youngs Moduli (GPa) = 23.03583 17.93690 92.10812
#
# Poissons Ratio (x) = 0.56130 0.72865
# Poissons Ratio (y) = 0.72086 0.63216
# Poissons Ratio (z) = 0.18223 0.12311
#
# Static dielectric constant tensor:
#      x y z
#    x 1.600150 0.000000 0.000000 
#    y 0.000000 1.595370 0.000000 
#    z 0.000000 0.000000 1.577230 
# 
# From -- ./inp_files/36937.got.cif
#   From: 2010.05.17/outbox.cif.g08.bks.cpg/sg51_19_cif.got.tgz:36937.got - 2010.06.03 11:52:47.
