data_PCOD9403734
_publ_section_title
;
Structure prediction by ZEFSAII (Michael W. Deem and Ramdas Pophale) SiO2 
 PCOD9403734
Probable space group: P M M A
;
_chemical_formula_sum "Si O2"
_cell_formula_units_Z 48
_cell_length_a 8.762067
_cell_length_b 14.870938
_cell_length_c 19.483885
_cell_angle_alpha 90.000000
_cell_angle_beta 90.000000
_cell_angle_gamma 90.000000
_cell_volume 2538.753238
_symmetry_space_group_name_H-M "P M M A"
_symmetry_group_IT_number 51
_symmetry_cell_setting 'orthorhombic'
loop_
_space_group_symop_operation_xyz
x,y,z
1/2-x,-y,z
1/2+x,-y,-z
-x,y,-z
-x,-y,-z
1/2+x,y,-z
1/2-x,y,z
x,-y,z
loop_
_atom_site_type_symbol
_atom_site_label
_atom_site_fract_x
_atom_site_fract_y
_atom_site_fract_z
Si Si1 0.574516 0.647007 0.072515
Si Si2 0.928152 0.761666 0.306997
Si Si3 0.573661 0.864680 0.071115
Si Si4 0.076498 0.898361 0.211454
Si Si5 0.568033 0.397999 0.779248
Si Si6 0.934817 0.897358 0.423802
O O1 0.750000 0.617304 0.074039
O O2 0.571629 0.755790 0.072449
O O3 0.494801 0.618763 0.143579
O O4 0.500000 0.617563 0.000000
O O5 0.750000 0.742749 0.316731
O O6 0.987047 0.816526 0.373793
O O7 0.955210 0.835286 0.247899
O O8 0.006687 0.672951 0.276607
O O9 0.750000 0.892671 0.078639
O O10 0.467535 0.897454 0.132223
O O11 0.500000 0.893617 0.000000
O O12 0.250000 0.864727 0.221655
O O13 0.068162 0.000000 0.237389
O O14 0.750000 0.389563 0.782510
O O15 0.527183 0.500000 0.759686
O O16 0.750000 0.894926 0.425026
O O17 0.000000 0.885166 0.500000
O O18 0.977850 0.000000 0.401672
#
# Coordination Sequence:
#
# PCOD9403734 Si02
#       6
#     8   8   8   8   8   8
#     4  10  20  35  57  82 108 144 188 240 300 355
#     4  11  22  38  60  86 117 153 188 232 285 335
#     4  10  20  34  53  75 102 141 185 233 286 339
#     4  11  23  36  53  79 110 147 189 231 278 336
#     4  11  24  40  59  84 114 150 193 242 294 349
#     4   9  19  36  60  92 127 159 191 226 269 326
#
# _framework density 18.906918000000001
#
# number of rings (size 3 to 8) (size 9 to 14) (size 15 to 20)
#    0.000    1.667    1.667    3.000    0.000    6.667 
#    0.000    1.667    0.000    0.500    0.000    0.000 
#    0.000    0.000    0.000    0.000    0.000    0.000 
#
# Total GULP energy -267965.134377 kJ/mol
# GULP energy per Si atom -5582.606966 kJ/mol
# Density = 1.886389 g / cm^3
# Si number density = 18.906918 Si / 1000 Ang^3
#
#
#
# Elastic Constant Matrix: (Units=GPa)
#
#
# Indices 1 2 3 4 5 6 
#
# 1 51.4130 36.3420 23.2773 0.0000 0.0000 0.0000
# 2 36.3420 122.2418 59.5576 0.0000 0.0000 0.0000
# 3 23.2773 59.5576 122.3007 0.0000 0.0000 0.0000
# 4 0.0000 0.0000 0.0000 20.4592 0.0000 0.0000
# 5 0.0000 0.0000 0.0000 0.0000 29.9660 0.0000
# 6 0.0000 0.0000 0.0000 0.0000 0.0000 -18.6467
#
#
#
# Elastic Compliance Matrix: (Units=1/GPa)
#
#
# Indices 1 2 3 4 5 6 
#
# 1 0.024829 -0.006659 -0.001483 0.000000 0.000000 0.000000
# 2 -0.006659 0.012511 -0.004825 0.000000 0.000000 0.000000
# 3 -0.001483 -0.004825 0.010809 0.000000 0.000000 0.000000
# 4 0.000000 0.000000 0.000000 0.048878 0.000000 0.000000
# 5 0.000000 0.000000 0.000000 0.000000 0.033371 0.000000
# 6 0.000000 0.000000 0.000000 0.000000 0.000000 -0.053629
#
#
# Mechanical properties :
#
#
# Convention : Reuss Voigt Hill
#
# Bulk Modulus (GPa) = 45.01613 59.36770 52.19192
# Shear Modulus (GPa) = 45.41021 18.14094 31.77557
#
# Velocity S-wave (km/s) = 4.90611 3.10092 4.10400
# Velocity P-wave (km/s) = 7.48026 6.65500 7.07967
#
# Compressibility (1/GPa) = 0.02221426
#
# Stress axis : x y z
#
# Youngs Moduli (GPa) = 40.27591 79.92889 92.51930
#
# Poissons Ratio (x) = 0.53225 0.13719
# Poissons Ratio (y) = 0.26820 0.44643
# Poissons Ratio (z) = 0.05972 0.38567
#
# Static dielectric constant tensor:
#      x y z
#    x 1.647840 0.000000 0.000000 
#    y 0.000000 1.686850 0.000000 
#    z 0.000000 0.000000 1.652980 
# 
# From -- ./inp_files/27547.got.cif
#   From: 2010.05.17/outbox.cif.g08.bks.cpg/sg51_14_cif.got.tgz:27547.got - 2010.06.03 11:52:47.
