data_PCOD9403330
_publ_section_title
;
Structure prediction by ZEFSAII (Michael W. Deem and Ramdas Pophale) SiO2 
 PCOD9403330
Probable space group: P M M A
;
_chemical_formula_sum "Si O2"
_cell_formula_units_Z 48
_cell_length_a 8.931510
_cell_length_b 9.572401
_cell_length_c 32.151419
_cell_angle_alpha 90.000000
_cell_angle_beta 90.000000
_cell_angle_gamma 90.000000
_cell_volume 2748.817566
_symmetry_space_group_name_H-M "P M M A"
_symmetry_group_IT_number 51
_symmetry_cell_setting 'orthorhombic'
loop_
_space_group_symop_operation_xyz
x,y,z
1/2-x,-y,z
1/2+x,-y,-z
-x,y,-z
-x,-y,-z
1/2+x,y,-z
1/2-x,y,z
x,-y,z
loop_
_atom_site_type_symbol
_atom_site_label
_atom_site_fract_x
_atom_site_fract_y
_atom_site_fract_z
Si Si1 0.567168 0.161616 0.296248
Si Si2 0.572507 0.834246 0.881229
Si Si3 0.922843 0.169852 0.204530
Si Si4 0.567138 0.660713 0.375795
Si Si5 0.571549 0.335552 0.043820
Si Si6 0.069722 0.162945 0.544063
O O1 0.750000 0.161286 0.295436
O O2 0.520625 0.212546 0.250275
O O3 0.518466 0.257365 0.334406
O O4 0.521245 0.000000 0.302353
O O5 0.750000 0.815759 0.884352
O O6 0.515880 0.787509 0.835712
O O7 0.492013 0.751347 0.917828
O O8 0.539154 0.000000 0.884937
O O9 0.750000 0.214306 0.199460
O O10 0.923073 0.000000 0.205897
O O11 0.750000 0.662301 0.375531
O O12 0.519150 0.500000 0.375939
O O13 0.520254 0.742622 0.417306
O O14 0.750000 0.321101 0.041583
O O15 0.535413 0.500000 0.049396
O O16 0.500000 0.290213 0.000000
O O17 0.250000 0.171059 0.541181
O O18 0.000000 0.205386 0.500000
O O19 0.030639 0.000000 0.551579
#
# Coordination Sequence:
#
# PCOD9403330 Si02
#       6
#     8   8   8   8   8   8
#     4   8  13  23  41  62  83 112 151 190 228 271
#     4  10  20  33  51  76 104 133 165 201 242 288
#     4   8  14  26  45  68  93 121 153 191 234 277
#     4   9  16  25  39  62  90 116 144 183 229 272
#     4  10  21  37  56  76  99 130 167 205 246 292
#     4   9  17  29  45  64  86 113 146 183 222 267
#
# _framework density 17.462053000000001
#
# number of rings (size 3 to 8) (size 9 to 14) (size 15 to 20)
#    0.000    3.000    0.000    2.500    0.000    4.667 
#    0.000    0.833    0.000    4.000    0.000    4.667 
#    0.000    0.000    0.000    0.000    0.000    0.000 
#
# Total GULP energy -267497.760345 kJ/mol
# GULP energy per Si atom -5572.870007 kJ/mol
# Density = 1.742231 g / cm^3
# Si number density = 17.462053 Si / 1000 Ang^3
#
#
#
# Elastic Constant Matrix: (Units=GPa)
#
#
# Indices 1 2 3 4 5 6 
#
# 1 17.1753 27.4639 43.3505 0.0000 0.0000 0.0000
# 2 27.4639 68.2712 88.9804 0.0000 0.0000 0.0000
# 3 43.3505 88.9804 206.6878 0.0000 0.0000 0.0000
# 4 0.0000 0.0000 0.0000 -9.7317 0.0000 0.0000
# 5 0.0000 0.0000 0.0000 0.0000 26.0933 0.0000
# 6 0.0000 0.0000 0.0000 0.0000 0.0000 14.1717
#
#
#
# Elastic Compliance Matrix: (Units=1/GPa)
#
#
# Indices 1 2 3 4 5 6 
#
# 1 0.181889 -0.053425 -0.015149 0.000000 0.000000 0.000000
# 2 -0.053425 0.049065 -0.009917 0.000000 0.000000 0.000000
# 3 -0.015149 -0.009917 0.012285 0.000000 0.000000 0.000000
# 4 0.000000 0.000000 0.000000 -0.102757 0.000000 0.000000
# 5 0.000000 0.000000 0.000000 0.000000 0.038324 0.000000
# 6 0.000000 0.000000 0.000000 0.000000 0.000000 0.070563
#
#
# Mechanical properties :
#
#
# Convention : Reuss Voigt Hill
#
# Bulk Modulus (GPa) = 11.59346 67.96931 39.78138
# Shear Modulus (GPa) = 11.49147 14.92931 13.21039
#
# Velocity S-wave (km/s) = 2.56810 2.92714 2.75347
# Velocity P-wave (km/s) = 3.93028 7.10160 5.73933
#
# Compressibility (1/GPa) = 0.08625555
#
# Stress axis : x y z
#
# Youngs Moduli (GPa) = 5.49785 20.38118 81.39906
#
# Poissons Ratio (x) = 1.08887 1.23315
# Poissons Ratio (y) = 0.29372 0.80727
# Poissons Ratio (z) = 0.08329 0.20213
#
# Static dielectric constant tensor:
#      x y z
#    x 1.587300 0.000000 0.000000 
#    y 0.000000 1.582070 0.000000 
#    z 0.000000 0.000000 1.591420 
# 
# From -- ./inp_files/36879.got.cif
#   From: 2010.05.17/outbox.cif.g08.bks.cpg/sg51_19_cif.got.tgz:36879.got - 2010.06.03 11:52:47.
