data_PCOD9403273
_publ_section_title
;
Structure prediction by ZEFSAII (Michael W. Deem and Ramdas Pophale) SiO2 
 PCOD9403273
Probable space group: P M M A
;
_chemical_formula_sum "Si O2"
_cell_formula_units_Z 56
_cell_length_a 19.114478
_cell_length_b 8.395252
_cell_length_c 18.954161
_cell_angle_alpha 90.000000
_cell_angle_beta 90.000000
_cell_angle_gamma 90.000000
_cell_volume 3041.590510
_symmetry_space_group_name_H-M "P M M A"
_symmetry_group_IT_number 51
_symmetry_cell_setting 'orthorhombic'
loop_
_space_group_symop_operation_xyz
x,y,z
1/2-x,-y,z
1/2+x,-y,-z
-x,y,-z
-x,-y,-z
1/2+x,y,-z
1/2-x,y,z
x,-y,z
loop_
_atom_site_type_symbol
_atom_site_label
_atom_site_fract_x
_atom_site_fract_y
_atom_site_fract_z
Si Si1 0.830286 0.191599 0.661024
Si Si2 0.333877 0.686362 0.943383
Si Si3 0.829546 0.305547 0.213094
Si Si4 0.454037 0.313422 0.693966
Si Si5 0.586428 0.316868 0.793707
Si Si6 0.937863 0.185156 0.949877
Si Si7 0.039701 0.186957 0.431420
O O1 0.750000 0.248740 0.652527
O O2 0.860979 0.231551 0.738779
O O3 0.887085 0.251950 0.602332
O O4 0.829408 0.000000 0.655099
O O5 0.250000 0.693516 0.945397
O O6 0.353749 0.500000 0.952451
O O7 0.355300 0.741140 0.864869
O O8 0.369135 0.789086 0.003291
O O9 0.750000 0.252325 0.222743
O O10 0.829356 0.500000 0.212116
O O11 0.881142 0.255737 0.274486
O O12 0.448676 0.500000 0.672301
O O13 0.510811 0.307351 0.756447
O O14 0.484456 0.210002 0.631298
O O15 0.608823 0.500000 0.796272
O O16 0.576397 0.257269 0.873145
O O17 0.953833 0.000000 0.938864
O O18 0.000000 0.253948 0.000000
O O19 0.000000 0.256551 0.500000
O O20 0.052364 0.000000 0.445780
#
# Coordination Sequence:
#
# PCOD9403273 Si02
#       7
#     8   8   8   8   8   8   8
#     4   9  18  34  55  76 100 133 170 207 250 300
#     4   9  18  33  52  71  92 124 165 205 247 295
#     4   8  14  27  48  71  94 121 154 192 234 282
#     4   9  17  30  50  74  96 121 156 195 235 281
#     4  10  20  33  51  73  96 126 165 210 255 297
#     4  11  23  35  48  70 100 133 169 210 256 304
#     4   9  18  33  52  74 101 132 163 195 235 286
#
# _framework density 18.411418999999999
#
# number of rings (size 3 to 8) (size 9 to 14) (size 15 to 20)
#    0.000    2.714    0.000    2.571    0.000    4.286 
#    0.000    1.429    0.000    2.143    0.000    0.000 
#    0.000    0.000    0.000    0.000    0.000    0.000 
#
# Total GULP energy -311893.321314 kJ/mol
# GULP energy per Si atom -5569.523595 kJ/mol
# Density = 1.836951 g / cm^3
# Si number density = 18.411419 Si / 1000 Ang^3
#
#
#
# Elastic Constant Matrix: (Units=GPa)
#
#
# Indices 1 2 3 4 5 6 
#
# 1 74.0217 12.6534 66.2739 0.0000 0.0000 0.0000
# 2 12.6534 7.0991 8.6379 0.0000 0.0000 0.0000
# 3 66.2739 8.6379 109.6295 0.0000 0.0000 0.0000
# 4 0.0000 0.0000 0.0000 12.9970 0.0000 0.0000
# 5 0.0000 0.0000 0.0000 0.0000 19.3224 0.0000
# 6 0.0000 0.0000 0.0000 0.0000 0.0000 17.3755
#
#
#
# Elastic Compliance Matrix: (Units=1/GPa)
#
#
# Indices 1 2 3 4 5 6 
#
# 1 0.039443 -0.045669 -0.020246 0.000000 0.000000 0.000000
# 2 -0.045669 0.208677 0.011166 0.000000 0.000000 0.000000
# 3 -0.020246 0.011166 0.020481 0.000000 0.000000 0.000000
# 4 0.000000 0.000000 0.000000 0.076941 0.000000 0.000000
# 5 0.000000 0.000000 0.000000 0.000000 0.051753 0.000000
# 6 0.000000 0.000000 0.000000 0.000000 0.000000 0.057552
#
#
# Mechanical properties :
#
#
# Convention : Reuss Voigt Hill
#
# Bulk Modulus (GPa) = 6.28522 40.65342 23.46932
# Shear Modulus (GPa) = 8.09872 16.81800 12.45836
#
# Velocity S-wave (km/s) = 2.09960 3.02562 2.60410
# Velocity P-wave (km/s) = 3.04941 5.85955 4.67083
#
# Compressibility (1/GPa) = 0.15910342
#
# Stress axis : x y z
#
# Youngs Moduli (GPa) = 25.35276 4.79209 48.82525
#
# Poissons Ratio (x) = 0.21885 0.98853
# Poissons Ratio (y) = 1.15784 -0.54519
# Poissons Ratio (z) = 0.51330 -0.05351
#
# Static dielectric constant tensor:
#      x y z
#    x 1.661310 0.000000 0.000000 
#    y 0.000000 1.656400 0.000000 
#    z 0.000000 0.000000 1.631890 
# 
# From -- ./inp_files/25735.got.cif
#   From: 2010.05.17/outbox.cif.g08.bks.cpg/sg51_13_cif.got.tgz:25735.got - 2010.06.03 11:52:47.
