data_PCOD9403135
_publ_section_title
;
Structure prediction by ZEFSAII (Michael W. Deem and Ramdas Pophale) SiO2 
 PCOD9403135
Probable space group: P M M A
;
_chemical_formula_sum "Si O2"
_cell_formula_units_Z 56
_cell_length_a 21.411206
_cell_length_b 9.227075
_cell_length_c 13.851374
_cell_angle_alpha 90.000000
_cell_angle_beta 90.000000
_cell_angle_gamma 90.000000
_cell_volume 2736.516281
_symmetry_space_group_name_H-M "P M M A"
_symmetry_group_IT_number 51
_symmetry_cell_setting 'orthorhombic'
loop_
_space_group_symop_operation_xyz
x,y,z
1/2-x,-y,z
1/2+x,-y,-z
-x,y,-z
-x,-y,-z
1/2+x,y,-z
1/2-x,y,z
x,-y,z
loop_
_atom_site_type_symbol
_atom_site_label
_atom_site_fract_x
_atom_site_fract_y
_atom_site_fract_z
Si Si1 0.866699 0.670987 0.639841
Si Si2 0.819774 0.675225 0.851853
Si Si3 0.986484 0.165454 0.612448
Si Si4 0.320281 0.672492 0.754378
Si Si5 0.041458 0.667191 0.097122
Si Si6 0.062640 0.833926 0.791918
Si Si7 0.823337 0.163598 0.449265
O O1 0.858045 0.500000 0.625921
O O2 0.831183 0.712711 0.738534
O O3 0.938611 0.715570 0.650724
O O4 0.848874 0.756004 0.543084
O O5 0.750000 0.728057 0.881882
O O6 0.817221 0.500000 0.857943
O O7 0.885242 0.713958 0.906133
O O8 0.000000 0.187920 0.500000
O O9 0.047798 0.174333 0.677657
O O10 0.961796 0.000000 0.624714
O O11 0.250000 0.706914 0.789872
O O12 0.326262 0.500000 0.748771
O O13 0.376948 0.738578 0.815291
O O14 0.326570 0.742758 0.648279
O O15 0.041746 0.500000 0.134584
O O16 0.000464 0.774735 0.161221
O O17 0.000000 0.664165 0.000000
O O18 0.073740 0.000000 0.818355
O O19 0.750000 0.149256 0.467711
O O20 0.849193 0.000000 0.438114
#
# Coordination Sequence:
#
# PCOD9403135 Si02
#       7
#     8   8   8   8   8   8   8
#     4  11  20  31  51  78 110 151 198 250 301 353
#     4   9  18  34  57  86 118 150 190 246 309 368
#     4  10  21  35  51  76 114 157 199 241 291 353
#     4  10  21  37  58  84 115 154 204 256 298 348
#     4  10  21  40  65  90 118 157 204 255 308 366
#     4  11  22  37  60  87 120 158 194 245 306 365
#     4  10  20  33  49  73 112 159 201 243 296 355
#
# _framework density 20.463975000000001
#
# number of rings (size 3 to 8) (size 9 to 14) (size 15 to 20)
#    0.000    1.857    1.429    3.000    0.000    4.571 
#    0.000    0.714    0.000    3.857    0.000    0.000 
#    0.000    0.000    0.000    0.000    0.000    0.000 
#
# Total GULP energy -312241.940582 kJ/mol
# GULP energy per Si atom -5575.748939 kJ/mol
# Density = 2.041740 g / cm^3
# Si number density = 20.463975 Si / 1000 Ang^3
#
#
#
# Elastic Constant Matrix: (Units=GPa)
#
#
# Indices 1 2 3 4 5 6 
#
# 1 169.4371 47.4058 25.6542 0.0000 0.0000 0.0000
# 2 47.4058 67.8491 11.4040 0.0000 0.0000 0.0000
# 3 25.6542 11.4040 20.0277 0.0000 0.0000 0.0000
# 4 0.0000 0.0000 0.0000 14.0316 0.0000 0.0000
# 5 0.0000 0.0000 0.0000 0.0000 17.5150 0.0000
# 6 0.0000 0.0000 0.0000 0.0000 0.0000 30.2767
#
#
#
# Elastic Compliance Matrix: (Units=1/GPa)
#
#
# Indices 1 2 3 4 5 6 
#
# 1 0.008400 -0.004490 -0.008203 0.000000 0.000000 0.000000
# 2 -0.004490 0.018699 -0.004895 0.000000 0.000000 0.000000
# 3 -0.008203 -0.004895 0.063226 0.000000 0.000000 0.000000
# 4 0.000000 0.000000 0.000000 0.071268 0.000000 0.000000
# 5 0.000000 0.000000 0.000000 0.000000 0.057094 0.000000
# 6 0.000000 0.000000 0.000000 0.000000 0.000000 0.033029
#
#
# Mechanical properties :
#
#
# Convention : Reuss Voigt Hill
#
# Bulk Modulus (GPa) = 18.13328 47.36021 32.74674
# Shear Modulus (GPa) = 16.37859 23.88799 20.13329
#
# Velocity S-wave (km/s) = 2.83214 3.42031 3.14003
# Velocity P-wave (km/s) = 4.42436 6.22828 5.40215
#
# Compressibility (1/GPa) = 0.05514721
#
# Stress axis : x y z
#
# Youngs Moduli (GPa) = 119.04318 53.47924 15.81617
#
# Poissons Ratio (x) = 0.24015 0.12975
# Poissons Ratio (y) = 0.53456 0.07743
# Poissons Ratio (z) = 0.97656 0.26180
#
# Static dielectric constant tensor:
#      x y z
#    x 1.782080 0.000000 0.000000 
#    y 0.000000 1.707820 0.000000 
#    z 0.000000 0.000000 1.783350 
# 
# From -- ./inp_files/25627.got.cif
#   From: 2010.05.17/outbox.cif.g08.bks.cpg/sg51_13_cif.got.tgz:25627.got - 2010.06.03 11:52:47.
