data_PCOD9403144
_publ_section_title
;
Structure prediction by ZEFSAII (Michael W. Deem and Ramdas Pophale) SiO2 
 PCOD9403144
Probable space group: P M M A
;
_chemical_formula_sum "Si O2"
_cell_formula_units_Z 48
_cell_length_a 8.543132
_cell_length_b 16.415341
_cell_length_c 19.226435
_cell_angle_alpha 90.000000
_cell_angle_beta 90.000000
_cell_angle_gamma 90.000000
_cell_volume 2696.284963
_symmetry_space_group_name_H-M "P M M A"
_symmetry_group_IT_number 51
_symmetry_cell_setting 'orthorhombic'
loop_
_space_group_symop_operation_xyz
x,y,z
1/2-x,-y,z
1/2+x,-y,-z
-x,y,-z
-x,-y,-z
1/2+x,y,-z
1/2-x,y,z
x,-y,z
loop_
_atom_site_type_symbol
_atom_site_label
_atom_site_fract_x
_atom_site_fract_y
_atom_site_fract_z
Si Si1 0.562389 0.828213 0.577536
Si Si2 0.438416 0.911170 0.708511
Si Si3 0.060892 0.180931 0.921879
Si Si4 0.938854 0.000000 0.078958
Si Si5 0.560640 0.254704 0.216209
Si Si6 0.436936 0.340067 0.345984
Si Si7 0.564186 0.500000 0.421409
O O1 0.500000 0.836782 0.500000
O O2 0.750000 0.833350 0.578655
O O3 0.491343 0.894592 0.629776
O O4 0.515945 0.739623 0.608825
O O5 0.250000 0.911431 0.712499
O O6 0.491282 0.832014 0.750797
O O7 0.493606 0.000000 0.732989
O O8 0.250000 0.180570 0.924514
O O9 0.013263 0.247525 0.864487
O O10 0.012103 0.089785 0.895568
O O11 0.000000 0.193298 0.000000
O O12 0.750000 0.000000 0.082444
O O13 0.000000 0.000000 0.000000
O O14 0.750000 0.259177 0.219456
O O15 0.492603 0.322813 0.267176
O O16 0.250000 0.345535 0.347328
O O17 0.507275 0.420090 0.380549
O O18 0.750000 0.500000 0.424845
O O19 0.500000 0.500000 0.500000
#
# Coordination Sequence:
#
# PCOD9403144 Si02
#       7
#     8   8   8   4   8   8   4
#     4  10  20  33  50  69  93 125 160 202 248 293
#     4   9  18  31  47  66  89 123 168 212 254 299
#     4   9  17  28  45  69  99 134 175 220 265 312
#     4   8  14  24  38  60  92 128 167 214 263 308
#     4   9  18  32  50  72 100 135 173 215 260 307
#     4  10  21  37  55  78 106 135 167 204 250 305
#     4  12  24  38  60  88 115 140 167 202 246 302
#
# _framework density 17.802274000000001
#
# number of rings (size 3 to 8) (size 9 to 14) (size 15 to 20)
#    0.000    2.500    0.000    2.250    1.167    4.667 
#    0.000    0.000    0.000    0.000    0.000    0.583 
#    0.000    0.000    0.000    0.000    0.000    0.000 
#
# Total GULP energy -267586.539097 kJ/mol
# GULP energy per Si atom -5574.719565 kJ/mol
# Density = 1.776175 g / cm^3
# Si number density = 17.802274 Si / 1000 Ang^3
#
#
#
# Elastic Constant Matrix: (Units=GPa)
#
#
# Indices 1 2 3 4 5 6 
#
# 1 22.8157 22.9946 19.5649 0.0000 0.0000 0.0000
# 2 22.9946 82.7143 40.2030 0.0000 0.0000 0.0000
# 3 19.5649 40.2030 121.1936 0.0000 0.0000 0.0000
# 4 0.0000 0.0000 0.0000 22.3752 0.0000 0.0000
# 5 0.0000 0.0000 0.0000 0.0000 21.2564 0.0000
# 6 0.0000 0.0000 0.0000 0.0000 0.0000 19.1156
#
#
#
# Elastic Compliance Matrix: (Units=1/GPa)
#
#
# Indices 1 2 3 4 5 6 
#
# 1 0.063569 -0.015123 -0.005246 0.000000 0.000000 0.000000
# 2 -0.015123 0.018011 -0.003534 0.000000 0.000000 0.000000
# 3 -0.005246 -0.003534 0.010270 0.000000 0.000000 0.000000
# 4 0.000000 0.000000 0.000000 0.044692 0.000000 0.000000
# 5 0.000000 0.000000 0.000000 0.000000 0.047045 0.000000
# 6 0.000000 0.000000 0.000000 0.000000 0.000000 0.052313
#
#
# Mechanical properties :
#
#
# Convention : Reuss Voigt Hill
#
# Bulk Modulus (GPa) = 22.70302 43.58319 33.14310
# Shear Modulus (GPa) = 16.75678 22.14684 19.45181
#
# Velocity S-wave (km/s) = 3.07134 3.53093 3.30913
# Velocity P-wave (km/s) = 5.03568 6.41547 5.76699
#
# Compressibility (1/GPa) = 0.04404700
#
# Stress axis : x y z
#
# Youngs Moduli (GPa) = 15.73096 55.52064 97.36856
#
# Poissons Ratio (x) = 0.83961 0.51077
# Poissons Ratio (y) = 0.23789 0.34405
# Poissons Ratio (z) = 0.08252 0.19618
#
# Static dielectric constant tensor:
#      x y z
#    x 1.594930 0.000000 0.000000 
#    y 0.000000 1.616570 0.000000 
#    z 0.000000 0.000000 1.630620 
# 
# From -- ./inp_files/27638.got.cif
#   From: 2010.05.17/outbox.cif.g08.bks.cpg/sg51_14_cif.got.tgz:27638.got - 2010.06.03 11:52:47.
