data_PCOD9403094
_publ_section_title
;
Structure prediction by ZEFSAII (Michael W. Deem and Ramdas Pophale) SiO2 
 PCOD9403094
Probable space group: P M M A
;
_chemical_formula_sum "Si O2"
_cell_formula_units_Z 48
_cell_length_a 9.296564
_cell_length_b 19.170108
_cell_length_c 15.204814
_cell_angle_alpha 90.000000
_cell_angle_beta 90.000000
_cell_angle_gamma 90.000000
_cell_volume 2709.743198
_symmetry_space_group_name_H-M "P M M A"
_symmetry_group_IT_number 51
_symmetry_cell_setting 'orthorhombic'
loop_
_space_group_symop_operation_xyz
x,y,z
1/2-x,-y,z
1/2+x,-y,-z
-x,y,-z
-x,-y,-z
1/2+x,y,-z
1/2-x,y,z
x,-y,z
loop_
_atom_site_type_symbol
_atom_site_label
_atom_site_fract_x
_atom_site_fract_y
_atom_site_fract_z
Si Si1 0.079558 0.582772 0.907596
Si Si2 0.914064 0.204001 0.077449
Si Si3 0.076153 0.230781 0.590057
Si Si4 0.078997 0.922235 0.660585
Si Si5 0.416548 0.689491 0.763667
Si Si6 0.417276 0.079041 0.153584
O O1 0.250000 0.600557 0.917957
O O2 0.068361 0.500000 0.890959
O O3 0.022770 0.626202 0.823108
O O4 0.000000 0.596684 0.000000
O O5 0.750000 0.193698 0.051257
O O6 0.917672 0.246802 0.167458
O O7 0.993837 0.132194 0.095801
O O8 0.000000 0.241712 0.000000
O O9 0.250000 0.236205 0.583929
O O10 0.044258 0.148503 0.608271
O O11 0.025773 0.279100 0.672177
O O12 0.000000 0.251538 0.500000
O O13 0.250000 0.918401 0.681760
O O14 0.987382 0.919834 0.749646
O O15 0.054556 0.000000 0.620142
O O16 0.250000 0.670557 0.745183
O O17 0.250000 0.098933 0.158261
O O18 0.427061 0.000000 0.120445
#
# Coordination Sequence:
#
# PCOD9403094 Si02
#       6
#     8   8   8   8   8   8
#     4   9  17  31  54  83 112 141 171 204 245 297
#     4  11  21  34  51  72  98 132 169 209 253 304
#     4  10  20  35  52  74 101 133 172 216 260 309
#     4   9  17  32  53  72  94 129 168 210 267 320
#     4   9  18  34  53  74 105 138 168 205 254 306
#     4  10  20  33  49  70  96 127 167 213 256 302
#
# _framework density 17.713854999999999
#
# number of rings (size 3 to 8) (size 9 to 14) (size 15 to 20)
#    0.000    2.333    1.667    1.500    0.000    2.333 
#    0.000    1.667    0.000    0.500    0.000    0.000 
#    0.000    0.000    0.000    0.000    0.000    0.000 
#
# Total GULP energy -267414.239735 kJ/mol
# GULP energy per Si atom -5571.129994 kJ/mol
# Density = 1.767354 g / cm^3
# Si number density = 17.713855 Si / 1000 Ang^3
#
#
#
# Elastic Constant Matrix: (Units=GPa)
#
#
# Indices 1 2 3 4 5 6 
#
# 1 46.0546 31.9630 32.7893 0.0000 0.0000 0.0000
# 2 31.9630 84.3691 53.6304 0.0000 0.0000 0.0000
# 3 32.7893 53.6304 123.0437 0.0000 0.0000 0.0000
# 4 0.0000 0.0000 0.0000 -3.6286 0.0000 0.0000
# 5 0.0000 0.0000 0.0000 0.0000 26.7049 0.0000
# 6 0.0000 0.0000 0.0000 0.0000 0.0000 8.9111
#
#
#
# Elastic Compliance Matrix: (Units=1/GPa)
#
#
# Indices 1 2 3 4 5 6 
#
# 1 0.031059 -0.008999 -0.004355 0.000000 0.000000 0.000000
# 2 -0.008999 0.019002 -0.005884 0.000000 0.000000 0.000000
# 3 -0.004355 -0.005884 0.011852 0.000000 0.000000 0.000000
# 4 0.000000 0.000000 0.000000 -0.275588 0.000000 0.000000
# 5 0.000000 0.000000 0.000000 0.000000 0.037446 0.000000
# 6 0.000000 0.000000 0.000000 0.000000 0.000000 0.112220
#
#
# Mechanical properties :
#
#
# Convention : Reuss Voigt Hill
#
# Bulk Modulus (GPa) = 42.66487 54.47032 48.56759
# Shear Modulus (GPa) = -282.16175 15.40313 -133.37931
#
# Velocity S-wave (km/s) = -12.63466 2.95202 -8.68678
# Velocity P-wave (km/s) = 13.73711 6.51430 8.55196
#
# Compressibility (1/GPa) = 0.02343849
#
# Stress axis : x y z
#
# Youngs Moduli (GPa) = 32.19690 52.62532 84.37080
#
# Poissons Ratio (x) = 0.47355 0.36740
# Poissons Ratio (y) = 0.28972 0.49647
# Poissons Ratio (z) = 0.14020 0.30967
#
# Static dielectric constant tensor:
#      x y z
#    x 1.611940 0.000000 0.000000 
#    y 0.000000 1.642020 0.000000 
#    z 0.000000 0.000000 1.621540 
# 
# From -- ./inp_files/21086.got.cif
#   From: 2010.05.17/outbox.cif.g08.bks.cpg/sg51_11_cif.got.tgz:21086.got - 2010.06.03 11:52:47.
