data_PCOD9403901
_publ_section_title
;
Structure prediction by ZEFSAII (Michael W. Deem and Ramdas Pophale) SiO2 
 PCOD9403901
Probable space group: P M M A
;
_chemical_formula_sum "Si O2"
_cell_formula_units_Z 64
_cell_length_a 15.620577
_cell_length_b 9.403451
_cell_length_c 22.367571
_cell_angle_alpha 90.000000
_cell_angle_beta 90.000000
_cell_angle_gamma 90.000000
_cell_volume 3285.512792
_symmetry_space_group_name_H-M "P M M A"
_symmetry_group_IT_number 51
_symmetry_cell_setting 'orthorhombic'
loop_
_space_group_symop_operation_xyz
x,y,z
1/2-x,-y,z
1/2+x,-y,-z
-x,y,-z
-x,-y,-z
1/2+x,y,-z
1/2-x,y,z
x,-y,z
loop_
_atom_site_type_symbol
_atom_site_label
_atom_site_fract_x
_atom_site_fract_y
_atom_site_fract_z
Si Si1 0.008023 0.835180 0.071342
Si Si2 0.413597 0.171591 0.711392
Si Si3 0.348517 0.827441 0.843580
Si Si4 0.152061 0.841201 0.249965
Si Si5 0.147705 0.668001 0.136538
Si Si6 0.149818 0.156804 0.583574
Si Si7 0.075944 0.329519 0.344413
Si Si8 0.351577 0.669454 0.470518
O O1 0.921905 0.789097 0.107724
O O2 0.088089 0.735522 0.086472
O O3 0.025474 0.000000 0.089902
O O4 0.000000 0.834339 0.000000
O O5 0.377432 0.215366 0.776123
O O6 0.356117 0.200154 0.652770
O O7 0.497941 0.255297 0.690593
O O8 0.424772 0.000000 0.714177
O O9 0.250000 0.779322 0.855372
O O10 0.345815 0.000000 0.843798
O O11 0.250000 0.859913 0.232670
O O12 0.114893 0.750771 0.195582
O O13 0.151819 0.744425 0.308380
O O14 0.115124 0.000000 0.257735
O O15 0.250000 0.689547 0.126843
O O16 0.134883 0.500000 0.143553
O O17 0.250000 0.145432 0.570698
O O18 0.117274 0.260748 0.532201
O O19 0.109655 0.000000 0.577846
O O20 0.073653 0.500000 0.339271
O O21 0.090368 0.290952 0.413605
O O22 0.250000 0.703552 0.459024
O O23 0.355571 0.500000 0.476877
#
# Coordination Sequence:
#
# PCOD9403901 Si02
#       8
#     8   8   8   8   8   8   8   8
#     4  10  21  36  58  90 123 155 194 241 290 341
#     4  10  20  34  54  78 103 135 180 232 283 337
#     4   9  18  35  59  84 112 149 192 237 288 346
#     4  10  20  34  54  79 106 138 178 225 276 329
#     4  10  21  37  58  84 116 156 197 236 284 344
#     4   9  18  33  53  75  97 126 172 231 288 338
#     4  11  22  34  50  74 107 144 181 223 274 338
#     4   9  19  35  52  70  97 137 180 220 270 339
#
# _framework density 19.479455000000002
#
# number of rings (size 3 to 8) (size 9 to 14) (size 15 to 20)
#    0.000    2.250    0.000    2.625    0.000    7.250 
#    0.000    5.000    0.000    2.250    0.000    0.000 
#    0.000    0.000    0.000    0.000    0.000    0.000 
#
# Total GULP energy -356327.677303 kJ/mol
# GULP energy per Si atom -5567.619958 kJ/mol
# Density = 1.943512 g / cm^3
# Si number density = 19.479455 Si / 1000 Ang^3
#
#
#
# Elastic Constant Matrix: (Units=GPa)
#
#
# Indices 1 2 3 4 5 6 
#
# 1 77.9452 33.9253 40.6033 0.0000 0.0000 0.0000
# 2 33.9253 46.4700 40.9494 0.0000 0.0000 0.0000
# 3 40.6033 40.9494 123.1612 0.0000 0.0000 0.0000
# 4 0.0000 0.0000 0.0000 -2.1278 0.0000 0.0000
# 5 0.0000 0.0000 0.0000 0.0000 25.9632 0.0000
# 6 0.0000 0.0000 0.0000 0.0000 0.0000 18.7507
#
#
#
# Elastic Compliance Matrix: (Units=1/GPa)
#
#
# Indices 1 2 3 4 5 6 
#
# 1 0.019282 -0.011987 -0.002371 0.000000 0.000000 0.000000
# 2 -0.011987 0.037889 -0.008646 0.000000 0.000000 0.000000
# 3 -0.002371 -0.008646 0.011776 0.000000 0.000000 0.000000
# 4 0.000000 0.000000 0.000000 -0.469980 0.000000 0.000000
# 5 0.000000 0.000000 0.000000 0.000000 0.038516 0.000000
# 6 0.000000 0.000000 0.000000 0.000000 0.000000 0.053331
#
#
# Mechanical properties :
#
#
# Convention : Reuss Voigt Hill
#
# Bulk Modulus (GPa) = 43.59473 53.17025 48.38249
# Shear Modulus (GPa) = -19.56713 17.32378 -1.12167
#
# Velocity S-wave (km/s) = -3.17282 2.98541 -0.75965
# Velocity P-wave (km/s) = 3.00100 6.26405 4.91143
#
# Compressibility (1/GPa) = 0.02293855
#
# Stress axis : x y z
#
# Youngs Moduli (GPa) = 51.86124 26.39275 84.92026
#
# Poissons Ratio (x) = 0.31638 0.20137
# Poissons Ratio (y) = 0.62168 0.73419
# Poissons Ratio (z) = 0.12298 0.22818
#
# Static dielectric constant tensor:
#      x y z
#    x 1.827270 0.000000 0.000000 
#    y 0.000000 1.682020 0.000000 
#    z 0.000000 0.000000 1.706350 
# 
# From -- ./inp_files/35811.got.cif
#   From: 2010.05.17/outbox.cif.g08.bks.cpg/sg51_18_cif.got.tgz:35811.got - 2010.06.03 11:52:47.
