data_PCOD9403582
_publ_section_title
;
Structure prediction by ZEFSAII (Michael W. Deem and Ramdas Pophale) SiO2 
 PCOD9403582
Probable space group: P M M A
;
_chemical_formula_sum "Si O2"
_cell_formula_units_Z 64
_cell_length_a 19.897327
_cell_length_b 7.615132
_cell_length_c 19.659728
_cell_angle_alpha 90.000000
_cell_angle_beta 90.000000
_cell_angle_gamma 90.000000
_cell_volume 2978.857155
_symmetry_space_group_name_H-M "P M M A"
_symmetry_group_IT_number 51
_symmetry_cell_setting 'orthorhombic'
loop_
_space_group_symop_operation_xyz
x,y,z
1/2-x,-y,z
1/2+x,-y,-z
-x,y,-z
-x,-y,-z
1/2+x,y,-z
1/2-x,y,z
x,-y,z
loop_
_atom_site_type_symbol
_atom_site_label
_atom_site_fract_x
_atom_site_fract_y
_atom_site_fract_z
Si Si1 0.457957 0.205265 0.437648
Si Si2 0.577909 0.797143 0.207759
Si Si3 0.454378 0.789404 0.287062
Si Si4 0.672985 0.712491 0.486751
Si Si5 0.828342 0.287798 0.332217
Si Si6 0.826416 0.711844 0.795343
Si Si7 0.831525 0.702552 0.942831
Si Si8 0.173899 0.205631 0.906689
O O1 0.500000 0.285552 0.500000
O O2 0.468037 0.281659 0.362681
O O3 0.380466 0.218557 0.459802
O O4 0.476962 0.000000 0.433505
O O5 0.507428 0.717702 0.232113
O O6 0.624836 0.790977 0.274615
O O7 0.620788 0.716118 0.146237
O O8 0.564407 0.000000 0.188793
O O9 0.379023 0.757026 0.262520
O O10 0.463744 0.000000 0.289994
O O11 0.750000 0.767055 0.498996
O O12 0.671611 0.500000 0.488408
O O13 0.654021 0.766016 0.409443
O O14 0.750000 0.242097 0.320794
O O15 0.833404 0.500000 0.328731
O O16 0.750000 0.773391 0.783130
O O17 0.823496 0.500000 0.800826
O O18 0.851843 0.777869 0.869507
O O19 0.750000 0.707822 0.939956
O O20 0.852746 0.500000 0.946289
O O21 0.849582 0.784022 0.015125
O O22 0.250000 0.281002 0.901703
O O23 0.180010 0.000000 0.889367
#
# Coordination Sequence:
#
# PCOD9403582 Si02
#       8
#     8   8   8   8   8   8   8   8
#     4  10  21  37  55  75 101 134 172 212 253 302
#     4  10  20  34  50  71 104 142 176 210 249 297
#     4  10  22  37  53  76 104 134 170 211 256 305
#     4   9  19  35  53  75 102 129 162 208 259 309
#     4   9  18  32  50  74 103 134 170 211 253 299
#     4   9  19  37  59  80 102 131 169 212 258 309
#     4   8  15  30  52  76 101 130 166 207 250 298
#     4   9  17  29  48  76 105 133 169 209 246 289
#
# _framework density 21.484750999999999
#
# number of rings (size 3 to 8) (size 9 to 14) (size 15 to 20)
#    0.000    2.750    0.000    2.625    0.000    5.500 
#    0.000    6.875    0.000    3.750    0.000    0.000 
#    0.000    0.000    0.000    0.000    0.000    0.000 
#
# Total GULP energy -357044.747396 kJ/mol
# GULP energy per Si atom -5578.824178 kJ/mol
# Density = 2.143585 g / cm^3
# Si number density = 21.484751 Si / 1000 Ang^3
#
#
#
# Elastic Constant Matrix: (Units=GPa)
#
#
# Indices 1 2 3 4 5 6 
#
# 1 73.9604 -0.1954 57.4585 0.0000 0.0000 0.0000
# 2 -0.1954 43.7484 3.9417 0.0000 0.0000 0.0000
# 3 57.4585 3.9417 121.1188 0.0000 0.0000 0.0000
# 4 0.0000 0.0000 0.0000 20.8226 0.0000 0.0000
# 5 0.0000 0.0000 0.0000 0.0000 29.1994 0.0000
# 6 0.0000 0.0000 0.0000 0.0000 0.0000 22.4071
#
#
#
# Elastic Compliance Matrix: (Units=1/GPa)
#
#
# Indices 1 2 3 4 5 6 
#
# 1 0.021457 0.001016 -0.010212 0.000000 0.000000 0.000000
# 2 0.001016 0.022973 -0.001230 0.000000 0.000000 0.000000
# 3 -0.010212 -0.001230 0.013141 0.000000 0.000000 0.000000
# 4 0.000000 0.000000 0.000000 0.048025 0.000000 0.000000
# 5 0.000000 0.000000 0.000000 0.000000 0.034247 0.000000
# 6 0.000000 0.000000 0.000000 0.000000 0.000000 0.044629
#
#
# Mechanical properties :
#
#
# Convention : Reuss Voigt Hill
#
# Bulk Modulus (GPa) = 27.23341 40.13748 33.68544
# Shear Modulus (GPa) = 22.98175 26.32736 24.65456
#
# Velocity S-wave (km/s) = 3.27414 3.50437 3.39121
# Velocity P-wave (km/s) = 5.19582 5.92423 5.57194
#
# Compressibility (1/GPa) = 0.03671961
#
# Stress axis : x y z
#
# Youngs Moduli (GPa) = 46.60441 43.52882 76.09729
#
# Poissons Ratio (x) = -0.04422 0.77713
# Poissons Ratio (y) = -0.04735 0.09357
# Poissons Ratio (z) = 0.47594 0.05352
#
# Static dielectric constant tensor:
#      x y z
#    x 1.775180 0.000000 0.000000 
#    y 0.000000 1.838990 0.000000 
#    z 0.000000 0.000000 1.786790 
# 
# From -- ./inp_files/30617.got.cif
#   From: 2010.05.17/outbox.cif.g08.bks.cpg/sg51_16_cif.got.tgz:30617.got - 2010.06.03 11:52:47.
