data_PCOD9403803
_publ_section_title
;
Structure prediction by ZEFSAII (Michael W. Deem and Ramdas Pophale) SiO2 
 PCOD9403803
Probable space group: P M M A
;
_chemical_formula_sum "Si O2"
_cell_formula_units_Z 40
_cell_length_a 13.861489
_cell_length_b 8.677267
_cell_length_c 18.917929
_cell_angle_alpha 90.000000
_cell_angle_beta 90.000000
_cell_angle_gamma 90.000000
_cell_volume 2275.445494
_symmetry_space_group_name_H-M "P M M A"
_symmetry_group_IT_number 51
_symmetry_cell_setting 'orthorhombic'
loop_
_space_group_symop_operation_xyz
x,y,z
1/2-x,-y,z
1/2+x,-y,-z
-x,y,-z
-x,-y,-z
1/2+x,y,-z
1/2-x,y,z
x,-y,z
loop_
_atom_site_type_symbol
_atom_site_label
_atom_site_fract_x
_atom_site_fract_y
_atom_site_fract_z
Si Si1 0.136787 0.185603 0.754415
Si Si2 0.639413 0.184581 0.963199
Si Si3 0.860458 0.315345 0.538505
Si Si4 0.048624 0.815294 0.603061
Si Si5 0.047351 0.683047 0.896185
O O1 0.250000 0.225481 0.753832
O O2 0.088910 0.228161 0.679668
O O3 0.084780 0.263873 0.820358
O O4 0.129243 0.000000 0.761993
O O5 0.750000 0.225419 0.947760
O O6 0.561560 0.261725 0.911730
O O7 0.629077 0.000000 0.959648
O O8 0.611189 0.239085 0.042039
O O9 0.750000 0.273077 0.554106
O O10 0.869904 0.500000 0.541709
O O11 0.889035 0.259738 0.459834
O O12 0.939306 0.239432 0.589759
O O13 0.054086 0.000000 0.595763
O O14 0.053416 0.500000 0.903752
#
# Coordination Sequence:
#
# PCOD9403803 Si02
#       5
#     8   8   8   8   8
#     4  10  21  37  55  76 105 139 174 214 260 309
#     4  10  20  36  58  79 103 139 178 215 256 304
#     4  10  20  34  53  77 107 141 173 210 260 314
#     4  10  20  34  55  80 104 134 176 221 259 302
#     4  11  22  34  53  81 110 138 171 214 261 310
#
# _framework density 17.578976000000001
#
# number of rings (size 3 to 8) (size 9 to 14) (size 15 to 20)
#    0.000    1.800    0.000    7.200    0.000    8.400 
#    0.000    1.000    0.000    1.200    0.000    0.000 
#    0.000    0.000    0.000    0.000    0.000    0.000 
#
# Total GULP energy -223444.420062 kJ/mol
# GULP energy per Si atom -5586.110502 kJ/mol
# Density = 1.753897 g / cm^3
# Si number density = 17.578976 Si / 1000 Ang^3
#
#
#
# Elastic Constant Matrix: (Units=GPa)
#
#
# Indices 1 2 3 4 5 6 
#
# 1 117.3026 22.0790 54.4627 0.0000 0.0000 0.0000
# 2 22.0790 38.7281 23.6834 0.0000 0.0000 0.0000
# 3 54.4627 23.6834 106.8987 0.0000 0.0000 0.0000
# 4 0.0000 0.0000 0.0000********** 0.0000 0.0000
# 5 0.0000 0.0000 0.0000 0.0000 11.5855 0.0000
# 6 0.0000 0.0000 0.0000 0.0000 0.0000 13.2596
#
#
#
# Elastic Compliance Matrix: (Units=1/GPa)
#
#
# Indices 1 2 3 4 5 6 
#
# 1 0.011553 -0.003455 -0.005120 0.000000 0.000000 0.000000
# 2 -0.003455 0.030901 -0.005086 0.000000 0.000000 0.000000
# 3 -0.005120 -0.005086 0.013090 0.000000 0.000000 0.000000
# 4 0.000000 0.000000 0.000000 -0.000100 0.000000 0.000000
# 5 0.000000 0.000000 0.000000 0.000000 0.086315 0.000000
# 6 0.000000 0.000000 0.000000 0.000000 0.000000 0.075417
#
#
# Mechanical properties :
#
#
# Convention : Reuss Voigt Hill
#
# Bulk Modulus (GPa) = 35.43422 51.48663 43.46042
# Shear Modulus (GPa) = 19.69241 -1988.52848 -984.41803
#
# Velocity S-wave (km/s) = 3.35061 -33.66976 -23.68994
# Velocity P-wave (km/s) = 5.93040 38.49915 26.89809
#
# Compressibility (1/GPa) = 0.02822131
#
# Stress axis : x y z
#
# Youngs Moduli (GPa) = 86.56057 32.36151 76.39329
#
# Poissons Ratio (x) = 0.11181 0.39116
# Poissons Ratio (y) = 0.29906 0.38853
# Poissons Ratio (z) = 0.44322 0.16459
#
# Static dielectric constant tensor:
#      x y z
#    x 1.597250 0.000000 0.000000 
#    y 0.000000 1.589230 0.000000 
#    z 0.000000 0.000000 1.564340 
# 
# From -- ./inp_files/29264.got.cif
#   From: 2010.05.17/outbox.cif.g08.bks.cpg/sg51_15_cif.got.tgz:29264.got - 2010.06.03 11:52:47.
