data_PCOD9403475
_publ_section_title
;
Structure prediction by ZEFSAII (Michael W. Deem and Ramdas Pophale) SiO2 
 PCOD9403475
Probable space group: P M M A
;
_chemical_formula_sum "Si O2"
_cell_formula_units_Z 64
_cell_length_a 33.672409
_cell_length_b 8.989021
_cell_length_c 11.585640
_cell_angle_alpha 90.000000
_cell_angle_beta 90.000000
_cell_angle_gamma 90.000000
_cell_volume 3506.764589
_symmetry_space_group_name_H-M "P M M A"
_symmetry_group_IT_number 51
_symmetry_cell_setting 'orthorhombic'
loop_
_space_group_symop_operation_xyz
x,y,z
1/2-x,-y,z
1/2+x,-y,-z
-x,y,-z
-x,-y,-z
1/2+x,y,-z
1/2-x,y,z
x,-y,z
loop_
_atom_site_type_symbol
_atom_site_label
_atom_site_fract_x
_atom_site_fract_y
_atom_site_fract_z
Si Si1 0.629320 0.322895 0.109198
Si Si2 0.296289 0.820781 0.776022
Si Si3 0.856987 0.670967 0.658539
Si Si4 0.939202 0.328369 0.517904
Si Si5 0.935208 0.175926 0.272211
Si Si6 0.702659 0.825955 0.490288
Si Si7 0.396684 0.822830 0.129576
Si Si8 0.476101 0.823128 0.265311
O O1 0.630398 0.500000 0.107779
O O2 0.672463 0.257989 0.141579
O O3 0.598461 0.264816 0.205341
O O4 0.614372 0.259387 0.987480
O O5 0.250000 0.782807 0.797132
O O6 0.306001 0.781928 0.642394
O O7 0.299782 0.000000 0.785756
O O8 0.851065 0.500000 0.694125
O O9 0.895863 0.676879 0.577149
O O10 0.820844 0.730816 0.582905
O O11 0.867067 0.770961 0.769067
O O12 0.948411 0.500000 0.489569
O O13 0.937865 0.228486 0.404381
O O14 0.968331 0.265472 0.616372
O O15 0.979368 0.203548 0.221590
O O16 0.926772 0.000000 0.265729
O O17 0.750000 0.814258 0.505222
O O18 0.691626 0.000000 0.502766
O O19 0.441018 0.785112 0.176076
O O20 0.394708 0.000000 0.112975
O O21 0.472658 0.000000 0.290484
#
# Coordination Sequence:
#
# PCOD9403475 Si02
#       8
#     8   8   8   8   8   8   8   8
#     4  12  25  39  56  82 114 145 183 229 278 328
#     4   9  19  38  63  88 114 146 183 221 265 320
#     4  10  20  34  53  79 110 142 177 219 269 323
#     4  10  20  33  52  81 114 144 177 223 280 336
#     4  11  22  36  55  80 111 146 187 230 271 323
#     4   9  18  33  55  84 114 142 175 216 263 319
#     4  10  21  40  61  77 101 142 189 232 274 321
#     4   9  20  37  57  80 106 143 188 231 275 325
#
# _framework density 18.250440000000001
#
# number of rings (size 3 to 8) (size 9 to 14) (size 15 to 20)
#    0.000    2.000    0.000    4.500    0.000    8.000 
#    0.000    4.375    0.000    3.750    0.000    0.000 
#    0.000    0.000    0.000    0.000    0.000    0.000 
#
# Total GULP energy -357491.478630 kJ/mol
# GULP energy per Si atom -5585.804354 kJ/mol
# Density = 1.820890 g / cm^3
# Si number density = 18.250440 Si / 1000 Ang^3
#
#
#
# Elastic Constant Matrix: (Units=GPa)
#
#
# Indices 1 2 3 4 5 6 
#
# 1 70.2844 47.8066 53.6497 0.0000 0.0000 0.0000
# 2 47.8066 72.5581 38.0162 0.0000 0.0000 0.0000
# 3 53.6497 38.0162 70.1230 0.0000 0.0000 0.0000
# 4 0.0000 0.0000 0.0000 19.4476 0.0000 0.0000
# 5 0.0000 0.0000 0.0000 0.0000 19.8793 0.0000
# 6 0.0000 0.0000 0.0000 0.0000 0.0000 11.4497
#
#
#
# Elastic Compliance Matrix: (Units=1/GPa)
#
#
# Indices 1 2 3 4 5 6 
#
# 1 0.044462 -0.016023 -0.025330 0.000000 0.000000 0.000000
# 2 -0.016023 0.025024 -0.001308 0.000000 0.000000 0.000000
# 3 -0.025330 -0.001308 0.034349 0.000000 0.000000 0.000000
# 4 0.000000 0.000000 0.000000 0.051420 0.000000 0.000000
# 5 0.000000 0.000000 0.000000 0.000000 0.050304 0.000000
# 6 0.000000 0.000000 0.000000 0.000000 0.000000 0.087338
#
#
# Mechanical properties :
#
#
# Convention : Reuss Voigt Hill
#
# Bulk Modulus (GPa) = 54.01451 54.65671 54.33561
# Shear Modulus (GPa) = 13.00759 15.05484 14.03122
#
# Velocity S-wave (km/s) = 2.67259 2.87523 2.77576
# Velocity P-wave (km/s) = 6.25973 6.40592 6.33324
#
# Compressibility (1/GPa) = 0.01851354
#
# Stress axis : x y z
#
# Youngs Moduli (GPa) = 22.49121 39.96089 29.11284
#
# Poissons Ratio (x) = 0.64030 0.73743
# Poissons Ratio (y) = 0.36038 0.03807
# Poissons Ratio (z) = 0.56970 0.05225
#
# Static dielectric constant tensor:
#      x y z
#    x 1.633700 0.000000 0.000000 
#    y 0.000000 1.609590 0.000000 
#    z 0.000000 0.000000 1.595720 
# 
# From -- ./inp_files/19476.got.cif
#   From: 2010.05.17/outbox.cif.g08.bks.cpg/sg51_10_cif.got.tgz:19476.got - 2010.06.03 11:52:47.
