data_PCOD9403062
_publ_section_title
;
Structure prediction by ZEFSAII (Michael W. Deem and Ramdas Pophale) SiO2 
 PCOD9403062
Probable space group: P M M A
;
_chemical_formula_sum "Si O2"
_cell_formula_units_Z 56
_cell_length_a 14.294543
_cell_length_b 7.709673
_cell_length_c 24.375460
_cell_angle_alpha 90.000000
_cell_angle_beta 90.000000
_cell_angle_gamma 90.000000
_cell_volume 2686.328093
_symmetry_space_group_name_H-M "P M M A"
_symmetry_group_IT_number 51
_symmetry_cell_setting 'orthorhombic'
loop_
_space_group_symop_operation_xyz
x,y,z
1/2-x,-y,z
1/2+x,-y,-z
-x,y,-z
-x,-y,-z
1/2+x,y,-z
1/2-x,y,z
x,-y,z
loop_
_atom_site_type_symbol
_atom_site_label
_atom_site_fract_x
_atom_site_fract_y
_atom_site_fract_z
Si Si1 0.355434 0.211585 0.027047
Si Si2 0.540936 0.211860 0.084668
Si Si3 0.358565 0.202141 0.597941
Si Si4 0.142475 0.286688 0.357444
Si Si5 0.144872 0.795676 0.807954
Si Si6 0.636453 0.702591 0.522147
Si Si7 0.968788 0.302446 0.297068
O O1 0.250000 0.272258 0.037116
O O2 0.435777 0.268524 0.069489
O O3 0.353869 0.000000 0.028169
O O4 0.392462 0.259939 0.966441
O O5 0.583470 0.275576 0.141774
O O6 0.538294 0.000000 0.085557
O O7 0.250000 0.261588 0.597885
O O8 0.395217 0.220564 0.535641
O O9 0.414988 0.298462 0.644846
O O10 0.359830 0.000000 0.612553
O O11 0.250000 0.236128 0.348810
O O12 0.140398 0.500000 0.358959
O O13 0.109577 0.226770 0.418115
O O14 0.070292 0.226004 0.311550
O O15 0.250000 0.721875 0.805290
O O16 0.092570 0.780769 0.750174
O O17 0.154119 0.000000 0.819323
O O18 0.750000 0.716411 0.522661
O O19 0.611994 0.500000 0.520449
O O20 0.982479 0.500000 0.279570
#
# Coordination Sequence:
#
# PCOD9403062 Si02
#       7
#     8   8   8   8   8   8   8
#     4   8  12  20  38  66  97 125 156 197 238 275
#     4   8  14  24  40  64  94 128 162 192 231 285
#     4  10  20  33  48  69 100 131 154 185 236 292
#     4   8  16  33  54  72  90 116 153 196 241 288
#     4  10  20  34  50  68  96 132 163 194 237 287
#     4   8  14  28  51  73  91 115 150 191 234 285
#     4  11  22  34  51  72  92 120 162 206 239 274
#
# _framework density 20.846298000000001
#
# number of rings (size 3 to 8) (size 9 to 14) (size 15 to 20)
#    0.000    3.000    0.000    3.429    0.000    5.143 
#    0.000    5.000    0.000    4.286    0.000    2.000 
#    0.000    1.143    0.000    0.000    0.000    0.000 
#
# Total GULP energy -312375.780293 kJ/mol
# GULP energy per Si atom -5578.138934 kJ/mol
# Density = 2.079885 g / cm^3
# Si number density = 20.846298 Si / 1000 Ang^3
#
#
#
# Elastic Constant Matrix: (Units=GPa)
#
#
# Indices 1 2 3 4 5 6 
#
# 1 166.3437 2.9573 86.0299 0.0000 0.0000 0.0000
# 2 2.9573 29.0710 2.8867 0.0000 0.0000 0.0000
# 3 86.0299 2.8867 122.7795 0.0000 0.0000 0.0000
# 4 0.0000 0.0000 0.0000 21.8035 0.0000 0.0000
# 5 0.0000 0.0000 0.0000 0.0000 25.0854 0.0000
# 6 0.0000 0.0000 0.0000 0.0000 0.0000 4.8957
#
#
#
# Elastic Compliance Matrix: (Units=1/GPa)
#
#
# Indices 1 2 3 4 5 6 
#
# 1 0.009431 -0.000304 -0.006601 0.000000 0.000000 0.000000
# 2 -0.000304 0.034489 -0.000598 0.000000 0.000000 0.000000
# 3 -0.006601 -0.000598 0.012784 0.000000 0.000000 0.000000
# 4 0.000000 0.000000 0.000000 0.045864 0.000000 0.000000
# 5 0.000000 0.000000 0.000000 0.000000 0.039864 0.000000
# 6 0.000000 0.000000 0.000000 0.000000 0.000000 0.204261
#
#
# Mechanical properties :
#
#
# Convention : Reuss Voigt Hill
#
# Bulk Modulus (GPa) = 23.98190 55.77133 39.87661
# Shear Modulus (GPa) = 13.31211 25.44495 19.37853
#
# Velocity S-wave (km/s) = 2.52976 3.49750 3.05223
# Velocity P-wave (km/s) = 4.47907 6.56671 5.62066
#
# Compressibility (1/GPa) = 0.04169812
#
# Stress axis : x y z
#
# Youngs Moduli (GPa) = 106.03362 28.99486 78.22290
#
# Poissons Ratio (x) = 0.00881 0.51635
# Poissons Ratio (y) = 0.03222 0.04677
# Poissons Ratio (z) = 0.69993 0.01734
#
# Static dielectric constant tensor:
#      x y z
#    x 1.786600 0.000000 0.000000 
#    y 0.000000 1.790950 0.000000 
#    z 0.000000 0.000000 1.719440 
# 
# From -- ./inp_files/33479.got.cif
#   From: 2010.05.17/outbox.cif.g08.bks.cpg/sg51_17_cif.got.tgz:33479.got - 2010.06.03 11:52:47.
