data_PCOD9403505
_publ_section_title
;
Structure prediction by ZEFSAII (Michael W. Deem and Ramdas Pophale) SiO2 
 PCOD9403505
Probable space group: P M M A
;
_chemical_formula_sum "Si O2"
_cell_formula_units_Z 64
_cell_length_a 31.694210
_cell_length_b 8.602510
_cell_length_c 12.502297
_cell_angle_alpha 90.000000
_cell_angle_beta 90.000000
_cell_angle_gamma 90.000000
_cell_volume 3408.748257
_symmetry_space_group_name_H-M "P M M A"
_symmetry_group_IT_number 51
_symmetry_cell_setting 'orthorhombic'
loop_
_space_group_symop_operation_xyz
x,y,z
1/2-x,-y,z
1/2+x,-y,-z
-x,y,-z
-x,-y,-z
1/2+x,y,-z
1/2-x,y,z
x,-y,z
loop_
_atom_site_type_symbol
_atom_site_label
_atom_site_fract_x
_atom_site_fract_y
_atom_site_fract_z
Si Si1 0.451078 0.310328 0.512127
Si Si2 0.887397 0.185374 0.859726
Si Si3 0.201324 0.187905 0.517271
Si Si4 0.439467 0.313236 0.751710
Si Si5 0.132923 0.683558 0.913667
Si Si6 0.699871 0.817733 0.238424
Si Si7 0.372854 0.314108 0.369170
Si Si8 0.484765 0.187195 0.118693
O O1 0.500000 0.259685 0.500000
O O2 0.451820 0.500000 0.509670
O O3 0.434386 0.260837 0.629316
O O4 0.417329 0.259149 0.422657
O O5 0.868997 0.257043 0.752066
O O6 0.936511 0.233699 0.866267
O O7 0.885546 0.000000 0.852362
O O8 0.866997 0.238134 0.970828
O O9 0.250000 0.235664 0.494729
O O10 0.190752 0.232869 0.639730
O O11 0.166446 0.254573 0.438563
O O12 0.200567 0.000000 0.513285
O O13 0.436628 0.500000 0.750780
O O14 0.405070 0.255158 0.837367
O O15 0.484954 0.263186 0.794505
O O16 0.126971 0.500000 0.928508
O O17 0.174744 0.719086 0.847178
O O18 0.750000 0.806730 0.224087
O O19 0.688131 0.000000 0.227739
O O20 0.373287 0.500000 0.371595
O O21 0.487946 0.000000 0.126387
O O22 0.500000 0.232900 0.000000
#
# Coordination Sequence:
#
# PCOD9403505 Si02
#       8
#     8   8   8   8   8   8   8   8
#     4   9  18  33  52  77 112 150 184 224 276 334
#     4  11  23  39  57  77 110 152 194 237 283 338
#     4   9  19  38  63  89 117 150 188 229 280 345
#     4  10  20  33  53  80 109 143 184 227 275 331
#     4  11  22  35  54  83 114 144 185 231 280 333
#     4   9  19  37  61  87 115 148 183 222 274 335
#     4  11  22  37  59  85 116 151 192 241 291 340
#     4  10  20  35  53  76 107 145 190 235 278 323
#
# _framework density 18.775220999999998
#
# number of rings (size 3 to 8) (size 9 to 14) (size 15 to 20)
#    0.000    2.000    1.250    3.375    0.000    4.750 
#    0.000    3.125    0.000    7.125    0.000    0.000 
#    0.000    0.000    0.000    0.000    0.000    0.000 
#
# Total GULP energy -357371.777418 kJ/mol
# GULP energy per Si atom -5583.934022 kJ/mol
# Density = 1.873249 g / cm^3
# Si number density = 18.775221 Si / 1000 Ang^3
#
#
#
# Elastic Constant Matrix: (Units=GPa)
#
#
# Indices 1 2 3 4 5 6 
#
# 1 69.9612 16.8498 61.1941 0.0000 0.0000 0.0000
# 2 16.8498 13.6520 26.1873 0.0000 0.0000 0.0000
# 3 61.1941 26.1873 143.4106 0.0000 0.0000 0.0000
# 4 0.0000 0.0000 0.0000 -2.1718 0.0000 0.0000
# 5 0.0000 0.0000 0.0000 0.0000 32.3433 0.0000
# 6 0.0000 0.0000 0.0000 0.0000 0.0000 27.0119
#
#
#
# Elastic Compliance Matrix: (Units=1/GPa)
#
#
# Indices 1 2 3 4 5 6 
#
# 1 0.024865 -0.015910 -0.007705 0.000000 0.000000 0.000000
# 2 -0.015910 0.122918 -0.015657 0.000000 0.000000 0.000000
# 3 -0.007705 -0.015657 0.013120 0.000000 0.000000 0.000000
# 4 0.000000 0.000000 0.000000 -0.460443 0.000000 0.000000
# 5 0.000000 0.000000 0.000000 0.000000 0.030918 0.000000
# 6 0.000000 0.000000 0.000000 0.000000 0.000000 0.037021
#
#
# Mechanical properties :
#
#
# Convention : Reuss Voigt Hill
#
# Bulk Modulus (GPa) = 12.14171 48.38735 30.26453
# Shear Modulus (GPa) = -39.80717 19.62284 -10.09217
#
# Velocity S-wave (km/s) = -4.60956 3.23638 -2.32098
# Velocity P-wave (km/s) = 4.67437 6.30820 2.99530
#
# Compressibility (1/GPa) = 0.08236072
#
# Stress axis : x y z
#
# Youngs Moduli (GPa) = 40.21792 8.13548 76.22183
#
# Poissons Ratio (x) = 0.12943 0.58727
# Poissons Ratio (y) = 0.63985 1.19338
# Poissons Ratio (z) = 0.30987 0.12737
#
# Static dielectric constant tensor:
#      x y z
#    x 1.645750 0.000000 0.000000 
#    y 0.000000 1.641820 0.000000 
#    z 0.000000 0.000000 1.642730 
# 
# From -- ./inp_files/19536.got.cif
#   From: 2010.05.17/outbox.cif.g08.bks.cpg/sg51_10_cif.got.tgz:19536.got - 2010.06.03 11:52:47.
