data_PCOD9403572
_publ_section_title
;
Structure prediction by ZEFSAII (Michael W. Deem and Ramdas Pophale) SiO2 
 PCOD9403572
Probable space group: P M M A
;
_chemical_formula_sum "Si O2"
_cell_formula_units_Z 56
_cell_length_a 7.484356
_cell_length_b 14.330169
_cell_length_c 22.751884
_cell_angle_alpha 90.000000
_cell_angle_beta 90.000000
_cell_angle_gamma 90.000000
_cell_volume 2440.187027
_symmetry_space_group_name_H-M "P M M A"
_symmetry_group_IT_number 51
_symmetry_cell_setting 'orthorhombic'
loop_
_space_group_symop_operation_xyz
x,y,z
1/2-x,-y,z
1/2+x,-y,-z
-x,y,-z
-x,-y,-z
1/2+x,y,-z
1/2-x,y,z
x,-y,z
loop_
_atom_site_type_symbol
_atom_site_label
_atom_site_fract_x
_atom_site_fract_y
_atom_site_fract_z
Si Si1 0.032622 0.168241 0.693509
Si Si2 0.965669 0.000000 0.223629
Si Si3 0.048223 0.000000 0.090343
Si Si4 0.968630 0.396326 0.861342
Si Si5 0.450901 0.807028 0.565335
Si Si6 0.045106 0.371029 0.270377
Si Si7 0.467032 0.599894 0.401991
Si Si8 0.963204 0.210978 0.932530
O O1 0.250000 0.175267 0.691813
O O2 0.984186 0.086561 0.736559
O O3 0.962147 0.160222 0.626543
O O4 0.960693 0.260800 0.722887
O O5 0.750000 0.000000 0.215142
O O6 0.052019 0.000000 0.160532
O O7 0.967984 0.896802 0.075552
O O8 0.250000 0.000000 0.064716
O O9 0.750000 0.393241 0.861473
O O10 0.017691 0.500000 0.885916
O O11 0.030545 0.395432 0.793150
O O12 0.027612 0.299782 0.893253
O O13 0.500000 0.836784 0.500000
O O14 0.250000 0.838694 0.571404
O O15 0.463405 0.694019 0.568664
O O16 0.250000 0.402500 0.269903
O O17 0.970204 0.400971 0.333798
O O18 0.250000 0.606577 0.402172
O O19 0.518214 0.500000 0.428486
O O20 0.750000 0.204732 0.921647
O O21 0.000000 0.235869 0.000000
#
# Coordination Sequence:
#
# PCOD9403572 Si02
#       8
#     8   4   4   8   8   8   8   8
#     4   9  19  34  51  73 102 132 160 198 251 304
#     4  10  20  35  56  81 106 130 157 194 247 308
#     4  10  21  37  57  83 109 132 166 212 261 306
#     4   9  17  30  50  76 104 136 174 214 257 303
#     4  10  20  34  50  67  92 128 167 204 243 291
#     4   9  16  29  51  75  99 129 165 205 249 300
#     4   9  17  29  47  72  98 124 159 204 251 299
#     4  10  21  36  54  76 105 140 176 215 255 299
#
# _framework density 22.949058999999998
#
# number of rings (size 3 to 8) (size 9 to 14) (size 15 to 20)
#    0.000    2.571    0.000    1.929    0.000    5.429 
#    0.000    1.071    0.000    2.143    0.000    0.000 
#    0.000    0.000    0.000    0.000    0.000    0.000 
#
# Total GULP energy -312139.582477 kJ/mol
# GULP energy per Si atom -5573.921116 kJ/mol
# Density = 2.289683 g / cm^3
# Si number density = 22.949059 Si / 1000 Ang^3
#
#
#
# Elastic Constant Matrix: (Units=GPa)
#
#
# Indices 1 2 3 4 5 6 
#
# 1 57.4463 4.2436 1.7567 0.0000 0.0000 0.0000
# 2 4.2436 109.3923 43.6109 0.0000 0.0000 0.0000
# 3 1.7567 43.6109 129.3714 0.0000 0.0000 0.0000
# 4 0.0000 0.0000 0.0000 -182.0980 0.0000 0.0000
# 5 0.0000 0.0000 0.0000 0.0000 16.1686 0.0000
# 6 0.0000 0.0000 0.0000 0.0000 0.0000 19.1226
#
#
#
# Elastic Compliance Matrix: (Units=1/GPa)
#
#
# Indices 1 2 3 4 5 6 
#
# 1 0.017458 -0.000673 -0.000010 0.000000 0.000000 0.000000
# 2 -0.000673 0.010587 -0.003560 0.000000 0.000000 0.000000
# 3 -0.000010 -0.003560 0.008930 0.000000 0.000000 0.000000
# 4 0.000000 0.000000 0.000000 -0.005492 0.000000 0.000000
# 5 0.000000 0.000000 0.000000 0.000000 0.061848 0.000000
# 6 0.000000 0.000000 0.000000 0.000000 0.000000 0.052294
#
#
# Mechanical properties :
#
#
# Convention : Reuss Voigt Hill
#
# Bulk Modulus (GPa) = 35.10230 43.93694 39.51962
# Shear Modulus (GPa) = 30.56111 -12.92143 8.81984
#
# Velocity S-wave (km/s) = 3.65320 -2.37544 1.96254
# Velocity P-wave (km/s) = 5.75529 3.41517 4.73217
#
# Compressibility (1/GPa) = 0.02848817
#
# Stress axis : x y z
#
# Youngs Moduli (GPa) = 57.28165 94.45896 111.98519
#
# Poissons Ratio (x) = 0.06359 0.00113
# Poissons Ratio (y) = 0.03856 0.39862
# Poissons Ratio (z) = 0.00058 0.33624
#
# Static dielectric constant tensor:
#      x y z
#    x 1.856520 0.000000 0.000000 
#    y 0.000000 1.834170 0.000000 
#    z 0.000000 0.000000 1.847600 
# 
# From -- ./inp_files/32077.got.cif
#   From: 2010.05.17/outbox.cif.g08.bks.cpg/sg51_17_cif.got.tgz:32077.got - 2010.06.03 11:52:47.
