data_PCOD9403719
_publ_section_title
;
Structure prediction by ZEFSAII (Michael W. Deem and Ramdas Pophale) SiO2 
 PCOD9403719
Probable space group: P M M A
;
_chemical_formula_sum "Si O2"
_cell_formula_units_Z 64
_cell_length_a 19.788849
_cell_length_b 7.711438
_cell_length_c 21.241693
_cell_angle_alpha 90.000000
_cell_angle_beta 90.000000
_cell_angle_gamma 90.000000
_cell_volume 3241.492594
_symmetry_space_group_name_H-M "P M M A"
_symmetry_group_IT_number 51
_symmetry_cell_setting 'orthorhombic'
loop_
_space_group_symop_operation_xyz
x,y,z
1/2-x,-y,z
1/2+x,-y,-z
-x,y,-z
-x,-y,-z
1/2+x,y,-z
1/2-x,y,z
x,-y,z
loop_
_atom_site_type_symbol
_atom_site_label
_atom_site_fract_x
_atom_site_fract_y
_atom_site_fract_z
Si Si1 0.575386 0.793096 0.251969
Si Si2 0.078926 0.290104 0.244740
Si Si3 0.590276 0.294828 0.613052
Si Si4 0.673027 0.293022 0.867416
Si Si5 0.174156 0.795588 0.506091
Si Si6 0.935450 0.789543 0.394346
Si Si7 0.671225 0.787875 0.141588
Si Si8 0.171535 0.208434 0.995914
O O1 0.498392 0.759546 0.232196
O O2 0.582174 0.727690 0.323619
O O3 0.626856 0.724227 0.199783
O O4 0.585781 0.000000 0.255209
O O5 0.082116 0.500000 0.246101
O O6 0.096690 0.227543 0.315296
O O7 0.127976 0.225558 0.189850
O O8 0.600968 0.500000 0.614534
O O9 0.642686 0.220958 0.563193
O O10 0.512846 0.261382 0.592173
O O11 0.750000 0.223025 0.865858
O O12 0.677409 0.500000 0.859764
O O13 0.642316 0.262167 0.936856
O O14 0.250000 0.722255 0.510314
O O15 0.118994 0.724206 0.555314
O O16 0.179148 0.000000 0.520226
O O17 0.934803 0.000000 0.394643
O O18 0.750000 0.738703 0.147410
O O19 0.669697 0.000000 0.142156
O O20 0.644851 0.733257 0.072240
O O21 0.250000 0.267205 0.997217
O O22 0.171291 0.000000 0.995230
#
# Coordination Sequence:
#
# PCOD9403719 Si02
#       8
#     8   8   8   8   8   8   8   8
#     4   9  17  30  50  73  94 121 158 193 224 268
#     4   9  19  34  49  67  94 124 152 190 238 279
#     4  10  20  34  53  73  93 124 164 198 231 279
#     4   9  17  30  48  67  87 116 155 194 231 275
#     4  10  21  35  50  72 102 129 153 190 239 282
#     4   9  18  33  52  72  96 127 160 193 231 278
#     4   8  14  26  46  71  96 121 152 192 233 270
#     4   8  14  26  44  66  92 120 150 187 231 275
#
# _framework density 19.743991000000001
#
# number of rings (size 3 to 8) (size 9 to 14) (size 15 to 20)
#    0.000    3.000    0.000    1.500    0.000    4.250 
#    0.000    5.000    0.000    6.375    0.000    3.500 
#    0.000    0.000    0.000    0.000    0.000    0.000 
#
# Total GULP energy -356703.503217 kJ/mol
# GULP energy per Si atom -5573.492238 kJ/mol
# Density = 1.969905 g / cm^3
# Si number density = 19.743991 Si / 1000 Ang^3
#
#
#
# Elastic Constant Matrix: (Units=GPa)
#
#
# Indices 1 2 3 4 5 6 
#
# 1 53.4800 -9.3753 45.0126 0.0000 0.0000 0.0000
# 2 -9.3753 26.7112 -8.4148 0.0000 0.0000 0.0000
# 3 45.0126 -8.4148 82.5701 0.0000 0.0000 0.0000
# 4 0.0000 0.0000 0.0000 -12.5086 0.0000 0.0000
# 5 0.0000 0.0000 0.0000 0.0000 36.9614 0.0000
# 6 0.0000 0.0000 0.0000 0.0000 0.0000 -48.1965
#
#
#
# Elastic Compliance Matrix: (Units=1/GPa)
#
#
# Indices 1 2 3 4 5 6 
#
# 1 0.035644 0.006601 -0.018759 0.000000 0.000000 0.000000
# 2 0.006601 0.039902 0.000468 0.000000 0.000000 0.000000
# 3 -0.018759 0.000468 0.022385 0.000000 0.000000 0.000000
# 4 0.000000 0.000000 0.000000 -0.079945 0.000000 0.000000
# 5 0.000000 0.000000 0.000000 0.000000 0.027055 0.000000
# 6 0.000000 0.000000 0.000000 0.000000 0.000000 -0.020748
#
#
# Mechanical properties :
#
#
# Convention : Reuss Voigt Hill
#
# Bulk Modulus (GPa) = 13.41349 24.13402 18.77375
# Shear Modulus (GPa) = 68.94411 4.28718 36.61565
#
# Velocity S-wave (km/s) = 5.91564 1.47516 4.31109
# Velocity P-wave (km/s) = 7.31220 3.89249 5.85746
#
# Compressibility (1/GPa) = 0.07455184
#
# Stress axis : x y z
#
# Youngs Moduli (GPa) = 28.05493 25.06152 44.67332
#
# Poissons Ratio (x) = -0.16544 0.83801
# Poissons Ratio (y) = -0.18520 -0.02090
# Poissons Ratio (z) = 0.52627 -0.01173
#
# Static dielectric constant tensor:
#      x y z
#    x 1.663890 0.000000 0.000000 
#    y 0.000000 1.735690 0.000000 
#    z 0.000000 0.000000 1.725510 
# 
# From -- ./inp_files/33901.got.cif
#   From: 2010.05.17/outbox.cif.g08.bks.cpg/sg51_17_cif.got.tgz:33901.got - 2010.06.03 11:52:47.
