data_PCOD9403420
_publ_section_title
;
Structure prediction by ZEFSAII (Michael W. Deem and Ramdas Pophale) SiO2 
 PCOD9403420
Probable space group: P M M A
;
_chemical_formula_sum "Si O2"
_cell_formula_units_Z 64
_cell_length_a 21.234289
_cell_length_b 19.061526
_cell_length_c 8.726993
_cell_angle_alpha 90.000000
_cell_angle_beta 90.000000
_cell_angle_gamma 90.000000
_cell_volume 3532.319813
_symmetry_space_group_name_H-M "P M M A"
_symmetry_group_IT_number 51
_symmetry_cell_setting 'orthorhombic'
loop_
_space_group_symop_operation_xyz
x,y,z
1/2-x,-y,z
1/2+x,-y,-z
-x,y,-z
-x,-y,-z
1/2+x,y,-z
1/2-x,y,z
x,-y,z
loop_
_atom_site_type_symbol
_atom_site_label
_atom_site_fract_x
_atom_site_fract_y
_atom_site_fract_z
Si Si1 0.066948 0.671582 0.063199
Si Si2 0.179760 0.083895 0.404963
Si Si3 0.435541 0.700822 0.421457
Si Si4 0.821894 0.684729 0.356768
Si Si5 0.889709 0.798843 0.147659
Si Si6 0.174317 0.081481 0.052330
Si Si7 0.821335 0.583322 0.073746
Si Si8 0.937907 0.145710 0.444233
O O1 0.063794 0.684235 0.243535
O O2 0.080994 0.743887 0.971798
O O3 0.124259 0.619597 0.024585
O O4 0.000000 0.644661 0.000000
O O5 0.250000 0.112165 0.437577
O O6 0.127236 0.107318 0.523268
O O7 0.183594 0.000000 0.407203
O O8 0.161655 0.102125 0.229720
O O9 0.500000 0.673722 0.500000
O O10 0.373080 0.675731 0.509888
O O11 0.435762 0.784306 0.451880
O O12 0.750000 0.693000 0.410266
O O13 0.842800 0.752223 0.254355
O O14 0.825329 0.619207 0.240808
O O15 0.856814 0.862627 0.060053
O O16 0.939713 0.829858 0.268483
O O17 0.250000 0.083198 0.034472
O O18 0.154478 0.000000 0.028306
O O19 0.750000 0.598643 0.016404
O O20 0.829047 0.500000 0.081106
O O21 0.000000 0.105526 0.500000
#
# Coordination Sequence:
#
# PCOD9403420 Si02
#       8
#     8   8   8   8   8   8   8   8
#     4  11  21  36  59  82 109 144 182 224 266 316
#     4   9  19  35  52  70  96 133 174 216 265 319
#     4  10  20  35  53  77 108 139 175 219 266 312
#     4   9  18  33  54  79 106 139 179 219 262 316
#     4  10  20  33  52  77 105 137 177 222 271 319
#     4   9  18  33  52  75 104 137 177 226 275 323
#     4   9  19  37  59  84 115 147 179 218 264 312
#     4  10  20  34  51  73 102 134 171 215 264 318
#
# _framework density 18.118406
#
# number of rings (size 3 to 8) (size 9 to 14) (size 15 to 20)
#    0.000    2.375    0.000    4.875    0.000    4.500 
#    0.000    1.875    0.000    4.875    0.000    0.000 
#    0.000    0.000    0.000    0.000    0.000    0.000 
#
# Total GULP energy -356903.072755 kJ/mol
# GULP energy per Si atom -5576.610512 kJ/mol
# Density = 1.807717 g / cm^3
# Si number density = 18.118406 Si / 1000 Ang^3
#
#
#
# Elastic Constant Matrix: (Units=GPa)
#
#
# Indices 1 2 3 4 5 6 
#
# 1 121.0079 24.9518 67.4863 0.0000 0.0000 0.0000
# 2 24.9518 47.8459 29.0251 0.0000 0.0000 0.0000
# 3 67.4863 29.0251 111.8045 0.0000 0.0000 0.0000
# 4 0.0000 0.0000 0.0000 10.2094 0.0000 0.0000
# 5 0.0000 0.0000 0.0000 0.0000 26.5600 0.0000
# 6 0.0000 0.0000 0.0000 0.0000 0.0000 16.5485
#
#
#
# Elastic Compliance Matrix: (Units=1/GPa)
#
#
# Indices 1 2 3 4 5 6 
#
# 1 0.012674 -0.002337 -0.007043 0.000000 0.000000 0.000000
# 2 -0.002337 0.025238 -0.005142 0.000000 0.000000 0.000000
# 3 -0.007043 -0.005142 0.014530 0.000000 0.000000 0.000000
# 4 0.000000 0.000000 0.000000 0.097949 0.000000 0.000000
# 5 0.000000 0.000000 0.000000 0.000000 0.037651 0.000000
# 6 0.000000 0.000000 0.000000 0.000000 0.000000 0.060428
#
#
# Mechanical properties :
#
#
# Convention : Reuss Voigt Hill
#
# Bulk Modulus (GPa) = 42.73669 58.17607 50.45638
# Shear Modulus (GPa) = 17.52461 21.27661 19.40061
#
# Velocity S-wave (km/s) = 3.11340 3.43054 3.27581
# Velocity P-wave (km/s) = 6.04674 6.91881 6.49742
#
# Compressibility (1/GPa) = 0.02339910
#
# Stress axis : x y z
#
# Youngs Moduli (GPa) = 78.90228 39.62279 68.82091
#
# Poissons Ratio (x) = 0.09258 0.48474
# Poissons Ratio (y) = 0.18437 0.35384
# Poissons Ratio (z) = 0.55575 0.20372
#
# Static dielectric constant tensor:
#      x y z
#    x 1.678140 0.000000 0.000000 
#    y 0.000000 1.606170 0.000000 
#    z 0.000000 0.000000 1.613670 
# 
# From -- ./inp_files/11229.got.cif
#   From: 2010.05.17/outbox.cif.g08.bks.cpg/sg51_6_cif.got.tgz:11229.got - 2010.06.03 11:52:47.
