data_PCOD9403435
_publ_section_title
;
Structure prediction by ZEFSAII (Michael W. Deem and Ramdas Pophale) SiO2 
 PCOD9403435
Probable space group: P M M A
;
_chemical_formula_sum "Si O2"
_cell_formula_units_Z 64
_cell_length_a 8.846229
_cell_length_b 17.962842
_cell_length_c 21.195204
_cell_angle_alpha 90.000000
_cell_angle_beta 90.000000
_cell_angle_gamma 90.000000
_cell_volume 3367.990272
_symmetry_space_group_name_H-M "P M M A"
_symmetry_group_IT_number 51
_symmetry_cell_setting 'orthorhombic'
loop_
_space_group_symop_operation_xyz
x,y,z
1/2-x,-y,z
1/2+x,-y,-z
-x,y,-z
-x,-y,-z
1/2+x,y,-z
1/2-x,y,z
x,-y,z
loop_
_atom_site_type_symbol
_atom_site_label
_atom_site_fract_x
_atom_site_fract_y
_atom_site_fract_z
Si Si1 0.069085 0.135507 0.798462
Si Si2 0.569206 0.628006 0.567009
Si Si3 0.430618 0.917432 0.328018
Si Si4 0.431094 0.803568 0.433780
Si Si5 0.069538 0.704433 0.062334
Si Si6 0.570225 0.416234 0.301792
Si Si7 0.430625 0.870980 0.936776
Si Si8 0.569795 0.698810 0.796621
O O1 0.250000 0.141004 0.796680
O O2 0.027921 0.100930 0.866889
O O3 0.008249 0.090548 0.739349
O O4 0.000231 0.218600 0.792602
O O5 0.500000 0.603431 0.500000
O O6 0.750000 0.618718 0.565862
O O7 0.533389 0.716313 0.574262
O O8 0.498962 0.590228 0.628289
O O9 0.250000 0.908378 0.319515
O O10 0.484675 0.853658 0.375722
O O11 0.457666 0.000000 0.354367
O O12 0.500000 0.828661 0.500000
O O13 0.250000 0.809981 0.437076
O O14 0.250000 0.713117 0.054743
O O15 0.041303 0.670562 0.131542
O O16 0.991686 0.785874 0.064805
O O17 0.000000 0.666669 0.000000
O O18 0.750000 0.404684 0.305420
O O19 0.541208 0.500000 0.277920
O O20 0.498186 0.355406 0.255610
O O21 0.250000 0.871332 0.942723
O O22 0.500000 0.905948 0.000000
O O23 0.750000 0.704833 0.787840
#
# Coordination Sequence:
#
# PCOD9403435 Si02
#       8
#     8   8   8   8   8   8   8   8
#     4  10  20  33  52  78 106 137 175 219 264 312
#     4  10  20  36  59  83 108 139 175 217 263 313
#     4  10  21  36  53  75 106 142 178 217 261 311
#     4   9  19  35  55  80 106 133 169 211 255 304
#     4   9  16  26  44  72 103 133 167 210 259 310
#     4  11  24  39  55  78 108 141 178 221 267 314
#     4   9  16  26  43  70 101 131 165 209 260 310
#     4  10  20  34  54  79 106 139 178 218 263 317
#
# _framework density 19.002428999999999
#
# number of rings (size 3 to 8) (size 9 to 14) (size 15 to 20)
#    0.000    2.250    0.000    3.750    0.000    6.750 
#    0.000    0.000    0.000    0.750    0.000    0.000 
#    0.000    0.000    0.000    0.000    0.000    0.000 
#
# Total GULP energy -357085.192859 kJ/mol
# GULP energy per Si atom -5579.456138 kJ/mol
# Density = 1.895918 g / cm^3
# Si number density = 19.002429 Si / 1000 Ang^3
#
#
#
# Elastic Constant Matrix: (Units=GPa)
#
#
# Indices 1 2 3 4 5 6 
#
# 1 40.3757 19.3065 24.5236 0.0000 0.0000 0.0000
# 2 19.3065 41.3647 26.9503 0.0000 0.0000 0.0000
# 3 24.5236 26.9503 105.4630 0.0000 0.0000 0.0000
# 4 0.0000 0.0000 0.0000 -17.6964 0.0000 0.0000
# 5 0.0000 0.0000 0.0000 0.0000 38.4511 0.0000
# 6 0.0000 0.0000 0.0000 0.0000 0.0000 11.9844
#
#
#
# Elastic Compliance Matrix: (Units=1/GPa)
#
#
# Indices 1 2 3 4 5 6 
#
# 1 0.033623 -0.012717 -0.004569 0.000000 0.000000 0.000000
# 2 -0.012717 0.033814 -0.005684 0.000000 0.000000 0.000000
# 3 -0.004569 -0.005684 0.011997 0.000000 0.000000 0.000000
# 4 0.000000 0.000000 0.000000 -0.056509 0.000000 0.000000
# 5 0.000000 0.000000 0.000000 0.000000 0.026007 0.000000
# 6 0.000000 0.000000 0.000000 0.000000 0.000000 0.083442
#
#
# Mechanical properties :
#
#
# Convention : Reuss Voigt Hill
#
# Bulk Modulus (GPa) = 29.85494 36.52935 33.19215
# Shear Modulus (GPa) = 26.38833 14.30933 20.34883
#
# Velocity S-wave (km/s) = 3.73055 2.74711 3.27594
# Velocity P-wave (km/s) = 5.85672 5.41548 5.64042
#
# Compressibility (1/GPa) = 0.03349529
#
# Stress axis : x y z
#
# Youngs Moduli (GPa) = 29.74145 29.57379 83.35505
#
# Poissons Ratio (x) = 0.37608 0.38084
# Poissons Ratio (y) = 0.37821 0.47378
# Poissons Ratio (z) = 0.13588 0.16809
#
# Static dielectric constant tensor:
#      x y z
#    x 1.631820 0.000000 0.000000 
#    y 0.000000 1.641390 0.000000 
#    z 0.000000 0.000000 1.689570 
# 
# From -- ./inp_files/32370.got.cif
#   From: 2010.05.17/outbox.cif.g08.bks.cpg/sg51_17_cif.got.tgz:32370.got - 2010.06.03 11:52:47.
