data_PCOD9403088
_publ_section_title
;
Structure prediction by ZEFSAII (Michael W. Deem and Ramdas Pophale) SiO2 
 PCOD9403088
Probable space group: P M M A
;
_chemical_formula_sum "Si O2"
_cell_formula_units_Z 64
_cell_length_a 8.774710
_cell_length_b 20.182138
_cell_length_c 20.456669
_cell_angle_alpha 90.000000
_cell_angle_beta 90.000000
_cell_angle_gamma 90.000000
_cell_volume 3622.720776
_symmetry_space_group_name_H-M "P M M A"
_symmetry_group_IT_number 51
_symmetry_cell_setting 'orthorhombic'
loop_
_space_group_symop_operation_xyz
x,y,z
1/2-x,-y,z
1/2+x,-y,-z
-x,y,-z
-x,-y,-z
1/2+x,y,-z
1/2-x,y,z
x,-y,z
loop_
_atom_site_type_symbol
_atom_site_label
_atom_site_fract_x
_atom_site_fract_y
_atom_site_fract_z
Si Si1 0.931754 0.070928 0.604246
Si Si2 0.430903 0.578496 0.070778
Si Si3 0.432194 0.216795 0.432675
Si Si4 0.571066 0.257985 0.299227
Si Si5 0.566821 0.684965 0.166304
Si Si6 0.927178 0.895114 0.262014
Si Si7 0.569484 0.790333 0.931690
Si Si8 0.067679 0.925506 0.888586
O O1 0.750000 0.071114 0.594946
O O2 0.991340 0.140344 0.575517
O O3 0.969543 0.075214 0.681188
O O4 0.992980 0.000000 0.579582
O O5 0.250000 0.590623 0.069524
O O6 0.457386 0.500000 0.080223
O O7 0.505880 0.621269 0.127986
O O8 0.500000 0.596537 0.000000
O O9 0.500000 0.243579 0.500000
O O10 0.250000 0.215500 0.435839
O O11 0.483326 0.255252 0.367578
O O12 0.750000 0.269033 0.312670
O O13 0.519359 0.307710 0.242163
O O14 0.557771 0.184295 0.267950
O O15 0.750000 0.686957 0.164583
O O16 0.503171 0.747725 0.126344
O O17 0.750000 0.911843 0.275736
O O18 0.961975 0.918842 0.189218
O O19 0.750000 0.782650 0.931709
O O20 0.522977 0.866856 0.922687
O O21 0.500000 0.766337 0.000000
O O22 0.250000 0.915288 0.897799
O O23 0.029051 0.000000 0.909895
#
# Coordination Sequence:
#
# PCOD9403088 Si02
#       8
#     8   8   8   8   8   8   8   8
#     4   9  18  30  43  63  91 121 158 205 256 314
#     4  10  21  37  57  85 122 160 194 225 261 309
#     4  10  20  33  49  69  97 132 169 212 265 321
#     4   9  18  33  54  76 101 131 168 214 261 312
#     4  11  21  37  60  84 111 142 181 224 267 314
#     4   9  16  30  49  69  92 120 157 202 258 318
#     4  12  25  39  55  73  99 132 173 220 271 325
#     4  10  20  35  53  71  94 124 163 215 274 331
#
# _framework density 17.66628
#
# number of rings (size 3 to 8) (size 9 to 14) (size 15 to 20)
#    0.000    2.000    1.250    3.000    0.000    4.250 
#    0.000    0.000    0.000    0.000    0.000    0.000 
#    0.000    0.500    0.000    1.625    0.000    2.375 
#
# Total GULP energy -357306.566604 kJ/mol
# GULP energy per Si atom -5582.915103 kJ/mol
# Density = 1.762607 g / cm^3
# Si number density = 17.666280 Si / 1000 Ang^3
#
#
#
# Elastic Constant Matrix: (Units=GPa)
#
#
# Indices 1 2 3 4 5 6 
#
# 1 53.1197 34.8456 48.9527 0.0000 0.0000 0.0000
# 2 34.8456 57.8237 41.1185 0.0000 0.0000 0.0000
# 3 48.9527 41.1185 126.8002 0.0000 0.0000 0.0000
# 4 0.0000 0.0000 0.0000 19.3218 0.0000 0.0000
# 5 0.0000 0.0000 0.0000 0.0000 26.1295 0.0000
# 6 0.0000 0.0000 0.0000 0.0000 0.0000 23.1324
#
#
#
# Elastic Compliance Matrix: (Units=1/GPa)
#
#
# Indices 1 2 3 4 5 6 
#
# 1 0.038268 -0.016318 -0.009482 0.000000 0.000000 0.000000
# 2 -0.016318 0.029435 -0.003245 0.000000 0.000000 0.000000
# 3 -0.009482 -0.003245 0.012600 0.000000 0.000000 0.000000
# 4 0.000000 0.000000 0.000000 0.051755 0.000000 0.000000
# 5 0.000000 0.000000 0.000000 0.000000 0.038271 0.000000
# 6 0.000000 0.000000 0.000000 0.000000 0.000000 0.043229
#
#
# Mechanical properties :
#
#
# Convention : Reuss Voigt Hill
#
# Bulk Modulus (GPa) = 45.02191 54.17524 49.59857
# Shear Modulus (GPa) = 17.91764 21.23853 19.57809
#
# Velocity S-wave (km/s) = 3.18815 3.47105 3.33260
# Velocity P-wave (km/s) = 6.25239 6.84081 6.55321
#
# Compressibility (1/GPa) = 0.02221141
#
# Stress axis : x y z
#
# Youngs Moduli (GPa) = 26.13124 33.97269 79.36768
#
# Poissons Ratio (x) = 0.55438 0.75259
# Poissons Ratio (y) = 0.42642 0.25758
# Poissons Ratio (z) = 0.24778 0.11025
#
# Static dielectric constant tensor:
#      x y z
#    x 1.591840 0.000000 0.000000 
#    y 0.000000 1.617750 0.000000 
#    z 0.000000 0.000000 1.590410 
# 
# From -- ./inp_files/28417.got.cif
#   From: 2010.05.17/outbox.cif.g08.bks.cpg/sg51_15_cif.got.tgz:28417.got - 2010.06.03 11:52:47.
