data_PCOD9403728
_publ_section_title
;
Structure prediction by ZEFSAII (Michael W. Deem and Ramdas Pophale) SiO2 
 PCOD9403728
Probable space group: P M M A
;
_chemical_formula_sum "Si O2"
_cell_formula_units_Z 44
_cell_length_a 9.240745
_cell_length_b 15.241001
_cell_length_c 18.001201
_cell_angle_alpha 90.000000
_cell_angle_beta 90.000000
_cell_angle_gamma 90.000000
_cell_volume 2535.256815
_symmetry_space_group_name_H-M "P M M A"
_symmetry_group_IT_number 51
_symmetry_cell_setting 'orthorhombic'
loop_
_space_group_symop_operation_xyz
x,y,z
1/2-x,-y,z
1/2+x,-y,-z
-x,y,-z
-x,-y,-z
1/2+x,y,-z
1/2-x,y,z
x,-y,z
loop_
_atom_site_type_symbol
_atom_site_label
_atom_site_fract_x
_atom_site_fract_y
_atom_site_fract_z
Si Si1 0.919252 0.000000 0.421948
Si Si2 0.087298 0.160318 0.363910
Si Si3 0.579651 0.399900 0.271619
Si Si4 0.418433 0.756796 0.200617
Si Si5 0.920575 0.352898 0.575817
Si Si6 0.924281 0.900198 0.920673
O O1 0.000000 0.000000 0.500000
O O2 0.971389 0.913291 0.379938
O O3 0.750000 0.000000 0.432864
O O4 0.250000 0.125589 0.377258
O O5 0.078353 0.192290 0.279160
O O6 0.068566 0.247263 0.413743
O O7 0.750000 0.381994 0.283171
O O8 0.563158 0.500000 0.245753
O O9 0.512493 0.329754 0.214749
O O10 0.496945 0.390336 0.350483
O O11 0.250000 0.732769 0.187136
O O12 0.466937 0.824332 0.137045
O O13 0.750000 0.375339 0.574602
O O14 0.000000 0.379479 0.500000
O O15 0.750000 0.895988 0.928845
O O16 0.958708 0.000000 0.894530
O O17 0.000000 0.888023 0.000000
#
# Coordination Sequence:
#
# PCOD9403728 Si02
#       6
#     4   8   8   8   8   8
#     4  12  24  34  46  66  93 130 173 216 261 306
#     4   9  19  34  51  70  94 129 171 214 260 307
#     4  10  21  36  54  77 105 137 174 220 272 320
#     4   9  19  35  57  80 104 140 177 213 260 309
#     4  10  20  34  53  74  98 132 172 219 271 321
#     4   9  18  33  55  84 116 147 176 208 252 307
#
# _framework density 17.355243999999999
#
# number of rings (size 3 to 8) (size 9 to 14) (size 15 to 20)
#    0.000    2.364    0.000    3.545    1.273    7.636 
#    0.000    0.000    0.000    0.545    0.000    0.000 
#    0.000    0.000    0.000    0.000    0.000    0.000 
#
# Total GULP energy -245493.966208 kJ/mol
# GULP energy per Si atom -5579.408323 kJ/mol
# Density = 1.731574 g / cm^3
# Si number density = 17.355244 Si / 1000 Ang^3
#
#
#
# Elastic Constant Matrix: (Units=GPa)
#
#
# Indices 1 2 3 4 5 6 
#
# 1 108.1492 71.3155 36.4355 0.0000 0.0000 0.0000
# 2 71.3155 107.6292 50.6693 0.0000 0.0000 0.0000
# 3 36.4355 50.6693 75.9248 0.0000 0.0000 0.0000
# 4 0.0000 0.0000 0.0000 8.2197 0.0000 0.0000
# 5 0.0000 0.0000 0.0000 0.0000 27.3020 0.0000
# 6 0.0000 0.0000 0.0000 0.0000 0.0000 28.2821
#
#
#
# Elastic Compliance Matrix: (Units=1/GPa)
#
#
# Indices 1 2 3 4 5 6 
#
# 1 0.016464 -0.010483 -0.000905 0.000000 0.000000 0.000000
# 2 -0.010483 0.020222 -0.008465 0.000000 0.000000 0.000000
# 3 -0.000905 -0.008465 0.019254 0.000000 0.000000 0.000000
# 4 0.000000 0.000000 0.000000 0.121658 0.000000 0.000000
# 5 0.000000 0.000000 0.000000 0.000000 0.036627 0.000000
# 6 0.000000 0.000000 0.000000 0.000000 0.000000 0.035358
#
#
# Mechanical properties :
#
#
# Convention : Reuss Voigt Hill
#
# Bulk Modulus (GPa) = 61.59556 67.61597 64.60577
# Shear Modulus (GPa) = 16.96626 21.64628 19.30627
#
# Velocity S-wave (km/s) = 3.13003 3.53547 3.33891
# Velocity P-wave (km/s) = 6.97358 7.46395 7.22293
#
# Compressibility (1/GPa) = 0.01623494
#
# Stress axis : x y z
#
# Youngs Moduli (GPa) = 60.73795 49.44993 51.93638
#
# Poissons Ratio (x) = 0.51840 0.04700
# Poissons Ratio (y) = 0.63673 0.43964
# Poissons Ratio (z) = 0.05496 0.41859
#
# Static dielectric constant tensor:
#      x y z
#    x 1.588350 0.000000 0.000000 
#    y 0.000000 1.598660 0.000000 
#    z 0.000000 0.000000 1.560890 
# 
# From -- ./inp_files/27350.got.cif
#   From: 2010.05.17/outbox.cif.g08.bks.cpg/sg51_14_cif.got.tgz:27350.got - 2010.06.03 11:52:47.
