data_PCOD9403479
_publ_section_title
;
Structure prediction by ZEFSAII (Michael W. Deem and Ramdas Pophale) SiO2 
 PCOD9403479
Probable space group: P M M A
;
_chemical_formula_sum "Si O2"
_cell_formula_units_Z 56
_cell_length_a 14.446841
_cell_length_b 8.909577
_cell_length_c 23.332261
_cell_angle_alpha 90.000000
_cell_angle_beta 90.000000
_cell_angle_gamma 90.000000
_cell_volume 3003.217628
_symmetry_space_group_name_H-M "P M M A"
_symmetry_group_IT_number 51
_symmetry_cell_setting 'orthorhombic'
loop_
_space_group_symop_operation_xyz
x,y,z
1/2-x,-y,z
1/2+x,-y,-z
-x,y,-z
-x,-y,-z
1/2+x,y,-z
1/2-x,y,z
x,-y,z
loop_
_atom_site_type_symbol
_atom_site_label
_atom_site_fract_x
_atom_site_fract_y
_atom_site_fract_z
Si Si1 0.359285 0.675516 0.524844
Si Si2 0.041564 0.321509 0.856771
Si Si3 0.641780 0.179841 0.251974
Si Si4 0.356156 0.679715 0.087133
Si Si5 0.642899 0.821333 0.597390
Si Si6 0.035067 0.320376 0.641099
Si Si7 0.138961 0.825604 0.964498
O O1 0.250000 0.687418 0.538114
O O2 0.379365 0.500000 0.511977
O O3 0.377423 0.770237 0.467927
O O4 0.416633 0.720504 0.580561
O O5 0.050891 0.500000 0.848974
O O6 0.089688 0.237875 0.804422
O O7 0.090359 0.270944 0.915632
O O8 0.933031 0.284468 0.865505
O O9 0.750000 0.223930 0.250011
O O10 0.592320 0.249273 0.307279
O O11 0.637164 0.000000 0.254433
O O12 0.250000 0.717450 0.102427
O O13 0.360537 0.500000 0.076836
O O14 0.380272 0.762767 0.027867
O O15 0.750000 0.779678 0.608905
O O16 0.569204 0.740327 0.637723
O O17 0.633880 0.000000 0.602143
O O18 0.036200 0.500000 0.645924
O O19 0.250000 0.816788 0.956456
O O20 0.111412 0.000000 0.959963
#
# Coordination Sequence:
#
# PCOD9403479 Si02
#       7
#     8   8   8   8   8   8   8
#     4   9  18  33  54  82 115 148 183 226 278 335
#     4  11  22  36  57  82 108 144 187 229 275 325
#     4  11  25  43  61  82 110 144 182 226 276 331
#     4   9  19  36  56  80 111 144 180 223 270 323
#     4  10  21  36  55  82 116 151 187 229 277 329
#     4  11  22  37  59  84 111 147 189 232 279 330
#     4  10  20  33  52  81 115 148 181 221 273 329
#
# _framework density 18.646666
#
# number of rings (size 3 to 8) (size 9 to 14) (size 15 to 20)
#    0.000    1.857    0.000    3.857    0.000   10.857 
#    0.000    2.143    0.000    2.571    0.000    0.000 
#    0.000    0.000    0.000    0.000    0.000    0.000 
#
# Total GULP energy -312927.455634 kJ/mol
# GULP energy per Si atom -5587.990279 kJ/mol
# Density = 1.860423 g / cm^3
# Si number density = 18.646666 Si / 1000 Ang^3
#
#
#
# Elastic Constant Matrix: (Units=GPa)
#
#
# Indices 1 2 3 4 5 6 
#
# 1 127.4848 53.6594 82.2981 0.0000 0.0000 0.0000
# 2 53.6594 49.8090 38.1509 0.0000 0.0000 0.0000
# 3 82.2981 38.1509 73.9671 0.0000 0.0000 0.0000
# 4 0.0000 0.0000 0.0000 38.6532 0.0000 0.0000
# 5 0.0000 0.0000 0.0000 0.0000 33.2176 0.0000
# 6 0.0000 0.0000 0.0000 0.0000 0.0000 26.4196
#
#
#
# Elastic Compliance Matrix: (Units=1/GPa)
#
#
# Indices 1 2 3 4 5 6 
#
# 1 0.031500 -0.011721 -0.029003 0.000000 0.000000 0.000000
# 2 -0.011721 0.037549 -0.006326 0.000000 0.000000 0.000000
# 3 -0.029003 -0.006326 0.049052 0.000000 0.000000 0.000000
# 4 0.000000 0.000000 0.000000 0.025871 0.000000 0.000000
# 5 0.000000 0.000000 0.000000 0.000000 0.030104 0.000000
# 6 0.000000 0.000000 0.000000 0.000000 0.000000 0.037851
#
#
# Mechanical properties :
#
#
# Convention : Reuss Voigt Hill
#
# Bulk Modulus (GPa) = 41.66382 66.60862 54.13622
# Shear Modulus (GPa) = 15.92216 24.80159 20.36187
#
# Velocity S-wave (km/s) = 2.92531 3.65098 3.30810
# Velocity P-wave (km/s) = 5.81397 7.31928 6.60962
#
# Compressibility (1/GPa) = 0.02400164
#
# Stress axis : x y z
#
# Youngs Moduli (GPa) = 31.74565 26.63184 20.38658
#
# Poissons Ratio (x) = 0.31215 0.59127
# Poissons Ratio (y) = 0.37209 0.12897
# Poissons Ratio (z) = 0.92072 0.16847
#
# Static dielectric constant tensor:
#      x y z
#    x 1.671760 0.000000 0.000000 
#    y 0.000000 1.623770 0.000000 
#    z 0.000000 0.000000 1.600570 
# 
# From -- ./inp_files/33348.got.cif
#   From: 2010.05.17/outbox.cif.g08.bks.cpg/sg51_17_cif.got.tgz:33348.got - 2010.06.03 11:52:47.
