data_PCOD9403843
_publ_section_title
;
Structure prediction by ZEFSAII (Michael W. Deem and Ramdas Pophale) SiO2 
 PCOD9403843
Probable space group: P M M A
;
_chemical_formula_sum "Si O2"
_cell_formula_units_Z 38
_cell_length_a 9.602663
_cell_length_b 7.487481
_cell_length_c 27.200273
_cell_angle_alpha 90.000000
_cell_angle_beta 90.000000
_cell_angle_gamma 90.000000
_cell_volume 1955.693013
_symmetry_space_group_name_H-M "P M M A"
_symmetry_group_IT_number 51
_symmetry_cell_setting 'orthorhombic'
loop_
_space_group_symop_operation_xyz
x,y,z
1/2-x,-y,z
1/2+x,-y,-z
-x,y,-z
-x,-y,-z
1/2+x,y,-z
1/2-x,y,z
x,-y,z
loop_
_atom_site_type_symbol
_atom_site_label
_atom_site_fract_x
_atom_site_fract_y
_atom_site_fract_z
Si Si1 0.001231 0.000000 0.078820
Si Si2 0.409004 0.213534 0.545702
Si Si3 0.082529 0.710457 0.844968
Si Si4 0.591514 0.285361 0.641959
Si Si5 0.090272 0.282204 0.733289
Si Si6 0.250000 0.000000 0.000081
O O1 0.131051 0.000000 0.043265
O O2 0.992525 0.171079 0.114634
O O3 0.869401 0.000000 0.043092
O O4 0.500000 0.283837 0.500000
O O5 0.250000 0.282639 0.547368
O O6 0.494173 0.245512 0.595498
O O7 0.398847 0.000000 0.539477
O O8 0.250000 0.731427 0.850659
O O9 0.051254 0.500000 0.850240
O O10 0.050719 0.767689 0.788922
O O11 0.750000 0.218790 0.636119
O O12 0.599218 0.500000 0.645711
O O13 0.514933 0.220362 0.691348
O O14 0.250000 0.225386 0.723510
O O15 0.091892 0.500000 0.732764
#
# Coordination Sequence:
#
# PCOD9403843 Si02
#       6
#     4   8   8   8   8   2
#     4  11  20  42  58  84 116 158 185 244 284 334
#     4  10  21  37  56  76 101 139 183 229 277 329
#     4   9  17  33  60  87 112 149 194 233 283 346
#     4  10  20  34  53  79 111 143 175 221 279 331
#     4   8  15  30  52  77 105 140 180 223 270 325
#     4  10  24  38  62  82 120 152 196 234 292 326
#
# _framework density 19.430453
#
# number of rings (size 3 to 8) (size 9 to 14) (size 15 to 20)
#    0.000    2.526    1.053    2.526    0.000    2.947 
#    3.789    3.684    0.000    0.000    0.000    0.000 
#    0.000    0.000    0.000    0.000    0.000    0.000 
#
# Total GULP energy -211549.394853 kJ/mol
# GULP energy per Si atom -5567.089338 kJ/mol
# Density = 1.938623 g / cm^3
# Si number density = 19.430453 Si / 1000 Ang^3
#
#
#
# Elastic Constant Matrix: (Units=GPa)
#
#
# Indices 1 2 3 4 5 6 
#
# 1 177.9101 19.6250 104.9044 0.0000 0.0000 0.0000
# 2 19.6250 59.1558 28.2034 0.0000 0.0000 0.0000
# 3 104.9044 28.2034 181.0568 0.0000 0.0000 0.0000
# 4 0.0000 0.0000 0.0000 -4.1578 0.0000 0.0000
# 5 0.0000 0.0000 0.0000 0.0000 72.3303 0.0000
# 6 0.0000 0.0000 0.0000 0.0000 0.0000 -35.4549
#
#
#
# Elastic Compliance Matrix: (Units=1/GPa)
#
#
# Indices 1 2 3 4 5 6 
#
# 1 0.008552 -0.000513 -0.004875 0.000000 0.000000 0.000000
# 2 -0.000513 0.018291 -0.002552 0.000000 0.000000 0.000000
# 3 -0.004875 -0.002552 0.008745 0.000000 0.000000 0.000000
# 4 0.000000 0.000000 0.000000 -0.240511 0.000000 0.000000
# 5 0.000000 0.000000 0.000000 0.000000 0.013825 0.000000
# 6 0.000000 0.000000 0.000000 0.000000 0.000000 -0.028205
#
#
# Mechanical properties :
#
#
# Convention : Reuss Voigt Hill
#
# Bulk Modulus (GPa) = 50.73947 80.39870 65.56909
# Shear Modulus (GPa) = -25.39982 24.23617 -0.58183
#
# Velocity S-wave (km/s) = -3.61947 3.53559 -0.54780
# Velocity P-wave (km/s) = 2.95003 7.62461 5.78089
#
# Compressibility (1/GPa) = 0.01970852
#
# Stress axis : x y z
#
# Youngs Moduli (GPa) = 116.93146 54.67044 114.34654
#
# Poissons Ratio (x) = 0.02804 0.55746
# Poissons Ratio (y) = 0.05997 0.29183
# Poissons Ratio (z) = 0.57006 0.13953
#
# Static dielectric constant tensor:
#      x y z
#    x 1.664320 0.000000 0.000000 
#    y 0.000000 1.732790 0.000000 
#    z 0.000000 0.000000 1.644830 
# 
# From -- ./inp_files/34398.got.cif
#   From: 2010.05.17/outbox.cif.g08.bks.cpg/sg51_18_cif.got.tgz:34398.got - 2010.06.03 11:52:47.
