data_PCOD9403007
_publ_section_title
;
Structure prediction by ZEFSAII (Michael W. Deem and Ramdas Pophale) SiO2 
 PCOD9403007
Probable space group: P M M A
;
_chemical_formula_sum "Si O2"
_cell_formula_units_Z 48
_cell_length_a 14.413122
_cell_length_b 15.845979
_cell_length_c 10.286636
_cell_angle_alpha 90.000000
_cell_angle_beta 90.000000
_cell_angle_gamma 90.000000
_cell_volume 2349.365090
_symmetry_space_group_name_H-M "P M M A"
_symmetry_group_IT_number 51
_symmetry_cell_setting 'orthorhombic'
loop_
_space_group_symop_operation_xyz
x,y,z
1/2-x,-y,z
1/2+x,-y,-z
-x,y,-z
-x,-y,-z
1/2+x,y,-z
1/2-x,y,z
x,-y,z
loop_
_atom_site_type_symbol
_atom_site_label
_atom_site_fract_x
_atom_site_fract_y
_atom_site_fract_z
Si Si1 0.039062 0.094692 0.855415
Si Si2 0.136843 0.595576 0.955487
Si Si3 0.415353 0.092019 0.396198
Si Si4 0.636654 0.403526 0.748137
Si Si5 0.356883 0.726374 0.466896
Si Si6 0.138021 0.740241 0.758388
O O1 0.105668 0.170144 0.813732
O O2 0.957669 0.095547 0.748104
O O3 0.081044 0.000000 0.849437
O O4 0.000000 0.107414 0.000000
O O5 0.250000 0.595263 0.954290
O O6 0.107079 0.500000 0.923726
O O7 0.106823 0.665204 0.852830
O O8 0.108095 0.615484 0.103439
O O9 0.500000 0.094149 0.500000
O O10 0.359585 0.176989 0.420073
O O11 0.369219 0.000000 0.413655
O O12 0.750000 0.401399 0.749991
O O13 0.609801 0.500000 0.717126
O O14 0.603751 0.336509 0.641708
O O15 0.250000 0.699820 0.482334
O O16 0.397981 0.726267 0.611724
O O17 0.250000 0.740304 0.754927
#
# Coordination Sequence:
#
# PCOD9403007 Si02
#       6
#     8   8   8   8   8   8
#     4  10  22  39  56  76 103 140 180 212 257 320
#     4   8  15  29  49  73 103 139 174 209 256 311
#     4  10  20  37  56  73 102 142 176 207 254 317
#     4   8  15  29  49  74 105 139 172 208 255 309
#     4  10  20  32  52  83 109 134 174 220 261 301
#     4  10  20  33  53  82 109 134 171 220 265 302
#
# _framework density 20.431052000000001
#
# number of rings (size 3 to 8) (size 9 to 14) (size 15 to 20)
#    0.000    2.667    1.667    1.000    2.333    1.333 
#    0.000    5.000    0.000    5.000    0.000    0.000 
#    0.000    0.000    0.000    0.000    0.000    0.000 
#
# Total GULP energy -267835.972023 kJ/mol
# GULP energy per Si atom -5579.916084 kJ/mol
# Density = 2.038455 g / cm^3
# Si number density = 20.431052 Si / 1000 Ang^3
#
#
#
# Elastic Constant Matrix: (Units=GPa)
#
#
# Indices 1 2 3 4 5 6 
#
# 1 32.8476 19.2749 12.8172 0.0000 0.0000 0.0000
# 2 19.2749 179.0373 118.0220 0.0000 0.0000 0.0000
# 3 12.8172 118.0220 179.1643 0.0000 0.0000 0.0000
# 4 0.0000 0.0000 0.0000 41.1270 0.0000 0.0000
# 5 0.0000 0.0000 0.0000 0.0000 10.8479 0.0000
# 6 0.0000 0.0000 0.0000 0.0000 0.0000 91.7567
#
#
#
# Elastic Compliance Matrix: (Units=1/GPa)
#
#
# Indices 1 2 3 4 5 6 
#
# 1 0.032497 -0.003475 -0.000036 0.000000 0.000000 0.000000
# 2 -0.003475 0.010244 -0.006500 0.000000 0.000000 0.000000
# 3 -0.000036 -0.006500 0.009865 0.000000 0.000000 0.000000
# 4 0.000000 0.000000 0.000000 0.024315 0.000000 0.000000
# 5 0.000000 0.000000 0.000000 0.000000 0.092184 0.000000
# 6 0.000000 0.000000 0.000000 0.000000 0.000000 0.010898
#
#
# Mechanical properties :
#
#
# Convention : Reuss Voigt Hill
#
# Bulk Modulus (GPa) = 30.68823 76.80860 53.74842
# Shear Modulus (GPa) = 23.70952 44.80866 34.25909
#
# Velocity S-wave (km/s) = 3.41026 4.68820 4.09934
# Velocity P-wave (km/s) = 5.52806 8.18421 6.98358
#
# Compressibility (1/GPa) = 0.03258578
#
# Stress axis : x y z
#
# Youngs Moduli (GPa) = 30.77241 97.61745 101.36335
#
# Poissons Ratio (x) = 0.33923 0.00361
# Poissons Ratio (y) = 0.10694 0.65882
# Poissons Ratio (z) = 0.00110 0.63447
#
# Static dielectric constant tensor:
#      x y z
#    x 1.771850 0.000000 0.000000 
#    y 0.000000 1.712550 0.000000 
#    z 0.000000 0.000000 1.713860 
# 
# From -- ./inp_files/9556.got.cif
#   From: 2010.05.17/outbox.cif.g08.bks.cpg/sg51_5_cif.got.tgz:9556.got - 2010.06.03 11:52:47.
