data_PCOD9403282
_publ_section_title
;
Structure prediction by ZEFSAII (Michael W. Deem and Ramdas Pophale) SiO2 
 PCOD9403282
Probable space group: P M M A
;
_chemical_formula_sum "Si O2"
_cell_formula_units_Z 40
_cell_length_a 9.383382
_cell_length_b 7.479934
_cell_length_c 30.696541
_cell_angle_alpha 90.000000
_cell_angle_beta 90.000000
_cell_angle_gamma 90.000000
_cell_volume 2154.500519
_symmetry_space_group_name_H-M "P M M A"
_symmetry_group_IT_number 51
_symmetry_cell_setting 'orthorhombic'
loop_
_space_group_symop_operation_xyz
x,y,z
1/2-x,-y,z
1/2+x,-y,-z
-x,y,-z
-x,-y,-z
1/2+x,y,-z
1/2-x,y,z
x,-y,z
loop_
_atom_site_type_symbol
_atom_site_label
_atom_site_fract_x
_atom_site_fract_y
_atom_site_fract_z
Si Si1 0.922340 0.000000 0.706999
Si Si2 0.421069 0.000000 0.615291
Si Si3 0.586406 0.718547 0.042705
Si Si4 0.080273 0.709139 0.543957
Si Si5 0.414350 0.718254 0.127509
Si Si6 0.076619 0.295829 0.223749
O O1 0.964057 0.829818 0.736502
O O2 0.750000 0.000000 0.702102
O O3 0.997027 0.000000 0.660578
O O4 0.457820 0.829275 0.585296
O O5 0.250000 0.000000 0.622508
O O6 0.750000 0.775246 0.040775
O O7 0.585084 0.500000 0.042819
O O8 0.509628 0.776217 0.087112
O O9 0.500000 0.775403 0.000000
O O10 0.250000 0.728003 0.537021
O O11 0.048569 0.500000 0.551588
O O12 0.000000 0.765374 0.500000
O O13 0.250000 0.774565 0.121532
O O14 0.413486 0.500000 0.128144
O O15 0.466571 0.771451 0.175664
O O16 0.250000 0.297161 0.222095
O O17 0.028706 0.500000 0.229636
#
# Coordination Sequence:
#
# PCOD9403282 Si02
#       6
#     4   4   8   8   8   8
#     4  10  20  33  51  74  96 125 168 206 238 284
#     4  10  21  35  49  70 104 137 161 196 247 292
#     4   9  15  21  31  52  83 114 144 180 222 272
#     4   9  18  33  53  76 102 133 168 203 240 284
#     4   8  13  23  39  56  77 109 145 181 227 278
#     4   8  15  29  48  69  93 120 154 200 246 284
#
# _framework density 18.565787
#
# number of rings (size 3 to 8) (size 9 to 14) (size 15 to 20)
#    0.000    3.200    0.000    2.100    0.000    4.000 
#    0.000    1.000    0.000    1.200    0.000    0.700 
#    0.000    0.000    0.000    0.000    0.000    0.000 
#
# Total GULP energy -223091.183736 kJ/mol
# GULP energy per Si atom -5577.279593 kJ/mol
# Density = 1.852353 g / cm^3
# Si number density = 18.565787 Si / 1000 Ang^3
#
#
#
# Elastic Constant Matrix: (Units=GPa)
#
#
# Indices 1 2 3 4 5 6 
#
# 1 66.3903 31.1761 85.5381 0.0000 0.0000 0.0000
# 2 31.1761 79.3713 74.3749 0.0000 0.0000 0.0000
# 3 85.5381 74.3749 230.1432 0.0000 0.0000 0.0000
# 4 0.0000 0.0000 0.0000 -7.8812 0.0000 0.0000
# 5 0.0000 0.0000 0.0000 0.0000 38.7291 0.0000
# 6 0.0000 0.0000 0.0000 0.0000 0.0000 1.2461
#
#
#
# Elastic Compliance Matrix: (Units=1/GPa)
#
#
# Indices 1 2 3 4 5 6 
#
# 1 0.029093 -0.001857 -0.010213 0.000000 0.000000 0.000000
# 2 -0.001857 0.018190 -0.005188 0.000000 0.000000 0.000000
# 3 -0.010213 -0.005188 0.009818 0.000000 0.000000 0.000000
# 4 0.000000 0.000000 0.000000 -0.126884 0.000000 0.000000
# 5 0.000000 0.000000 0.000000 0.000000 0.025820 0.000000
# 6 0.000000 0.000000 0.000000 0.000000 0.000000 0.802489
#
#
# Mechanical properties :
#
#
# Convention : Reuss Voigt Hill
#
# Bulk Modulus (GPa) = 44.27924 84.23144 64.25534
# Shear Modulus (GPa) = 6.24554 18.73986 12.49270
#
# Velocity S-wave (km/s) = 1.83611 3.18051 2.59682
# Velocity P-wave (km/s) = 5.32886 7.67823 6.60878
#
# Compressibility (1/GPa) = 0.02258395
#
# Stress axis : x y z
#
# Youngs Moduli (GPa) = 34.37256 54.97499 101.85814
#
# Poissons Ratio (x) = 0.10211 1.04026
# Poissons Ratio (y) = 0.06384 0.52845
# Poissons Ratio (z) = 0.35104 0.28522
#
# Static dielectric constant tensor:
#      x y z
#    x 1.613990 0.000000 0.000000 
#    y 0.000000 1.700050 0.000000 
#    z 0.000000 0.000000 1.607920 
# 
# From -- ./inp_files/36010.got.cif
#   From: 2010.05.17/outbox.cif.g08.bks.cpg/sg51_19_cif.got.tgz:36010.got - 2010.06.03 11:52:47.
