data_PCOD9403341
_publ_section_title
;
Structure prediction by ZEFSAII (Michael W. Deem and Ramdas Pophale) SiO2 
 PCOD9403341
Probable space group: P M M A
;
_chemical_formula_sum "Si O2"
_cell_formula_units_Z 64
_cell_length_a 23.522891
_cell_length_b 8.331200
_cell_length_c 16.539865
_cell_angle_alpha 90.000000
_cell_angle_beta 90.000000
_cell_angle_gamma 90.000000
_cell_volume 3241.382007
_symmetry_space_group_name_H-M "P M M A"
_symmetry_group_IT_number 51
_symmetry_cell_setting 'orthorhombic'
loop_
_space_group_symop_operation_xyz
x,y,z
1/2-x,-y,z
1/2+x,-y,-z
-x,y,-z
-x,-y,-z
1/2+x,y,-z
1/2-x,y,z
x,-y,z
loop_
_atom_site_type_symbol
_atom_site_label
_atom_site_fract_x
_atom_site_fract_y
_atom_site_fract_z
Si Si1 0.183989 0.306808 0.167106
Si Si2 0.419165 0.313576 0.727530
Si Si3 0.318107 0.817580 0.460775
Si Si4 0.001399 0.189284 0.594804
Si Si5 0.091784 0.194600 0.046544
Si Si6 0.388325 0.314455 0.322104
Si Si7 0.815354 0.693835 0.364078
Si Si8 0.528509 0.189858 0.112096
O O1 0.250000 0.249462 0.169632
O O2 0.186226 0.500000 0.173480
O O3 0.148900 0.261183 0.086730
O O4 0.144769 0.250173 0.242860
O O5 0.418517 0.500000 0.749270
O O6 0.452021 0.288103 0.643779
O O7 0.355592 0.256354 0.709030
O O8 0.450434 0.223454 0.798844
O O9 0.250000 0.811420 0.456948
O O10 0.343898 0.699209 0.395457
O O11 0.334575 0.770840 0.551546
O O12 0.336825 0.000000 0.443175
O O13 0.943019 0.221795 0.643623
O O14 0.000000 0.234899 0.500000
O O15 0.014642 0.000000 0.598433
O O16 0.035726 0.249575 0.097054
O O17 0.096034 0.000000 0.049013
O O18 0.073630 0.246733 0.955812
O O19 0.404630 0.500000 0.307406
O O20 0.750000 0.737503 0.350957
O O21 0.819000 0.500000 0.372180
O O22 0.524610 0.000000 0.098866
#
# Coordination Sequence:
#
# PCOD9403341 Si02
#       8
#     8   8   8   8   8   8   8   8
#     4  10  22  38  55  80 115 151 185 226 279 335
#     4  11  22  35  55  83 110 139 179 221 265 323
#     4  10  20  33  51  76 104 137 181 227 268 314
#     4  11  24  39  55  78 112 151 187 230 285 335
#     4   9  19  37  60  84 108 139 180 222 269 326
#     4  11  22  36  55  78 107 145 189 232 275 329
#     4   9  19  36  55  74 101 138 176 216 262 310
#     4   9  19  37  60  84 111 141 175 222 276 326
#
# _framework density 19.744665000000001
#
# number of rings (size 3 to 8) (size 9 to 14) (size 15 to 20)
#    0.000    2.000    0.000    4.125    0.000    9.500 
#    0.000    1.875    0.000    2.250    0.000    0.000 
#    0.000    0.000    0.000    0.000    0.000    0.000 
#
# Total GULP energy -357166.520898 kJ/mol
# GULP energy per Si atom -5580.726889 kJ/mol
# Density = 1.969973 g / cm^3
# Si number density = 19.744665 Si / 1000 Ang^3
#
#
#
# Elastic Constant Matrix: (Units=GPa)
#
#
# Indices 1 2 3 4 5 6 
#
# 1 79.1467 0.6024 32.0741 0.0000 0.0000 0.0000
# 2 0.6024 7.9062 -3.5340 0.0000 0.0000 0.0000
# 3 32.0741 -3.5340 64.0694 0.0000 0.0000 0.0000
# 4 0.0000 0.0000 0.0000 35.1484 0.0000 0.0000
# 5 0.0000 0.0000 0.0000 0.0000 30.1283 0.0000
# 6 0.0000 0.0000 0.0000 0.0000 0.0000 16.7338
#
#
#
# Elastic Compliance Matrix: (Units=1/GPa)
#
#
# Indices 1 2 3 4 5 6 
#
# 1 0.016036 -0.004932 -0.008300 0.000000 0.000000 0.000000
# 2 -0.004932 0.131196 0.009706 0.000000 0.000000 0.000000
# 3 -0.008300 0.009706 0.020298 0.000000 0.000000 0.000000
# 4 0.000000 0.000000 0.000000 0.028451 0.000000 0.000000
# 5 0.000000 0.000000 0.000000 0.000000 0.033191 0.000000
# 6 0.000000 0.000000 0.000000 0.000000 0.000000 0.059759
#
#
# Mechanical properties :
#
#
# Convention : Reuss Voigt Hill
#
# Bulk Modulus (GPa) = 6.23135 23.26746 14.74941
# Shear Modulus (GPa) = 14.30710 24.53409 19.42059
#
# Velocity S-wave (km/s) = 2.69477 3.52883 3.13962
# Velocity P-wave (km/s) = 3.58402 5.33041 4.54194
#
# Compressibility (1/GPa) = 0.16047879
#
# Stress axis : x y z
#
# Youngs Moduli (GPa) = 62.36060 7.62216 49.26497
#
# Poissons Ratio (x) = 0.03759 0.40889
# Poissons Ratio (y) = 0.30754 -0.47814
# Poissons Ratio (z) = 0.51758 -0.07398
#
# Static dielectric constant tensor:
#      x y z
#    x 1.743540 0.000000 0.000000 
#    y 0.000000 1.690430 0.000000 
#    z 0.000000 0.000000 1.674580 
# 
# From -- ./inp_files/26198.got.cif
#   From: 2010.05.17/outbox.cif.g08.bks.cpg/sg51_14_cif.got.tgz:26198.got - 2010.06.03 11:52:47.
