data_PCOD9403992
_publ_section_title
;
Structure prediction by ZEFSAII (Michael W. Deem and Ramdas Pophale) SiO2 
 PCOD9403992
Probable space group: P M M A
;
_chemical_formula_sum "Si O2"
_cell_formula_units_Z 56
_cell_length_a 20.121158
_cell_length_b 7.739505
_cell_length_c 16.676541
_cell_angle_alpha 90.000000
_cell_angle_beta 90.000000
_cell_angle_gamma 90.000000
_cell_volume 2597.001091
_symmetry_space_group_name_H-M "P M M A"
_symmetry_group_IT_number 51
_symmetry_cell_setting 'orthorhombic'
loop_
_space_group_symop_operation_xyz
x,y,z
1/2-x,-y,z
1/2+x,-y,-z
-x,y,-z
-x,-y,-z
1/2+x,y,-z
1/2-x,y,z
x,-y,z
loop_
_atom_site_type_symbol
_atom_site_label
_atom_site_fract_x
_atom_site_fract_y
_atom_site_fract_z
Si Si1 0.826413 0.292641 0.813189
Si Si2 0.577862 0.200576 0.669828
Si Si3 0.324955 0.207539 0.465984
Si Si4 0.175222 0.291248 0.650460
Si Si5 0.174047 0.205155 0.001919
Si Si6 0.553226 0.297810 0.248953
Si Si7 0.040173 0.300453 0.925514
O O1 0.750000 0.240973 0.796341
O O2 0.831029 0.500000 0.808816
O O3 0.875555 0.215736 0.748025
O O4 0.841327 0.238809 0.904344
O O5 0.620310 0.274662 0.595904
O O6 0.508214 0.286447 0.690698
O O7 0.563700 0.000000 0.653533
O O8 0.250000 0.273495 0.449174
O O9 0.340407 0.245493 0.558399
O O10 0.322905 0.000000 0.455877
O O11 0.250000 0.229175 0.668025
O O12 0.175716 0.500000 0.655050
O O13 0.119194 0.223408 0.710435
O O14 0.250000 0.265364 0.987787
O O15 0.171672 0.000000 0.987602
O O16 0.117620 0.293232 0.949056
O O17 0.567189 0.500000 0.233334
O O18 0.532957 0.221164 0.162720
O O19 0.016413 0.500000 0.920094
O O20 0.000000 0.219899 0.000000
#
# Coordination Sequence:
#
# PCOD9403992 Si02
#       7
#     8   8   8   8   8   8   8
#     4  10  20  34  54  80 111 148 187 226 272 326
#     4  11  22  35  54  81 114 148 183 224 270 326
#     4   9  19  36  57  81 110 145 182 221 268 321
#     4   9  19  37  59  81 106 140 184 231 278 328
#     4  10  21  36  55  81 111 142 180 228 279 330
#     4  10  22  38  56  81 112 144 181 229 281 330
#     4  10  21  37  57  80 108 145 188 231 276 330
#
# _framework density 21.563331999999999
#
# number of rings (size 3 to 8) (size 9 to 14) (size 15 to 20)
#    0.000    2.143    0.000    2.571    0.000    7.143 
#    0.000    5.714    0.000    1.714    0.000    0.000 
#    0.000    0.000    0.000    0.000    0.000    0.000 
#
# Total GULP energy -312841.027117 kJ/mol
# GULP energy per Si atom -5586.446913 kJ/mol
# Density = 2.151425 g / cm^3
# Si number density = 21.563332 Si / 1000 Ang^3
#
#
#
# Elastic Constant Matrix: (Units=GPa)
#
#
# Indices 1 2 3 4 5 6 
#
# 1 99.1455 -1.1183 80.6700 0.0000 0.0000 0.0000
# 2 -1.1183 33.4465 1.5784 0.0000 0.0000 0.0000
# 3 80.6700 1.5784 112.4767 0.0000 0.0000 0.0000
# 4 0.0000 0.0000 0.0000 23.4640 0.0000 0.0000
# 5 0.0000 0.0000 0.0000 0.0000 37.1409 0.0000
# 6 0.0000 0.0000 0.0000 0.0000 0.0000 7.1054
#
#
#
# Elastic Compliance Matrix: (Units=1/GPa)
#
#
# Indices 1 2 3 4 5 6 
#
# 1 0.024309 0.001637 -0.017458 0.000000 0.000000 0.000000
# 2 0.001637 0.030029 -0.001595 0.000000 0.000000 0.000000
# 3 -0.017458 -0.001595 0.021434 0.000000 0.000000 0.000000
# 4 0.000000 0.000000 0.000000 0.042618 0.000000 0.000000
# 5 0.000000 0.000000 0.000000 0.000000 0.026925 0.000000
# 6 0.000000 0.000000 0.000000 0.000000 0.000000 0.140737
#
#
# Mechanical properties :
#
#
# Convention : Reuss Voigt Hill
#
# Bulk Modulus (GPa) = 24.42659 45.25877 34.84268
# Shear Modulus (GPa) = 14.94625 24.47130 19.70878
#
# Velocity S-wave (km/s) = 2.63560 3.37242 3.02651
# Velocity P-wave (km/s) = 4.54029 6.01653 5.32977
#
# Compressibility (1/GPa) = 0.04093900
#
# Stress axis : x y z
#
# Youngs Moduli (GPa) = 41.13626 33.30166 46.65414
#
# Poissons Ratio (x) = -0.05450 0.81449
# Poissons Ratio (y) = -0.06733 0.07442
# Poissons Ratio (z) = 0.71816 0.05312
#
# Static dielectric constant tensor:
#      x y z
#    x 1.779520 0.000000 0.000000 
#    y 0.000000 1.815020 0.000000 
#    z 0.000000 0.000000 1.768700 
# 
# From -- ./inp_files/25619.got.cif
#   From: 2010.05.17/outbox.cif.g08.bks.cpg/sg51_13_cif.got.tgz:25619.got - 2010.06.03 11:52:47.
