data_PCOD9403985
_publ_section_title
;
Structure prediction by ZEFSAII (Michael W. Deem and Ramdas Pophale) SiO2 
 PCOD9403985
Probable space group: P M M A
;
_chemical_formula_sum "Si O2"
_cell_formula_units_Z 44
_cell_length_a 9.530083
_cell_length_b 8.140516
_cell_length_c 30.932984
_cell_angle_alpha 90.000000
_cell_angle_beta 90.000000
_cell_angle_gamma 90.000000
_cell_volume 2399.774500
_symmetry_space_group_name_H-M "P M M A"
_symmetry_group_IT_number 51
_symmetry_cell_setting 'orthorhombic'
loop_
_space_group_symop_operation_xyz
x,y,z
1/2-x,-y,z
1/2+x,-y,-z
-x,y,-z
-x,-y,-z
1/2+x,y,-z
1/2-x,y,z
x,-y,z
loop_
_atom_site_type_symbol
_atom_site_label
_atom_site_fract_x
_atom_site_fract_y
_atom_site_fract_z
Si Si1 0.591320 0.695699 0.216409
Si Si2 0.589427 0.698029 0.959380
Si Si3 0.089824 0.802413 0.297852
Si Si4 0.079673 0.188893 0.395449
Si Si5 0.079552 0.500000 0.454639
Si Si6 0.589451 0.804163 0.865364
O O1 0.750000 0.762639 0.216372
O O2 0.598358 0.500000 0.214816
O O3 0.509316 0.743794 0.259773
O O4 0.505362 0.752477 0.174590
O O5 0.750000 0.758053 0.962287
O O6 0.591762 0.500000 0.961389
O O7 0.534896 0.745739 0.912025
O O8 0.500000 0.758709 0.000000
O O9 0.250000 0.740148 0.292208
O O10 0.039013 0.763192 0.346388
O O11 0.096246 0.000000 0.296059
O O12 0.250000 0.182924 0.394966
O O13 0.040458 0.334013 0.428208
O O14 0.032581 0.000000 0.404934
O O15 0.250000 0.500000 0.459754
O O16 0.000000 0.500000 0.500000
O O17 0.750000 0.740280 0.860264
O O18 0.595883 0.000000 0.866072
#
# Coordination Sequence:
#
# PCOD9403985 Si02
#       6
#     8   8   8   8   4   8
#     4  11  24  37  50  75 109 142 174 212 262 319
#     4   9  18  33  53  76 102 132 167 209 257 307
#     4   9  18  34  57  82 104 132 176 224 266 314
#     4   8  16  32  54  80 108 139 181 229 271 320
#     4  10  20  34  54  80 110 146 184 226 275 320
#     4  10  21  37  56  77 102 135 177 220 258 306
#
# _framework density 18.335056000000002
#
# number of rings (size 3 to 8) (size 9 to 14) (size 15 to 20)
#    0.000    2.545    0.000    2.727    1.273    6.545 
#    0.000    2.727    0.000    1.091    0.000    0.000 
#    0.000    0.000    0.000    0.000    0.000    0.000 
#
# Total GULP energy -245366.859130 kJ/mol
# GULP energy per Si atom -5576.519526 kJ/mol
# Density = 1.829332 g / cm^3
# Si number density = 18.335056 Si / 1000 Ang^3
#
#
#
# Elastic Constant Matrix: (Units=GPa)
#
#
# Indices 1 2 3 4 5 6 
#
# 1 65.1116 27.7119 75.6730 0.0000 0.0000 0.0000
# 2 27.7119 54.0293 66.7241 0.0000 0.0000 0.0000
# 3 75.6730 66.7241 192.0393 0.0000 0.0000 0.0000
# 4 0.0000 0.0000 0.0000 50.2983 0.0000 0.0000
# 5 0.0000 0.0000 0.0000 0.0000 33.1921 0.0000
# 6 0.0000 0.0000 0.0000 0.0000 0.0000 15.3888
#
#
#
# Elastic Compliance Matrix: (Units=1/GPa)
#
#
# Indices 1 2 3 4 5 6 
#
# 1 0.028387 -0.001306 -0.010732 0.000000 0.000000 0.000000
# 2 -0.001306 0.032479 -0.010770 0.000000 0.000000 0.000000
# 3 -0.010732 -0.010770 0.013178 0.000000 0.000000 0.000000
# 4 0.000000 0.000000 0.000000 0.019881 0.000000 0.000000
# 5 0.000000 0.000000 0.000000 0.000000 0.030128 0.000000
# 6 0.000000 0.000000 0.000000 0.000000 0.000000 0.064982
#
#
# Mechanical properties :
#
#
# Convention : Reuss Voigt Hill
#
# Bulk Modulus (GPa) = 35.17704 72.37759 53.77732
# Shear Modulus (GPa) = 20.48100 29.18057 24.83079
#
# Velocity S-wave (km/s) = 3.34584 3.99371 3.68405
# Velocity P-wave (km/s) = 5.84410 7.79917 6.89132
#
# Compressibility (1/GPa) = 0.02842763
#
# Stress axis : x y z
#
# Youngs Moduli (GPa) = 35.22742 30.78898 75.88219
#
# Poissons Ratio (x) = 0.04022 0.81437
# Poissons Ratio (y) = 0.04601 0.81726
# Poissons Ratio (z) = 0.37806 0.33160
#
# Static dielectric constant tensor:
#      x y z
#    x 1.639190 0.000000 0.000000 
#    y 0.000000 1.644420 0.000000 
#    z 0.000000 0.000000 1.619140 
# 
# From -- ./inp_files/36801.got.cif
#   From: 2010.05.17/outbox.cif.g08.bks.cpg/sg51_19_cif.got.tgz:36801.got - 2010.06.03 11:52:47.
