data_PCOD9403061
_publ_section_title
;
Structure prediction by ZEFSAII (Michael W. Deem and Ramdas Pophale) SiO2 
 PCOD9403061
Probable space group: P M M A
;
_chemical_formula_sum "Si O2"
_cell_formula_units_Z 64
_cell_length_a 8.892705
_cell_length_b 14.555119
_cell_length_c 29.270243
_cell_angle_alpha 90.000000
_cell_angle_beta 90.000000
_cell_angle_gamma 90.000000
_cell_volume 3788.575741
_symmetry_space_group_name_H-M "P M M A"
_symmetry_group_IT_number 51
_symmetry_cell_setting 'orthorhombic'
loop_
_space_group_symop_operation_xyz
x,y,z
1/2-x,-y,z
1/2+x,-y,-z
-x,y,-z
-x,-y,-z
1/2+x,y,-z
1/2-x,y,z
x,-y,z
loop_
_atom_site_type_symbol
_atom_site_label
_atom_site_fract_x
_atom_site_fract_y
_atom_site_fract_z
Si Si1 0.422841 0.888385 0.546853
Si Si2 0.929815 0.108111 0.642987
Si Si3 0.070303 0.607405 0.231460
Si Si4 0.428503 0.777345 0.725157
Si Si5 0.430482 0.291379 0.047433
Si Si6 0.924405 0.389578 0.133891
Si Si7 0.426782 0.890451 0.193688
Si Si8 0.432706 0.897329 0.088617
O O1 0.500000 0.856288 0.500000
O O2 0.250000 0.858178 0.549581
O O3 0.512398 0.864441 0.592723
O O4 0.422504 0.000000 0.545114
O O5 0.750000 0.115446 0.645399
O O6 0.004687 0.170036 0.681610
O O7 0.969100 0.000000 0.650153
O O8 0.250000 0.616895 0.230975
O O9 0.033336 0.500000 0.239495
O O10 0.998462 0.676576 0.267617
O O11 0.005508 0.633358 0.181542
O O12 0.250000 0.772275 0.722204
O O13 0.478430 0.835450 0.769648
O O14 0.250000 0.296259 0.045904
O O15 0.491526 0.346513 0.090858
O O16 0.478664 0.185415 0.056165
O O17 0.500000 0.324805 0.000000
O O18 0.750000 0.360214 0.135210
O O19 0.928075 0.500000 0.129728
O O20 0.250000 0.864734 0.197989
O O21 0.474772 0.875328 0.141155
O O22 0.436771 0.000000 0.201941
O O23 0.250000 0.900083 0.088629
O O24 0.486390 0.000000 0.076839
#
# Coordination Sequence:
#
# PCOD9403061 Si02
#       8
#     8   8   8   8   8   8   8   8
#     4   9  16  27  44  66  94 131 176 222 265 308
#     4  10  20  33  48  68  99 140 183 223 261 302
#     4  10  21  38  59  79  99 127 163 200 241 295
#     4  12  23  32  47  72 104 137 167 206 253 299
#     4  11  22  35  53  75 100 129 159 194 236 284
#     4  10  21  38  59  81 103 124 150 190 239 291
#     4   9  17  31  51  72  95 127 167 206 243 289
#     4   8  16  32  52  71  91 120 159 198 234 274
#
# _framework density 16.892890999999999
#
# number of rings (size 3 to 8) (size 9 to 14) (size 15 to 20)
#    0.000    2.125    0.000    4.875    0.000    7.000 
#    0.000    0.625    0.000    2.625    0.000    0.000 
#    0.000    0.500    0.000    1.875    0.000    2.875 
#
# Total GULP energy -357325.603781 kJ/mol
# GULP energy per Si atom -5583.212559 kJ/mol
# Density = 1.685444 g / cm^3
# Si number density = 16.892891 Si / 1000 Ang^3
#
#
#
# Elastic Constant Matrix: (Units=GPa)
#
#
# Indices 1 2 3 4 5 6 
#
# 1 95.1933 42.3484 53.8013 0.0000 0.0000 0.0000
# 2 42.3484 55.4051 56.6740 0.0000 0.0000 0.0000
# 3 53.8013 56.6740 99.5579 0.0000 0.0000 0.0000
# 4 0.0000 0.0000 0.0000 16.3975 0.0000 0.0000
# 5 0.0000 0.0000 0.0000 0.0000 27.0794 0.0000
# 6 0.0000 0.0000 0.0000 0.0000 0.0000 19.0743
#
#
#
# Elastic Compliance Matrix: (Units=1/GPa)
#
#
# Indices 1 2 3 4 5 6 
#
# 1 0.016616 -0.008416 -0.004189 0.000000 0.000000 0.000000
# 2 -0.008416 0.047472 -0.022476 0.000000 0.000000 0.000000
# 3 -0.004189 -0.022476 0.025102 0.000000 0.000000 0.000000
# 4 0.000000 0.000000 0.000000 0.060985 0.000000 0.000000
# 5 0.000000 0.000000 0.000000 0.000000 0.036928 0.000000
# 6 0.000000 0.000000 0.000000 0.000000 0.000000 0.052427
#
#
# Mechanical properties :
#
#
# Convention : Reuss Voigt Hill
#
# Bulk Modulus (GPa) = 52.54852 61.75595 57.15224
# Shear Modulus (GPa) = 15.82107 18.99910 17.41008
#
# Velocity S-wave (km/s) = 3.06363 3.35726 3.21380
# Velocity P-wave (km/s) = 6.60976 7.18784 6.90485
#
# Compressibility (1/GPa) = 0.01903003
#
# Stress axis : x y z
#
# Youngs Moduli (GPa) = 60.18209 21.06509 39.83680
#
# Poissons Ratio (x) = 0.17728 0.16686
# Poissons Ratio (y) = 0.50649 0.89536
# Poissons Ratio (z) = 0.25208 0.47345
#
# Static dielectric constant tensor:
#      x y z
#    x 1.561980 0.000000 0.000000 
#    y 0.000000 1.583070 0.000000 
#    z 0.000000 0.000000 1.548090 
# 
# From -- ./inp_files/37601.got.cif
#   From: 2010.05.17/outbox.cif.g08.bks.cpg/sg51_19_cif.got.tgz:37601.got - 2010.06.03 11:52:47.
