data_PCOD9404249
_publ_section_title
;
Structure prediction by ZEFSAII (Michael W. Deem and Ramdas Pophale) SiO2 
 PCOD9404249
Probable space group: P M M A
;
_chemical_formula_sum "Si O2"
_cell_formula_units_Z 64
_cell_length_a 18.496966
_cell_length_b 9.056800
_cell_length_c 22.447621
_cell_angle_alpha 90.000000
_cell_angle_beta 90.000000
_cell_angle_gamma 90.000000
_cell_volume 3760.500033
_symmetry_space_group_name_H-M "P M M A"
_symmetry_group_IT_number 51
_symmetry_cell_setting 'orthorhombic'
loop_
_space_group_symop_operation_xyz
x,y,z
1/2-x,-y,z
1/2+x,-y,-z
-x,y,-z
-x,-y,-z
1/2+x,y,-z
1/2-x,y,z
x,-y,z
loop_
_atom_site_type_symbol
_atom_site_label
_atom_site_fract_x
_atom_site_fract_y
_atom_site_fract_z
Si Si1 0.911775 0.675577 0.620027
Si Si2 0.545501 0.825690 0.822337
Si Si3 0.165888 0.176417 0.270535
Si Si4 0.569684 0.821403 0.369271
Si Si5 0.911926 0.169543 0.499742
Si Si6 0.170367 0.322310 0.873804
Si Si7 0.022128 0.321763 0.933998
Si Si8 0.390986 0.173929 0.759961
O O1 0.915396 0.500000 0.622535
O O2 0.859873 0.740054 0.670547
O O3 0.888262 0.729579 0.554298
O O4 0.991481 0.744247 0.631502
O O5 0.614760 0.778232 0.784359
O O6 0.530611 0.739357 0.883023
O O7 0.474394 0.806649 0.780932
O O8 0.551631 0.000000 0.835373
O O9 0.250000 0.201788 0.258479
O O10 0.154556 0.000000 0.279447
O O11 0.607329 0.785558 0.432300
O O12 0.612406 0.782613 0.309235
O O13 0.558153 0.000000 0.368757
O O14 0.000000 0.171065 0.500000
O O15 0.889411 0.000000 0.510271
O O16 0.250000 0.274619 0.894246
O O17 0.168842 0.500000 0.872678
O O18 0.103061 0.273200 0.914671
O O19 0.155739 0.263185 0.807348
O O20 0.020399 0.500000 0.932733
O O21 0.000000 0.273000 0.000000
O O22 0.373763 0.000000 0.764968
#
# Coordination Sequence:
#
# PCOD9404249 Si02
#       8
#     8   8   8   8   8   8   8   8
#     4  11  20  28  43  67  98 127 158 208 258 302
#     4   9  17  31  51  74  98 123 158 204 247 287
#     4  10  20  35  53  69  92 131 173 210 254 309
#     4   9  16  29  47  68  94 125 163 204 247 298
#     4   8  15  27  44  63  88 123 160 199 243 295
#     4   9  18  32  49  71 101 133 164 197 238 292
#     4   9  18  33  53  76 102 134 169 199 233 284
#     4   9  16  28  49  73  97 123 157 203 246 285
#
# _framework density 17.019012
#
# number of rings (size 3 to 8) (size 9 to 14) (size 15 to 20)
#    0.000    2.750    1.250    1.875    0.000    4.000 
#    0.000    0.625    0.000    1.500    0.000    1.750 
#    0.000    0.000    0.000    0.000    0.000    0.000 
#
# Total GULP energy -356623.120410 kJ/mol
# GULP energy per Si atom -5572.236256 kJ/mol
# Density = 1.698028 g / cm^3
# Si number density = 17.019012 Si / 1000 Ang^3
#
#
#
# Elastic Constant Matrix: (Units=GPa)
#
#
# Indices 1 2 3 4 5 6 
#
# 1 72.5427 29.2831 51.2589 0.0000 0.0000 0.0000
# 2 29.2831 26.2814 37.9207 0.0000 0.0000 0.0000
# 3 51.2589 37.9207 152.8106 0.0000 0.0000 0.0000
# 4 0.0000 0.0000 0.0000 -21.6803 0.0000 0.0000
# 5 0.0000 0.0000 0.0000 0.0000 13.2068 0.0000
# 6 0.0000 0.0000 0.0000 0.0000 0.0000 12.7808
#
#
#
# Elastic Compliance Matrix: (Units=1/GPa)
#
#
# Indices 1 2 3 4 5 6 
#
# 1 0.025583 -0.025116 -0.002349 0.000000 0.000000 0.000000
# 2 -0.025116 0.083930 -0.012403 0.000000 0.000000 0.000000
# 3 -0.002349 -0.012403 0.010410 0.000000 0.000000 0.000000
# 4 0.000000 0.000000 0.000000 -0.046125 0.000000 0.000000
# 5 0.000000 0.000000 0.000000 0.000000 0.075718 0.000000
# 6 0.000000 0.000000 0.000000 0.000000 0.000000 0.078242
#
#
# Mechanical properties :
#
#
# Convention : Reuss Voigt Hill
#
# Bulk Modulus (GPa) = 24.88327 54.28446 39.58386
# Shear Modulus (GPa) = 15.58166 9.73961 12.66063
#
# Velocity S-wave (km/s) = 3.02908 2.39483 2.73043
# Velocity P-wave (km/s) = 5.18521 6.29385 5.76623
#
# Compressibility (1/GPa) = 0.04018764
#
# Stress axis : x y z
#
# Youngs Moduli (GPa) = 39.08802 11.91470 96.06324
#
# Poissons Ratio (x) = 0.29925 0.22566
# Poissons Ratio (y) = 0.98173 1.19145
# Poissons Ratio (z) = 0.09182 0.14777
#
# Static dielectric constant tensor:
#      x y z
#    x 1.573220 0.000000 0.000000 
#    y 0.000000 1.568670 0.000000 
#    z 0.000000 0.000000 1.584890 
# 
# From -- ./inp_files/33819.got.cif
#   From: 2010.05.17/outbox.cif.g08.bks.cpg/sg51_17_cif.got.tgz:33819.got - 2010.06.03 11:52:47.
