data_PCOD9404735
_publ_section_title
;
Structure prediction by ZEFSAII (Michael W. Deem and Ramdas Pophale) SiO2 
 PCOD9404735
Probable space group: P M M A
;
_chemical_formula_sum "Si O2"
_cell_formula_units_Z 40
_cell_length_a 18.545554
_cell_length_b 7.859500
_cell_length_c 13.754609
_cell_angle_alpha 90.000000
_cell_angle_beta 90.000000
_cell_angle_gamma 90.000000
_cell_volume 2004.855050
_symmetry_space_group_name_H-M "P M M A"
_symmetry_group_IT_number 51
_symmetry_cell_setting 'orthorhombic'
loop_
_space_group_symop_operation_xyz
x,y,z
1/2-x,-y,z
1/2+x,-y,-z
-x,y,-z
-x,-y,-z
1/2+x,y,-z
1/2-x,y,z
x,-y,z
loop_
_atom_site_type_symbol
_atom_site_label
_atom_site_fract_x
_atom_site_fract_y
_atom_site_fract_z
Si Si1 0.566484 0.187222 0.424537
Si Si2 0.912910 0.500000 0.522858
Si Si3 0.536919 0.205591 0.204571
Si Si4 0.623343 0.204842 0.855851
Si Si5 0.330416 0.206555 0.923007
Si Si6 0.829534 0.500000 0.715881
O O1 0.500000 0.169159 0.500000
O O2 0.615624 0.330360 0.471770
O O3 0.539475 0.246990 0.318840
O O4 0.599421 0.000000 0.413516
O O5 0.891119 0.500000 0.634230
O O6 0.000000 0.500000 0.500000
O O7 0.461245 0.250089 0.155380
O O8 0.606321 0.271580 0.146872
O O9 0.539331 0.000000 0.200045
O O10 0.662340 0.330863 0.781402
O O11 0.632350 0.000000 0.836593
O O12 0.650198 0.239510 0.964727
O O13 0.250000 0.269090 0.900567
O O14 0.329355 0.000000 0.913856
O O15 0.750000 0.500000 0.670468
#
# Coordination Sequence:
#
# PCOD9404735 Si02
#       6
#     8   4   8   8   8   4
#     4   9  17  31  53  80 106 135 177 227 273 317
#     4  10  20  36  57  78 105 142 180 221 273 329
#     4   9  17  31  55  85 114 147 193 240 278 333
#     4  10  20  37  60  83 112 152 192 230 279 341
#     4   9  17  31  53  82 117 154 188 229 285 340
#     4  12  26  40  58  88 118 144 185 241 293 339
#
# _framework density 19.951568000000002
#
# number of rings (size 3 to 8) (size 9 to 14) (size 15 to 20)
#    0.000    2.400    0.000    3.600    0.000    6.000 
#    0.000    4.000    0.000    1.200    0.000    0.000 
#    0.000    0.000    0.000    0.000    0.000    0.000 
#
# Total GULP energy -222942.914807 kJ/mol
# GULP energy per Si atom -5573.572870 kJ/mol
# Density = 1.990616 g / cm^3
# Si number density = 19.951568 Si / 1000 Ang^3
#
#
#
# Elastic Constant Matrix: (Units=GPa)
#
#
# Indices 1 2 3 4 5 6 
#
# 1 98.8490 15.4922 51.7356 0.0000 0.0000 0.0000
# 2 15.4922 74.3912 15.5537 0.0000 0.0000 0.0000
# 3 51.7356 15.5537 69.9025 0.0000 0.0000 0.0000
# 4 0.0000 0.0000 0.0000 56.0676 0.0000 0.0000
# 5 0.0000 0.0000 0.0000 0.0000 3.3378 0.0000
# 6 0.0000 0.0000 0.0000 0.0000 0.0000 11.5375
#
#
#
# Elastic Compliance Matrix: (Units=1/GPa)
#
#
# Indices 1 2 3 4 5 6 
#
# 1 0.016574 -0.000930 -0.012060 0.000000 0.000000 0.000000
# 2 -0.000930 0.014151 -0.002460 0.000000 0.000000 0.000000
# 3 -0.012060 -0.002460 0.023778 0.000000 0.000000 0.000000
# 4 0.000000 0.000000 0.000000 0.017836 0.000000 0.000000
# 5 0.000000 0.000000 0.000000 0.000000 0.299600 0.000000
# 6 0.000000 0.000000 0.000000 0.000000 0.000000 0.086674
#
#
# Mechanical properties :
#
#
# Convention : Reuss Voigt Hill
#
# Bulk Modulus (GPa) = 42.36727 45.41177 43.88952
# Shear Modulus (GPa) = 10.05266 24.87931 17.46599
#
# Velocity S-wave (km/s) = 2.24710 3.53510 2.96196
# Velocity P-wave (km/s) = 5.29280 6.28275 5.80891
#
# Compressibility (1/GPa) = 0.02360313
#
# Stress axis : x y z
#
# Youngs Moduli (GPa) = 60.33553 70.66874 42.05482
#
# Poissons Ratio (x) = 0.06573 0.50716
# Poissons Ratio (y) = 0.05612 0.10346
# Poissons Ratio (z) = 0.72762 0.17386
#
# Static dielectric constant tensor:
#      x y z
#    x 1.701900 0.000000 0.000000 
#    y 0.000000 1.825380 0.000000 
#    z 0.000000 0.000000 1.722910 
# 
# From -- ./inp_files/17969.got.cif
#   From: 2010.05.17/outbox.cif.g08.bks.cpg/sg51_9_cif.got.tgz:17969.got - 2010.06.03 11:52:47.
