data_PCOD9404794
_publ_section_title
;
Structure prediction by ZEFSAII (Michael W. Deem and Ramdas Pophale) SiO2 
 PCOD9404794
Probable space group: P M M A
;
_chemical_formula_sum "Si O2"
_cell_formula_units_Z 64
_cell_length_a 18.046349
_cell_length_b 7.797260
_cell_length_c 22.460157
_cell_angle_alpha 90.000000
_cell_angle_beta 90.000000
_cell_angle_gamma 90.000000
_cell_volume 3160.415301
_symmetry_space_group_name_H-M "P M M A"
_symmetry_group_IT_number 51
_symmetry_cell_setting 'orthorhombic'
loop_
_space_group_symop_operation_xyz
x,y,z
1/2-x,-y,z
1/2+x,-y,-z
-x,y,-z
-x,-y,-z
1/2+x,y,-z
1/2-x,y,z
x,-y,z
loop_
_atom_site_type_symbol
_atom_site_label
_atom_site_fract_x
_atom_site_fract_y
_atom_site_fract_z
Si Si1 0.330138 0.794172 0.375169
Si Si2 0.019721 0.794175 0.434665
Si Si3 0.166020 0.291636 0.998201
Si Si4 0.052186 0.293414 0.685428
Si Si5 0.665872 0.292350 0.219106
Si Si6 0.940092 0.801998 0.109365
Si Si7 0.899394 0.707286 0.746347
Si Si8 0.394387 0.697585 0.122492
O O1 0.250000 0.727918 0.394477
O O2 0.401479 0.725834 0.410463
O O3 0.343357 0.755783 0.305715
O O4 0.330104 0.000000 0.382059
O O5 0.000000 0.727486 0.500000
O O6 0.960409 0.758780 0.382667
O O7 0.026157 0.000000 0.439042
O O8 0.250000 0.240314 0.982426
O O9 0.163537 0.500000 0.998020
O O10 0.144536 0.227975 0.064142
O O11 0.106149 0.231584 0.950387
O O12 0.051397 0.500000 0.686911
O O13 0.125180 0.235053 0.720260
O O14 0.980228 0.232906 0.723104
O O15 0.750000 0.229578 0.213145
O O16 0.668211 0.500000 0.219460
O O17 0.613916 0.241456 0.164139
O O18 0.016952 0.700225 0.112538
O O19 0.961334 0.000000 0.112511
O O20 0.903034 0.500000 0.749857
O O21 0.881288 0.774185 0.812071
O O22 0.368826 0.500000 0.125414
#
# Coordination Sequence:
#
# PCOD9404794 Si02
#       8
#     8   8   8   8   8   8   8   8
#     4   9  18  32  50  74 106 141 176 214 259 311
#     4   9  18  33  53  76 104 143 185 217 253 306
#     4  10  22  39  57  76 101 138 181 224 271 321
#     4   9  17  32  53  78 105 132 168 213 262 310
#     4  10  20  36  58  80 105 139 177 219 270 324
#     4  12  24  36  54  79 108 140 177 221 268 319
#     4   9  17  31  53  78 103 130 166 214 262 307
#     4  10  20  37  59  80 103 135 177 220 264 321
#
# _framework density 20.250502000000001
#
# number of rings (size 3 to 8) (size 9 to 14) (size 15 to 20)
#    0.000    2.250    1.250    1.875    0.000    6.000 
#    0.000    1.875    0.000    0.750    0.000    0.000 
#    0.000    0.000    0.000    0.000    0.000    0.000 
#
# Total GULP energy -357237.180417 kJ/mol
# GULP energy per Si atom -5581.830944 kJ/mol
# Density = 2.020441 g / cm^3
# Si number density = 20.250502 Si / 1000 Ang^3
#
#
#
# Elastic Constant Matrix: (Units=GPa)
#
#
# Indices 1 2 3 4 5 6 
#
# 1 39.8354 -4.9289 10.9873 0.0000 0.0000 0.0000
# 2 -4.9289 30.8376 -1.2994 0.0000 0.0000 0.0000
# 3 10.9873 -1.2994 130.1416 0.0000 0.0000 0.0000
# 4 0.0000 0.0000 0.0000 23.5915 0.0000 0.0000
# 5 0.0000 0.0000 0.0000 0.0000 13.0148 0.0000
# 6 0.0000 0.0000 0.0000 0.0000 0.0000 8.9788
#
#
#
# Elastic Compliance Matrix: (Units=1/GPa)
#
#
# Indices 1 2 3 4 5 6 
#
# 1 0.026209 0.004098 -0.002172 0.000000 0.000000 0.000000
# 2 0.004098 0.033082 -0.000016 0.000000 0.000000 0.000000
# 3 -0.002172 -0.000016 0.007867 0.000000 0.000000 0.000000
# 4 0.000000 0.000000 0.000000 0.042388 0.000000 0.000000
# 5 0.000000 0.000000 0.000000 0.000000 0.076836 0.000000
# 6 0.000000 0.000000 0.000000 0.000000 0.000000 0.111374
#
#
# Mechanical properties :
#
#
# Convention : Reuss Voigt Hill
#
# Bulk Modulus (GPa) = 14.08867 23.37030 18.72949
# Shear Modulus (GPa) = 15.74329 22.18739 18.96534
#
# Velocity S-wave (km/s) = 2.79126 3.31365 3.06361
# Velocity P-wave (km/s) = 4.16659 5.11918 4.66725
#
# Compressibility (1/GPa) = 0.07097902
#
# Stress axis : x y z
#
# Youngs Moduli (GPa) = 38.15438 30.22768 127.11100
#
# Poissons Ratio (x) = -0.12386 0.27606
# Poissons Ratio (y) = -0.15634 0.00199
# Poissons Ratio (z) = 0.08287 0.00047
#
# Static dielectric constant tensor:
#      x y z
#    x 1.712690 0.000000 0.000000 
#    y 0.000000 1.756320 0.000000 
#    z 0.000000 0.000000 1.710890 
# 
# From -- ./inp_files/33760.got.cif
#   From: 2010.05.17/outbox.cif.g08.bks.cpg/sg51_17_cif.got.tgz:33760.got - 2010.06.03 11:52:47.
