data_PCOD9404895
_publ_section_title
;
Structure prediction by ZEFSAII (Michael W. Deem and Ramdas Pophale) SiO2 
 PCOD9404895
Probable space group: P M M A
;
_chemical_formula_sum "Si O2"
_cell_formula_units_Z 56
_cell_length_a 8.975143
_cell_length_b 16.793720
_cell_length_c 19.771024
_cell_angle_alpha 90.000000
_cell_angle_beta 90.000000
_cell_angle_gamma 90.000000
_cell_volume 2980.008125
_symmetry_space_group_name_H-M "P M M A"
_symmetry_group_IT_number 51
_symmetry_cell_setting 'orthorhombic'
loop_
_space_group_symop_operation_xyz
x,y,z
1/2-x,-y,z
1/2+x,-y,-z
-x,y,-z
-x,-y,-z
1/2+x,y,-z
1/2-x,y,z
x,-y,z
loop_
_atom_site_type_symbol
_atom_site_label
_atom_site_fract_x
_atom_site_fract_y
_atom_site_fract_z
Si Si1 0.916825 0.500000 0.906516
Si Si2 0.569913 0.333211 0.296963
Si Si3 0.082045 0.661676 0.939527
Si Si4 0.921632 0.213833 0.179935
Si Si5 0.920631 0.500000 0.745208
Si Si6 0.426813 0.905218 0.074156
Si Si7 0.069948 0.739788 0.424997
Si Si8 0.928667 0.084079 0.574363
O O1 0.750000 0.500000 0.933764
O O2 0.911289 0.500000 0.825909
O O3 0.000916 0.579000 0.927785
O O4 0.750000 0.335350 0.295399
O O5 0.522421 0.258551 0.248155
O O6 0.505174 0.418504 0.274015
O O7 0.506022 0.318014 0.371574
O O8 0.250000 0.647571 0.960036
O O9 0.079820 0.712912 0.872488
O O10 0.000000 0.706258 0.000000
O O11 0.750000 0.187565 0.191154
O O12 0.007704 0.145549 0.137488
O O13 0.750000 0.500000 0.718277
O O14 0.250000 0.889482 0.069106
O O15 0.449007 0.000000 0.086700
O O16 0.500000 0.888943 0.000000
O O17 0.250000 0.730998 0.427839
O O18 0.032495 0.829415 0.398080
O O19 0.000000 0.731936 0.500000
O O20 0.750000 0.083870 0.567669
O O21 0.000000 0.082608 0.500000
O O22 0.972259 0.000000 0.608641
#
# Coordination Sequence:
#
# PCOD9404895 Si02
#       8
#     4   8   8   8   4   8   8   8
#     4  11  22  36  55  80 109 145 184 227 277 334
#     4  11  23  41  63  87 116 151 191 237 293 353
#     4  11  22  36  53  78 112 148 186 230 279 331
#     4  10  22  38  58  83 112 150 193 238 288 343
#     4  11  23  40  63  88 113 147 192 235 287 352
#     4  10  21  37  59  86 117 156 201 249 299 347
#     4  10  20  36  59  88 120 155 195 242 293 349
#     4   8  14  26  47  76 110 146 181 218 263 318
#
# _framework density 18.791896000000001
#
# number of rings (size 3 to 8) (size 9 to 14) (size 15 to 20)
#    0.000    1.857    1.429    2.786    0.000    5.429 
#    0.000    1.071    0.000    2.571    0.000    0.000 
#    0.000    0.000    0.000    0.000    0.000    0.000 
#
# Total GULP energy -312051.240090 kJ/mol
# GULP energy per Si atom -5572.343573 kJ/mol
# Density = 1.874913 g / cm^3
# Si number density = 18.791896 Si / 1000 Ang^3
#
#
#
# Elastic Constant Matrix: (Units=GPa)
#
#
# Indices 1 2 3 4 5 6 
#
# 1 98.3172 51.0222 38.1866 0.0000 0.0000 0.0000
# 2 51.0222 107.0937 42.6301 0.0000 0.0000 0.0000
# 3 38.1866 42.6301 98.3714 0.0000 0.0000 0.0000
# 4 0.0000 0.0000 0.0000 37.6592 0.0000 0.0000
# 5 0.0000 0.0000 0.0000 0.0000 23.9309 0.0000
# 6 0.0000 0.0000 0.0000 0.0000 0.0000 41.4816
#
#
#
# Elastic Compliance Matrix: (Units=1/GPa)
#
#
# Indices 1 2 3 4 5 6 
#
# 1 0.014269 -0.005551 -0.003134 0.000000 0.000000 0.000000
# 2 -0.005551 0.013443 -0.003671 0.000000 0.000000 0.000000
# 3 -0.003134 -0.003671 0.012973 0.000000 0.000000 0.000000
# 4 0.000000 0.000000 0.000000 0.026554 0.000000 0.000000
# 5 0.000000 0.000000 0.000000 0.000000 0.041787 0.000000
# 6 0.000000 0.000000 0.000000 0.000000 0.000000 0.024107
#
#
# Mechanical properties :
#
#
# Convention : Reuss Voigt Hill
#
# Bulk Modulus (GPa) = 62.60007 63.05113 62.82560
# Shear Modulus (GPa) = 30.64314 32.07722 31.36018
#
# Velocity S-wave (km/s) = 4.04252 4.13603 4.08954
# Velocity P-wave (km/s) = 7.42791 7.51227 7.47021
#
# Compressibility (1/GPa) = 0.01597442
#
# Stress axis : x y z
#
# Youngs Moduli (GPa) = 70.08306 74.38569 77.08394
#
# Poissons Ratio (x) = 0.41289 0.24155
# Poissons Ratio (y) = 0.38901 0.28299
# Poissons Ratio (z) = 0.21961 0.27308
#
# Static dielectric constant tensor:
#      x y z
#    x 1.655810 0.000000 0.000000 
#    y 0.000000 1.681000 0.000000 
#    z 0.000000 0.000000 1.634750 
# 
# From -- ./inp_files/32111.got.cif
#   From: 2010.05.17/outbox.cif.g08.bks.cpg/sg51_17_cif.got.tgz:32111.got - 2010.06.03 11:52:47.
