data_PCOD9404690
_publ_section_title
;
Structure prediction by ZEFSAII (Michael W. Deem and Ramdas Pophale) SiO2 
 PCOD9404690
Probable space group: P M M A
;
_chemical_formula_sum "Si O2"
_cell_formula_units_Z 48
_cell_length_a 8.711875
_cell_length_b 29.724448
_cell_length_c 10.466555
_cell_angle_alpha 90.000000
_cell_angle_beta 90.000000
_cell_angle_gamma 90.000000
_cell_volume 2710.373819
_symmetry_space_group_name_H-M "P M M A"
_symmetry_group_IT_number 51
_symmetry_cell_setting 'orthorhombic'
loop_
_space_group_symop_operation_xyz
x,y,z
1/2-x,-y,z
1/2+x,-y,-z
-x,y,-z
-x,-y,-z
1/2+x,y,-z
1/2-x,y,z
x,-y,z
loop_
_atom_site_type_symbol
_atom_site_label
_atom_site_fract_x
_atom_site_fract_y
_atom_site_fract_z
Si Si1 0.064894 0.285667 0.362394
Si Si2 0.933024 0.446704 0.861224
Si Si3 0.433703 0.052633 0.638325
Si Si4 0.434575 0.781569 0.137288
Si Si5 0.933558 0.614538 0.361959
Si Si6 0.434220 0.885758 0.138474
O O1 0.250000 0.287894 0.368077
O O2 0.017948 0.251305 0.251249
O O3 0.000000 0.271201 0.500000
O O4 0.999130 0.335423 0.337433
O O5 0.750000 0.439547 0.860043
O O6 0.962340 0.500000 0.842890
O O7 0.010668 0.418327 0.749363
O O8 0.000000 0.434196 0.000000
O O9 0.500000 0.065790 0.500000
O O10 0.250000 0.056452 0.636258
O O11 0.501685 0.082993 0.750164
O O12 0.473826 0.000000 0.659016
O O13 0.250000 0.780479 0.130438
O O14 0.480288 0.833516 0.160485
O O15 0.500000 0.767629 0.000000
O O16 0.750000 0.616131 0.368379
O O17 0.000000 0.600276 0.500000
O O18 0.250000 0.888137 0.135721
O O19 0.500000 0.898999 0.000000
#
# Coordination Sequence:
#
# PCOD9404690 Si02
#       6
#     8   8   8   8   8   8
#     4  10  20  36  55  78 108 140 178 221 266 317
#     4  10  21  38  59  83 111 143 180 222 268 319
#     4  10  21  37  56  79 107 140 178 220 267 318
#     4   9  20  36  55  79 107 139 176 219 264 315
#     4  11  22  37  57  81 110 144 182 224 270 318
#     4  10  20  36  56  80 109 141 179 221 267 317
#
# _framework density 17.709734000000001
#
# number of rings (size 3 to 8) (size 9 to 14) (size 15 to 20)
#    0.000    2.000    0.000    4.500    0.000    6.000 
#    0.000    3.333    0.000    0.000    0.000    0.000 
#    0.000    0.000    0.000    0.000    0.000    0.000 
#
# Total GULP energy -268076.721577 kJ/mol
# GULP energy per Si atom -5584.931700 kJ/mol
# Density = 1.766943 g / cm^3
# Si number density = 17.709734 Si / 1000 Ang^3
#
#
#
# Elastic Constant Matrix: (Units=GPa)
#
#
# Indices 1 2 3 4 5 6 
#
# 1 83.5955 51.9324 76.1787 0.0000 0.0000 0.0000
# 2 51.9324 79.5507 114.8784 0.0000 0.0000 0.0000
# 3 76.1787 114.8784 204.3108 0.0000 0.0000 0.0000
# 4 0.0000 0.0000 0.0000 42.5894 0.0000 0.0000
# 5 0.0000 0.0000 0.0000 0.0000 38.8677 0.0000
# 6 0.0000 0.0000 0.0000 0.0000 0.0000 31.3745
#
#
#
# Elastic Compliance Matrix: (Units=1/GPa)
#
#
# Indices 1 2 3 4 5 6 
#
# 1 0.020138 -0.012251 -0.000620 0.000000 0.000000 0.000000
# 2 -0.012251 0.074308 -0.037213 0.000000 0.000000 0.000000
# 3 -0.000620 -0.037213 0.026050 0.000000 0.000000 0.000000
# 4 0.000000 0.000000 0.000000 0.023480 0.000000 0.000000
# 5 0.000000 0.000000 0.000000 0.000000 0.025728 0.000000
# 6 0.000000 0.000000 0.000000 0.000000 0.000000 0.031873
#
#
# Mechanical properties :
#
#
# Convention : Reuss Voigt Hill
#
# Bulk Modulus (GPa) = 49.19627 94.82621 72.01124
# Shear Modulus (GPa) = 16.20630 30.86416 23.53523
#
# Velocity S-wave (km/s) = 3.02836 4.17919 3.64942
# Velocity P-wave (km/s) = 6.32989 8.77203 7.64905
#
# Compressibility (1/GPa) = 0.02032674
#
# Stress axis : x y z
#
# Youngs Moduli (GPa) = 49.65643 13.45757 38.38785
#
# Poissons Ratio (x) = 0.16487 0.02382
# Poissons Ratio (y) = 0.60833 1.42854
# Poissons Ratio (z) = 0.03081 0.50080
#
# Static dielectric constant tensor:
#      x y z
#    x 1.592610 0.000000 0.000000 
#    y 0.000000 1.591070 0.000000 
#    z 0.000000 0.000000 1.571770 
# 
# From -- ./inp_files/5969.got.cif
#   From: 2010.05.17/outbox.cif.g08.bks.cpg/sg51_3_cif.got.tgz:5969.got - 2010.06.03 11:52:47.
