data_PCOD9404319
_publ_section_title
;
Structure prediction by ZEFSAII (Michael W. Deem and Ramdas Pophale) SiO2 
 PCOD9404319
Probable space group: P M M A
;
_chemical_formula_sum "Si O2"
_cell_formula_units_Z 28
_cell_length_a 8.732720
_cell_length_b 19.240301
_cell_length_c 9.127432
_cell_angle_alpha 90.000000
_cell_angle_beta 90.000000
_cell_angle_gamma 90.000000
_cell_volume 1533.592597
_symmetry_space_group_name_H-M "P M M A"
_symmetry_group_IT_number 51
_symmetry_cell_setting 'orthorhombic'
loop_
_space_group_symop_operation_xyz
x,y,z
1/2-x,-y,z
1/2+x,-y,-z
-x,y,-z
-x,-y,-z
1/2+x,y,-z
1/2-x,y,z
x,-y,z
loop_
_atom_site_type_symbol
_atom_site_label
_atom_site_fract_x
_atom_site_fract_y
_atom_site_fract_z
Si Si1 0.566038 0.130353 0.164517
Si Si2 0.567202 0.284113 0.165106
Si Si3 0.566735 0.424158 0.834214
Si Si4 0.932852 0.000000 0.662078
O O1 0.750000 0.123197 0.159179
O O2 0.530522 0.207662 0.227090
O O3 0.493520 0.068382 0.255743
O O4 0.500000 0.126839 0.000000
O O5 0.750000 0.290963 0.157064
O O6 0.499026 0.353838 0.236363
O O7 0.500000 0.282121 0.000000
O O8 0.750000 0.418898 0.842459
O O9 0.527317 0.500000 0.768407
O O10 0.500000 0.425531 0.000000
O O11 0.000000 0.000000 0.500000
O O12 0.750000 0.000000 0.660096
#
# Coordination Sequence:
#
# PCOD9404319 Si02
#       4
#     8   8   8   4
#     4  10  20  35  54  77 103 132 168 207 248 295
#     4   9  16  25  40  61  87 120 157 197 237 280
#     4   9  15  21  31  50  80 118 156 193 234 280
#     4  12  25  40  57  76 100 130 162 202 251 300
#
# _framework density 18.257784000000001
#
# number of rings (size 3 to 8) (size 9 to 14) (size 15 to 20)
#    0.000    2.286    0.000    6.000    0.000    5.143 
#    0.000    0.000    0.000    0.000    0.000    0.000 
#    0.000    1.143    0.000    3.714    0.000   16.000 
#
# Total GULP energy -156002.487082 kJ/mol
# GULP energy per Si atom -5571.517396 kJ/mol
# Density = 1.821623 g / cm^3
# Si number density = 18.257784 Si / 1000 Ang^3
#
#
#
# Elastic Constant Matrix: (Units=GPa)
#
#
# Indices 1 2 3 4 5 6 
#
# 1 107.1680 90.6760 19.7364 0.0000 0.0000 0.0000
# 2 90.6760 247.2360 49.2920 0.0000 0.0000 0.0000
# 3 19.7364 49.2920 31.4772 0.0000 0.0000 0.0000
# 4 0.0000 0.0000 0.0000 -5.7228 0.0000 0.0000
# 5 0.0000 0.0000 0.0000 0.0000 15.4628 0.0000
# 6 0.0000 0.0000 0.0000 0.0000 0.0000 33.3024
#
#
#
# Elastic Compliance Matrix: (Units=1/GPa)
#
#
# Indices 1 2 3 4 5 6 
#
# 1 0.013553 -0.004764 -0.001038 0.000000 0.000000 0.000000
# 2 -0.004764 0.007555 -0.008844 0.000000 0.000000 0.000000
# 3 -0.001038 -0.008844 0.046269 0.000000 0.000000 0.000000
# 4 0.000000 0.000000 0.000000 -0.174740 0.000000 0.000000
# 5 0.000000 0.000000 0.000000 0.000000 0.064672 0.000000
# 6 0.000000 0.000000 0.000000 0.000000 0.000000 0.030028
#
#
# Mechanical properties :
#
#
# Convention : Reuss Voigt Hill
#
# Bulk Modulus (GPa) = 26.25652 78.36554 52.31103
# Shear Modulus (GPa) = 170.50935 23.68692 97.09814
#
# Velocity S-wave (km/s) = 9.67433 3.60580 7.30050
# Velocity P-wave (km/s) = 11.79841 7.76856 9.98882
#
# Compressibility (1/GPa) = 0.03808578
#
# Stress axis : x y z
#
# Youngs Moduli (GPa) = 73.78473 132.36042 21.61255
#
# Poissons Ratio (x) = 0.63053 0.02243
# Poissons Ratio (y) = 0.35149 0.19114
# Poissons Ratio (z) = 0.07659 1.17061
#
# Static dielectric constant tensor:
#      x y z
#    x 1.606250 0.000000 0.000000 
#    y 0.000000 1.724020 0.000000 
#    z 0.000000 0.000000 1.556240 
# 
# From -- ./inp_files/4770.got.cif
#   From: 2010.05.17/outbox.cif.g08.bks.cpg/sg51_3_cif.got.tgz:4770.got - 2010.06.03 11:52:47.
