data_PCOD9404601
_publ_section_title
;
Structure prediction by ZEFSAII (Michael W. Deem and Ramdas Pophale) SiO2 
 PCOD9404601
Probable space group: P M M A
;
_chemical_formula_sum "Si O2"
_cell_formula_units_Z 56
_cell_length_a 21.138315
_cell_length_b 9.617869
_cell_length_c 15.082432
_cell_angle_alpha 90.000000
_cell_angle_beta 90.000000
_cell_angle_gamma 90.000000
_cell_volume 3066.342051
_symmetry_space_group_name_H-M "P M M A"
_symmetry_group_IT_number 51
_symmetry_cell_setting 'orthorhombic'
loop_
_space_group_symop_operation_xyz
x,y,z
1/2-x,-y,z
1/2+x,-y,-z
-x,y,-z
-x,-y,-z
1/2+x,y,-z
1/2-x,y,z
x,-y,z
loop_
_atom_site_type_symbol
_atom_site_label
_atom_site_fract_x
_atom_site_fract_y
_atom_site_fract_z
Si Si1 0.464144 0.331460 0.594187
Si Si2 0.679717 0.336826 0.958728
Si Si3 0.444300 0.334746 0.928272
Si Si4 0.491495 0.161015 0.767721
Si Si5 0.179920 0.664032 0.564499
Si Si6 0.676613 0.651983 0.647238
Si Si7 0.136483 0.843316 0.203508
O O1 0.500000 0.303452 0.500000
O O2 0.467575 0.500000 0.606595
O O3 0.493507 0.246696 0.675885
O O4 0.389533 0.287549 0.594750
O O5 0.750000 0.311675 0.995388
O O6 0.674906 0.500000 0.935589
O O7 0.622899 0.306713 0.025658
O O8 0.669635 0.248926 0.870373
O O9 0.448889 0.500000 0.907481
O O10 0.450828 0.244293 0.839935
O O11 0.500000 0.304872 0.000000
O O12 0.561443 0.157809 0.810057
O O13 0.472020 0.000000 0.753680
O O14 0.250000 0.722083 0.590736
O O15 0.181983 0.500000 0.587089
O O16 0.175836 0.672377 0.457785
O O17 0.750000 0.646843 0.674056
O O18 0.647381 0.500000 0.666759
O O19 0.646397 0.774837 0.701172
O O20 0.160325 0.000000 0.201029
#
# Coordination Sequence:
#
# PCOD9404601 Si02
#       7
#     8   8   8   8   8   8   8
#     4  10  20  35  58  86 112 144 191 242 284 330
#     4  10  21  37  58  84 112 141 178 229 284 329
#     4  10  20  38  63  86 107 141 188 232 272 324
#     4  11  24  38  55  81 113 151 189 229 282 339
#     4   8  15  30  52  77 104 137 180 232 286 331
#     4   9  17  30  50  75 104 140 181 225 276 334
#     4  11  22  33  48  75 111 147 182 221 272 336
#
# _framework density 18.262803000000002
#
# number of rings (size 3 to 8) (size 9 to 14) (size 15 to 20)
#    0.000    2.143    1.429    3.000    0.000    6.286 
#    0.000    1.429    0.000    5.571    0.000    0.000 
#    0.000    0.000    0.000    0.000    0.000    0.000 
#
# Total GULP energy -312083.581502 kJ/mol
# GULP energy per Si atom -5572.921098 kJ/mol
# Density = 1.822124 g / cm^3
# Si number density = 18.262803 Si / 1000 Ang^3
#
#
#
# Elastic Constant Matrix: (Units=GPa)
#
#
# Indices 1 2 3 4 5 6 
#
# 1 102.0770 32.0017 25.9719 0.0000 0.0000 0.0000
# 2 32.0017 47.9489 45.3575 0.0000 0.0000 0.0000
# 3 25.9719 45.3575 68.1241 0.0000 0.0000 0.0000
# 4 0.0000 0.0000 0.0000 -34.2611 0.0000 0.0000
# 5 0.0000 0.0000 0.0000 0.0000 24.4334 0.0000
# 6 0.0000 0.0000 0.0000 0.0000 0.0000 12.7166
#
#
#
# Elastic Compliance Matrix: (Units=1/GPa)
#
#
# Indices 1 2 3 4 5 6 
#
# 1 0.012502 -0.010361 0.002132 0.000000 0.000000 0.000000
# 2 -0.010361 0.064926 -0.039278 0.000000 0.000000 0.000000
# 3 0.002132 -0.039278 0.040018 0.000000 0.000000 0.000000
# 4 0.000000 0.000000 0.000000 -0.029188 0.000000 0.000000
# 5 0.000000 0.000000 0.000000 0.000000 0.040928 0.000000
# 6 0.000000 0.000000 0.000000 0.000000 0.000000 0.078637
#
#
# Mechanical properties :
#
#
# Convention : Reuss Voigt Hill
#
# Bulk Modulus (GPa) = 44.57919 47.20135 45.89027
# Shear Modulus (GPa) = 16.11266 8.23236 12.17251
#
# Velocity S-wave (km/s) = 2.97352 2.12544 2.58450
# Velocity P-wave (km/s) = 6.02096 5.65023 5.83854
#
# Compressibility (1/GPa) = 0.02243199
#
# Stress axis : x y z
#
# Youngs Moduli (GPa) = 79.98541 15.40220 24.98879
#
# Poissons Ratio (x) = 0.15958 -0.05327
# Poissons Ratio (y) = 0.82872 0.98151
# Poissons Ratio (z) = -0.17052 0.60497
#
# Static dielectric constant tensor:
#      x y z
#    x 1.698940 0.000000 0.000000 
#    y 0.000000 1.624530 0.000000 
#    z 0.000000 0.000000 1.598600 
# 
# From -- ./inp_files/25689.got.cif
#   From: 2010.05.17/outbox.cif.g08.bks.cpg/sg51_13_cif.got.tgz:25689.got - 2010.06.03 11:52:47.
