data_PCOD9404680
_publ_section_title
;
Structure prediction by ZEFSAII (Michael W. Deem and Ramdas Pophale) SiO2 
 PCOD9404680
Probable space group: P M M A
;
_chemical_formula_sum "Si O2"
_cell_formula_units_Z 64
_cell_length_a 29.264058
_cell_length_b 12.983922
_cell_length_c 9.648864
_cell_angle_alpha 90.000000
_cell_angle_beta 90.000000
_cell_angle_gamma 90.000000
_cell_volume 3666.204041
_symmetry_space_group_name_H-M "P M M A"
_symmetry_group_IT_number 51
_symmetry_cell_setting 'orthorhombic'
loop_
_space_group_symop_operation_xyz
x,y,z
1/2-x,-y,z
1/2+x,-y,-z
-x,y,-z
-x,-y,-z
1/2+x,y,-z
1/2-x,y,z
x,-y,z
loop_
_atom_site_type_symbol
_atom_site_label
_atom_site_fract_x
_atom_site_fract_y
_atom_site_fract_z
Si Si1 0.800008 0.122319 0.038658
Si Si2 0.448424 0.720500 0.943928
Si Si3 0.434799 0.697673 0.401708
Si Si4 0.531101 0.382144 0.324710
Si Si5 0.113439 0.122401 0.787163
Si Si6 0.196533 0.775621 0.251691
Si Si7 0.378331 0.618513 0.160554
Si Si8 0.626603 0.877965 0.543096
O O1 0.750000 0.165143 0.077251
O O2 0.841660 0.161002 0.130786
O O3 0.798802 0.000000 0.059770
O O4 0.806886 0.144819 0.876644
O O5 0.451921 0.630525 0.830126
O O6 0.428490 0.816084 0.855404
O O7 0.500000 0.738243 0.000000
O O8 0.411895 0.684065 0.059339
O O9 0.434289 0.657888 0.559153
O O10 0.486033 0.686457 0.346489
O O11 0.404155 0.624926 0.307272
O O12 0.415669 0.813191 0.394288
O O13 0.519002 0.500000 0.352466
O O14 0.122403 0.135545 0.623093
O O15 0.107395 0.000000 0.810591
O O16 0.250000 0.756192 0.279523
O O17 0.169195 0.676927 0.191506
O O18 0.170280 0.824102 0.383766
O O19 0.373470 0.500000 0.115522
O O20 0.626014 0.000000 0.572466
#
# Coordination Sequence:
#
# PCOD9404680 Si02
#       8
#     8   8   8   8   8   8   8   8
#     4   9  17  32  57  84 109 141 182 229 282 340
#     4  12  23  37  56  85 119 153 201 250 288 340
#     4  10  20  36  54  81 111 145 190 238 289 340
#     4  11  21  35  57  79 110 150 197 246 287 331
#     4  10  21  39  57  81 119 158 193 233 290 352
#     4  10  21  37  59  88 116 144 183 234 288 351
#     4  11  22  37  58  84 115 151 190 238 294 343
#     4  10  21  37  58  82 113 148 184 234 289 347
#
# _framework density 17.456748000000001
#
# number of rings (size 3 to 8) (size 9 to 14) (size 15 to 20)
#    0.000    1.625    3.750    2.250    0.000    2.250 
#    0.000    3.125    0.000    0.000    0.000    0.000 
#    0.000    0.000    0.000    0.000    0.000    0.000 
#
# Total GULP energy -356546.234508 kJ/mol
# GULP energy per Si atom -5571.034914 kJ/mol
# Density = 1.741702 g / cm^3
# Si number density = 17.456748 Si / 1000 Ang^3
#
#
#
# Elastic Constant Matrix: (Units=GPa)
#
#
# Indices 1 2 3 4 5 6 
#
# 1 104.1375 60.4188 46.6298 0.0000 0.0000 0.0000
# 2 60.4188 86.2650 37.9298 0.0000 0.0000 0.0000
# 3 46.6298 37.9298 72.6619 0.0000 0.0000 0.0000
# 4 0.0000 0.0000 0.0000 19.6364 0.0000 0.0000
# 5 0.0000 0.0000 0.0000 0.0000 24.6651 0.0000
# 6 0.0000 0.0000 0.0000 0.0000 0.0000 7.2121
#
#
#
# Elastic Compliance Matrix: (Units=1/GPa)
#
#
# Indices 1 2 3 4 5 6 
#
# 1 0.018305 -0.009936 -0.006560 0.000000 0.000000 0.000000
# 2 -0.009936 0.020439 -0.004293 0.000000 0.000000 0.000000
# 3 -0.006560 -0.004293 0.020213 0.000000 0.000000 0.000000
# 4 0.000000 0.000000 0.000000 0.050926 0.000000 0.000000
# 5 0.000000 0.000000 0.000000 0.000000 0.040543 0.000000
# 6 0.000000 0.000000 0.000000 0.000000 0.000000 0.138656
#
#
# Mechanical properties :
#
#
# Convention : Reuss Voigt Hill
#
# Bulk Modulus (GPa) = 57.54188 61.44679 59.49433
# Shear Modulus (GPa) = 14.86094 18.17514 16.51804
#
# Velocity S-wave (km/s) = 2.92087 3.23019 3.07942
# Velocity P-wave (km/s) = 6.66404 7.01342 6.84096
#
# Compressibility (1/GPa) = 0.01737865
#
# Stress axis : x y z
#
# Youngs Moduli (GPa) = 54.63021 48.92680 49.47259
#
# Poissons Ratio (x) = 0.48614 0.32455
# Poissons Ratio (y) = 0.54281 0.21238
# Poissons Ratio (z) = 0.35839 0.21003
#
# Static dielectric constant tensor:
#      x y z
#    x 1.613280 0.000000 0.000000 
#    y 0.000000 1.596660 0.000000 
#    z 0.000000 0.000000 1.613470 
# 
# From -- ./inp_files/13189.got.cif
#   From: 2010.05.17/outbox.cif.g08.bks.cpg/sg51_7_cif.got.tgz:13189.got - 2010.06.03 11:52:47.
