data_PCOD9404162
_publ_section_title
;
Structure prediction by ZEFSAII (Michael W. Deem and Ramdas Pophale) SiO2 
 PCOD9404162
Probable space group: P M M A
;
_chemical_formula_sum "Si O2"
_cell_formula_units_Z 48
_cell_length_a 22.579405
_cell_length_b 7.557964
_cell_length_c 12.519735
_cell_angle_alpha 90.000000
_cell_angle_beta 90.000000
_cell_angle_gamma 90.000000
_cell_volume 2136.546990
_symmetry_space_group_name_H-M "P M M A"
_symmetry_group_IT_number 51
_symmetry_cell_setting 'orthorhombic'
loop_
_space_group_symop_operation_xyz
x,y,z
1/2-x,-y,z
1/2+x,-y,-z
-x,y,-z
-x,-y,-z
1/2+x,y,-z
1/2-x,y,z
x,-y,z
loop_
_atom_site_type_symbol
_atom_site_label
_atom_site_fract_x
_atom_site_fract_y
_atom_site_fract_z
Si Si1 0.430882 0.283145 0.487490
Si Si2 0.314769 0.296281 0.611598
Si Si3 0.981031 0.785537 0.118796
Si Si4 0.185023 0.286929 0.079795
Si Si5 0.092978 0.294522 0.251791
Si Si6 0.651307 0.792868 0.159123
O O1 0.500000 0.225856 0.500000
O O2 0.433392 0.500000 0.491219
O O3 0.378367 0.225244 0.568711
O O4 0.408507 0.222664 0.370888
O O5 0.250000 0.217865 0.580480
O O6 0.313543 0.500000 0.574684
O O7 0.317911 0.294027 0.740096
O O8 0.027470 0.717885 0.204237
O O9 0.915491 0.724437 0.146164
O O10 0.981720 0.000000 0.119665
O O11 0.000000 0.728549 0.000000
O O12 0.250000 0.240553 0.120588
O O13 0.179859 0.500000 0.074977
O O14 0.135524 0.216298 0.160661
O O15 0.178777 0.225864 0.958072
O O16 0.110261 0.500000 0.262539
O O17 0.649622 0.000000 0.184984
#
# Coordination Sequence:
#
# PCOD9404162 Si02
#       6
#     8   8   8   8   8   8
#     4   9  18  34  56  82 111 141 179 228 276 324
#     4  10  21  37  58  83 112 148 188 232 282 332
#     4  10  20  35  53  77 111 144 176 221 276 331
#     4  10  21  35  51  76 110 143 177 220 269 322
#     4  10  20  34  56  83 108 141 183 224 268 325
#     4  11  22  36  56  80 109 145 183 226 275 330
#
# _framework density 22.466155000000001
#
# number of rings (size 3 to 8) (size 9 to 14) (size 15 to 20)
#    0.000    2.000    1.667    2.000    0.000    6.333 
#    0.000    4.167    0.000    3.000    0.000    2.333 
#    0.000    0.000    0.000    0.000    0.000    0.000 
#
# Total GULP energy -267966.260111 kJ/mol
# GULP energy per Si atom -5582.630419 kJ/mol
# Density = 2.241502 g / cm^3
# Si number density = 22.466155 Si / 1000 Ang^3
#
#
#
# Elastic Constant Matrix: (Units=GPa)
#
#
# Indices 1 2 3 4 5 6 
#
# 1 166.3391 6.6530 50.7433 0.0000 0.0000 0.0000
# 2 6.6530 51.5906 -0.6534 0.0000 0.0000 0.0000
# 3 50.7433 -0.6534 117.2923 0.0000 0.0000 0.0000
# 4 0.0000 0.0000 0.0000 19.9887 0.0000 0.0000
# 5 0.0000 0.0000 0.0000 0.0000 9.7858 0.0000
# 6 0.0000 0.0000 0.0000 0.0000 0.0000 3.6137
#
#
#
# Elastic Compliance Matrix: (Units=1/GPa)
#
#
# Indices 1 2 3 4 5 6 
#
# 1 0.006971 -0.000937 -0.003021 0.000000 0.000000 0.000000
# 2 -0.000937 0.019511 0.000514 0.000000 0.000000 0.000000
# 3 -0.003021 0.000514 0.009836 0.000000 0.000000 0.000000
# 4 0.000000 0.000000 0.000000 0.050028 0.000000 0.000000
# 5 0.000000 0.000000 0.000000 0.000000 0.102189 0.000000
# 6 0.000000 0.000000 0.000000 0.000000 0.000000 0.276723
#
#
# Mechanical properties :
#
#
# Convention : Reuss Voigt Hill
#
# Bulk Modulus (GPa) = 33.98003 49.85641 41.91822
# Shear Modulus (GPa) = 10.37441 25.24292 17.80867
#
# Velocity S-wave (km/s) = 2.15124 3.35565 2.81853
# Velocity P-wave (km/s) = 4.61825 6.10359 5.41212
#
# Compressibility (1/GPa) = 0.02942905
#
# Stress axis : x y z
#
# Youngs Moduli (GPa) = 143.45389 51.25384 101.67230
#
# Poissons Ratio (x) = 0.04804 0.30715
# Poissons Ratio (y) = 0.13445 -0.05228
# Poissons Ratio (z) = 0.43337 -0.02635
#
# Static dielectric constant tensor:
#      x y z
#    x 1.841810 0.000000 0.000000 
#    y 0.000000 1.846200 0.000000 
#    z 0.000000 0.000000 1.802500 
# 
# From -- ./inp_files/18606.got.cif
#   From: 2010.05.17/outbox.cif.g08.bks.cpg/sg51_10_cif.got.tgz:18606.got - 2010.06.03 11:52:47.
