data_PCOD9404707
_publ_section_title
;
Structure prediction by ZEFSAII (Michael W. Deem and Ramdas Pophale) SiO2 
 PCOD9404707
Probable space group: P M M A
;
_chemical_formula_sum "Si O2"
_cell_formula_units_Z 48
_cell_length_a 8.250112
_cell_length_b 32.376401
_cell_length_c 9.392075
_cell_angle_alpha 90.000000
_cell_angle_beta 90.000000
_cell_angle_gamma 90.000000
_cell_volume 2508.707145
_symmetry_space_group_name_H-M "P M M A"
_symmetry_group_IT_number 51
_symmetry_cell_setting 'orthorhombic'
loop_
_space_group_symop_operation_xyz
x,y,z
1/2-x,-y,z
1/2+x,-y,-z
-x,y,-z
-x,-y,-z
1/2+x,y,-z
1/2-x,y,z
x,-y,z
loop_
_atom_site_type_symbol
_atom_site_label
_atom_site_fract_x
_atom_site_fract_y
_atom_site_fract_z
Si Si1 0.553816 0.089545 0.336509
Si Si2 0.553893 0.419049 0.836589
Si Si3 0.445567 0.000000 0.665004
Si Si4 0.945843 0.831661 0.162071
Si Si5 0.443359 0.660860 0.337675
Si Si6 0.945833 0.500000 0.663548
Si Si7 0.944070 0.260530 0.162805
O O1 0.500000 0.091924 0.500000
O O2 0.750000 0.089957 0.332157
O O3 0.493438 0.129761 0.253644
O O4 0.499298 0.044591 0.276639
O O5 0.750000 0.418888 0.835069
O O6 0.495418 0.377614 0.757163
O O7 0.498780 0.459182 0.748080
O O8 0.500000 0.420506 0.000000
O O9 0.500000 0.000000 0.500000
O O10 0.250000 0.000000 0.669874
O O11 0.750000 0.831831 0.167724
O O12 0.000254 0.785618 0.207041
O O13 0.000000 0.837035 0.000000
O O14 0.500000 0.657757 0.500000
O O15 0.250000 0.658968 0.337108
O O16 0.495092 0.703590 0.265050
O O17 0.750000 0.500000 0.664783
O O18 0.000000 0.500000 0.500000
O O19 0.750000 0.260897 0.163873
O O20 0.000000 0.267587 0.000000
#
# Coordination Sequence:
#
# PCOD9404707 Si02
#       7
#     8   8   4   8   8   4   8
#     4   9  17  30  48  71  96 125 162 204 248 297
#     4  10  22  38  58  83 111 143 181 219 260 311
#     4   8  14  26  45  66  92 124 158 198 245 294
#     4   9  19  34  51  72 100 132 167 205 250 301
#     4  11  23  38  56  81 110 141 176 218 265 312
#     4  10  21  38  58  84 114 144 179 220 264 310
#     4  10  20  36  56  77 102 136 175 215 258 310
#
# _framework density 19.13336
#
# number of rings (size 3 to 8) (size 9 to 14) (size 15 to 20)
#    0.000    2.333    0.000    2.250    0.000    5.333 
#    0.000    2.083    0.000    0.000    0.000    0.000 
#    0.000    0.000    0.000    0.000    0.000    0.000 
#
# Total GULP energy -267785.453086 kJ/mol
# GULP energy per Si atom -5578.863606 kJ/mol
# Density = 1.908981 g / cm^3
# Si number density = 19.133360 Si / 1000 Ang^3
#
#
#
# Elastic Constant Matrix: (Units=GPa)
#
#
# Indices 1 2 3 4 5 6 
#
# 1 15.4184 23.5374 12.0132 0.0000 0.0000 0.0000
# 2 23.5374 226.4057 119.3898 0.0000 0.0000 0.0000
# 3 12.0132 119.3898 128.3457 0.0000 0.0000 0.0000
# 4 0.0000 0.0000 0.0000 39.5945 0.0000 0.0000
# 5 0.0000 0.0000 0.0000 0.0000 32.2444 0.0000
# 6 0.0000 0.0000 0.0000 0.0000 0.0000 19.6564
#
#
#
# Elastic Compliance Matrix: (Units=1/GPa)
#
#
# Indices 1 2 3 4 5 6 
#
# 1 0.077107 -0.008264 0.000470 0.000000 0.000000 0.000000
# 2 -0.008264 0.009555 -0.008115 0.000000 0.000000 0.000000
# 3 0.000470 -0.008115 0.015296 0.000000 0.000000 0.000000
# 4 0.000000 0.000000 0.000000 0.025256 0.000000 0.000000
# 5 0.000000 0.000000 0.000000 0.000000 0.031013 0.000000
# 6 0.000000 0.000000 0.000000 0.000000 0.000000 0.050874
#
#
# Mechanical properties :
#
#
# Convention : Reuss Voigt Hill
#
# Bulk Modulus (GPa) = 14.25709 75.56119 44.90914
# Shear Modulus (GPa) = 18.91795 32.64770 25.78282
#
# Velocity S-wave (km/s) = 3.14784 4.13525 3.67486
# Velocity P-wave (km/s) = 4.54747 7.89797 6.44428
#
# Compressibility (1/GPa) = 0.07014054
#
# Stress axis : x y z
#
# Youngs Moduli (GPa) = 12.96901 104.65496 65.37606
#
# Poissons Ratio (x) = 0.86487 -0.03074
# Poissons Ratio (y) = 0.10718 0.53052
# Poissons Ratio (z) = -0.00610 0.84927
#
# Static dielectric constant tensor:
#      x y z
#    x 1.673120 0.000000 0.000000 
#    y 0.000000 1.714680 0.000000 
#    z 0.000000 0.000000 1.592650 
# 
# From -- ./inp_files/6133.got.cif
#   From: 2010.05.17/outbox.cif.g08.bks.cpg/sg51_4_cif.got.tgz:6133.got - 2010.06.03 11:52:47.
