data_PCOD9404745
_publ_section_title
;
Structure prediction by ZEFSAII (Michael W. Deem and Ramdas Pophale) SiO2 
 PCOD9404745
Probable space group: P M M A
;
_chemical_formula_sum "Si O2"
_cell_formula_units_Z 40
_cell_length_a 15.417375
_cell_length_b 7.777735
_cell_length_c 15.532592
_cell_angle_alpha 90.000000
_cell_angle_beta 90.000000
_cell_angle_gamma 90.000000
_cell_volume 1862.548166
_symmetry_space_group_name_H-M "P M M A"
_symmetry_group_IT_number 51
_symmetry_cell_setting 'orthorhombic'
loop_
_space_group_symop_operation_xyz
x,y,z
1/2-x,-y,z
1/2+x,-y,-z
-x,y,-z
-x,-y,-z
1/2+x,y,-z
1/2-x,y,z
x,-y,z
loop_
_atom_site_type_symbol
_atom_site_label
_atom_site_fract_x
_atom_site_fract_y
_atom_site_fract_z
Si Si1 0.113649 0.792253 0.335720
Si Si2 0.750000 0.196410 0.333190
Si Si3 0.750000 0.699326 0.006938
Si Si4 0.066543 0.211714 0.732550
Si Si5 0.750000 0.305288 0.521949
Si Si6 0.250000 0.207585 0.191345
Si Si7 0.937126 0.202164 0.073191
O O1 0.167064 0.726725 0.417270
O O2 0.167108 0.743606 0.249498
O O3 0.014728 0.735768 0.325946
O O4 0.116563 0.000000 0.340115
O O5 0.840114 0.273260 0.299991
O O6 0.750000 0.194361 0.436257
O O7 0.750000 0.000000 0.300297
O O8 0.750000 0.500000 0.030802
O O9 0.750000 0.717873 0.903672
O O10 0.662294 0.780578 0.044058
O O11 0.051730 0.270601 0.830509
O O12 0.066783 0.000000 0.731453
O O13 0.750000 0.500000 0.491663
O O14 0.250000 0.000000 0.182387
O O15 0.959000 0.000000 0.079643
O O16 0.000000 0.277892 0.000000
#
# Coordination Sequence:
#
# PCOD9404745 Si02
#       7
#     8   4   4   8   4   4   8
#     4   9  18  36  61  85 107 135 178 229 280 329
#     4  10  20  36  57  80 110 145 182 223 266 319
#     4  12  24  34  49  78 118 157 188 225 276 333
#     4   9  18  34  59  86 108 138 183 232 276 319
#     4  11  23  38  55  81 113 143 177 218 271 332
#     4   9  17  32  55  79 105 141 187 234 275 322
#     4  10  20  37  61  85 110 144 190 239 281 325
#
# _framework density 21.475953000000001
#
# number of rings (size 3 to 8) (size 9 to 14) (size 15 to 20)
#    0.000    2.200    0.000    4.200    0.000    7.600 
#    0.000    8.000    0.000    0.000    0.000    0.000 
#    0.000    0.000    0.000    0.000    0.000    0.000 
#
# Total GULP energy -223449.398940 kJ/mol
# GULP energy per Si atom -5586.234974 kJ/mol
# Density = 2.142707 g / cm^3
# Si number density = 21.475953 Si / 1000 Ang^3
#
#
#
# Elastic Constant Matrix: (Units=GPa)
#
#
# Indices 1 2 3 4 5 6 
#
# 1 171.7114 -0.0191 48.8816 0.0000 0.0000 0.0000
# 2 -0.0191 30.0457 -2.8037 0.0000 0.0000 0.0000
# 3 48.8816 -2.8037 93.5580 0.0000 0.0000 0.0000
# 4 0.0000 0.0000 0.0000 -20.9471 0.0000 0.0000
# 5 0.0000 0.0000 0.0000 0.0000 7.2920 0.0000
# 6 0.0000 0.0000 0.0000 0.0000 0.0000 49.2468
#
#
#
# Elastic Compliance Matrix: (Units=1/GPa)
#
#
# Indices 1 2 3 4 5 6 
#
# 1 0.006845 -0.000330 -0.003586 0.000000 0.000000 0.000000
# 2 -0.000330 0.033392 0.001173 0.000000 0.000000 0.000000
# 3 -0.003586 0.001173 0.012597 0.000000 0.000000 0.000000
# 4 0.000000 0.000000 0.000000 -0.047739 0.000000 0.000000
# 5 0.000000 0.000000 0.000000 0.000000 0.137137 0.000000
# 6 0.000000 0.000000 0.000000 0.000000 0.000000 0.020306
#
#
# Mechanical properties :
#
#
# Convention : Reuss Voigt Hill
#
# Bulk Modulus (GPa) = 21.12037 43.04807 32.08422
# Shear Modulus (GPa) = 27.20260 23.73543 25.46901
#
# Velocity S-wave (km/s) = 3.56287 3.32808 3.44747
# Velocity P-wave (km/s) = 5.17505 5.90393 5.55147
#
# Compressibility (1/GPa) = 0.04734766
#
# Stress axis : x y z
#
# Youngs Moduli (GPa) = 146.10227 29.94738 79.38217
#
# Poissons Ratio (x) = 0.00989 0.28466
# Poissons Ratio (y) = 0.04825 -0.09313
# Poissons Ratio (z) = 0.52392 -0.03513
#
# Static dielectric constant tensor:
#      x y z
#    x 1.766840 0.000000 0.000000 
#    y 0.000000 1.788210 0.000000 
#    z 0.000000 0.000000 1.736410 
# 
# From -- ./inp_files/23874.got.cif
#   From: 2010.05.17/outbox.cif.g08.bks.cpg/sg51_12_cif.got.tgz:23874.got - 2010.06.03 11:52:47.
