data_PCOD9404059
_publ_section_title
;
Structure prediction by ZEFSAII (Michael W. Deem and Ramdas Pophale) SiO2 
 PCOD9404059
Probable space group: P M M A
;
_chemical_formula_sum "Si O2"
_cell_formula_units_Z 48
_cell_length_a 18.508117
_cell_length_b 7.507210
_cell_length_c 15.376282
_cell_angle_alpha 90.000000
_cell_angle_beta 90.000000
_cell_angle_gamma 90.000000
_cell_volume 2136.447062
_symmetry_space_group_name_H-M "P M M A"
_symmetry_group_IT_number 51
_symmetry_cell_setting 'orthorhombic'
loop_
_space_group_symop_operation_xyz
x,y,z
1/2-x,-y,z
1/2+x,-y,-z
-x,y,-z
-x,-y,-z
1/2+x,y,-z
1/2-x,y,z
x,-y,z
loop_
_atom_site_type_symbol
_atom_site_label
_atom_site_fract_x
_atom_site_fract_y
_atom_site_fract_z
Si Si1 0.628326 0.703542 0.152786
Si Si2 0.537597 0.794152 0.860742
Si Si3 0.116138 0.717362 0.655592
Si Si4 0.329466 0.717539 0.470336
Si Si5 0.828318 0.205416 0.965638
Si Si6 0.949628 0.715946 0.665584
O O1 0.653552 0.500000 0.151576
O O2 0.541185 0.706076 0.140417
O O3 0.641915 0.779029 0.249335
O O4 0.662563 0.793760 0.069365
O O5 0.599178 0.715949 0.923241
O O6 0.566567 0.783026 0.762286
O O7 0.523935 0.000000 0.885387
O O8 0.118625 0.500000 0.659022
O O9 0.157913 0.774415 0.569801
O O10 0.032042 0.767706 0.644887
O O11 0.250000 0.771404 0.440225
O O12 0.331838 0.500000 0.470940
O O13 0.392975 0.776676 0.406486
O O14 0.750000 0.284661 0.943014
O O15 0.827483 0.000000 0.935696
O O16 0.947996 0.500000 0.668203
#
# Coordination Sequence:
#
# PCOD9404059 Si02
#       6
#     8   8   8   8   8   8
#     4  10  20  34  55  81 104 129 167 216 261 297
#     4  10  20  35  55  75  98 134 174 209 251 304
#     4   8  15  28  46  69  98 129 159 196 245 299
#     4   9  16  26  44  71 100 129 161 199 245 297
#     4  10  22  38  53  72 102 139 173 204 247 307
#     4   9  17  30  49  73  98 125 162 208 251 289
#
# _framework density 22.467207999999999
#
# number of rings (size 3 to 8) (size 9 to 14) (size 15 to 20)
#    0.000    2.667    0.000    3.000    0.000    7.000 
#    0.000    1.667    0.000    9.000    0.000    0.000 
#    0.000    0.000    0.000    0.000    0.000    0.000 
#
# Total GULP energy -268034.389174 kJ/mol
# GULP energy per Si atom -5584.049774 kJ/mol
# Density = 2.241607 g / cm^3
# Si number density = 22.467208 Si / 1000 Ang^3
#
#
#
# Elastic Constant Matrix: (Units=GPa)
#
#
# Indices 1 2 3 4 5 6 
#
# 1 41.7793 -4.6963 20.4403 0.0000 0.0000 0.0000
# 2 -4.6963 62.2434 -8.7113 0.0000 0.0000 0.0000
# 3 20.4403 -8.7113 70.4369 0.0000 0.0000 0.0000
# 4 0.0000 0.0000 0.0000 23.9735 0.0000 0.0000
# 5 0.0000 0.0000 0.0000 0.0000 -15.4313 0.0000
# 6 0.0000 0.0000 0.0000 0.0000 0.0000 6.3183
#
#
#
# Elastic Compliance Matrix: (Units=1/GPa)
#
#
# Indices 1 2 3 4 5 6 
#
# 1 0.027956 0.000991 -0.007990 0.000000 0.000000 0.000000
# 2 0.000991 0.016384 0.001739 0.000000 0.000000 0.000000
# 3 -0.007990 0.001739 0.016731 0.000000 0.000000 0.000000
# 4 0.000000 0.000000 0.000000 0.041713 0.000000 0.000000
# 5 0.000000 0.000000 0.000000 0.000000 -0.064803 0.000000
# 6 0.000000 0.000000 0.000000 0.000000 0.000000 0.158272
#
#
# Mechanical properties :
#
#
# Convention : Reuss Voigt Hill
#
# Bulk Modulus (GPa) = 19.78236 20.94723 20.36480
# Shear Modulus (GPa) = 22.35912 14.13386 18.24649
#
# Velocity S-wave (km/s) = 3.15808 2.51088 2.85290
# Velocity P-wave (km/s) = 4.70341 4.21305 4.46497
#
# Compressibility (1/GPa) = 0.05055008
#
# Stress axis : x y z
#
# Youngs Moduli (GPa) = 35.77078 61.03486 59.76998
#
# Poissons Ratio (x) = -0.06049 0.47756
# Poissons Ratio (y) = -0.03545 -0.10392
# Poissons Ratio (z) = 0.28581 -0.10612
#
# Static dielectric constant tensor:
#      x y z
#    x 1.828500 0.000000 0.000000 
#    y 0.000000 1.845570 0.000000 
#    z 0.000000 0.000000 1.802560 
# 
# From -- ./inp_files/24707.got.cif
#   From: 2010.05.17/outbox.cif.g08.bks.cpg/sg51_13_cif.got.tgz:24707.got - 2010.06.03 11:52:47.
