data_PCOD9404977
_publ_section_title
;
Structure prediction by ZEFSAII (Michael W. Deem and Ramdas Pophale) SiO2 
 PCOD9404977
Probable space group: P M M A
;
_chemical_formula_sum "Si O2"
_cell_formula_units_Z 48
_cell_length_a 28.691553
_cell_length_b 9.026930
_cell_length_c 10.336715
_cell_angle_alpha 90.000000
_cell_angle_beta 90.000000
_cell_angle_gamma 90.000000
_cell_volume 2677.174459
_symmetry_space_group_name_H-M "P M M A"
_symmetry_group_IT_number 51
_symmetry_cell_setting 'orthorhombic'
loop_
_space_group_symop_operation_xyz
x,y,z
1/2-x,-y,z
1/2+x,-y,-z
-x,y,-z
-x,-y,-z
1/2+x,y,-z
1/2-x,y,z
x,-y,z
loop_
_atom_site_type_symbol
_atom_site_label
_atom_site_fract_x
_atom_site_fract_y
_atom_site_fract_z
Si Si1 0.250000 0.679883 0.413148
Si Si2 0.991689 0.323225 0.150402
Si Si3 0.156212 0.823719 0.014095
Si Si4 0.750000 0.677776 0.889720
Si Si5 0.905201 0.323661 0.766337
Si Si6 0.647957 0.321627 0.499477
Si Si7 0.602452 0.823425 0.248792
O O1 0.250000 0.500000 0.414737
O O2 0.250000 0.722902 0.261936
O O3 0.201649 0.727464 0.479144
O O4 0.982538 0.500000 0.151302
O O5 0.948048 0.241052 0.212359
O O6 0.039649 0.295655 0.227202
O O7 0.000000 0.280185 0.000000
O O8 0.204292 0.741675 0.043052
O O9 0.119631 0.766435 0.120373
O O10 0.162293 0.000000 0.025468
O O11 0.135957 0.789653 0.872833
O O12 0.750000 0.500000 0.894244
O O13 0.898151 0.500000 0.790602
O O14 0.880977 0.288671 0.630145
O O15 0.647808 0.500000 0.483586
O O16 0.623699 0.247654 0.377286
O O17 0.599454 0.000000 0.262700
#
# Coordination Sequence:
#
# PCOD9404977 Si02
#       7
#     4   8   8   4   8   8   8
#     4   9  18  36  63  90 114 148 193 243 296 349
#     4  10  20  36  63  92 117 153 203 251 301 355
#     4  11  23  38  58  88 123 156 194 242 297 354
#     4  11  21  38  65  92 118 150 199 253 298 351
#     4  10  20  37  63  92 118 151 199 252 297 350
#     4  10  21  39  62  88 121 155 198 250 299 352
#     4  11  25  41  57  84 125 165 199 241 299 361
#
# _framework density 17.929351
#
# number of rings (size 3 to 8) (size 9 to 14) (size 15 to 20)
#    0.000    1.667    3.333    1.250    0.000    5.000 
#    0.000    5.417    0.000    0.000    0.000    0.000 
#    0.000    0.000    0.000    0.000    0.000    0.000 
#
# Total GULP energy -268130.570855 kJ/mol
# GULP energy per Si atom -5586.053559 kJ/mol
# Density = 1.788854 g / cm^3
# Si number density = 17.929351 Si / 1000 Ang^3
#
#
#
# Elastic Constant Matrix: (Units=GPa)
#
#
# Indices 1 2 3 4 5 6 
#
# 1 137.1540 42.4067 65.2708 0.0000 0.0000 0.0000
# 2 42.4067 31.9003 47.9102 0.0000 0.0000 0.0000
# 3 65.2708 47.9102 122.4799 0.0000 0.0000 0.0000
# 4 0.0000 0.0000 0.0000 22.0617 0.0000 0.0000
# 5 0.0000 0.0000 0.0000 0.0000 25.2218 0.0000
# 6 0.0000 0.0000 0.0000 0.0000 0.0000 56.9839
#
#
#
# Elastic Compliance Matrix: (Units=1/GPa)
#
#
# Indices 1 2 3 4 5 6 
#
# 1 0.012387 -0.015884 -0.000388 0.000000 0.000000 0.000000
# 2 -0.015884 0.096360 -0.029228 0.000000 0.000000 0.000000
# 3 -0.000388 -0.029228 0.019804 0.000000 0.000000 0.000000
# 4 0.000000 0.000000 0.000000 0.045327 0.000000 0.000000
# 5 0.000000 0.000000 0.000000 0.000000 0.039648 0.000000
# 6 0.000000 0.000000 0.000000 0.000000 0.000000 0.017549
#
#
# Mechanical properties :
#
#
# Convention : Reuss Voigt Hill
#
# Bulk Modulus (GPa) = 26.63027 66.96773 46.79900
# Shear Modulus (GPa) = 14.94355 29.91659 22.43007
#
# Velocity S-wave (km/s) = 2.89012 4.08926 3.54082
# Velocity P-wave (km/s) = 5.10119 7.72839 6.54791
#
# Compressibility (1/GPa) = 0.03755125
#
# Stress axis : x y z
#
# Youngs Moduli (GPa) = 80.73104 10.37775 50.49411
#
# Poissons Ratio (x) = 0.16484 0.01958
# Poissons Ratio (y) = 1.28234 1.47585
# Poissons Ratio (z) = 0.03130 0.30332
#
# Static dielectric constant tensor:
#      x y z
#    x 1.604240 0.000000 0.000000 
#    y 0.000000 1.595320 0.000000 
#    z 0.000000 0.000000 1.582410 
# 
# From -- ./inp_files/12984.got.cif
#   From: 2010.05.17/outbox.cif.g08.bks.cpg/sg51_7_cif.got.tgz:12984.got - 2010.06.03 11:52:47.
