data_PCOD9404659
_publ_section_title
;
Structure prediction by ZEFSAII (Michael W. Deem and Ramdas Pophale) SiO2 
 PCOD9404659
Probable space group: P M M A
;
_chemical_formula_sum "Si O2"
_cell_formula_units_Z 32
_cell_length_a 14.769753
_cell_length_b 11.714376
_cell_length_c 9.852697
_cell_angle_alpha 90.000000
_cell_angle_beta 90.000000
_cell_angle_gamma 90.000000
_cell_volume 1704.698265
_symmetry_space_group_name_H-M "P M M A"
_symmetry_group_IT_number 51
_symmetry_cell_setting 'orthorhombic'
loop_
_space_group_symop_operation_xyz
x,y,z
1/2-x,-y,z
1/2+x,-y,-z
-x,y,-z
-x,-y,-z
1/2+x,y,-z
1/2-x,y,z
x,-y,z
loop_
_atom_site_type_symbol
_atom_site_label
_atom_site_fract_x
_atom_site_fract_y
_atom_site_fract_z
Si Si1 0.405625 0.500000 0.082518
Si Si2 0.250000 0.862234 0.505582
Si Si3 0.609093 0.748544 0.999864
Si Si4 0.981530 0.500000 0.341136
Si Si5 0.750000 0.864836 0.808896
Si Si6 0.348406 0.710099 0.703111
O O1 0.432038 0.500000 0.241169
O O2 0.500000 0.500000 0.000000
O O3 0.362616 0.618355 0.037250
O O4 0.250000 0.827037 0.348133
O O5 0.335172 0.803086 0.583602
O O6 0.250000 0.000000 0.517707
O O7 0.639410 0.772059 0.153206
O O8 0.500000 0.757982 0.000000
O O9 0.661680 0.823362 0.890611
O O10 0.924818 0.385256 0.310095
O O11 0.000000 0.500000 0.500000
O O12 0.750000 0.000000 0.806399
O O13 0.250000 0.650255 0.704546
#
# Coordination Sequence:
#
# PCOD9404659 Si02
#       6
#     4   4   8   4   4   8
#     4  10  20  35  59  92 129 153 196 248 313 365
#     4   9  23  42  61  86 124 166 211 261 312 371
#     4  11  21  40  67  96 124 165 207 259 316 372
#     4  12  23  36  59  96 134 163 204 257 304 389
#     4  11  25  44  63  90 128 162 213 271 310 369
#     4  10  21  38  63  89 126 167 209 248 314 375
#
# _framework density 18.771652
#
# number of rings (size 3 to 8) (size 9 to 14) (size 15 to 20)
#    0.750    0.750    6.250    0.375    3.500    3.000 
#    0.000    1.250    0.000    3.750    0.000    0.000 
#    0.000    0.000    0.000    0.000    0.000    0.000 
#
# Total GULP energy -178289.018417 kJ/mol
# GULP energy per Si atom -5571.531826 kJ/mol
# Density = 1.872893 g / cm^3
# Si number density = 18.771652 Si / 1000 Ang^3
#
#
#
# Elastic Constant Matrix: (Units=GPa)
#
#
# Indices 1 2 3 4 5 6 
#
# 1 63.4486 17.2734 32.8761 0.0000 0.0000 0.0000
# 2 17.2734 65.5844 47.8002 0.0000 0.0000 0.0000
# 3 32.8761 47.8002 188.3376 0.0000 0.0000 0.0000
# 4 0.0000 0.0000 0.0000 27.4525 0.0000 0.0000
# 5 0.0000 0.0000 0.0000 0.0000 28.5910 0.0000
# 6 0.0000 0.0000 0.0000 0.0000 0.0000 58.9942
#
#
#
# Elastic Compliance Matrix: (Units=1/GPa)
#
#
# Indices 1 2 3 4 5 6 
#
# 1 0.017788 -0.002972 -0.002351 0.000000 0.000000 0.000000
# 2 -0.002972 0.019205 -0.004355 0.000000 0.000000 0.000000
# 3 -0.002351 -0.004355 0.006825 0.000000 0.000000 0.000000
# 4 0.000000 0.000000 0.000000 0.036426 0.000000 0.000000
# 5 0.000000 0.000000 0.000000 0.000000 0.034976 0.000000
# 6 0.000000 0.000000 0.000000 0.000000 0.000000 0.016951
#
#
# Mechanical properties :
#
#
# Convention : Reuss Voigt Hill
#
# Bulk Modulus (GPa) = 40.87943 57.03002 48.95472
# Shear Modulus (GPa) = 31.31247 37.63562 34.47404
#
# Velocity S-wave (km/s) = 4.08863 4.48249 4.29008
# Velocity P-wave (km/s) = 6.64182 7.56552 7.11867
#
# Compressibility (1/GPa) = 0.02446218
#
# Stress axis : x y z
#
# Youngs Moduli (GPa) = 56.21806 52.07102 146.51185
#
# Poissons Ratio (x) = 0.15473 0.34443
# Poissons Ratio (y) = 0.16705 0.63812
# Poissons Ratio (z) = 0.13216 0.22679
#
# Static dielectric constant tensor:
#      x y z
#    x 1.676980 0.000000 0.000000 
#    y 0.000000 1.637820 0.000000 
#    z 0.000000 0.000000 1.665720 
# 
# From -- ./inp_files/7633.got.cif
#   From: 2010.05.17/outbox.cif.g08.bks.cpg/sg51_4_cif.got.tgz:7633.got - 2010.06.03 11:52:47.
