data_PCOD9404392
_publ_section_title
;
Structure prediction by ZEFSAII (Michael W. Deem and Ramdas Pophale) SiO2 
 PCOD9404392
Probable space group: P M M A
;
_chemical_formula_sum "Si O2"
_cell_formula_units_Z 48
_cell_length_a 8.532032
_cell_length_b 31.706285
_cell_length_c 9.559250
_cell_angle_alpha 90.000000
_cell_angle_beta 90.000000
_cell_angle_gamma 90.000000
_cell_volume 2585.959116
_symmetry_space_group_name_H-M "P M M A"
_symmetry_group_IT_number 51
_symmetry_cell_setting 'orthorhombic'
loop_
_space_group_symop_operation_xyz
x,y,z
1/2-x,-y,z
1/2+x,-y,-z
-x,y,-z
-x,-y,-z
1/2+x,y,-z
1/2-x,y,z
x,-y,z
loop_
_atom_site_type_symbol
_atom_site_label
_atom_site_fract_x
_atom_site_fract_y
_atom_site_fract_z
Si Si1 0.439233 0.874339 0.842819
Si Si2 0.561646 0.793745 0.341992
Si Si3 0.939349 0.048077 0.345018
Si Si4 0.560847 0.546741 0.342600
Si Si5 0.562882 0.716839 0.841722
Si Si6 0.061301 0.374460 0.843042
O O1 0.250000 0.874520 0.846976
O O2 0.488131 0.834925 0.746559
O O3 0.492029 0.917545 0.767729
O O4 0.500000 0.870460 0.000000
O O5 0.500000 0.795630 0.500000
O O6 0.750000 0.792552 0.344597
O O7 0.499141 0.752868 0.260653
O O8 0.750000 0.048702 0.348657
O O9 0.000000 0.058894 0.500000
O O10 0.989646 0.000000 0.313246
O O11 0.500000 0.551237 0.500000
O O12 0.750000 0.547398 0.344549
O O13 0.511788 0.500000 0.291117
O O14 0.508223 0.586025 0.249711
O O15 0.750000 0.717220 0.846071
O O16 0.503663 0.670733 0.794519
O O17 0.500000 0.723701 0.000000
O O18 0.250000 0.372590 0.843697
O O19 0.000000 0.380385 0.000000
#
# Coordination Sequence:
#
# PCOD9404392 Si02
#       6
#     8   8   8   8   8   8
#     4  10  22  37  55  80 110 144 181 223 269 320
#     4  11  23  39  58  82 110 141 181 225 272 324
#     4   9  18  34  55  80 110 143 180 222 268 318
#     4   9  19  35  54  77 106 140 178 220 265 315
#     4  11  22  38  59  82 110 143 180 222 271 324
#     4  10  20  35  55  80 110 142 179 221 266 318
#
# _framework density 18.561779000000001
#
# number of rings (size 3 to 8) (size 9 to 14) (size 15 to 20)
#    0.000    2.000    0.000    4.500    0.000    6.000 
#    0.000    1.667    0.000    0.000    0.000    0.000 
#    0.000    0.000    0.000    0.000    0.000    0.000 
#
# Total GULP energy -268056.732316 kJ/mol
# GULP energy per Si atom -5584.515257 kJ/mol
# Density = 1.851953 g / cm^3
# Si number density = 18.561779 Si / 1000 Ang^3
#
#
#
# Elastic Constant Matrix: (Units=GPa)
#
#
# Indices 1 2 3 4 5 6 
#
# 1 51.8148 41.8357 32.9067 0.0000 0.0000 0.0000
# 2 41.8357 184.6491 123.7756 0.0000 0.0000 0.0000
# 3 32.9067 123.7756 134.3294 0.0000 0.0000 0.0000
# 4 0.0000 0.0000 0.0000 43.7680 0.0000 0.0000
# 5 0.0000 0.0000 0.0000 0.0000 35.2231 0.0000
# 6 0.0000 0.0000 0.0000 0.0000 0.0000 -15.2409
#
#
#
# Elastic Compliance Matrix: (Units=1/GPa)
#
#
# Indices 1 2 3 4 5 6 
#
# 1 0.023880 -0.003895 -0.002261 0.000000 0.000000 0.000000
# 2 -0.003895 0.014800 -0.012683 0.000000 0.000000 0.000000
# 3 -0.002261 -0.012683 0.019685 0.000000 0.000000 0.000000
# 4 0.000000 0.000000 0.000000 0.022848 0.000000 0.000000
# 5 0.000000 0.000000 0.000000 0.000000 0.028390 0.000000
# 6 0.000000 0.000000 0.000000 0.000000 0.000000 -0.065613
#
#
# Mechanical properties :
#
#
# Convention : Reuss Voigt Hill
#
# Bulk Modulus (GPa) = 48.33942 85.31437 66.82690
# Shear Modulus (GPa) = 56.45652 24.23507 40.34579
#
# Velocity S-wave (km/s) = 5.52101 3.61729 4.66724
# Velocity P-wave (km/s) = 8.16952 7.96922 8.06999
#
# Compressibility (1/GPa) = 0.02068705
#
# Stress axis : x y z
#
# Youngs Moduli (GPa) = 41.87566 67.56800 50.80051
#
# Poissons Ratio (x) = 0.26316 0.11487
# Poissons Ratio (y) = 0.16310 0.64430
# Poissons Ratio (z) = 0.09469 0.85697
#
# Static dielectric constant tensor:
#      x y z
#    x 1.627560 0.000000 0.000000 
#    y 0.000000 1.654460 0.000000 
#    z 0.000000 0.000000 1.580270 
# 
# From -- ./inp_files/6071.got.cif
#   From: 2010.05.17/outbox.cif.g08.bks.cpg/sg51_4_cif.got.tgz:6071.got - 2010.06.03 11:52:47.
