data_PCOD9404146
_publ_section_title
;
Structure prediction by ZEFSAII (Michael W. Deem and Ramdas Pophale) SiO2 
 PCOD9404146
Probable space group: P M M A
;
_chemical_formula_sum "Si O2"
_cell_formula_units_Z 40
_cell_length_a 15.485583
_cell_length_b 9.175926
_cell_length_c 14.769115
_cell_angle_alpha 90.000000
_cell_angle_beta 90.000000
_cell_angle_gamma 90.000000
_cell_volume 2098.610952
_symmetry_space_group_name_H-M "P M M A"
_symmetry_group_IT_number 51
_symmetry_cell_setting 'orthorhombic'
loop_
_space_group_symop_operation_xyz
x,y,z
1/2-x,-y,z
1/2+x,-y,-z
-x,y,-z
-x,-y,-z
1/2+x,y,-z
1/2-x,y,z
x,-y,z
loop_
_atom_site_type_symbol
_atom_site_label
_atom_site_fract_x
_atom_site_fract_y
_atom_site_fract_z
Si Si1 0.250000 0.673563 0.892840
Si Si2 0.145100 0.331372 0.599447
Si Si3 0.901712 0.826521 0.784828
Si Si4 0.145507 0.169281 0.417530
Si Si5 0.400936 0.172945 0.782806
Si Si6 0.250000 0.672957 0.107199
O O1 0.250000 0.500000 0.876480
O O2 0.166741 0.744917 0.846131
O O3 0.250000 0.701022 0.999957
O O4 0.250000 0.324472 0.603676
O O5 0.119761 0.500000 0.608819
O O6 0.118496 0.265936 0.502659
O O7 0.110186 0.235614 0.681770
O O8 0.890834 0.783378 0.679417
O O9 0.833650 0.742629 0.845861
O O10 0.000482 0.803096 0.812778
O O11 0.882951 0.000000 0.788688
O O12 0.250000 0.175519 0.410920
O O13 0.121541 0.000000 0.433145
O O14 0.383728 0.000000 0.782479
O O15 0.250000 0.500000 0.121529
#
# Coordination Sequence:
#
# PCOD9404146 Si02
#       6
#     4   8   8   8   8   4
#     4  11  25  45  64  87 122 157 195 248 308 363
#     4  10  20  34  55  85 124 164 200 244 295 349
#     4  10  22  41  64  92 124 157 199 251 299 351
#     4   9  17  33  58  84 117 161 201 240 291 350
#     4  11  23  39  64  93 120 157 204 249 298 356
#     4  11  25  43  66  91 118 157 197 244 306 367
#
# _framework density 19.060226
#
# number of rings (size 3 to 8) (size 9 to 14) (size 15 to 20)
#    0.000    1.800    2.000    1.800    0.000    6.400 
#    0.000    8.000    0.000    0.000    0.000    0.000 
#    0.000    0.000    0.000    0.000    0.000    0.000 
#
# Total GULP energy -223590.988352 kJ/mol
# GULP energy per Si atom -5589.774709 kJ/mol
# Density = 1.901684 g / cm^3
# Si number density = 19.060226 Si / 1000 Ang^3
#
#
#
# Elastic Constant Matrix: (Units=GPa)
#
#
# Indices 1 2 3 4 5 6 
#
# 1 100.2615 78.5033 87.6295 0.0000 0.0000 0.0000
# 2 78.5033 108.8690 94.8480 0.0000 0.0000 0.0000
# 3 87.6295 94.8480 142.1054 0.0000 0.0000 0.0000
# 4 0.0000 0.0000 0.0000 38.4185 0.0000 0.0000
# 5 0.0000 0.0000 0.0000 0.0000 -14.0715 0.0000
# 6 0.0000 0.0000 0.0000 0.0000 0.0000 11.7079
#
#
#
# Elastic Compliance Matrix: (Units=1/GPa)
#
#
# Indices 1 2 3 4 5 6 
#
# 1 0.026715 -0.011735 -0.008641 0.000000 0.000000 0.000000
# 2 -0.011735 0.027103 -0.010853 0.000000 0.000000 0.000000
# 3 -0.008641 -0.010853 0.019609 0.000000 0.000000 0.000000
# 4 0.000000 0.000000 0.000000 0.026029 0.000000 0.000000
# 5 0.000000 0.000000 0.000000 0.000000 -0.071066 0.000000
# 6 0.000000 0.000000 0.000000 0.000000 0.000000 0.085412
#
#
# Mechanical properties :
#
#
# Convention : Reuss Voigt Hill
#
# Bulk Modulus (GPa) = 91.17328 97.02195 94.09762
# Shear Modulus (GPa) = 27.79041 13.22799 20.50920
#
# Velocity S-wave (km/s) = 3.82256 2.63727 3.28383
# Velocity P-wave (km/s) = 8.21102 7.76446 7.99086
#
# Compressibility (1/GPa) = 0.01096813
#
# Stress axis : x y z
#
# Youngs Moduli (GPa) = 37.43227 36.89632 50.99594
#
# Poissons Ratio (x) = 0.43300 0.44065
# Poissons Ratio (y) = 0.43929 0.55347
# Poissons Ratio (z) = 0.32345 0.40044
#
# Static dielectric constant tensor:
#      x y z
#    x 1.667920 0.000000 0.000000 
#    y 0.000000 1.636230 0.000000 
#    z 0.000000 0.000000 1.631830 
# 
# From -- ./inp_files/23807.got.cif
#   From: 2010.05.17/outbox.cif.g08.bks.cpg/sg51_12_cif.got.tgz:23807.got - 2010.06.03 11:52:47.
