data_PCOD9404809
_publ_section_title
;
Structure prediction by ZEFSAII (Michael W. Deem and Ramdas Pophale) SiO2 
 PCOD9404809
Probable space group: P M M A
;
_chemical_formula_sum "Si O2"
_cell_formula_units_Z 56
_cell_length_a 8.552351
_cell_length_b 24.445303
_cell_length_c 14.745285
_cell_angle_alpha 90.000000
_cell_angle_beta 90.000000
_cell_angle_gamma 90.000000
_cell_volume 3082.720230
_symmetry_space_group_name_H-M "P M M A"
_symmetry_group_IT_number 51
_symmetry_cell_setting 'orthorhombic'
loop_
_space_group_symop_operation_xyz
x,y,z
1/2-x,-y,z
1/2+x,-y,-z
-x,y,-z
-x,-y,-z
1/2+x,y,-z
1/2-x,y,z
x,-y,z
loop_
_atom_site_type_symbol
_atom_site_label
_atom_site_fract_x
_atom_site_fract_y
_atom_site_fract_z
Si Si1 0.562279 0.148271 0.397856
Si Si2 0.937182 0.645237 0.253562
Si Si3 0.062216 0.847765 0.897809
Si Si4 0.064046 0.232559 0.252991
Si Si5 0.938624 0.561304 0.100995
Si Si6 0.059740 0.062285 0.753157
Si Si7 0.937542 0.438541 0.602088
O O1 0.500000 0.146932 0.500000
O O2 0.750000 0.149615 0.399825
O O3 0.502917 0.200126 0.340056
O O4 0.512886 0.095762 0.337008
O O5 0.750000 0.651370 0.250004
O O6 0.991211 0.608948 0.167846
O O7 0.013249 0.704612 0.255277
O O8 0.984683 0.608527 0.339047
O O9 0.250000 0.846250 0.899540
O O10 0.012774 0.901773 0.840592
O O11 0.002509 0.797389 0.836643
O O12 0.000000 0.847265 0.000000
O O13 0.250000 0.227778 0.253058
O O14 0.750000 0.561588 0.100253
O O15 0.989194 0.500000 0.129924
O O16 0.000000 0.570058 0.000000
O O17 0.250000 0.061141 0.753275
O O18 0.003378 0.000000 0.754956
O O19 0.750000 0.433203 0.603415
O O20 0.977876 0.500000 0.635961
O O21 0.000000 0.435052 0.500000
#
# Coordination Sequence:
#
# PCOD9404809 Si02
#       7
#     8   8   8   8   8   8   8
#     4  10  20  36  58  82 111 147 185 224 271 324
#     4  11  22  37  57  81 110 142 180 225 276 330
#     4  10  20  36  58  82 111 148 187 226 273 325
#     4  11  23  39  57  79 108 141 184 233 279 327
#     4   9  19  35  55  79 107 139 173 212 260 315
#     4   8  16  32  54  82 116 149 182 223 268 318
#     4  10  21  37  57  82 111 143 180 222 271 328
#
# _framework density 18.165775
#
# number of rings (size 3 to 8) (size 9 to 14) (size 15 to 20)
#    0.000    2.143    0.000    4.286    0.000    4.286 
#    0.000    5.714    0.000   14.571    0.000    0.000 
#    0.000    0.000    0.000    0.000    0.000    0.000 
#
# Total GULP energy -312611.262747 kJ/mol
# GULP energy per Si atom -5582.343978 kJ/mol
# Density = 1.812443 g / cm^3
# Si number density = 18.165775 Si / 1000 Ang^3
#
#
#
# Elastic Constant Matrix: (Units=GPa)
#
#
# Indices 1 2 3 4 5 6 
#
# 1 62.9525 37.8635 38.4511 0.0000 0.0000 0.0000
# 2 37.8635 171.3405 92.6073 0.0000 0.0000 0.0000
# 3 38.4511 92.6073 160.9374 0.0000 0.0000 0.0000
# 4 0.0000 0.0000 0.0000 12.5406 0.0000 0.0000
# 5 0.0000 0.0000 0.0000 0.0000 30.4498 0.0000
# 6 0.0000 0.0000 0.0000 0.0000 0.0000 25.3961
#
#
#
# Elastic Compliance Matrix: (Units=1/GPa)
#
#
# Indices 1 2 3 4 5 6 
#
# 1 0.019354 -0.002580 -0.003139 0.000000 0.000000 0.000000
# 2 -0.002580 0.008815 -0.004456 0.000000 0.000000 0.000000
# 3 -0.003139 -0.004456 0.009528 0.000000 0.000000 0.000000
# 4 0.000000 0.000000 0.000000 0.079741 0.000000 0.000000
# 5 0.000000 0.000000 0.000000 0.000000 0.032841 0.000000
# 6 0.000000 0.000000 0.000000 0.000000 0.000000 0.039376
#
#
# Mechanical properties :
#
#
# Convention : Reuss Voigt Hill
#
# Bulk Modulus (GPa) = 57.65013 81.45270 69.55141
# Shear Modulus (GPa) = 23.17094 28.76455 25.96775
#
# Velocity S-wave (km/s) = 3.57533 3.98357 3.78496
# Velocity P-wave (km/s) = 6.98916 8.12984 7.58099
#
# Compressibility (1/GPa) = 0.01734601
#
# Stress axis : x y z
#
# Youngs Moduli (GPa) = 51.66778 113.44542 104.95776
#
# Poissons Ratio (x) = 0.29271 0.32951
# Poissons Ratio (y) = 0.13331 0.46767
# Poissons Ratio (z) = 0.16221 0.50549
#
# Static dielectric constant tensor:
#      x y z
#    x 1.613080 0.000000 0.000000 
#    y 0.000000 1.612780 0.000000 
#    z 0.000000 0.000000 1.637270 
# 
# From -- ./inp_files/21731.got.cif
#   From: 2010.05.17/outbox.cif.g08.bks.cpg/sg51_11_cif.got.tgz:21731.got - 2010.06.03 11:52:47.
