data_PCOD9404173
_publ_section_title
;
Structure prediction by ZEFSAII (Michael W. Deem and Ramdas Pophale) SiO2 
 PCOD9404173
Probable space group: P M M A
;
_chemical_formula_sum "Si O2"
_cell_formula_units_Z 58
_cell_length_a 18.446844
_cell_length_b 7.680853
_cell_length_c 19.369756
_cell_angle_alpha 90.000000
_cell_angle_beta 90.000000
_cell_angle_gamma 90.000000
_cell_volume 2744.452247
_symmetry_space_group_name_H-M "P M M A"
_symmetry_group_IT_number 51
_symmetry_cell_setting 'orthorhombic'
loop_
_space_group_symop_operation_xyz
x,y,z
1/2-x,-y,z
1/2+x,-y,-z
-x,y,-z
-x,-y,-z
1/2+x,y,-z
1/2-x,y,z
x,-y,z
loop_
_atom_site_type_symbol
_atom_site_label
_atom_site_fract_x
_atom_site_fract_y
_atom_site_fract_z
Si Si1 0.862137 0.790741 0.102779
Si Si2 0.971745 0.788543 0.860420
Si Si3 0.021685 0.797535 0.717165
Si Si4 0.532356 0.696388 0.569284
Si Si5 0.832140 0.796579 0.497961
Si Si6 0.169221 0.294603 0.657740
Si Si7 0.830156 0.789813 0.941523
Si Si8 0.250000 0.500000 0.851003
O O1 0.813314 0.655577 0.145469
O O2 0.948205 0.753144 0.109222
O O3 0.851264 0.000000 0.118010
O O4 0.839757 0.759463 0.023106
O O5 0.900964 0.723020 0.900921
O O6 0.977217 0.723429 0.781374
O O7 0.965118 0.000000 0.861855
O O8 0.104256 0.735258 0.710149
O O9 0.984507 0.773960 0.643068
O O10 0.027879 0.000000 0.731026
O O11 0.500000 0.784319 0.500000
O O12 0.502228 0.500000 0.572163
O O13 0.616315 0.697528 0.550001
O O14 0.750000 0.733335 0.501215
O O15 0.853204 0.779231 0.417234
O O16 0.834758 0.000000 0.515715
O O17 0.250000 0.227441 0.675774
O O18 0.175307 0.500000 0.648792
O O19 0.750000 0.724630 0.920265
O O20 0.828976 0.000000 0.933093
#
# Coordination Sequence:
#
# PCOD9404173 Si02
#       8
#     8   8   8   8   8   8   8   2
#     4  10  20  39  64  91 130 169 208 257 308 363
#     4   9  20  38  59  88 123 164 206 249 309 371
#     4  11  22  37  57  81 115 154 197 246 294 352
#     4  11  22  36  57  81 107 147 190 233 286 350
#     4  10  20  34  56  85 109 132 175 236 294 344
#     4  10  20  35  53  76 108 145 184 231 291 358
#     4   9  16  33  66  95 118 158 204 250 304 362
#     4  12  22  36  62 102 130 164 212 262 304 366
#
# _framework density 21.133543
#
# number of rings (size 3 to 8) (size 9 to 14) (size 15 to 20)
#    0.000    1.931    2.069    2.276    0.000    3.862 
#    3.724    2.069    0.000    2.483    0.000    0.000 
#    0.000    0.000    0.000    0.000    0.000    0.000 
#
# Total GULP energy -323153.413372 kJ/mol
# GULP energy per Si atom -5571.610575 kJ/mol
# Density = 2.108544 g / cm^3
# Si number density = 21.133543 Si / 1000 Ang^3
#
#
#
# Elastic Constant Matrix: (Units=GPa)
#
#
# Indices 1 2 3 4 5 6 
#
# 1 134.1548 17.7218 54.4800 0.0000 0.0000 0.0000
# 2 17.7218 64.1282 10.2826 0.0000 0.0000 0.0000
# 3 54.4800 10.2826 76.0765 0.0000 0.0000 0.0000
# 4 0.0000 0.0000 0.0000 -497.5467 0.0000 0.0000
# 5 0.0000 0.0000 0.0000 0.0000 8.9112 0.0000
# 6 0.0000 0.0000 0.0000 0.0000 0.0000 17.4778
#
#
#
# Elastic Compliance Matrix: (Units=1/GPa)
#
#
# Indices 1 2 3 4 5 6 
#
# 1 0.010703 -0.001767 -0.007426 0.000000 0.000000 0.000000
# 2 -0.001767 0.016231 -0.000928 0.000000 0.000000 0.000000
# 3 -0.007426 -0.000928 0.018588 0.000000 0.000000 0.000000
# 4 0.000000 0.000000 0.000000 -0.002010 0.000000 0.000000
# 5 0.000000 0.000000 0.000000 0.000000 0.112219 0.000000
# 6 0.000000 0.000000 0.000000 0.000000 0.000000 0.057216
#
#
# Mechanical properties :
#
#
# Convention : Reuss Voigt Hill
#
# Bulk Modulus (GPa) = 39.55792 48.81425 44.18608
# Shear Modulus (GPa) = 20.69400 -81.43989 -30.37294
#
# Velocity S-wave (km/s) = 3.13261 -6.21446 -3.79514
# Velocity P-wave (km/s) = 5.64297 5.32396 1.32260
#
# Compressibility (1/GPa) = 0.02527939
#
# Stress axis : x y z
#
# Youngs Moduli (GPa) = 93.43034 61.61071 53.79813
#
# Poissons Ratio (x) = 0.10887 0.39950
# Poissons Ratio (y) = 0.16510 0.04994
# Poissons Ratio (z) = 0.69381 0.05720
#
# Static dielectric constant tensor:
#      x y z
#    x 1.807360 0.000000 0.000000 
#    y 0.000000 1.786030 0.000000 
#    z 0.000000 0.000000 1.796530 
# 
# From -- ./inp_files/30173.got.cif
#   From: 2010.05.17/outbox.cif.g08.bks.cpg/sg51_16_cif.got.tgz:30173.got - 2010.06.03 11:52:47.
