data_PCOD9404320
_publ_section_title
;
Structure prediction by ZEFSAII (Michael W. Deem and Ramdas Pophale) SiO2 
 PCOD9404320
Probable space group: P M M A
;
_chemical_formula_sum "Si O2"
_cell_formula_units_Z 48
_cell_length_a 8.691096
_cell_length_b 31.682481
_cell_length_c 9.607899
_cell_angle_alpha 90.000000
_cell_angle_beta 90.000000
_cell_angle_gamma 90.000000
_cell_volume 2645.587678
_symmetry_space_group_name_H-M "P M M A"
_symmetry_group_IT_number 51
_symmetry_cell_setting 'orthorhombic'
loop_
_space_group_symop_operation_xyz
x,y,z
1/2-x,-y,z
1/2+x,-y,-z
-x,y,-z
-x,-y,-z
1/2+x,y,-z
1/2-x,y,z
x,-y,z
loop_
_atom_site_type_symbol
_atom_site_label
_atom_site_fract_x
_atom_site_fract_y
_atom_site_fract_z
Si Si1 0.435403 0.078018 0.154867
Si Si2 0.564002 0.580140 0.155740
Si Si3 0.063794 0.000000 0.345079
Si Si4 0.935723 0.500000 0.343576
Si Si5 0.934374 0.173052 0.845334
Si Si6 0.935514 0.342064 0.345343
Si Si7 0.934352 0.753686 0.345985
O O1 0.250000 0.076510 0.146255
O O2 0.478707 0.125478 0.201412
O O3 0.486231 0.041520 0.259657
O O4 0.500000 0.071044 0.000000
O O5 0.750000 0.579949 0.147630
O O6 0.517399 0.541084 0.254489
O O7 0.514427 0.623061 0.233900
O O8 0.500000 0.576609 0.000000
O O9 0.000000 0.000000 0.500000
O O10 0.250000 0.000000 0.350096
O O11 0.750000 0.500000 0.352963
O O12 0.000000 0.500000 0.500000
O O13 0.750000 0.175447 0.847709
O O14 0.000307 0.210072 0.751452
O O15 0.000000 0.177835 0.000000
O O16 0.750000 0.343783 0.354277
O O17 0.979251 0.294229 0.303960
O O18 0.000000 0.350578 0.500000
O O19 0.750000 0.755835 0.348118
O O20 0.000000 0.759963 0.500000
#
# Coordination Sequence:
#
# PCOD9404320 Si02
#       7
#     8   8   4   4   8   8   8
#     4   9  19  35  55  77 102 133 171 210 252 304
#     4  10  21  36  53  78 108 137 171 213 257 305
#     4  10  21  36  52  76 106 134 167 208 252 302
#     4  10  21  36  56  80 106 136 173 212 254 306
#     4  10  20  35  54  78 106 137 173 215 260 309
#     4   9  19  35  54  76 103 135 175 215 255 306
#     4  10  20  35  54  77 105 139 176 217 262 310
#
# _framework density 18.143415999999998
#
# number of rings (size 3 to 8) (size 9 to 14) (size 15 to 20)
#    0.000    2.333    0.000    2.000    0.000    4.667 
#    0.000    3.333    0.000    0.000    0.000    0.000 
#    0.000    0.000    0.000    0.000    0.000    0.000 
#
# Total GULP energy -267881.493146 kJ/mol
# GULP energy per Si atom -5580.864441 kJ/mol
# Density = 1.810212 g / cm^3
# Si number density = 18.143416 Si / 1000 Ang^3
#
#
#
# Elastic Constant Matrix: (Units=GPa)
#
#
# Indices 1 2 3 4 5 6 
#
# 1 23.9176 46.2728 33.6082 0.0000 0.0000 0.0000
# 2 46.2728 198.9211 135.3040 0.0000 0.0000 0.0000
# 3 33.6082 135.3040 146.1804 0.0000 0.0000 0.0000
# 4 0.0000 0.0000 0.0000 41.2308 0.0000 0.0000
# 5 0.0000 0.0000 0.0000 0.0000 38.4250 0.0000
# 6 0.0000 0.0000 0.0000 0.0000 0.0000 21.0183
#
#
#
# Elastic Compliance Matrix: (Units=1/GPa)
#
#
# Indices 1 2 3 4 5 6 
#
# 1 0.076514 -0.015747 -0.003015 0.000000 0.000000 0.000000
# 2 -0.015747 0.016812 -0.011941 0.000000 0.000000 0.000000
# 3 -0.003015 -0.011941 0.018587 0.000000 0.000000 0.000000
# 4 0.000000 0.000000 0.000000 0.024254 0.000000 0.000000
# 5 0.000000 0.000000 0.000000 0.000000 0.026025 0.000000
# 6 0.000000 0.000000 0.000000 0.000000 0.000000 0.047578
#
#
# Mechanical properties :
#
#
# Convention : Reuss Voigt Hill
#
# Bulk Modulus (GPa) = 19.80002 88.82102 54.31052
# Shear Modulus (GPa) = 17.36041 30.39043 23.87542
#
# Velocity S-wave (km/s) = 3.09664 4.09713 3.63151
# Velocity P-wave (km/s) = 4.87056 8.45241 6.89803
#
# Compressibility (1/GPa) = 0.05050499
#
# Stress axis : x y z
#
# Youngs Moduli (GPa) = 13.06956 59.47971 53.80188
#
# Poissons Ratio (x) = 0.93666 0.16223
# Poissons Ratio (y) = 0.20581 0.64245
# Poissons Ratio (z) = 0.03941 0.71025
#
# Static dielectric constant tensor:
#      x y z
#    x 1.620890 0.000000 0.000000 
#    y 0.000000 1.643280 0.000000 
#    z 0.000000 0.000000 1.566630 
# 
# From -- ./inp_files/6181.got.cif
#   From: 2010.05.17/outbox.cif.g08.bks.cpg/sg51_4_cif.got.tgz:6181.got - 2010.06.03 11:52:47.
