data_PCOD9404750
_publ_section_title
;
Structure prediction by ZEFSAII (Michael W. Deem and Ramdas Pophale) SiO2 
 PCOD9404750
Probable space group: P M M A
;
_chemical_formula_sum "Si O2"
_cell_formula_units_Z 44
_cell_length_a 8.252016
_cell_length_b 29.466106
_cell_length_c 9.679188
_cell_angle_alpha 90.000000
_cell_angle_beta 90.000000
_cell_angle_gamma 90.000000
_cell_volume 2353.540811
_symmetry_space_group_name_H-M "P M M A"
_symmetry_group_IT_number 51
_symmetry_cell_setting 'orthorhombic'
loop_
_space_group_symop_operation_xyz
x,y,z
1/2-x,-y,z
1/2+x,-y,-z
-x,y,-z
-x,-y,-z
1/2+x,y,-z
1/2-x,y,z
x,-y,z
loop_
_atom_site_type_symbol
_atom_site_label
_atom_site_fract_x
_atom_site_fract_y
_atom_site_fract_z
Si Si1 0.554080 0.000000 0.657089
Si Si2 0.445683 0.548684 0.839940
Si Si3 0.946292 0.351945 0.159274
Si Si4 0.556066 0.814137 0.845064
Si Si5 0.445666 0.917289 0.154677
Si Si6 0.443407 0.732194 0.657391
O O1 0.500000 0.000000 0.500000
O O2 0.496941 0.955039 0.737842
O O3 0.750000 0.000000 0.661528
O O4 0.250000 0.548569 0.834796
O O5 0.502008 0.500000 0.779560
O O6 0.500413 0.598068 0.787529
O O7 0.500000 0.548473 0.000000
O O8 0.750000 0.351472 0.159643
O O9 0.005883 0.310964 0.254583
O O10 0.000000 0.346348 0.000000
O O11 0.750000 0.814217 0.843391
O O12 0.498222 0.865736 0.816566
O O13 0.495241 0.777912 0.735227
O O14 0.500000 0.801859 0.000000
O O15 0.250000 0.916911 0.157266
O O16 0.500000 0.929294 0.000000
O O17 0.500000 0.731162 0.500000
O O18 0.250000 0.730055 0.658580
#
# Coordination Sequence:
#
# PCOD9404750 Si02
#       6
#     4   8   8   8   8   8
#     4  10  21  36  52  76 108 140 173 208 248 294
#     4   8  13  23  41  66  94 121 151 192 241 290
#     4   9  18  31  49  73  98 126 162 202 246 296
#     4  10  20  36  57  81 106 133 168 210 254 302
#     4   9  19  35  56  80 105 133 168 208 249 296
#     4  11  23  37  52  72 100 135 172 211 256 304
#
# _framework density 18.695235
#
# number of rings (size 3 to 8) (size 9 to 14) (size 15 to 20)
#    0.000    2.545    0.000    1.909    0.000    5.091 
#    0.000    1.818    0.000    0.545    0.000    0.000 
#    0.000    0.000    0.000    0.000    0.000    0.182 
#
# Total GULP energy -245299.295401 kJ/mol
# GULP energy per Si atom -5574.983986 kJ/mol
# Density = 1.865268 g / cm^3
# Si number density = 18.695235 Si / 1000 Ang^3
#
#
#
# Elastic Constant Matrix: (Units=GPa)
#
#
# Indices 1 2 3 4 5 6 
#
# 1 16.5698 19.1801 12.6671 0.0000 0.0000 0.0000
# 2 19.1801 172.1077 118.4555 0.0000 0.0000 0.0000
# 3 12.6671 118.4555 125.1250 0.0000 0.0000 0.0000
# 4 0.0000 0.0000 0.0000 -2.6984 0.0000 0.0000
# 5 0.0000 0.0000 0.0000 0.0000 27.8507 0.0000
# 6 0.0000 0.0000 0.0000 0.0000 0.0000 17.4346
#
#
#
# Elastic Compliance Matrix: (Units=1/GPa)
#
#
# Indices 1 2 3 4 5 6 
#
# 1 0.069320 -0.008309 0.000849 0.000000 0.000000 0.000000
# 2 -0.008309 0.017672 -0.015889 0.000000 0.000000 0.000000
# 3 0.000849 -0.015889 0.022948 0.000000 0.000000 0.000000
# 4 0.000000 0.000000 0.000000 -0.370591 0.000000 0.000000
# 5 0.000000 0.000000 0.000000 0.000000 0.035906 0.000000
# 6 0.000000 0.000000 0.000000 0.000000 0.000000 0.057357
#
#
# Mechanical properties :
#
#
# Convention : Reuss Voigt Hill
#
# Bulk Modulus (GPa) = 15.81243 68.26754 42.03999
# Shear Modulus (GPa) = -50.19698 19.41736 -15.38981
#
# Velocity S-wave (km/s) = -5.18733 3.22627 -2.87225
# Velocity P-wave (km/s) = 5.23465 7.10448 3.39648
#
# Compressibility (1/GPa) = 0.06324139
#
# Stress axis : x y z
#
# Youngs Moduli (GPa) = 14.42579 56.58633 43.57660
#
# Poissons Ratio (x) = 0.47020 -0.03699
# Poissons Ratio (y) = 0.11987 0.69239
# Poissons Ratio (z) = -0.01224 0.89910
#
# Static dielectric constant tensor:
#      x y z
#    x 1.666020 0.000000 0.000000 
#    y 0.000000 1.709860 0.000000 
#    z 0.000000 0.000000 1.588300 
# 
# From -- ./inp_files/5781.got.cif
#   From: 2010.05.17/outbox.cif.g08.bks.cpg/sg51_3_cif.got.tgz:5781.got - 2010.06.03 11:52:47.
