data_PCOD9404682
_publ_section_title
;
Structure prediction by ZEFSAII (Michael W. Deem and Ramdas Pophale) SiO2 
 PCOD9404682
Probable space group: P M M A
;
_chemical_formula_sum "Si O2"
_cell_formula_units_Z 52
_cell_length_a 8.898813
_cell_length_b 23.630627
_cell_length_c 15.412490
_cell_angle_alpha 90.000000
_cell_angle_beta 90.000000
_cell_angle_gamma 90.000000
_cell_volume 3241.008227
_symmetry_space_group_name_H-M "P M M A"
_symmetry_group_IT_number 51
_symmetry_cell_setting 'orthorhombic'
loop_
_space_group_symop_operation_xyz
x,y,z
1/2-x,-y,z
1/2+x,-y,-z
-x,y,-z
-x,-y,-z
1/2+x,y,-z
1/2-x,y,z
x,-y,z
loop_
_atom_site_type_symbol
_atom_site_label
_atom_site_fract_x
_atom_site_fract_y
_atom_site_fract_z
Si Si1 0.569423 0.910847 0.273192
Si Si2 0.931720 0.684882 0.404159
Si Si3 0.569723 0.778407 0.268186
Si Si4 0.923646 0.085295 0.910184
Si Si5 0.078043 0.777084 0.088057
Si Si6 0.431105 0.560825 0.596573
Si Si7 0.430468 0.000000 0.403662
O O1 0.750000 0.917367 0.277239
O O2 0.530480 0.844282 0.283371
O O3 0.511166 0.929766 0.177973
O O4 0.490551 0.946719 0.348118
O O5 0.750000 0.687287 0.410683
O O6 0.982452 0.735978 0.342957
O O7 0.973101 0.622497 0.366668
O O8 0.000000 0.689914 0.500000
O O9 0.750000 0.776128 0.264248
O O10 0.505696 0.760209 0.175462
O O11 0.750000 0.067486 0.905578
O O12 0.925247 0.154062 0.913142
O O13 0.000000 0.066165 0.000000
O O14 0.250000 0.759160 0.090273
O O15 0.000000 0.757453 0.000000
O O16 0.500000 0.560723 0.500000
O O17 0.250000 0.560709 0.590366
O O18 0.475715 0.500000 0.637384
O O19 0.500000 0.000000 0.500000
O O20 0.250000 0.000000 0.407925
#
# Coordination Sequence:
#
# PCOD9404682 Si02
#       7
#     8   8   8   8   8   8   4
#     4  10  20  36  55  74  95 120 151 188 230 275
#     4   9  17  28  41  61  90 122 154 188 224 262
#     4   9  18  31  47  68  95 123 150 184 226 270
#     4   9  16  28  48  75 102 127 151 178 218 269
#     4   9  16  26  43  66  92 121 152 184 220 266
#     4   8  13  22  37  56  80 113 151 186 219 257
#     4  12  26  44  61  74  89 114 152 196 236 274
#
# _framework density 16.04439
#
# number of rings (size 3 to 8) (size 9 to 14) (size 15 to 20)
#    0.000    2.769    0.000    2.077    0.000    5.538 
#    0.000    1.923    0.000    0.000    0.000    0.000 
#    0.000    0.615    0.000    1.077    0.000    1.846 
#
# Total GULP energy -289655.555591 kJ/mol
# GULP energy per Si atom -5570.299146 kJ/mol
# Density = 1.600787 g / cm^3
# Si number density = 16.044390 Si / 1000 Ang^3
#
#
#
# Elastic Constant Matrix: (Units=GPa)
#
#
# Indices 1 2 3 4 5 6 
#
# 1 51.9135 34.2410 45.0399 0.0000 0.0000 0.0000
# 2 34.2410 100.0683 64.9755 0.0000 0.0000 0.0000
# 3 45.0399 64.9755 126.7695 0.0000 0.0000 0.0000
# 4 0.0000 0.0000 0.0000 -10.4674 0.0000 0.0000
# 5 0.0000 0.0000 0.0000 0.0000 28.0358 0.0000
# 6 0.0000 0.0000 0.0000 0.0000 0.0000 9.0240
#
#
#
# Elastic Compliance Matrix: (Units=1/GPa)
#
#
# Indices 1 2 3 4 5 6 
#
# 1 0.029371 -0.004908 -0.007920 0.000000 0.000000 0.000000
# 2 -0.004908 0.015798 -0.006354 0.000000 0.000000 0.000000
# 3 -0.007920 -0.006354 0.013959 0.000000 0.000000 0.000000
# 4 0.000000 0.000000 0.000000 -0.095535 0.000000 0.000000
# 5 0.000000 0.000000 0.000000 0.000000 0.035669 0.000000
# 6 0.000000 0.000000 0.000000 0.000000 0.000000 0.110815
#
#
# Mechanical properties :
#
#
# Convention : Reuss Voigt Hill
#
# Bulk Modulus (GPa) = 48.15670 63.02935 55.59302
# Shear Modulus (GPa) = 32.18333 14.28482 23.23407
#
# Velocity S-wave (km/s) = 4.48358 2.98708 3.80954
# Velocity P-wave (km/s) = 7.54209 7.16006 7.35356
#
# Compressibility (1/GPa) = 0.02076554
#
# Stress axis : x y z
#
# Youngs Moduli (GPa) = 34.04721 63.29964 71.64003
#
# Poissons Ratio (x) = 0.31065 0.56738
# Poissons Ratio (y) = 0.16709 0.45517
# Poissons Ratio (z) = 0.26965 0.40218
#
# Static dielectric constant tensor:
#      x y z
#    x 1.534650 0.000000 0.000000 
#    y 0.000000 1.583960 0.000000 
#    z 0.000000 0.000000 1.506280 
# 
# From -- ./inp_files/22033.got.cif
#   From: 2010.05.17/outbox.cif.g08.bks.cpg/sg51_12_cif.got.tgz:22033.got - 2010.06.03 11:52:47.
