data_PCOD9404273
_publ_section_title
;
Structure prediction by ZEFSAII (Michael W. Deem and Ramdas Pophale) SiO2 
 PCOD9404273
Probable space group: P M M A
;
_chemical_formula_sum "Si O2"
_cell_formula_units_Z 40
_cell_length_a 7.811480
_cell_length_b 12.264976
_cell_length_c 21.090830
_cell_angle_alpha 90.000000
_cell_angle_beta 90.000000
_cell_angle_gamma 90.000000
_cell_volume 2020.662115
_symmetry_space_group_name_H-M "P M M A"
_symmetry_group_IT_number 51
_symmetry_cell_setting 'orthorhombic'
loop_
_space_group_symop_operation_xyz
x,y,z
1/2-x,-y,z
1/2+x,-y,-z
-x,y,-z
-x,-y,-z
1/2+x,y,-z
1/2-x,y,z
x,-y,z
loop_
_atom_site_type_symbol
_atom_site_label
_atom_site_fract_x
_atom_site_fract_y
_atom_site_fract_z
Si Si1 0.047789 0.500000 0.593073
Si Si2 0.043653 0.625163 0.071826
Si Si3 0.447889 0.727880 0.196588
Si Si4 0.453091 0.122559 0.688563
Si Si5 0.048208 0.500000 0.744682
Si Si6 0.543334 0.739372 0.431466
O O1 0.250000 0.500000 0.576147
O O2 0.036136 0.500000 0.669024
O O3 0.973939 0.384867 0.570444
O O4 0.250000 0.621771 0.077655
O O5 0.981387 0.500000 0.082083
O O6 0.978442 0.706613 0.126204
O O7 0.000000 0.655884 0.000000
O O8 0.250000 0.758433 0.190260
O O9 0.525923 0.813307 0.245538
O O10 0.464391 0.608733 0.228345
O O11 0.250000 0.114209 0.677734
O O12 0.521513 0.192987 0.629157
O O13 0.524123 0.000000 0.690903
O O14 0.250000 0.500000 0.761077
O O15 0.500000 0.788101 0.500000
O O16 0.750000 0.732979 0.425746
#
# Coordination Sequence:
#
# PCOD9404273 Si02
#       6
#     4   8   8   8   4   8
#     4   9  17  32  52  75 106 138 173 213 263 325
#     4   9  18  32  49  77 116 149 176 211 259 317
#     4  11  21  35  55  83 116 143 177 229 277 319
#     4  10  22  40  59  78 103 141 190 235 274 325
#     4  11  19  32  55  81 109 147 185 218 266 329
#     4  10  20  35  53  77 107 140 176 222 273 326
#
# _framework density 19.795490999999998
#
# number of rings (size 3 to 8) (size 9 to 14) (size 15 to 20)
#    0.000    2.000    3.000    1.200    0.000    3.200 
#    0.000    0.000    0.000    0.600    0.000    0.000 
#    0.000    0.000    0.000    0.000    0.000    0.000 
#
# Total GULP energy -223184.802167 kJ/mol
# GULP energy per Si atom -5579.620054 kJ/mol
# Density = 1.975044 g / cm^3
# Si number density = 19.795491 Si / 1000 Ang^3
#
#
#
# Elastic Constant Matrix: (Units=GPa)
#
#
# Indices 1 2 3 4 5 6 
#
# 1 23.5377 0.6340 4.6713 0.0000 0.0000 0.0000
# 2 0.6340 122.8059 78.5485 0.0000 0.0000 0.0000
# 3 4.6713 78.5485 160.3756 0.0000 0.0000 0.0000
# 4 0.0000 0.0000 0.0000 19.7309 0.0000 0.0000
# 5 0.0000 0.0000 0.0000 0.0000 24.4553 0.0000
# 6 0.0000 0.0000 0.0000 0.0000 0.0000 -25.7391
#
#
#
# Elastic Compliance Matrix: (Units=1/GPa)
#
#
# Indices 1 2 3 4 5 6 
#
# 1 0.042791 0.000839 -0.001657 0.000000 0.000000 0.000000
# 2 0.000839 0.011874 -0.005840 0.000000 0.000000 0.000000
# 3 -0.001657 -0.005840 0.009144 0.000000 0.000000 0.000000
# 4 0.000000 0.000000 0.000000 0.050682 0.000000 0.000000
# 5 0.000000 0.000000 0.000000 0.000000 0.040891 0.000000
# 6 0.000000 0.000000 0.000000 0.000000 0.000000 -0.038851
#
#
# Mechanical properties :
#
#
# Convention : Reuss Voigt Hill
#
# Bulk Modulus (GPa) = 19.80482 52.71411 36.25946
# Shear Modulus (GPa) = 34.08820 18.54711 26.31765
#
# Velocity S-wave (km/s) = 4.15422 3.06426 3.65016
# Velocity P-wave (km/s) = 5.74774 6.26153 6.01013
#
# Compressibility (1/GPa) = 0.05049277
#
# Stress axis : x y z
#
# Youngs Moduli (GPa) = 23.36918 84.21758 109.36156
#
# Poissons Ratio (x) = -0.07067 0.18126
# Poissons Ratio (y) = -0.01961 0.63868
# Poissons Ratio (z) = 0.03873 0.49184
#
# Static dielectric constant tensor:
#      x y z
#    x 1.716380 0.000000 0.000000 
#    y 0.000000 1.693380 0.000000 
#    z 0.000000 0.000000 1.715220 
# 
# From -- ./inp_files/31411.got.cif
#   From: 2010.05.17/outbox.cif.g08.bks.cpg/sg51_16_cif.got.tgz:31411.got - 2010.06.03 11:52:47.
