data_PCOD9404567
_publ_section_title
;
Structure prediction by ZEFSAII (Michael W. Deem and Ramdas Pophale) SiO2 
 PCOD9404567
Probable space group: P M M A
;
_chemical_formula_sum "Si O2"
_cell_formula_units_Z 48
_cell_length_a 8.634053
_cell_length_b 10.146685
_cell_length_c 29.910251
_cell_angle_alpha 90.000000
_cell_angle_beta 90.000000
_cell_angle_gamma 90.000000
_cell_volume 2620.347840
_symmetry_space_group_name_H-M "P M M A"
_symmetry_group_IT_number 51
_symmetry_cell_setting 'orthorhombic'
loop_
_space_group_symop_operation_xyz
x,y,z
1/2-x,-y,z
1/2+x,-y,-z
-x,y,-z
-x,-y,-z
1/2+x,y,-z
1/2-x,y,z
x,-y,z
loop_
_atom_site_type_symbol
_atom_site_label
_atom_site_fract_x
_atom_site_fract_y
_atom_site_fract_z
Si Si1 0.564290 0.256700 0.105175
Si Si2 0.064770 0.153129 0.194698
Si Si3 0.062851 0.152094 0.707025
Si Si4 0.063877 0.000000 0.950141
Si Si5 0.562991 0.149881 0.450205
Si Si6 0.060885 0.347127 0.627620
Si Si7 0.933863 0.500000 0.949901
O O1 0.750000 0.265785 0.105234
O O2 0.505609 0.241937 0.155715
O O3 0.493090 0.376054 0.078016
O O4 0.515499 0.126898 0.077908
O O5 0.250000 0.161878 0.194128
O O6 0.002695 0.184074 0.244072
O O7 0.020013 0.000000 0.185707
O O8 0.250000 0.153856 0.708803
O O9 0.013407 0.259529 0.670430
O O10 0.017520 0.000000 0.695789
O O11 0.250000 0.000000 0.952717
O O12 0.000000 0.000000 0.000000
O O13 0.500000 0.171420 0.500000
O O14 0.750000 0.152455 0.451398
O O15 0.511679 0.262723 0.415787
O O16 0.518078 0.000000 0.436160
O O17 0.250000 0.349253 0.627509
O O18 0.009711 0.500000 0.628138
O O19 0.750000 0.500000 0.952768
O O20 0.000000 0.500000 0.000000
#
# Coordination Sequence:
#
# PCOD9404567 Si02
#       7
#     8   8   8   4   8   8   4
#     4  11  22  40  62  87 115 151 192 235 280 333
#     4  10  20  35  57  85 114 145 181 227 281 335
#     4   9  17  31  53  76  99 133 176 221 266 319
#     4  10  22  36  58  88 116 144 184 230 277 326
#     4   9  17  30  49  73 101 134 174 218 263 316
#     4   9  17  30  49  74 102 133 174 221 268 317
#     4  12  26  44  62  86 118 156 194 232 279 336
#
# _framework density 18.318179000000001
#
# number of rings (size 3 to 8) (size 9 to 14) (size 15 to 20)
#    0.000    2.167    0.833    2.750    0.000    5.667 
#    1.500    0.833    0.000    5.000    0.000    0.000 
#    0.000    0.000    0.000    0.000    0.000    0.000 
#
# Total GULP energy -267896.800375 kJ/mol
# GULP energy per Si atom -5581.183341 kJ/mol
# Density = 1.827649 g / cm^3
# Si number density = 18.318179 Si / 1000 Ang^3
#
#
#
# Elastic Constant Matrix: (Units=GPa)
#
#
# Indices 1 2 3 4 5 6 
#
# 1 27.0703 41.0437 35.8857 0.0000 0.0000 0.0000
# 2 41.0437 175.6539 117.0540 0.0000 0.0000 0.0000
# 3 35.8857 117.0540 166.1505 0.0000 0.0000 0.0000
# 4 0.0000 0.0000 0.0000 36.0894 0.0000 0.0000
# 5 0.0000 0.0000 0.0000 0.0000 29.2308 0.0000
# 6 0.0000 0.0000 0.0000 0.0000 0.0000 28.8862
#
#
#
# Elastic Compliance Matrix: (Units=1/GPa)
#
#
# Indices 1 2 3 4 5 6 
#
# 1 0.060047 -0.010156 -0.005814 0.000000 0.000000 0.000000
# 2 -0.010156 0.012449 -0.006577 0.000000 0.000000 0.000000
# 3 -0.005814 -0.006577 0.011908 0.000000 0.000000 0.000000
# 4 0.000000 0.000000 0.000000 0.027709 0.000000 0.000000
# 5 0.000000 0.000000 0.000000 0.000000 0.034211 0.000000
# 6 0.000000 0.000000 0.000000 0.000000 0.000000 0.034619
#
#
# Mechanical properties :
#
#
# Convention : Reuss Voigt Hill
#
# Bulk Modulus (GPa) = 25.43904 84.09350 54.76627
# Shear Modulus (GPa) = 20.90836 30.50069 25.70453
#
# Velocity S-wave (km/s) = 3.38213 4.08493 3.75003
# Velocity P-wave (km/s) = 5.40085 8.26170 6.97943
#
# Compressibility (1/GPa) = 0.03930966
#
# Stress axis : x y z
#
# Youngs Moduli (GPa) = 16.65357 80.32913 83.97987
#
# Poissons Ratio (x) = 0.81586 0.48825
# Poissons Ratio (y) = 0.16914 0.55230
# Poissons Ratio (z) = 0.09682 0.52829
#
# Static dielectric constant tensor:
#      x y z
#    x 1.615880 0.000000 0.000000 
#    y 0.000000 1.615550 0.000000 
#    z 0.000000 0.000000 1.603830 
# 
# From -- ./inp_files/37202.got.cif
#   From: 2010.05.17/outbox.cif.g08.bks.cpg/sg51_19_cif.got.tgz:37202.got - 2010.06.03 11:52:47.
