data_PCOD9404759
_publ_section_title
;
Structure prediction by ZEFSAII (Michael W. Deem and Ramdas Pophale) SiO2 
 PCOD9404759
Probable space group: P M M A
;
_chemical_formula_sum "Si O2"
_cell_formula_units_Z 64
_cell_length_a 28.127154
_cell_length_b 9.050818
_cell_length_c 13.253129
_cell_angle_alpha 90.000000
_cell_angle_beta 90.000000
_cell_angle_gamma 90.000000
_cell_volume 3373.898771
_symmetry_space_group_name_H-M "P M M A"
_symmetry_group_IT_number 51
_symmetry_cell_setting 'orthorhombic'
loop_
_space_group_symop_operation_xyz
x,y,z
1/2-x,-y,z
1/2+x,-y,-z
-x,y,-z
-x,-y,-z
1/2+x,y,-z
1/2-x,y,z
x,-y,z
loop_
_atom_site_type_symbol
_atom_site_label
_atom_site_fract_x
_atom_site_fract_y
_atom_site_fract_z
Si Si1 0.146734 0.176693 0.782602
Si Si2 0.053034 0.324811 0.295465
Si Si3 0.192506 0.828059 0.379118
Si Si4 0.557704 0.167595 0.498647
Si Si5 0.192509 0.328293 0.587627
Si Si6 0.694738 0.177650 0.004606
Si Si7 0.854227 0.324585 0.814383
Si Si8 0.557364 0.324236 0.290543
O O1 0.172540 0.248778 0.686441
O O2 0.173872 0.214907 0.885643
O O3 0.093445 0.240569 0.782362
O O4 0.146201 0.000000 0.771627
O O5 0.054117 0.500000 0.320117
O O6 0.070389 0.235826 0.393597
O O7 0.089777 0.297867 0.205560
O O8 0.998175 0.287135 0.273261
O O9 0.250000 0.821309 0.375028
O O10 0.177576 0.753110 0.484533
O O11 0.172279 0.743873 0.282438
O O12 0.178567 0.000000 0.376829
O O13 0.500000 0.163047 0.500000
O O14 0.570079 0.269048 0.403555
O O15 0.575104 0.000000 0.485057
O O16 0.250000 0.322985 0.591352
O O17 0.177937 0.500000 0.585425
O O18 0.750000 0.221302 0.997929
O O19 0.692279 0.000000 0.993423
O O20 0.665322 0.252002 0.915414
O O21 0.846298 0.500000 0.816541
O O22 0.563045 0.500000 0.283129
#
# Coordination Sequence:
#
# PCOD9404759 Si02
#       8
#     8   8   8   8   8   8   8   8
#     4  11  23  39  61  87 116 152 196 244 298 354
#     4   9  20  37  55  80 117 159 197 238 292 349
#     4  10  21  37  57  83 118 157 193 234 291 355
#     4   9  17  30  51  80 113 151 195 240 284 337
#     4  10  21  37  58  86 119 153 191 237 291 354
#     4  10  23  44  66  87 114 150 193 242 298 360
#     4  11  23  38  60  88 117 151 197 246 294 348
#     4  10  20  36  57  81 116 158 198 241 290 347
#
# _framework density 18.969152000000001
#
# number of rings (size 3 to 8) (size 9 to 14) (size 15 to 20)
#    0.000    2.000    0.000    3.000    1.750    7.750 
#    0.000    0.625    0.000    3.750    0.000    0.000 
#    0.000    0.000    0.000    0.000    0.000    0.000 
#
# Total GULP energy -357694.350780 kJ/mol
# GULP energy per Si atom -5588.974231 kJ/mol
# Density = 1.892598 g / cm^3
# Si number density = 18.969152 Si / 1000 Ang^3
#
#
#
# Elastic Constant Matrix: (Units=GPa)
#
#
# Indices 1 2 3 4 5 6 
#
# 1 70.0380 33.1508 31.2731 0.0000 0.0000 0.0000
# 2 33.1508 69.3657 44.3725 0.0000 0.0000 0.0000
# 3 31.2731 44.3725 93.3402 0.0000 0.0000 0.0000
# 4 0.0000 0.0000 0.0000 89.5314 0.0000 0.0000
# 5 0.0000 0.0000 0.0000 0.0000 33.8746 0.0000
# 6 0.0000 0.0000 0.0000 0.0000 0.0000 26.5313
#
#
#
# Elastic Compliance Matrix: (Units=1/GPa)
#
#
# Indices 1 2 3 4 5 6 
#
# 1 0.018999 -0.007196 -0.002944 0.000000 0.000000 0.000000
# 2 -0.007196 0.023442 -0.008733 0.000000 0.000000 0.000000
# 3 -0.002944 -0.008733 0.015851 0.000000 0.000000 0.000000
# 4 0.000000 0.000000 0.000000 0.011169 0.000000 0.000000
# 5 0.000000 0.000000 0.000000 0.000000 0.029521 0.000000
# 6 0.000000 0.000000 0.000000 0.000000 0.000000 0.037691
#
#
# Mechanical properties :
#
#
# Convention : Reuss Voigt Hill
#
# Bulk Modulus (GPa) = 48.67348 50.03741 49.35544
# Shear Modulus (GPa) = 27.58330 38.25062 32.91696
#
# Velocity S-wave (km/s) = 3.81742 4.49538 4.17020
# Velocity P-wave (km/s) = 6.71902 7.30617 7.01874
#
# Compressibility (1/GPa) = 0.02054507
#
# Stress axis : x y z
#
# Youngs Moduli (GPa) = 52.63454 42.65875 63.08562
#
# Poissons Ratio (x) = 0.30699 0.18575
# Poissons Ratio (y) = 0.37877 0.55091
# Poissons Ratio (z) = 0.15498 0.37253
#
# Static dielectric constant tensor:
#      x y z
#    x 1.706610 0.000000 0.000000 
#    y 0.000000 1.638600 0.000000 
#    z 0.000000 0.000000 1.606950 
# 
# From -- ./inp_files/19593.got.cif
#   From: 2010.05.17/outbox.cif.g08.bks.cpg/sg51_10_cif.got.tgz:19593.got - 2010.06.03 11:52:47.
