data_PCOD9404414
_publ_section_title
;
Structure prediction by ZEFSAII (Michael W. Deem and Ramdas Pophale) SiO2 
 PCOD9404414
Probable space group: P M M A
;
_chemical_formula_sum "Si O2"
_cell_formula_units_Z 56
_cell_length_a 8.852845
_cell_length_b 14.936822
_cell_length_c 23.464201
_cell_angle_alpha 90.000000
_cell_angle_beta 90.000000
_cell_angle_gamma 90.000000
_cell_volume 3102.750372
_symmetry_space_group_name_H-M "P M M A"
_symmetry_group_IT_number 51
_symmetry_cell_setting 'orthorhombic'
loop_
_space_group_symop_operation_xyz
x,y,z
1/2-x,-y,z
1/2+x,-y,-z
-x,y,-z
-x,-y,-z
1/2+x,y,-z
1/2-x,y,z
x,-y,z
loop_
_atom_site_type_symbol
_atom_site_label
_atom_site_fract_x
_atom_site_fract_y
_atom_site_fract_z
Si Si1 0.569932 0.895557 0.221956
Si Si2 0.921063 0.397021 0.235210
Si Si3 0.575899 0.344189 0.366113
Si Si4 0.931189 0.397405 0.063052
Si Si5 0.568438 0.000000 0.563474
Si Si6 0.431500 0.847437 0.345681
Si Si7 0.070864 0.500000 0.438138
Si Si8 0.426914 0.735052 0.155051
O O1 0.750000 0.880465 0.225357
O O2 0.500043 0.875450 0.284416
O O3 0.500989 0.828384 0.175046
O O4 0.542358 0.000000 0.208525
O O5 0.750000 0.373387 0.214970
O O6 0.948586 0.500000 0.220517
O O7 0.922038 0.385451 0.302741
O O8 0.041094 0.331119 0.208061
O O9 0.750000 0.333933 0.384612
O O10 0.494838 0.249296 0.361646
O O11 0.488786 0.412651 0.405764
O O12 0.750000 0.390866 0.061083
O O13 0.968371 0.500000 0.082602
O O14 0.997069 0.319953 0.103368
O O15 0.000000 0.388274 0.000000
O O16 0.500000 0.000000 0.500000
O O17 0.526498 0.084521 0.603378
O O18 0.750000 0.000000 0.557477
O O19 0.250000 0.847137 0.340407
O O20 0.250000 0.500000 0.440256
O O21 0.000000 0.500000 0.500000
O O22 0.250000 0.746760 0.144651
#
# Coordination Sequence:
#
# PCOD9404414 Si02
#       8
#     8   8   8   8   4   8   4   8
#     4  11  23  39  61  88 118 157 202 250 307 370
#     4  10  20  35  55  81 117 155 192 236 290 348
#     4  11  22  39  61  86 116 152 192 239 295 358
#     4  10  21  39  63  91 128 171 214 256 300 352
#     4  10  24  42  62  86 116 148 189 242 299 364
#     4  11  22  39  61  89 119 151 191 244 303 364
#     4  12  26  44  64  84 112 152 201 248 297 360
#     4  12  24  36  57  90 126 161 203 251 300 359
#
# _framework density 18.048504000000001
#
# number of rings (size 3 to 8) (size 9 to 14) (size 15 to 20)
#    0.000    1.143    2.857    4.071    0.000    6.000 
#    0.000    1.429    0.000    0.429    0.000    0.000 
#    0.000    0.000    0.000    0.000    0.000    0.000 
#
# Total GULP energy -312920.832709 kJ/mol
# GULP energy per Si atom -5587.872013 kJ/mol
# Density = 1.800742 g / cm^3
# Si number density = 18.048504 Si / 1000 Ang^3
#
#
#
# Elastic Constant Matrix: (Units=GPa)
#
#
# Indices 1 2 3 4 5 6 
#
# 1 122.8934 78.0054 61.9735 0.0000 0.0000 0.0000
# 2 78.0054 159.0716 73.7570 0.0000 0.0000 0.0000
# 3 61.9735 73.7570 116.7536 0.0000 0.0000 0.0000
# 4 0.0000 0.0000 0.0000 20.2627 0.0000 0.0000
# 5 0.0000 0.0000 0.0000 0.0000 34.5336 0.0000
# 6 0.0000 0.0000 0.0000 0.0000 0.0000 25.6174
#
#
#
# Elastic Compliance Matrix: (Units=1/GPa)
#
#
# Indices 1 2 3 4 5 6 
#
# 1 0.013059 -0.004511 -0.004082 0.000000 0.000000 0.000000
# 2 -0.004511 0.010449 -0.004206 0.000000 0.000000 0.000000
# 3 -0.004082 -0.004206 0.013389 0.000000 0.000000 0.000000
# 4 0.000000 0.000000 0.000000 0.049352 0.000000 0.000000
# 5 0.000000 0.000000 0.000000 0.000000 0.028957 0.000000
# 6 0.000000 0.000000 0.000000 0.000000 0.000000 0.039036
#
#
# Mechanical properties :
#
#
# Convention : Reuss Voigt Hill
#
# Bulk Modulus (GPa) = 88.51084 91.79893 90.15488
# Shear Modulus (GPa) = 27.23202 28.41494 27.82348
#
# Velocity S-wave (km/s) = 3.88857 3.97213 3.93057
# Velocity P-wave (km/s) = 8.32516 8.48586 8.40590
#
# Compressibility (1/GPa) = 0.01129805
#
# Stress axis : x y z
#
# Youngs Moduli (GPa) = 76.57536 95.70215 74.68756
#
# Poissons Ratio (x) = 0.43173 0.30487
# Poissons Ratio (y) = 0.34545 0.31417
# Poissons Ratio (z) = 0.31258 0.40257
#
# Static dielectric constant tensor:
#      x y z
#    x 1.605880 0.000000 0.000000 
#    y 0.000000 1.616820 0.000000 
#    z 0.000000 0.000000 1.605180 
# 
# From -- ./inp_files/32087.got.cif
#   From: 2010.05.17/outbox.cif.g08.bks.cpg/sg51_17_cif.got.tgz:32087.got - 2010.06.03 11:52:47.
