data_PCOD9404077
_publ_section_title
;
Structure prediction by ZEFSAII (Michael W. Deem and Ramdas Pophale) SiO2 
 PCOD9404077
Probable space group: P M M A
;
_chemical_formula_sum "Si O2"
_cell_formula_units_Z 48
_cell_length_a 19.480104
_cell_length_b 7.608395
_cell_length_c 15.677396
_cell_angle_alpha 90.000000
_cell_angle_beta 90.000000
_cell_angle_gamma 90.000000
_cell_volume 2323.583325
_symmetry_space_group_name_H-M "P M M A"
_symmetry_group_IT_number 51
_symmetry_cell_setting 'orthorhombic'
loop_
_space_group_symop_operation_xyz
x,y,z
1/2-x,-y,z
1/2+x,-y,-z
-x,y,-z
-x,-y,-z
1/2+x,y,-z
1/2-x,y,z
x,-y,z
loop_
_atom_site_type_symbol
_atom_site_label
_atom_site_fract_x
_atom_site_fract_y
_atom_site_fract_z
Si Si1 0.075054 0.795820 0.230075
Si Si2 0.077951 0.705899 0.724546
Si Si3 0.828575 0.786948 0.113399
Si Si4 0.171935 0.709363 0.573108
Si Si5 0.926492 0.215127 0.961709
Si Si6 0.671330 0.787643 0.619984
O O1 0.082340 0.720375 0.134935
O O2 0.122036 0.720225 0.305356
O O3 0.995449 0.789313 0.256217
O O4 0.095518 0.000000 0.222546
O O5 0.064297 0.500000 0.710384
O O6 0.127152 0.726319 0.806078
O O7 0.118850 0.779246 0.642862
O O8 0.750000 0.727039 0.118106
O O9 0.828705 0.000000 0.114820
O O10 0.866877 0.731760 0.026792
O O11 0.250000 0.779781 0.582743
O O12 0.176005 0.500000 0.587547
O O13 0.149673 0.737659 0.475706
O O14 0.927649 0.000000 0.959729
O O15 0.000000 0.269812 0.000000
O O16 0.750000 0.727660 0.631706
O O17 0.671317 0.000000 0.622093
#
# Coordination Sequence:
#
# PCOD9404077 Si02
#       6
#     8   8   8   8   8   8
#     4  10  20  35  56  79 108 142 176 217 266 318
#     4  11  22  35  53  78 109 142 179 220 265 317
#     4  10  20  34  55  82 107 137 180 223 265 316
#     4   9  19  36  55  73 100 141 179 214 263 319
#     4   9  16  31  54  76 103 138 172 209 257 313
#     4   9  19  35  55  80 106 134 173 222 270 313
#
# _framework density 20.657748999999999
#
# number of rings (size 3 to 8) (size 9 to 14) (size 15 to 20)
#    0.000    2.333    1.667    1.000    0.000    4.333 
#    0.000   10.000    0.000    0.000    0.000    2.333 
#    0.000    0.000    0.000    0.000    0.000    0.000 
#
# Total GULP energy -268019.209295 kJ/mol
# GULP energy per Si atom -5583.733527 kJ/mol
# Density = 2.061073 g / cm^3
# Si number density = 20.657749 Si / 1000 Ang^3
#
#
#
# Elastic Constant Matrix: (Units=GPa)
#
#
# Indices 1 2 3 4 5 6 
#
# 1 99.8997 -13.1479 84.4185 0.0000 0.0000 0.0000
# 2 -13.1479 41.4216 -10.8923 0.0000 0.0000 0.0000
# 3 84.4185 -10.8923 190.9301 0.0000 0.0000 0.0000
# 4 0.0000 0.0000 0.0000 28.3943 0.0000 0.0000
# 5 0.0000 0.0000 0.0000 0.0000 45.1993 0.0000
# 6 0.0000 0.0000 0.0000 0.0000 0.0000 -7.6444
#
#
#
# Elastic Compliance Matrix: (Units=1/GPa)
#
#
# Indices 1 2 3 4 5 6 
#
# 1 0.016428 0.003355 -0.007072 0.000000 0.000000 0.000000
# 2 0.003355 0.025195 -0.000046 0.000000 0.000000 0.000000
# 3 -0.007072 -0.000046 0.008362 0.000000 0.000000 0.000000
# 4 0.000000 0.000000 0.000000 0.035218 0.000000 0.000000
# 5 0.000000 0.000000 0.000000 0.000000 0.022124 0.000000
# 6 0.000000 0.000000 0.000000 0.000000 0.000000 -0.130814
#
#
# Mechanical properties :
#
#
# Convention : Reuss Voigt Hill
#
# Bulk Modulus (GPa) = 23.55281 50.33420 36.94351
# Shear Modulus (GPa) = -2764.79975 31.31472 -1366.74252
#
# Velocity S-wave (km/s) = -36.62362 3.89766 -25.74973
# Velocity P-wave (km/s) = 42.15400 6.68388 29.43030
#
# Compressibility (1/GPa) = 0.04245778
#
# Stress axis : x y z
#
# Youngs Moduli (GPa) = 60.87312 39.69074 119.59256
#
# Poissons Ratio (x) = -0.13315 0.84576
# Poissons Ratio (y) = -0.20421 0.00550
# Poissons Ratio (z) = 0.43049 0.00182
#
# Static dielectric constant tensor:
#      x y z
#    x 1.704930 0.000000 0.000000 
#    y 0.000000 1.782480 0.000000 
#    z 0.000000 0.000000 1.721020 
# 
# From -- ./inp_files/24700.got.cif
#   From: 2010.05.17/outbox.cif.g08.bks.cpg/sg51_13_cif.got.tgz:24700.got - 2010.06.03 11:52:47.
