data_PCOD9404299
_publ_section_title
;
Structure prediction by ZEFSAII (Michael W. Deem and Ramdas Pophale) SiO2 
 PCOD9404299
Probable space group: P M M A
;
_chemical_formula_sum "Si O2"
_cell_formula_units_Z 48
_cell_length_a 14.541715
_cell_length_b 8.643357
_cell_length_c 21.756551
_cell_angle_alpha 90.000000
_cell_angle_beta 90.000000
_cell_angle_gamma 90.000000
_cell_volume 2734.564233
_symmetry_space_group_name_H-M "P M M A"
_symmetry_group_IT_number 51
_symmetry_cell_setting 'orthorhombic'
loop_
_space_group_symop_operation_xyz
x,y,z
1/2-x,-y,z
1/2+x,-y,-z
-x,y,-z
-x,-y,-z
1/2+x,y,-z
1/2-x,y,z
x,-y,z
loop_
_atom_site_type_symbol
_atom_site_label
_atom_site_fract_x
_atom_site_fract_y
_atom_site_fract_z
Si Si1 0.142943 0.314085 0.500205
Si Si2 0.856182 0.813133 0.829467
Si Si3 0.005620 0.186638 0.929747
Si Si4 0.499922 0.815575 0.595510
Si Si5 0.504669 0.314613 0.732183
Si Si6 0.144802 0.313361 0.832870
O O1 0.250000 0.270316 0.500193
O O2 0.136300 0.500000 0.499709
O O3 0.088478 0.250837 0.559375
O O4 0.088066 0.248530 0.441629
O O5 0.750000 0.767304 0.834432
O O6 0.916278 0.769343 0.889323
O O7 0.906882 0.739565 0.771015
O O8 0.860225 0.000000 0.823880
O O9 0.093055 0.250183 0.892827
O O10 0.010698 0.000000 0.930088
O O11 0.000000 0.240404 0.000000
O O12 0.501507 0.760511 0.665475
O O13 0.499222 0.000000 0.591608
O O14 0.504846 0.500000 0.726274
O O15 0.416978 0.267741 0.774096
O O16 0.250000 0.260775 0.828549
O O17 0.143977 0.500000 0.835334
#
# Coordination Sequence:
#
# PCOD9404299 Si02
#       6
#     8   8   8   8   8   8
#     4  10  21  38  59  81 107 140 177 215 255 303
#     4   9  18  33  51  72 101 135 171 213 260 308
#     4   9  18  32  51  76 104 134 169 209 255 308
#     4  11  22  36  56  81 110 140 172 214 261 309
#     4  10  20  35  54  75 102 135 173 215 258 307
#     4   9  19  35  53  74 101 134 172 213 256 302
#
# _framework density 17.553070000000002
#
# number of rings (size 3 to 8) (size 9 to 14) (size 15 to 20)
#    0.000    2.333    0.000    3.500    0.000    5.000 
#    0.000    3.333    0.000    0.000    0.000    0.000 
#    0.000    0.000    0.000    0.000    0.000    0.000 
#
# Total GULP energy -267884.039457 kJ/mol
# GULP energy per Si atom -5580.917489 kJ/mol
# Density = 1.751312 g / cm^3
# Si number density = 17.553070 Si / 1000 Ang^3
#
#
#
# Elastic Constant Matrix: (Units=GPa)
#
#
# Indices 1 2 3 4 5 6 
#
# 1 179.7080 46.3693 88.1870 0.0000 0.0000 0.0000
# 2 46.3693 48.7902 43.3591 0.0000 0.0000 0.0000
# 3 88.1870 43.3591 174.7608 0.0000 0.0000 0.0000
# 4 0.0000 0.0000 0.0000 26.4060 0.0000 0.0000
# 5 0.0000 0.0000 0.0000 0.0000 4.9317 0.0000
# 6 0.0000 0.0000 0.0000 0.0000 0.0000 5.6509
#
#
#
# Elastic Compliance Matrix: (Units=1/GPa)
#
#
# Indices 1 2 3 4 5 6 
#
# 1 0.008373 -0.005391 -0.002887 0.000000 0.000000 0.000000
# 2 -0.005391 0.029765 -0.004664 0.000000 0.000000 0.000000
# 3 -0.002887 -0.004664 0.008336 0.000000 0.000000 0.000000
# 4 0.000000 0.000000 0.000000 0.037870 0.000000 0.000000
# 5 0.000000 0.000000 0.000000 0.000000 0.202772 0.000000
# 6 0.000000 0.000000 0.000000 0.000000 0.000000 0.176963
#
#
# Mechanical properties :
#
#
# Convention : Reuss Voigt Hill
#
# Bulk Modulus (GPa) = 48.57217 84.34330 66.45773
# Shear Modulus (GPa) = 10.06386 22.42061 16.24224
#
# Velocity S-wave (km/s) = 2.39705 3.57782 3.04521
# Velocity P-wave (km/s) = 5.94918 8.07604 7.09279
#
# Compressibility (1/GPa) = 0.02058792
#
# Stress axis : x y z
#
# Youngs Moduli (GPa) = 119.43831 33.59691 119.95674
#
# Poissons Ratio (x) = 0.18113 0.34635
# Poissons Ratio (y) = 0.64391 0.55951
# Poissons Ratio (z) = 0.34486 0.15671
#
# Static dielectric constant tensor:
#      x y z
#    x 1.585350 0.000000 0.000000 
#    y 0.000000 1.595990 0.000000 
#    z 0.000000 0.000000 1.569690 
# 
# From -- ./inp_files/33221.got.cif
#   From: 2010.05.17/outbox.cif.g08.bks.cpg/sg51_17_cif.got.tgz:33221.got - 2010.06.03 11:52:47.
