data_PCOD9404490
_publ_section_title
;
Structure prediction by ZEFSAII (Michael W. Deem and Ramdas Pophale) SiO2 
 PCOD9404490
Probable space group: P M M A
;
_chemical_formula_sum "Si O2"
_cell_formula_units_Z 48
_cell_length_a 25.284063
_cell_length_b 9.041198
_cell_length_c 12.032415
_cell_angle_alpha 90.000000
_cell_angle_beta 90.000000
_cell_angle_gamma 90.000000
_cell_volume 2750.588649
_symmetry_space_group_name_H-M "P M M A"
_symmetry_group_IT_number 51
_symmetry_cell_setting 'orthorhombic'
loop_
_space_group_symop_operation_xyz
x,y,z
1/2-x,-y,z
1/2+x,-y,-z
-x,y,-z
-x,-y,-z
1/2+x,y,-z
1/2-x,y,z
x,-y,z
loop_
_atom_site_type_symbol
_atom_site_label
_atom_site_fract_x
_atom_site_fract_y
_atom_site_fract_z
Si Si1 0.900128 0.823882 0.734819
Si Si2 0.602429 0.676233 0.264359
Si Si3 0.312137 0.175553 0.885628
Si Si4 0.562419 0.677119 0.509684
Si Si5 0.505427 0.324080 0.869273
Si Si6 0.687130 0.674675 0.878965
O O1 0.912240 0.761907 0.612475
O O2 0.947709 0.766829 0.813277
O O3 0.846895 0.755285 0.785667
O O4 0.897792 0.000000 0.734687
O O5 0.612319 0.500000 0.255844
O O6 0.650892 0.763584 0.211408
O O7 0.590065 0.711251 0.392464
O O8 0.549474 0.707721 0.193452
O O9 0.250000 0.204828 0.863991
O O10 0.318953 0.000000 0.899486
O O11 0.326523 0.257075 0.000720
O O12 0.500000 0.712458 0.500000
O O13 0.566080 0.500000 0.529031
O O14 0.516429 0.500000 0.855214
O O15 0.500000 0.293927 0.000000
O O16 0.750000 0.694921 0.862613
O O17 0.675509 0.500000 0.879283
#
# Coordination Sequence:
#
# PCOD9404490 Si02
#       6
#     8   8   8   8   8   8
#     4  12  24  36  56  86 118 149 185 234 293 348
#     4  10  20  35  58  85 111 149 196 238 278 329
#     4  10  21  37  58  86 121 154 183 228 290 345
#     4  10  20  39  61  80 110 154 200 239 279 332
#     4  10  20  35  56  82 113 148 187 233 283 337
#     4  10  21  39  63  86 111 149 195 237 279 336
#
# _framework density 17.450810000000001
#
# number of rings (size 3 to 8) (size 9 to 14) (size 15 to 20)
#    0.000    1.667    1.667    3.500    0.000    5.333 
#    0.000    0.833    0.000    1.000    0.000    0.000 
#    0.000    0.000    0.000    0.000    0.000    0.000 
#
# Total GULP energy -268245.719631 kJ/mol
# GULP energy per Si atom -5588.452492 kJ/mol
# Density = 1.741109 g / cm^3
# Si number density = 17.450810 Si / 1000 Ang^3
#
#
#
# Elastic Constant Matrix: (Units=GPa)
#
#
# Indices 1 2 3 4 5 6 
#
# 1 78.5913 68.5260 76.1896 0.0000 0.0000 0.0000
# 2 68.5260 92.9726 87.5352 0.0000 0.0000 0.0000
# 3 76.1896 87.5352 152.2353 0.0000 0.0000 0.0000
# 4 0.0000 0.0000 0.0000 -2.0543 0.0000 0.0000
# 5 0.0000 0.0000 0.0000 0.0000 17.2694 0.0000
# 6 0.0000 0.0000 0.0000 0.0000 0.0000 26.1929
#
#
#
# Elastic Compliance Matrix: (Units=1/GPa)
#
#
# Indices 1 2 3 4 5 6 
#
# 1 0.038266 -0.022182 -0.006397 0.000000 0.000000 0.000000
# 2 -0.022182 0.036310 -0.009777 0.000000 0.000000 0.000000
# 3 -0.006397 -0.009777 0.015392 0.000000 0.000000 0.000000
# 4 0.000000 0.000000 0.000000 -0.486788 0.000000 0.000000
# 5 0.000000 0.000000 0.000000 0.000000 0.057906 0.000000
# 6 0.000000 0.000000 0.000000 0.000000 0.000000 0.038178
#
#
# Mechanical properties :
#
#
# Convention : Reuss Voigt Hill
#
# Bulk Modulus (GPa) = 75.42917 87.58895 81.50906
# Shear Modulus (GPa) = -22.76804 14.38483 -4.19160
#
# Velocity S-wave (km/s) = -3.61598 2.87419 -1.55150
# Velocity P-wave (km/s) = 5.08763 7.83042 6.60301
#
# Compressibility (1/GPa) = 0.01325747
#
# Stress axis : x y z
#
# Youngs Moduli (GPa) = 26.13287 27.54052 64.96909
#
# Poissons Ratio (x) = 0.61089 0.41559
# Poissons Ratio (y) = 0.57967 0.63521
# Poissons Ratio (z) = 0.16716 0.26926
#
# Static dielectric constant tensor:
#      x y z
#    x 1.577950 0.000000 0.000000 
#    y 0.000000 1.578550 0.000000 
#    z 0.000000 0.000000 1.567700 
# 
# From -- ./inp_files/18568.got.cif
#   From: 2010.05.17/outbox.cif.g08.bks.cpg/sg51_10_cif.got.tgz:18568.got - 2010.06.03 11:52:47.
