data_PCOD9404064
_publ_section_title
;
Structure prediction by ZEFSAII (Michael W. Deem and Ramdas Pophale) SiO2 
 PCOD9404064
Probable space group: P M M A
;
_chemical_formula_sum "Si O2"
_cell_formula_units_Z 52
_cell_length_a 8.865644
_cell_length_b 21.803835
_cell_length_c 14.023676
_cell_angle_alpha 90.000000
_cell_angle_beta 90.000000
_cell_angle_gamma 90.000000
_cell_volume 2710.847235
_symmetry_space_group_name_H-M "P M M A"
_symmetry_group_IT_number 51
_symmetry_cell_setting 'orthorhombic'
loop_
_space_group_symop_operation_xyz
x,y,z
1/2-x,-y,z
1/2+x,-y,-z
-x,y,-z
-x,-y,-z
1/2+x,y,-z
1/2-x,y,z
x,-y,z
loop_
_atom_site_type_symbol
_atom_site_label
_atom_site_fract_x
_atom_site_fract_y
_atom_site_fract_z
Si Si1 0.429818 0.571959 0.102303
Si Si2 0.433675 0.932142 0.196740
Si Si3 0.068585 0.122931 0.398496
Si Si4 0.431643 0.500000 0.603680
Si Si5 0.568244 0.193399 0.898924
Si Si6 0.069746 0.623140 0.712886
Si Si7 0.431211 0.250868 0.303711
O O1 0.250000 0.578430 0.100150
O O2 0.465566 0.500000 0.123124
O O3 0.500966 0.614355 0.182427
O O4 0.500000 0.585960 0.000000
O O5 0.250000 0.931405 0.195856
O O6 0.477709 0.917004 0.306180
O O7 0.481077 0.876042 0.129228
O O8 0.484953 0.000000 0.168696
O O9 0.250000 0.119629 0.404687
O O10 0.027688 0.192922 0.369578
O O11 0.000000 0.105521 0.500000
O O12 0.250000 0.500000 0.600143
O O13 0.500000 0.500000 0.500000
O O14 0.478923 0.437888 0.656763
O O15 0.750000 0.194428 0.905705
O O16 0.527221 0.233386 0.805738
O O17 0.500000 0.212301 0.000000
O O18 0.250000 0.624457 0.717350
O O19 0.008324 0.685784 0.668808
O O20 0.250000 0.257143 0.306716
#
# Coordination Sequence:
#
# PCOD9404064 Si02
#       7
#     8   8   8   4   8   8   8
#     4  10  20  34  55  81 108 140 172 206 253 311
#     4   8  15  30  51  75 105 142 178 210 255 316
#     4   9  18  33  53  75 102 136 174 220 267 315
#     4  10  24  42  59  80 107 136 171 216 266 322
#     4   9  18  33  53  76 105 140 178 218 256 301
#     4  11  22  38  58  81 109 138 173 222 272 318
#     4   9  20  37  53  73 103 140 179 214 259 321
#
# _framework density 19.182195
#
# number of rings (size 3 to 8) (size 9 to 14) (size 15 to 20)
#    0.000    2.615    0.769    2.769    0.000    4.923 
#    0.000    6.923    0.000    0.923    0.000    0.000 
#    0.000    0.000    0.000    0.000    0.000    0.000 
#
# Total GULP energy -290137.049217 kJ/mol
# GULP energy per Si atom -5579.558639 kJ/mol
# Density = 1.913854 g / cm^3
# Si number density = 19.182195 Si / 1000 Ang^3
#
#
#
# Elastic Constant Matrix: (Units=GPa)
#
#
# Indices 1 2 3 4 5 6 
#
# 1 5.4724 10.7538 -0.0056 0.0000 0.0000 0.0000
# 2 10.7538 73.1083 -14.9363 0.0000 0.0000 0.0000
# 3 -0.0056 -14.9363 42.7380 0.0000 0.0000 0.0000
# 4 0.0000 0.0000 0.0000 5.7868 0.0000 0.0000
# 5 0.0000 0.0000 0.0000 0.0000 31.7807 0.0000
# 6 0.0000 0.0000 0.0000 0.0000 0.0000 14.4661
#
#
#
# Elastic Compliance Matrix: (Units=1/GPa)
#
#
# Indices 1 2 3 4 5 6 
#
# 1 0.265285 -0.042015 -0.014649 0.000000 0.000000 0.000000
# 2 -0.042015 0.021384 0.007468 0.000000 0.000000 0.000000
# 3 -0.014649 0.007468 0.026006 0.000000 0.000000 0.000000
# 4 0.000000 0.000000 0.000000 0.172807 0.000000 0.000000
# 5 0.000000 0.000000 0.000000 0.000000 0.031466 0.000000
# 6 0.000000 0.000000 0.000000 0.000000 0.000000 0.069127
#
#
# Mechanical properties :
#
#
# Convention : Reuss Voigt Hill
#
# Bulk Modulus (GPa) = 4.66669 12.54918 8.60794
# Shear Modulus (GPa) = 6.61468 18.77385 12.69427
#
# Velocity S-wave (km/s) = 1.85899 3.13183 2.57529
# Velocity P-wave (km/s) = 2.65441 4.43104 3.65240
#
# Compressibility (1/GPa) = 0.21428442
#
# Stress axis : x y z
#
# Youngs Moduli (GPa) = 3.76953 46.76349 38.45208
#
# Poissons Ratio (x) = 1.96476 0.56328
# Poissons Ratio (y) = 0.15838 -0.28716
# Poissons Ratio (z) = 0.05522 -0.34923
#
# Static dielectric constant tensor:
#      x y z
#    x 1.638000 0.000000 0.000000 
#    y 0.000000 1.704080 0.000000 
#    z 0.000000 0.000000 1.638470 
# 
# From -- ./inp_files/21569.got.cif
#   From: 2010.05.17/outbox.cif.g08.bks.cpg/sg51_11_cif.got.tgz:21569.got - 2010.06.03 11:52:47.
