data_PCOD9404054
_publ_section_title
;
Structure prediction by ZEFSAII (Michael W. Deem and Ramdas Pophale) SiO2 
 PCOD9404054
Probable space group: P M M A
;
_chemical_formula_sum "Si O2"
_cell_formula_units_Z 48
_cell_length_a 16.535087
_cell_length_b 8.416880
_cell_length_c 18.605980
_cell_angle_alpha 90.000000
_cell_angle_beta 90.000000
_cell_angle_gamma 90.000000
_cell_volume 2589.465741
_symmetry_space_group_name_H-M "P M M A"
_symmetry_group_IT_number 51
_symmetry_cell_setting 'orthorhombic'
loop_
_space_group_symop_operation_xyz
x,y,z
1/2-x,-y,z
1/2+x,-y,-z
-x,y,-z
-x,-y,-z
1/2+x,y,-z
1/2-x,y,z
x,-y,z
loop_
_atom_site_type_symbol
_atom_site_label
_atom_site_fract_x
_atom_site_fract_y
_atom_site_fract_z
Si Si1 0.750000 0.194279 0.711037
Si Si2 0.413466 0.311117 0.531038
Si Si3 0.083656 0.191662 0.216901
Si Si4 0.339834 0.691650 0.826920
Si Si5 0.572591 0.810622 0.308789
Si Si6 0.493597 0.308208 0.918262
Si Si7 0.750000 0.809827 0.545185
O O1 0.830723 0.245894 0.752210
O O2 0.750000 0.246283 0.628116
O O3 0.750000 0.000000 0.710525
O O4 0.500000 0.250410 0.500000
O O5 0.412003 0.500000 0.520883
O O6 0.412730 0.270023 0.615194
O O7 0.332871 0.244168 0.493297
O O8 0.011865 0.241411 0.271425
O O9 0.061750 0.251918 0.137562
O O10 0.082895 0.000000 0.215238
O O11 0.250000 0.734760 0.850548
O O12 0.344447 0.500000 0.820508
O O13 0.360233 0.765127 0.749729
O O14 0.408988 0.743271 0.882303
O O15 0.570141 0.000000 0.318921
O O16 0.495173 0.500000 0.919514
O O17 0.500000 0.250959 0.000000
O O18 0.750000 0.000000 0.545396
#
# Coordination Sequence:
#
# PCOD9404054 Si02
#       7
#     4   8   8   8   8   8   4
#     4   9  18  35  57  79 106 137 178 225 269 318
#     4  11  24  40  57  81 115 152 188 232 287 342
#     4   9  18  34  56  80 105 140 180 220 268 321
#     4   9  18  33  53  75 102 141 179 217 268 323
#     4  10  20  34  55  79 106 140 182 229 273 325
#     4   9  18  34  53  77 109 140 174 216 264 318
#     4  11  23  39  61  85 112 149 192 239 285 334
#
# _framework density 18.536643000000002
#
# number of rings (size 3 to 8) (size 9 to 14) (size 15 to 20)
#    0.000    2.333    0.000    2.250    1.167    4.000 
#    1.500    2.083    0.000    0.000    0.000    0.000 
#    0.000    0.000    0.000    0.000    0.000    0.000 
#
# Total GULP energy -267855.589723 kJ/mol
# GULP energy per Si atom -5580.324786 kJ/mol
# Density = 1.849445 g / cm^3
# Si number density = 18.536643 Si / 1000 Ang^3
#
#
#
# Elastic Constant Matrix: (Units=GPa)
#
#
# Indices 1 2 3 4 5 6 
#
# 1 142.2075 23.6927 88.0291 0.0000 0.0000 0.0000
# 2 23.6927 16.3817 17.6962 0.0000 0.0000 0.0000
# 3 88.0291 17.6962 169.0707 0.0000 0.0000 0.0000
# 4 0.0000 0.0000 0.0000 9.6415 0.0000 0.0000
# 5 0.0000 0.0000 0.0000 0.0000 13.6520 0.0000
# 6 0.0000 0.0000 0.0000 0.0000 0.0000 19.1699
#
#
#
# Elastic Compliance Matrix: (Units=1/GPa)
#
#
# Indices 1 2 3 4 5 6 
#
# 1 0.012203 -0.012161 -0.005081 0.000000 0.000000 0.000000
# 2 -0.012161 0.080944 -0.002141 0.000000 0.000000 0.000000
# 3 -0.005081 -0.002141 0.008784 0.000000 0.000000 0.000000
# 4 0.000000 0.000000 0.000000 0.103719 0.000000 0.000000
# 5 0.000000 0.000000 0.000000 0.000000 0.073249 0.000000
# 6 0.000000 0.000000 0.000000 0.000000 0.000000 0.052165
#
#
# Mechanical properties :
#
#
# Convention : Reuss Voigt Hill
#
# Bulk Modulus (GPa) = 15.83108 65.16623 40.49866
# Shear Modulus (GPa) = 12.79151 21.70881 17.25016
#
# Velocity S-wave (km/s) = 2.62976 3.42589 3.05388
# Velocity P-wave (km/s) = 4.21661 7.13307 5.85920
#
# Compressibility (1/GPa) = 0.06316687
#
# Stress axis : x y z
#
# Youngs Moduli (GPa) = 81.94537 12.35423 113.84067
#
# Poissons Ratio (x) = 0.15024 0.57842
# Poissons Ratio (y) = 0.99652 0.24368
# Poissons Ratio (z) = 0.41636 0.02644
#
# Static dielectric constant tensor:
#      x y z
#    x 1.646890 0.000000 0.000000 
#    y 0.000000 1.636720 0.000000 
#    z 0.000000 0.000000 1.605910 
# 
# From -- ./inp_files/29618.got.cif
#   From: 2010.05.17/outbox.cif.g08.bks.cpg/sg51_15_cif.got.tgz:29618.got - 2010.06.03 11:52:47.
