data_PCOD9404309
_publ_section_title
;
Structure prediction by ZEFSAII (Michael W. Deem and Ramdas Pophale) SiO2 
 PCOD9404309
Probable space group: P M M A
;
_chemical_formula_sum "Si O2"
_cell_formula_units_Z 40
_cell_length_a 26.262394
_cell_length_b 8.005676
_cell_length_c 9.940458
_cell_angle_alpha 90.000000
_cell_angle_beta 90.000000
_cell_angle_gamma 90.000000
_cell_volume 2089.963574
_symmetry_space_group_name_H-M "P M M A"
_symmetry_group_IT_number 51
_symmetry_cell_setting 'orthorhombic'
loop_
_space_group_symop_operation_xyz
x,y,z
1/2-x,-y,z
1/2+x,-y,-z
-x,y,-z
-x,-y,-z
1/2+x,y,-z
1/2-x,y,z
x,-y,z
loop_
_atom_site_type_symbol
_atom_site_label
_atom_site_fract_x
_atom_site_fract_y
_atom_site_fract_z
Si Si1 0.044591 0.799107 0.095440
Si Si2 0.750000 0.698878 0.092504
Si Si3 0.455966 0.297798 0.400855
Si Si4 0.750000 0.705371 0.400854
Si Si5 0.159273 0.199482 0.102555
Si Si6 0.158998 0.700484 0.408192
O O1 0.032821 0.755936 0.249176
O O2 0.102194 0.736847 0.068835
O O3 0.045883 0.000000 0.080854
O O4 0.000000 0.733044 0.000000
O O5 0.750000 0.500000 0.100341
O O6 0.750000 0.762591 0.246184
O O7 0.700621 0.750856 0.007288
O O8 0.500000 0.237601 0.500000
O O9 0.455200 0.500000 0.405960
O O10 0.398628 0.237752 0.433526
O O11 0.750000 0.500000 0.400459
O O12 0.799503 0.761075 0.485099
O O13 0.172728 0.258985 0.253482
O O14 0.157338 0.000000 0.108275
O O15 0.157964 0.500000 0.418849
#
# Coordination Sequence:
#
# PCOD9404309 Si02
#       6
#     8   4   8   4   8   8
#     4   9  19  35  53  74 102 136 172 209 251 300
#     4  11  22  35  52  76 104 133 166 205 254 306
#     4   9  18  31  49  75 103 130 164 208 253 296
#     4   9  19  33  50  72  96 125 162 203 246 296
#     4  10  20  35  54  76 102 133 171 211 250 298
#     4   9  17  33  54  73  97 131 169 207 250 299
#
# _framework density 19.139091000000001
#
# number of rings (size 3 to 8) (size 9 to 14) (size 15 to 20)
#    0.000    2.600    0.000    1.500    0.000    4.000 
#    0.000    4.000    0.000    0.000    0.000    0.000 
#    0.000    0.000    0.000    0.000    0.000    0.000 
#
# Total GULP energy -223144.145154 kJ/mol
# GULP energy per Si atom -5578.603629 kJ/mol
# Density = 1.909553 g / cm^3
# Si number density = 19.139091 Si / 1000 Ang^3
#
#
#
# Elastic Constant Matrix: (Units=GPa)
#
#
# Indices 1 2 3 4 5 6 
#
# 1 171.1154 3.4588 146.3519 0.0000 0.0000 0.0000
# 2 3.4588 5.0166 -3.4208 0.0000 0.0000 0.0000
# 3 146.3519 -3.4208 163.7243 0.0000 0.0000 0.0000
# 4 0.0000 0.0000 0.0000 79.8917 0.0000 0.0000
# 5 0.0000 0.0000 0.0000 0.0000 38.4207 0.0000
# 6 0.0000 0.0000 0.0000 0.0000 0.0000 47.7639
#
#
#
# Elastic Compliance Matrix: (Units=1/GPa)
#
#
# Indices 1 2 3 4 5 6 
#
# 1 0.031541 -0.041564 -0.029062 0.000000 0.000000 0.000000
# 2 -0.041564 0.256994 0.042524 0.000000 0.000000 0.000000
# 3 -0.029062 0.042524 0.032975 0.000000 0.000000 0.000000
# 4 0.000000 0.000000 0.000000 0.012517 0.000000 0.000000
# 5 0.000000 0.000000 0.000000 0.000000 0.026028 0.000000
# 6 0.000000 0.000000 0.000000 0.000000 0.000000 0.020936
#
#
# Mechanical properties :
#
#
# Convention : Reuss Voigt Hill
#
# Bulk Modulus (GPa) = 3.76927 70.29287 37.03107
# Shear Modulus (GPa) = 9.51237 46.11304 27.81271
#
# Velocity S-wave (km/s) = 2.23180 4.91385 3.81621
# Velocity P-wave (km/s) = 2.93512 8.30673 6.22963
#
# Compressibility (1/GPa) = 0.26530321
#
# Stress axis : x y z
#
# Youngs Moduli (GPa) = 31.70504 3.89114 30.32601
#
# Poissons Ratio (x) = 0.16173 0.88135
# Poissons Ratio (y) = 1.31780 -1.28957
# Poissons Ratio (z) = 0.92143 -0.16547
#
# Static dielectric constant tensor:
#      x y z
#    x 1.668950 0.000000 0.000000 
#    y 0.000000 1.672030 0.000000 
#    z 0.000000 0.000000 1.623610 
# 
# From -- ./inp_files/12178.got.cif
#   From: 2010.05.17/outbox.cif.g08.bks.cpg/sg51_7_cif.got.tgz:12178.got - 2010.06.03 11:52:47.
