data_PCOD9404312
_publ_section_title
;
Structure prediction by ZEFSAII (Michael W. Deem and Ramdas Pophale) SiO2 
 PCOD9404312
Probable space group: P M M A
;
_chemical_formula_sum "Si O2"
_cell_formula_units_Z 48
_cell_length_a 9.261996
_cell_length_b 25.159607
_cell_length_c 10.653662
_cell_angle_alpha 90.000000
_cell_angle_beta 90.000000
_cell_angle_gamma 90.000000
_cell_volume 2482.603460
_symmetry_space_group_name_H-M "P M M A"
_symmetry_group_IT_number 51
_symmetry_cell_setting 'orthorhombic'
loop_
_space_group_symop_operation_xyz
x,y,z
1/2-x,-y,z
1/2+x,-y,-z
-x,y,-z
-x,-y,-z
1/2+x,y,-z
1/2-x,y,z
x,-y,z
loop_
_atom_site_type_symbol
_atom_site_label
_atom_site_fract_x
_atom_site_fract_y
_atom_site_fract_z
Si Si1 0.077865 0.937016 0.127422
Si Si2 0.081719 0.122140 0.375287
Si Si3 0.415199 0.714926 0.876666
Si Si4 0.085903 0.563821 0.378059
Si Si5 0.085096 0.412981 0.876923
Si Si6 0.080868 0.250181 0.372440
O O1 0.250000 0.929037 0.114328
O O2 0.026039 0.904834 0.248553
O O3 0.052354 0.000000 0.145616
O O4 0.000000 0.920235 0.000000
O O5 0.250000 0.108039 0.387388
O O6 0.071834 0.185959 0.366324
O O7 0.000000 0.104703 0.500000
O O8 0.250000 0.734844 0.872427
O O9 0.408686 0.650997 0.886305
O O10 0.501278 0.728308 0.750458
O O11 0.500000 0.734820 0.000000
O O12 0.250000 0.584743 0.372443
O O13 0.094930 0.500000 0.391427
O O14 0.000000 0.584479 0.500000
O O15 0.000046 0.574373 0.250254
O O16 0.250000 0.432809 0.872830
O O17 0.000000 0.432663 0.000000
O O18 0.250000 0.265037 0.374922
O O19 0.000000 0.267254 0.500000
#
# Coordination Sequence:
#
# PCOD9404312 Si02
#       6
#     8   8   8   8   8   8
#     4   9  18  33  51  72 100 132 167 208 252 300
#     4   9  19  34  51  74 102 132 168 209 253 302
#     4  10  21  37  56  79 106 137 174 215 260 309
#     4  10  21  37  57  81 109 141 177 217 260 307
#     4  10  21  37  57  80 107 139 175 216 260 308
#     4  10  20  35  54  76 104 137 173 214 259 308
#
# _framework density 19.334543
#
# number of rings (size 3 to 8) (size 9 to 14) (size 15 to 20)
#    0.000    2.333    0.000    2.000    0.000    6.333 
#    0.000    1.667    0.000    0.000    0.000    0.000 
#    0.000    0.000    0.000    0.000    0.000    0.000 
#
# Total GULP energy -267997.736243 kJ/mol
# GULP energy per Si atom -5583.286172 kJ/mol
# Density = 1.929054 g / cm^3
# Si number density = 19.334543 Si / 1000 Ang^3
#
#
#
# Elastic Constant Matrix: (Units=GPa)
#
#
# Indices 1 2 3 4 5 6 
#
# 1 164.2228 24.5506 108.4661 0.0000 0.0000 0.0000
# 2 24.5506 12.7143 30.0004 0.0000 0.0000 0.0000
# 3 108.4661 30.0004 194.7560 0.0000 0.0000 0.0000
# 4 0.0000 0.0000 0.0000 36.6216 0.0000 0.0000
# 5 0.0000 0.0000 0.0000 0.0000 43.4709 0.0000
# 6 0.0000 0.0000 0.0000 0.0000 0.0000 16.4419
#
#
#
# Elastic Compliance Matrix: (Units=1/GPa)
#
#
# Indices 1 2 3 4 5 6 
#
# 1 0.010393 -0.010071 -0.004237 0.000000 0.000000 0.000000
# 2 -0.010071 0.133323 -0.014928 0.000000 0.000000 0.000000
# 3 -0.004237 -0.014928 0.009794 0.000000 0.000000 0.000000
# 4 0.000000 0.000000 0.000000 0.027306 0.000000 0.000000
# 5 0.000000 0.000000 0.000000 0.000000 0.023004 0.000000
# 6 0.000000 0.000000 0.000000 0.000000 0.000000 0.060820
#
#
# Mechanical properties :
#
#
# Convention : Reuss Voigt Hill
#
# Bulk Modulus (GPa) = 10.52222 77.52526 44.02374
# Shear Modulus (GPa) = 14.09275 33.21862 23.65568
#
# Velocity S-wave (km/s) = 2.70272 4.14949 3.50164
# Velocity P-wave (km/s) = 3.89790 7.94616 6.25840
#
# Compressibility (1/GPa) = 0.09503700
#
# Stress axis : x y z
#
# Youngs Moduli (GPa) = 96.21502 7.50060 102.10445
#
# Poissons Ratio (x) = 0.07554 0.43262
# Poissons Ratio (y) = 0.96902 1.52422
# Poissons Ratio (z) = 0.40766 0.11197
#
# Static dielectric constant tensor:
#      x y z
#    x 1.670010 0.000000 0.000000 
#    y 0.000000 1.683370 0.000000 
#    z 0.000000 0.000000 1.638750 
# 
# From -- ./inp_files/5945.got.cif
#   From: 2010.05.17/outbox.cif.g08.bks.cpg/sg51_3_cif.got.tgz:5945.got - 2010.06.03 11:52:47.
