data_PCOD9404289
_publ_section_title
;
Structure prediction by ZEFSAII (Michael W. Deem and Ramdas Pophale) SiO2 
 PCOD9404289
Probable space group: P M M A
;
_chemical_formula_sum "Si O2"
_cell_formula_units_Z 40
_cell_length_a 26.907755
_cell_length_b 7.729182
_cell_length_c 9.632394
_cell_angle_alpha 90.000000
_cell_angle_beta 90.000000
_cell_angle_gamma 90.000000
_cell_volume 2003.296522
_symmetry_space_group_name_H-M "P M M A"
_symmetry_group_IT_number 51
_symmetry_cell_setting 'orthorhombic'
loop_
_space_group_symop_operation_xyz
x,y,z
1/2-x,-y,z
1/2+x,-y,-z
-x,y,-z
-x,-y,-z
1/2+x,y,-z
1/2-x,y,z
x,-y,z
loop_
_atom_site_type_symbol
_atom_site_label
_atom_site_fract_x
_atom_site_fract_y
_atom_site_fract_z
Si Si1 0.953599 0.791215 0.410324
Si Si2 0.750000 0.792094 0.911771
Si Si3 0.750000 0.290729 0.587176
Si Si4 0.155620 0.795484 0.921252
Si Si5 0.953900 0.212042 0.091375
Si Si6 0.341882 0.705223 0.598720
O O1 0.959761 0.734998 0.251090
O O2 0.897770 0.741536 0.453906
O O3 0.000000 0.727016 0.500000
O O4 0.955006 0.000000 0.412469
O O5 0.750000 0.759435 0.748051
O O6 0.750000 0.000000 0.931794
O O7 0.799110 0.722556 0.989346
O O8 0.750000 0.500000 0.583250
O O9 0.799033 0.229425 0.504272
O O10 0.100614 0.726667 0.955460
O O11 0.163353 0.776106 0.755527
O O12 0.153670 0.000000 0.949984
O O13 0.953587 0.000000 0.088814
O O14 0.000000 0.270546 0.000000
O O15 0.336065 0.500000 0.610784
#
# Coordination Sequence:
#
# PCOD9404289 Si02
#       6
#     8   4   4   8   8   8
#     4   9  18  32  51  75 101 131 168 210 257 304
#     4  10  21  34  52  78 102 128 167 216 264 306
#     4  10  23  38  50  72 106 140 173 210 256 308
#     4   9  18  33  52  75 100 127 166 212 255 302
#     4   8  14  26  45  68  94 123 154 192 240 294
#     4  10  20  35  54  74 100 139 180 212 250 304
#
# _framework density 19.967089999999999
#
# number of rings (size 3 to 8) (size 9 to 14) (size 15 to 20)
#    0.000    2.800    0.000    2.400    0.000    4.400 
#    0.000    4.000    0.000    9.600    0.000    0.000 
#    0.000    0.000    0.000    0.000    0.000    0.000 
#
# Total GULP energy -223107.860871 kJ/mol
# GULP energy per Si atom -5577.696522 kJ/mol
# Density = 1.992164 g / cm^3
# Si number density = 19.967090 Si / 1000 Ang^3
#
#
#
# Elastic Constant Matrix: (Units=GPa)
#
#
# Indices 1 2 3 4 5 6 
#
# 1 242.9702 2.7591 123.8917 0.0000 0.0000 0.0000
# 2 2.7591 25.2219 -9.1573 0.0000 0.0000 0.0000
# 3 123.8917 -9.1573 90.4113 0.0000 0.0000 0.0000
# 4 0.0000 0.0000 0.0000 454.7484 0.0000 0.0000
# 5 0.0000 0.0000 0.0000 0.0000 42.0784 0.0000
# 6 0.0000 0.0000 0.0000 0.0000 0.0000 13.2930
#
#
#
# Elastic Compliance Matrix: (Units=1/GPa)
#
#
# Indices 1 2 3 4 5 6 
#
# 1 0.015734 -0.009914 -0.022565 0.000000 0.000000 0.000000
# 2 -0.009914 0.047408 0.018387 0.000000 0.000000 0.000000
# 3 -0.022565 0.018387 0.043844 0.000000 0.000000 0.000000
# 4 0.000000 0.000000 0.000000 0.002199 0.000000 0.000000
# 5 0.000000 0.000000 0.000000 0.000000 0.023765 0.000000
# 6 0.000000 0.000000 0.000000 0.000000 0.000000 0.075227
#
#
# Mechanical properties :
#
#
# Convention : Reuss Voigt Hill
#
# Bulk Modulus (GPa) = 12.68995 65.95451 39.32223
# Shear Modulus (GPa) = 19.03817 118.09797 68.56807
#
# Velocity S-wave (km/s) = 3.09119 7.69901 5.86644
# Velocity P-wave (km/s) = 4.37148 10.58944 8.10081
#
# Compressibility (1/GPa) = 0.07880254
#
# Stress axis : x y z
#
# Youngs Moduli (GPa) = 63.55501 21.09335 22.80803
#
# Poissons Ratio (x) = 0.20912 0.51467
# Poissons Ratio (y) = 0.63008 -0.41937
# Poissons Ratio (z) = 1.43413 -0.38784
#
# Static dielectric constant tensor:
#      x y z
#    x 1.723140 0.000000 0.000000 
#    y 0.000000 1.726270 0.000000 
#    z 0.000000 0.000000 1.659680 
# 
# From -- ./inp_files/12180.got.cif
#   From: 2010.05.17/outbox.cif.g08.bks.cpg/sg51_7_cif.got.tgz:12180.got - 2010.06.03 11:52:47.
