data_PCOD9404744
_publ_section_title
;
Structure prediction by ZEFSAII (Michael W. Deem and Ramdas Pophale) SiO2 
 PCOD9404744
Probable space group: P M M A
;
_chemical_formula_sum "Si O2"
_cell_formula_units_Z 48
_cell_length_a 8.716762
_cell_length_b 31.271600
_cell_length_c 9.613699
_cell_angle_alpha 90.000000
_cell_angle_beta 90.000000
_cell_angle_gamma 90.000000
_cell_volume 2620.570278
_symmetry_space_group_name_H-M "P M M A"
_symmetry_group_IT_number 51
_symmetry_cell_setting 'orthorhombic'
loop_
_space_group_symop_operation_xyz
x,y,z
1/2-x,-y,z
1/2+x,-y,-z
-x,y,-z
-x,-y,-z
1/2+x,y,-z
1/2-x,y,z
x,-y,z
loop_
_atom_site_type_symbol
_atom_site_label
_atom_site_fract_x
_atom_site_fract_y
_atom_site_fract_z
Si Si1 0.433783 0.378208 0.154426
Si Si2 0.434800 0.124777 0.847091
Si Si3 0.064848 0.952623 0.654741
Si Si4 0.434433 0.777717 0.844894
Si Si5 0.433488 0.550112 0.650874
Si Si6 0.065886 0.703141 0.344836
O O1 0.250000 0.380073 0.146794
O O2 0.496971 0.420451 0.229645
O O3 0.477208 0.338120 0.252149
O O4 0.500000 0.373281 0.000000
O O5 0.250000 0.123214 0.852445
O O6 0.489318 0.087197 0.746209
O O7 0.476533 0.173335 0.805730
O O8 0.500000 0.117539 0.000000
O O9 0.250000 0.951103 0.648911
O O10 0.000000 0.949101 0.500000
O O11 0.021732 0.000000 0.709652
O O12 0.250000 0.774197 0.849433
O O13 0.501870 0.744390 0.735646
O O14 0.500000 0.769558 0.000000
O O15 0.500000 0.562864 0.500000
O O16 0.250000 0.554518 0.648257
O O17 0.471326 0.500000 0.672024
O O18 0.250000 0.705286 0.351660
O O19 0.000000 0.699943 0.500000
#
# Coordination Sequence:
#
# PCOD9404744 Si02
#       6
#     8   8   8   8   8   8
#     4  11  24  40  60  85 114 149 187 229 276 326
#     4   9  19  34  52  77 106 137 174 216 263 316
#     4   9  18  33  51  72 101 136 174 217 264 314
#     4  10  20  36  57  80 109 143 179 221 270 324
#     4  10  21  38  61  88 118 152 189 230 276 326
#     4  11  24  40  59  84 112 144 183 226 273 325
#
# _framework density 18.316623
#
# number of rings (size 3 to 8) (size 9 to 14) (size 15 to 20)
#    0.000    2.000    0.000    3.000    0.000    9.000 
#    0.000    1.667    0.000    0.000    0.000    0.000 
#    0.000    0.000    0.000    0.000    0.000    0.000 
#
# Total GULP energy -268069.110190 kJ/mol
# GULP energy per Si atom -5584.773129 kJ/mol
# Density = 1.827493 g / cm^3
# Si number density = 18.316623 Si / 1000 Ang^3
#
#
#
# Elastic Constant Matrix: (Units=GPa)
#
#
# Indices 1 2 3 4 5 6 
#
# 1 36.1550 48.3708 47.4793 0.0000 0.0000 0.0000
# 2 48.3708 137.5096 110.7478 0.0000 0.0000 0.0000
# 3 47.4793 110.7478 152.0398 0.0000 0.0000 0.0000
# 4 0.0000 0.0000 0.0000 42.2766 0.0000 0.0000
# 5 0.0000 0.0000 0.0000 0.0000 37.6427 0.0000
# 6 0.0000 0.0000 0.0000 0.0000 0.0000 23.1038
#
#
#
# Elastic Compliance Matrix: (Units=1/GPa)
#
#
# Indices 1 2 3 4 5 6 
#
# 1 0.055604 -0.013487 -0.007540 0.000000 0.000000 0.000000
# 2 -0.013487 0.020865 -0.010986 0.000000 0.000000 0.000000
# 3 -0.007540 -0.010986 0.016935 0.000000 0.000000 0.000000
# 4 0.000000 0.000000 0.000000 0.023654 0.000000 0.000000
# 5 0.000000 0.000000 0.000000 0.000000 0.026566 0.000000
# 6 0.000000 0.000000 0.000000 0.000000 0.000000 0.043283
#
#
# Mechanical properties :
#
#
# Convention : Reuss Voigt Hill
#
# Bulk Modulus (GPa) = 34.04070 82.10002 58.07036
# Shear Modulus (GPa) = 19.17733 28.54506 23.86119
#
# Velocity S-wave (km/s) = 3.23923 3.95197 3.61322
# Velocity P-wave (km/s) = 5.71096 8.10827 7.01282
#
# Compressibility (1/GPa) = 0.02937660
#
# Stress axis : x y z
#
# Youngs Moduli (GPa) = 17.98424 47.92817 59.05074
#
# Poissons Ratio (x) = 0.64639 0.44527
# Poissons Ratio (y) = 0.24255 0.64875
# Poissons Ratio (z) = 0.13561 0.52656
#
# Static dielectric constant tensor:
#      x y z
#    x 1.614810 0.000000 0.000000 
#    y 0.000000 1.644170 0.000000 
#    z 0.000000 0.000000 1.580490 
# 
# From -- ./inp_files/5940.got.cif
#   From: 2010.05.17/outbox.cif.g08.bks.cpg/sg51_3_cif.got.tgz:5940.got - 2010.06.03 11:52:47.
