data_PCOD9404995
_publ_section_title
;
Structure prediction by ZEFSAII (Michael W. Deem and Ramdas Pophale) SiO2 
 PCOD9404995
Probable space group: P M M A
;
_chemical_formula_sum "Si O2"
_cell_formula_units_Z 48
_cell_length_a 8.579012
_cell_length_b 31.719825
_cell_length_c 9.820248
_cell_angle_alpha 90.000000
_cell_angle_beta 90.000000
_cell_angle_gamma 90.000000
_cell_volume 2672.332623
_symmetry_space_group_name_H-M "P M M A"
_symmetry_group_IT_number 51
_symmetry_cell_setting 'orthorhombic'
loop_
_space_group_symop_operation_xyz
x,y,z
1/2-x,-y,z
1/2+x,-y,-z
-x,y,-z
-x,-y,-z
1/2+x,y,-z
1/2-x,y,z
x,-y,z
loop_
_atom_site_type_symbol
_atom_site_label
_atom_site_fract_x
_atom_site_fract_y
_atom_site_fract_z
Si Si1 0.938704 0.862663 0.153715
Si Si2 0.564475 0.619510 0.847159
Si Si3 0.062736 0.691708 0.651707
Si Si4 0.436540 0.450653 0.648697
Si Si5 0.562005 0.788209 0.349627
Si Si6 0.561724 0.954718 0.155111
O O1 0.750000 0.861703 0.149830
O O2 0.993328 0.823618 0.244534
O O3 0.986648 0.908935 0.211211
O O4 0.000000 0.859103 0.000000
O O5 0.750000 0.620180 0.850792
O O6 0.503313 0.659322 0.760981
O O7 0.507131 0.578405 0.765295
O O8 0.500000 0.620004 0.000000
O O9 0.250000 0.688889 0.649728
O O10 0.016498 0.740080 0.684766
O O11 0.000000 0.682176 0.500000
O O12 0.500000 0.437803 0.500000
O O13 0.250000 0.446495 0.648721
O O14 0.476511 0.500000 0.668191
O O15 0.500000 0.797388 0.500000
O O16 0.750000 0.789242 0.352325
O O17 0.750000 0.954849 0.152771
O O18 0.511166 0.000000 0.216699
O O19 0.500000 0.954765 0.000000
#
# Coordination Sequence:
#
# PCOD9404995 Si02
#       6
#     8   8   8   8   8   8
#     4   9  17  29  45  69  97 124 159 202 249 299
#     4  12  25  40  58  82 113 146 179 218 266 314
#     4  10  20  37  58  79 103 134 175 217 259 309
#     4  10  21  39  63  89 116 148 186 224 261 305
#     4   9  19  34  52  73  98 130 167 207 249 299
#     4   8  13  22  38  60  87 119 154 194 240 290
#
# _framework density 17.961836000000002
#
# number of rings (size 3 to 8) (size 9 to 14) (size 15 to 20)
#    0.000    2.333    0.000    3.000    0.000    3.333 
#    0.000    1.667    0.000    0.500    0.000    0.000 
#    0.000    0.000    0.000    0.000    0.000    0.000 
#
# Total GULP energy -267673.254686 kJ/mol
# GULP energy per Si atom -5576.526139 kJ/mol
# Density = 1.792095 g / cm^3
# Si number density = 17.961836 Si / 1000 Ang^3
#
#
#
# Elastic Constant Matrix: (Units=GPa)
#
#
# Indices 1 2 3 4 5 6 
#
# 1 46.1902 48.4194 38.5977 0.0000 0.0000 0.0000
# 2 48.4194 155.6671 108.5880 0.0000 0.0000 0.0000
# 3 38.5977 108.5880 120.8683 0.0000 0.0000 0.0000
# 4 0.0000 0.0000 0.0000 17.8661 0.0000 0.0000
# 5 0.0000 0.0000 0.0000 0.0000 29.2749 0.0000
# 6 0.0000 0.0000 0.0000 0.0000 0.0000 27.1308
#
#
#
# Elastic Compliance Matrix: (Units=1/GPa)
#
#
# Indices 1 2 3 4 5 6 
#
# 1 0.032664 -0.007725 -0.003491 0.000000 0.000000 0.000000
# 2 -0.007725 0.019035 -0.014634 0.000000 0.000000 0.000000
# 3 -0.003491 -0.014634 0.022536 0.000000 0.000000 0.000000
# 4 0.000000 0.000000 0.000000 0.055972 0.000000 0.000000
# 5 0.000000 0.000000 0.000000 0.000000 0.034159 0.000000
# 6 0.000000 0.000000 0.000000 0.000000 0.000000 0.036859
#
#
# Mechanical properties :
#
#
# Convention : Reuss Voigt Hill
#
# Bulk Modulus (GPa) = 44.37540 79.32618 61.85079
# Shear Modulus (GPa) = 19.19853 23.32905 21.26379
#
# Velocity S-wave (km/s) = 3.27288 3.60781 3.44442
# Velocity P-wave (km/s) = 6.24830 7.84950 7.09422
#
# Compressibility (1/GPa) = 0.02253501
#
# Stress axis : x y z
#
# Youngs Moduli (GPa) = 30.61434 52.53440 44.37420
#
# Poissons Ratio (x) = 0.40583 0.15490
# Poissons Ratio (y) = 0.23650 0.64938
# Poissons Ratio (z) = 0.10687 0.76880
#
# Static dielectric constant tensor:
#      x y z
#    x 1.600950 0.000000 0.000000 
#    y 0.000000 1.666550 0.000000 
#    z 0.000000 0.000000 1.569460 
# 
# From -- ./inp_files/5981.got.cif
#   From: 2010.05.17/outbox.cif.g08.bks.cpg/sg51_3_cif.got.tgz:5981.got - 2010.06.03 11:52:47.
