data_PCOD9404262
_publ_section_title
;
Structure prediction by ZEFSAII (Michael W. Deem and Ramdas Pophale) SiO2 
 PCOD9404262
Probable space group: P M M A
;
_chemical_formula_sum "Si O2"
_cell_formula_units_Z 64
_cell_length_a 7.598191
_cell_length_b 20.290833
_cell_length_c 19.880598
_cell_angle_alpha 90.000000
_cell_angle_beta 90.000000
_cell_angle_gamma 90.000000
_cell_volume 3065.063855
_symmetry_space_group_name_H-M "P M M A"
_symmetry_group_IT_number 51
_symmetry_cell_setting 'orthorhombic'
loop_
_space_group_symop_operation_xyz
x,y,z
1/2-x,-y,z
1/2+x,-y,-z
-x,y,-z
-x,-y,-z
1/2+x,y,-z
1/2-x,y,z
x,-y,z
loop_
_atom_site_type_symbol
_atom_site_label
_atom_site_fract_x
_atom_site_fract_y
_atom_site_fract_z
Si Si1 0.039760 0.925204 0.826310
Si Si2 0.463104 0.161214 0.305437
Si Si3 0.539411 0.925656 0.572448
Si Si4 0.039099 0.571561 0.921856
Si Si5 0.538366 0.424582 0.578716
Si Si6 0.464107 0.308876 0.832905
Si Si7 0.456259 0.690456 0.321052
Si Si8 0.538725 0.184513 0.078595
O O1 0.250000 0.931178 0.832455
O O2 0.974090 0.885465 0.891967
O O3 0.008805 0.876089 0.763512
O O4 0.970001 0.000000 0.817142
O O5 0.250000 0.164909 0.306058
O O6 0.527968 0.115477 0.365627
O O7 0.530884 0.234869 0.320560
O O8 0.500000 0.895481 0.500000
O O9 0.750000 0.929339 0.579118
O O10 0.467983 0.000000 0.573110
O O11 0.250000 0.570678 0.914234
O O12 0.970135 0.500000 0.901070
O O13 0.972666 0.631931 0.879458
O O14 0.000000 0.580661 0.000000
O O15 0.500000 0.409747 0.500000
O O16 0.750000 0.426839 0.586030
O O17 0.473547 0.500000 0.592267
O O18 0.472520 0.367086 0.629622
O O19 0.250000 0.306677 0.830611
O O20 0.527425 0.324407 0.758041
O O21 0.523820 0.241772 0.870028
O O22 0.250000 0.695939 0.338996
O O23 0.750000 0.184938 0.083735
O O24 0.500000 0.195985 0.000000
#
# Coordination Sequence:
#
# PCOD9404262 Si02
#       8
#     8   8   8   8   8   8   8   8
#     4  10  21  37  56  78 105 138 177 221 270 325
#     4  10  20  35  54  77 106 139 176 220 267 319
#     4   9  18  32  49  71 100 132 166 205 251 305
#     4   9  18  32  50  74 103 135 172 213 257 310
#     4   9  19  37  58  81 112 148 186 227 269 315
#     4  10  20  35  53  75 106 141 175 216 265 318
#     4  10  21  35  54  80 108 138 177 221 264 312
#     4  10  21  36  54  77 104 136 175 218 267 320
#
# _framework density 20.880478
#
# number of rings (size 3 to 8) (size 9 to 14) (size 15 to 20)
#    0.000    2.375    1.250    0.750    0.000    4.500 
#    0.000    1.250    0.000    0.000    0.000    0.000 
#    0.000    0.000    0.000    0.000    0.000    0.000 
#
# Total GULP energy -356838.773006 kJ/mol
# GULP energy per Si atom -5575.605828 kJ/mol
# Density = 2.083295 g / cm^3
# Si number density = 20.880478 Si / 1000 Ang^3
#
#
#
# Elastic Constant Matrix: (Units=GPa)
#
#
# Indices 1 2 3 4 5 6 
#
# 1 44.5504 6.4752 -7.1467 0.0000 0.0000 0.0000
# 2 6.4752 169.4199 97.4750 0.0000 0.0000 0.0000
# 3 -7.1467 97.4750 120.3929 0.0000 0.0000 0.0000
# 4 0.0000 0.0000 0.0000 44.6184 0.0000 0.0000
# 5 0.0000 0.0000 0.0000 0.0000 21.9140 0.0000
# 6 0.0000 0.0000 0.0000 0.0000 0.0000 8.6398
#
#
#
# Elastic Compliance Matrix: (Units=1/GPa)
#
#
# Indices 1 2 3 4 5 6 
#
# 1 0.023549 -0.003191 0.003981 0.000000 0.000000 0.000000
# 2 -0.003191 0.011482 -0.009486 0.000000 0.000000 0.000000
# 3 0.003981 -0.009486 0.016222 0.000000 0.000000 0.000000
# 4 0.000000 0.000000 0.000000 0.022412 0.000000 0.000000
# 5 0.000000 0.000000 0.000000 0.000000 0.045633 0.000000
# 6 0.000000 0.000000 0.000000 0.000000 0.000000 0.115744
#
#
# Mechanical properties :
#
#
# Convention : Reuss Voigt Hill
#
# Bulk Modulus (GPa) = 29.53069 58.66333 44.09701
# Shear Modulus (GPa) = 18.95949 30.87175 24.91562
#
# Velocity S-wave (km/s) = 3.01657 3.84930 3.45809
# Velocity P-wave (km/s) = 5.12898 6.92184 6.09173
#
# Compressibility (1/GPa) = 0.03386307
#
# Stress axis : x y z
#
# Youngs Moduli (GPa) = 42.46487 87.09306 61.64300
#
# Poissons Ratio (x) = 0.27787 -0.24541
# Poissons Ratio (y) = 0.13549 0.58472
# Poissons Ratio (z) = -0.16906 0.82614
#
# Static dielectric constant tensor:
#      x y z
#    x 1.789460 0.000000 0.000000 
#    y 0.000000 1.789820 0.000000 
#    z 0.000000 0.000000 1.711550 
# 
# From -- ./inp_files/28398.got.cif
#   From: 2010.05.17/outbox.cif.g08.bks.cpg/sg51_15_cif.got.tgz:28398.got - 2010.06.03 11:52:47.
