data_PCOD9404861
_publ_section_title
;
Structure prediction by ZEFSAII (Michael W. Deem and Ramdas Pophale) SiO2 
 PCOD9404861
Probable space group: P M M A
;
_chemical_formula_sum "Si O2"
_cell_formula_units_Z 64
_cell_length_a 7.565771
_cell_length_b 15.384240
_cell_length_c 25.373294
_cell_angle_alpha 90.000000
_cell_angle_beta 90.000000
_cell_angle_gamma 90.000000
_cell_volume 2953.289967
_symmetry_space_group_name_H-M "P M M A"
_symmetry_group_IT_number 51
_symmetry_cell_setting 'orthorhombic'
loop_
_space_group_symop_operation_xyz
x,y,z
1/2-x,-y,z
1/2+x,-y,-z
-x,y,-z
-x,-y,-z
1/2+x,y,-z
1/2-x,y,z
x,-y,z
loop_
_atom_site_type_symbol
_atom_site_label
_atom_site_fract_x
_atom_site_fract_y
_atom_site_fract_z
Si Si1 0.541603 0.098578 0.345867
Si Si2 0.962009 0.592493 0.937153
Si Si3 0.457883 0.594297 0.735072
Si Si4 0.963809 0.097736 0.847651
Si Si5 0.464222 0.404413 0.389127
Si Si6 0.962148 0.780747 0.938295
Si Si7 0.959731 0.775492 0.560980
Si Si8 0.540222 0.782646 0.251382
O O1 0.750000 0.090783 0.334336
O O2 0.525098 0.147583 0.401376
O O3 0.466372 0.163434 0.301244
O O4 0.469018 0.000000 0.345418
O O5 0.750000 0.592082 0.930320
O O6 0.030722 0.500000 0.915852
O O7 0.030179 0.686146 0.918899
O O8 0.000000 0.592313 0.000000
O O9 0.250000 0.591161 0.748488
O O10 0.534849 0.500000 0.750713
O O11 0.475875 0.600973 0.671590
O O12 0.533913 0.685296 0.755702
O O13 0.750000 0.094426 0.848992
O O14 0.027196 0.142089 0.901590
O O15 0.015205 0.159051 0.799641
O O16 0.029464 0.000000 0.840613
O O17 0.250000 0.403437 0.389375
O O18 0.520172 0.500000 0.409635
O O19 0.528407 0.319181 0.419933
O O20 0.750000 0.778020 0.933467
O O21 0.000000 0.791718 0.000000
O O22 0.750000 0.773296 0.567614
O O23 0.000000 0.789621 0.500000
O O24 0.750000 0.771042 0.261103
#
# Coordination Sequence:
#
# PCOD9404861 Si02
#       8
#     8   8   8   8   8   8   8   8
#     4  10  21  38  59  81 105 135 176 227 278 325
#     4   8  13  23  42  67  94 125 162 204 249 300
#     4   9  17  31  55  84 111 140 172 210 261 319
#     4  10  22  38  54  76 108 143 180 225 274 320
#     4   9  18  33  53  79 110 142 177 217 261 314
#     4   9  18  33  52  75 104 138 176 218 264 316
#     4  11  23  37  55  79 110 145 182 224 269 321
#     4  10  20  36  59  84 110 138 175 220 265 318
#
# _framework density 21.670748
#
# number of rings (size 3 to 8) (size 9 to 14) (size 15 to 20)
#    0.000    2.500    1.250    0.750    0.000    3.750 
#    0.000    0.625    0.000    0.750    0.000    3.500 
#    0.000    0.000    0.000    0.000    0.000    0.000 
#
# Total GULP energy -357047.688519 kJ/mol
# GULP energy per Si atom -5578.870133 kJ/mol
# Density = 2.162142 g / cm^3
# Si number density = 21.670748 Si / 1000 Ang^3
#
#
#
# Elastic Constant Matrix: (Units=GPa)
#
#
# Indices 1 2 3 4 5 6 
#
# 1 52.8987 8.3507 -17.2146 0.0000 0.0000 0.0000
# 2 8.3507 246.3080 74.7932 0.0000 0.0000 0.0000
# 3 -17.2146 74.7932 55.0439 0.0000 0.0000 0.0000
# 4 0.0000 0.0000 0.0000 79.7544 0.0000 0.0000
# 5 0.0000 0.0000 0.0000 0.0000 17.1424 0.0000
# 6 0.0000 0.0000 0.0000 0.0000 0.0000 12.6167
#
#
#
# Elastic Compliance Matrix: (Units=1/GPa)
#
#
# Indices 1 2 3 4 5 6 
#
# 1 0.024660 -0.005410 0.015064 0.000000 0.000000 0.000000
# 2 -0.005410 0.008099 -0.012697 0.000000 0.000000 0.000000
# 3 0.015064 -0.012697 0.040131 0.000000 0.000000 0.000000
# 4 0.000000 0.000000 0.000000 0.012538 0.000000 0.000000
# 5 0.000000 0.000000 0.000000 0.000000 0.058335 0.000000
# 6 0.000000 0.000000 0.000000 0.000000 0.000000 0.079260
#
#
# Mechanical properties :
#
#
# Convention : Reuss Voigt Hill
#
# Bulk Modulus (GPa) = 14.96932 54.01215 34.49074
# Shear Modulus (GPa) = 19.89045 41.12412 30.50729
#
# Velocity S-wave (km/s) = 3.03289 4.36096 3.75609
# Velocity P-wave (km/s) = 4.38031 7.09475 5.89587
#
# Compressibility (1/GPa) = 0.06680328
#
# Stress axis : x y z
#
# Youngs Moduli (GPa) = 40.55108 123.47487 24.91869
#
# Poissons Ratio (x) = 0.66804 -0.37537
# Poissons Ratio (y) = 0.21939 0.31638
# Poissons Ratio (z) = -0.61085 1.56772
#
# Static dielectric constant tensor:
#      x y z
#    x 1.848590 0.000000 0.000000 
#    y 0.000000 1.850360 0.000000 
#    z 0.000000 0.000000 1.622970 
# 
# From -- ./inp_files/34931.got.cif
#   From: 2010.05.17/outbox.cif.g08.bks.cpg/sg51_18_cif.got.tgz:34931.got - 2010.06.03 11:52:47.
