data_PCOD9404416
_publ_section_title
;
Structure prediction by ZEFSAII (Michael W. Deem and Ramdas Pophale) SiO2 
 PCOD9404416
Probable space group: P M M A
;
_chemical_formula_sum "Si O2"
_cell_formula_units_Z 48
_cell_length_a 10.782121
_cell_length_b 13.653008
_cell_length_c 17.514376
_cell_angle_alpha 90.000000
_cell_angle_beta 90.000000
_cell_angle_gamma 90.000000
_cell_volume 2578.262992
_symmetry_space_group_name_H-M "P M M A"
_symmetry_group_IT_number 51
_symmetry_cell_setting 'orthorhombic'
loop_
_space_group_symop_operation_xyz
x,y,z
1/2-x,-y,z
1/2+x,-y,-z
-x,y,-z
-x,-y,-z
1/2+x,y,-z
1/2-x,y,z
x,-y,z
loop_
_atom_site_type_symbol
_atom_site_label
_atom_site_fract_x
_atom_site_fract_y
_atom_site_fract_z
Si Si1 0.250000 0.619145 0.567016
Si Si2 0.378399 0.884740 0.470655
Si Si3 0.391766 0.113416 0.938187
Si Si4 0.979905 0.617951 0.325362
Si Si5 0.105979 0.229058 0.783781
Si Si6 0.250000 0.618111 0.386991
Si Si7 0.883356 0.113544 0.711864
O O1 0.250000 0.500000 0.570490
O O2 0.124897 0.649046 0.612572
O O3 0.250000 0.641074 0.476962
O O4 0.500000 0.833978 0.500000
O O5 0.250000 0.844349 0.501297
O O6 0.379709 0.883394 0.379735
O O7 0.379817 0.000000 0.493328
O O8 0.250000 0.121969 0.968771
O O9 0.405306 0.192928 0.870989
O O10 0.402362 0.000000 0.908950
O O11 0.500000 0.126120 0.000000
O O12 0.981006 0.500000 0.322576
O O13 0.935951 0.663703 0.244838
O O14 0.119394 0.651388 0.349358
O O15 0.250000 0.214260 0.762707
O O16 0.007800 0.162840 0.739221
O O17 0.250000 0.500000 0.380373
O O18 0.750000 0.154642 0.739753
O O19 0.886556 0.000000 0.734732
#
# Coordination Sequence:
#
# PCOD9404416 Si02
#       7
#     4   8   8   8   8   4   8
#     4   9  16  32  56  78 106 147 194 242 294 345
#     4   8  14  26  43  61  84 120 166 212 256 304
#     4   9  19  37  60  87 116 143 177 221 271 331
#     4  10  20  35  55  82 114 150 192 237 288 340
#     4  11  22  35  55  82 114 145 181 225 277 331
#     4   9  18  32  54  80 108 147 194 246 296 335
#     4   9  19  34  51  72 100 135 176 222 273 328
#
# _framework density 18.617184999999999
#
# number of rings (size 3 to 8) (size 9 to 14) (size 15 to 20)
#    0.000    2.667    0.833    2.000    1.167    4.333 
#    0.000    5.000    0.000    0.500    0.000    0.000 
#    0.000    0.000    0.000    0.000    0.000    0.000 
#
# Total GULP energy -267449.327515 kJ/mol
# GULP energy per Si atom -5571.860990 kJ/mol
# Density = 1.857481 g / cm^3
# Si number density = 18.617185 Si / 1000 Ang^3
#
#
#
# Elastic Constant Matrix: (Units=GPa)
#
#
# Indices 1 2 3 4 5 6 
#
# 1 200.3363 41.1482 64.0579 0.0000 0.0000 0.0000
# 2 41.1482 55.9311 18.8451 0.0000 0.0000 0.0000
# 3 64.0579 18.8451 56.9874 0.0000 0.0000 0.0000
# 4 0.0000 0.0000 0.0000 51.2746 0.0000 0.0000
# 5 0.0000 0.0000 0.0000 0.0000 235.1345 0.0000
# 6 0.0000 0.0000 0.0000 0.0000 0.0000 24.2259
#
#
#
# Elastic Compliance Matrix: (Units=1/GPa)
#
#
# Indices 1 2 3 4 5 6 
#
# 1 0.008312 -0.003339 -0.008239 0.000000 0.000000 0.000000
# 2 -0.003339 0.021462 -0.003344 0.000000 0.000000 0.000000
# 3 -0.008239 -0.003344 0.027915 0.000000 0.000000 0.000000
# 4 0.000000 0.000000 0.000000 0.019503 0.000000 0.000000
# 5 0.000000 0.000000 0.000000 0.000000 0.004253 0.000000
# 6 0.000000 0.000000 0.000000 0.000000 0.000000 0.041278
#
#
# Mechanical properties :
#
#
# Convention : Reuss Voigt Hill
#
# Bulk Modulus (GPa) = 35.91322 62.37303 49.14312
# Shear Modulus (GPa) = 30.89307 74.74055 52.81681
#
# Velocity S-wave (km/s) = 4.07797 6.34296 5.33212
# Velocity P-wave (km/s) = 6.44247 9.33916 8.02263
#
# Compressibility (1/GPa) = 0.02784490
#
# Stress axis : x y z
#
# Youngs Moduli (GPa) = 120.31030 46.59317 35.82337
#
# Poissons Ratio (x) = 0.15557 0.29515
# Poissons Ratio (y) = 0.40172 0.11980
# Poissons Ratio (z) = 0.99123 0.15581
#
# Static dielectric constant tensor:
#      x y z
#    x 1.700980 0.000000 0.000000 
#    y 0.000000 1.690850 0.000000 
#    z 0.000000 0.000000 1.610360 
# 
# From -- ./inp_files/23265.got.cif
#   From: 2010.05.17/outbox.cif.g08.bks.cpg/sg51_12_cif.got.tgz:23265.got - 2010.06.03 11:52:47.
