data_PCOD9404899
_publ_section_title
;
Structure prediction by ZEFSAII (Michael W. Deem and Ramdas Pophale) SiO2 
 PCOD9404899
Probable space group: P M M A
;
_chemical_formula_sum "Si O2"
_cell_formula_units_Z 64
_cell_length_a 16.713909
_cell_length_b 16.542532
_cell_length_c 11.183429
_cell_angle_alpha 90.000000
_cell_angle_beta 90.000000
_cell_angle_gamma 90.000000
_cell_volume 3092.110472
_symmetry_space_group_name_H-M "P M M A"
_symmetry_group_IT_number 51
_symmetry_cell_setting 'orthorhombic'
loop_
_space_group_symop_operation_xyz
x,y,z
1/2-x,-y,z
1/2+x,-y,-z
-x,y,-z
-x,-y,-z
1/2+x,y,-z
1/2-x,y,z
x,-y,z
loop_
_atom_site_type_symbol
_atom_site_label
_atom_site_fract_x
_atom_site_fract_y
_atom_site_fract_z
Si Si1 0.344782 0.093145 0.434807
Si Si2 0.931260 0.407969 0.408870
Si Si3 0.915751 0.838048 0.323300
Si Si4 0.657998 0.408494 0.636216
Si Si5 0.158875 0.313618 0.780815
Si Si6 0.841382 0.758328 0.966791
Si Si7 0.583749 0.090512 0.068510
Si Si8 0.085357 0.238549 0.284475
O O1 0.250000 0.094117 0.460570
O O2 0.392934 0.117718 0.554743
O O3 0.362490 0.164269 0.338965
O O4 0.365654 0.000000 0.398618
O O5 0.953859 0.500000 0.384294
O O6 0.853131 0.406326 0.493139
O O7 0.906781 0.366713 0.286523
O O8 0.000000 0.376293 0.500000
O O9 0.848445 0.773133 0.285537
O O10 0.927236 0.896763 0.210240
O O11 0.997293 0.786071 0.328525
O O12 0.750000 0.400757 0.670912
O O13 0.631395 0.500000 0.673158
O O14 0.612628 0.328421 0.678892
O O15 0.250000 0.343625 0.770389
O O16 0.140872 0.300046 0.921022
O O17 0.750000 0.743980 0.926012
O O18 0.902744 0.757624 0.857784
O O19 0.851060 0.846765 0.023163
O O20 0.608275 0.000000 0.041864
O O21 0.500000 0.105897 0.000000
#
# Coordination Sequence:
#
# PCOD9404899 Si02
#       8
#     8   8   8   8   8   8   8   8
#     4  11  25  42  61  90 128 169 214 267 331 401
#     4  10  20  36  59  90 124 157 199 255 315 379
#     4  11  22  38  62  87 118 163 210 264 327 389
#     4  10  21  37  59  86 118 160 207 256 314 380
#     4  10  21  37  59  87 121 162 210 258 314 384
#     4  10  22  39  59  88 122 164 214 266 321 387
#     4  10  20  37  59  85 115 155 207 263 320 383
#     4  12  23  40  64  89 126 169 216 272 332 393
#
# _framework density 20.697838000000001
#
# number of rings (size 3 to 8) (size 9 to 14) (size 15 to 20)
#    0.000    1.500    1.250    4.125    0.000    3.500 
#    0.000    0.625    0.000    0.750    0.000    5.250 
#    0.000    0.000    0.000    0.000    0.000    0.000 
#
# Total GULP energy -356942.578483 kJ/mol
# GULP energy per Si atom -5577.227789 kJ/mol
# Density = 2.065073 g / cm^3
# Si number density = 20.697838 Si / 1000 Ang^3
#
#
#
# Elastic Constant Matrix: (Units=GPa)
#
#
# Indices 1 2 3 4 5 6 
#
# 1 91.3160 43.1823 30.7534 0.0000 0.0000 0.0000
# 2 43.1823 110.4019 50.5100 0.0000 0.0000 0.0000
# 3 30.7534 50.5100 96.1310 0.0000 0.0000 0.0000
# 4 0.0000 0.0000 0.0000 22.8074 0.0000 0.0000
# 5 0.0000 0.0000 0.0000 0.0000 20.4484 0.0000
# 6 0.0000 0.0000 0.0000 0.0000 0.0000 22.5614
#
#
#
# Elastic Compliance Matrix: (Units=1/GPa)
#
#
# Indices 1 2 3 4 5 6 
#
# 1 0.013742 -0.004428 -0.002070 0.000000 0.000000 0.000000
# 2 -0.004428 0.013351 -0.005598 0.000000 0.000000 0.000000
# 3 -0.002070 -0.005598 0.014006 0.000000 0.000000 0.000000
# 4 0.000000 0.000000 0.000000 0.043845 0.000000 0.000000
# 5 0.000000 0.000000 0.000000 0.000000 0.048904 0.000000
# 6 0.000000 0.000000 0.000000 0.000000 0.000000 0.044324
#
#
# Mechanical properties :
#
#
# Convention : Reuss Voigt Hill
#
# Bulk Modulus (GPa) = 59.14723 60.74892 59.94808
# Shear Modulus (GPa) = 24.03847 24.72365 24.38106
#
# Velocity S-wave (km/s) = 3.41163 3.45991 3.43585
# Velocity P-wave (km/s) = 6.64511 6.73613 6.69077
#
# Compressibility (1/GPa) = 0.01690696
#
# Stress axis : x y z
#
# Youngs Moduli (GPa) = 72.76969 74.89968 71.39722
#
# Poissons Ratio (x) = 0.33167 0.14776
# Poissons Ratio (y) = 0.32224 0.39972
# Poissons Ratio (z) = 0.15060 0.41932
#
# Static dielectric constant tensor:
#      x y z
#    x 1.785900 0.000000 0.000000 
#    y 0.000000 1.772300 0.000000 
#    z 0.000000 0.000000 1.740540 
# 
# From -- ./inp_files/17613.got.cif
#   From: 2010.05.17/outbox.cif.g08.bks.cpg/sg51_9_cif.got.tgz:17613.got - 2010.06.03 11:52:47.
