data_PCOD9404456
_publ_section_title
;
Structure prediction by ZEFSAII (Michael W. Deem and Ramdas Pophale) SiO2 
 PCOD9404456
Probable space group: P M M A
;
_chemical_formula_sum "Si O2"
_cell_formula_units_Z 64
_cell_length_a 19.436817
_cell_length_b 7.829580
_cell_length_c 19.855366
_cell_angle_alpha 90.000000
_cell_angle_beta 90.000000
_cell_angle_gamma 90.000000
_cell_volume 3021.631565
_symmetry_space_group_name_H-M "P M M A"
_symmetry_group_IT_number 51
_symmetry_cell_setting 'orthorhombic'
loop_
_space_group_symop_operation_xyz
x,y,z
1/2-x,-y,z
1/2+x,-y,-z
-x,y,-z
-x,-y,-z
1/2+x,y,-z
1/2-x,y,z
x,-y,z
loop_
_atom_site_type_symbol
_atom_site_label
_atom_site_fract_x
_atom_site_fract_y
_atom_site_fract_z
Si Si1 0.462166 0.196261 0.435473
Si Si2 0.592343 0.697062 0.223402
Si Si3 0.455460 0.796021 0.284987
Si Si4 0.670675 0.697174 0.499603
Si Si5 0.828183 0.198311 0.354070
Si Si6 0.671454 0.706714 0.801361
Si Si7 0.913075 0.708077 0.931410
Si Si8 0.073225 0.291173 0.920677
O O1 0.500000 0.277768 0.500000
O O2 0.469511 0.269172 0.360780
O O3 0.382016 0.200478 0.454869
O O4 0.487306 0.000000 0.431112
O O5 0.613527 0.500000 0.225147
O O6 0.510548 0.710733 0.235551
O O7 0.627421 0.782403 0.287409
O O8 0.606852 0.768529 0.149016
O O9 0.379040 0.760200 0.258824
O O10 0.466524 0.000000 0.283759
O O11 0.750000 0.756389 0.501803
O O12 0.668659 0.500000 0.520855
O O13 0.647550 0.707970 0.421427
O O14 0.750000 0.255459 0.339832
O O15 0.827293 0.000000 0.372955
O O16 0.750000 0.766003 0.794789
O O17 0.672307 0.500000 0.802828
O O18 0.635978 0.766607 0.871250
O O19 0.912161 0.500000 0.930478
O O20 0.992650 0.759382 0.920716
O O21 0.894903 0.761174 0.007813
O O22 0.073937 0.500000 0.918757
#
# Coordination Sequence:
#
# PCOD9404456 Si02
#       8
#     8   8   8   8   8   8   8   8
#     4  10  22  39  57  78 106 141 181 225 273 329
#     4  11  20  33  56  85 113 141 179 232 280 321
#     4  11  23  37  55  80 111 147 186 225 273 339
#     4  10  21  37  58  83 107 135 177 227 276 326
#     4  10  21  37  56  78 109 149 184 215 264 333
#     4  10  20  35  56  80 109 147 191 238 283 328
#     4   8  13  27  49  76 106 137 177 222 273 326
#     4   8  14  25  49  79 107 136 171 223 276 322
#
# _framework density 21.180610000000001
#
# number of rings (size 3 to 8) (size 9 to 14) (size 15 to 20)
#    0.000    2.250    1.250    3.000    0.000    4.500 
#    0.000    3.125    0.000    4.500    0.000    0.000 
#    0.000    0.000    0.000    0.000    0.000    0.000 
#
# Total GULP energy -357209.167230 kJ/mol
# GULP energy per Si atom -5581.393238 kJ/mol
# Density = 2.113240 g / cm^3
# Si number density = 21.180610 Si / 1000 Ang^3
#
#
#
# Elastic Constant Matrix: (Units=GPa)
#
#
# Indices 1 2 3 4 5 6 
#
# 1 45.2625 -5.4961 17.8964 0.0000 0.0000 0.0000
# 2 -5.4961 33.6960 -1.8452 0.0000 0.0000 0.0000
# 3 17.8964 -1.8452 118.7212 0.0000 0.0000 0.0000
# 4 0.0000 0.0000 0.0000 41.1484 0.0000 0.0000
# 5 0.0000 0.0000 0.0000 0.0000 30.9711 0.0000
# 6 0.0000 0.0000 0.0000 0.0000 0.0000 19.4950
#
#
#
# Elastic Compliance Matrix: (Units=1/GPa)
#
#
# Indices 1 2 3 4 5 6 
#
# 1 0.023949 0.003712 -0.003552 0.000000 0.000000 0.000000
# 2 0.003712 0.030278 -0.000089 0.000000 0.000000 0.000000
# 3 -0.003552 -0.000089 0.008957 0.000000 0.000000 0.000000
# 4 0.000000 0.000000 0.000000 0.024302 0.000000 0.000000
# 5 0.000000 0.000000 0.000000 0.000000 0.032288 0.000000
# 6 0.000000 0.000000 0.000000 0.000000 0.000000 0.051295
#
#
# Mechanical properties :
#
#
# Convention : Reuss Voigt Hill
#
# Bulk Modulus (GPa) = 15.79176 24.30999 20.05088
# Shear Modulus (GPa) = 26.03670 30.79786 28.41728
#
# Velocity S-wave (km/s) = 3.50990 3.81735 3.66685
# Velocity P-wave (km/s) = 4.88854 5.56165 5.23592
#
# Compressibility (1/GPa) = 0.06332417
#
# Stress axis : x y z
#
# Youngs Moduli (GPa) = 41.75604 33.02770 111.64188
#
# Poissons Ratio (x) = -0.12259 0.39660
# Poissons Ratio (y) = -0.15499 0.00993
# Poissons Ratio (z) = 0.14833 0.00294
#
# Static dielectric constant tensor:
#      x y z
#    x 1.769200 0.000000 0.000000 
#    y 0.000000 1.784120 0.000000 
#    z 0.000000 0.000000 1.777810 
# 
# From -- ./inp_files/30615.got.cif
#   From: 2010.05.17/outbox.cif.g08.bks.cpg/sg51_16_cif.got.tgz:30615.got - 2010.06.03 11:52:47.
