data_PCOD9404005
_publ_section_title
;
Structure prediction by ZEFSAII (Michael W. Deem and Ramdas Pophale) SiO2 
 PCOD9404005
Probable space group: P M M A
;
_chemical_formula_sum "Si O2"
_cell_formula_units_Z 48
_cell_length_a 9.192894
_cell_length_b 8.509133
_cell_length_c 31.788340
_cell_angle_alpha 90.000000
_cell_angle_beta 90.000000
_cell_angle_gamma 90.000000
_cell_volume 2486.597048
_symmetry_space_group_name_H-M "P M M A"
_symmetry_group_IT_number 51
_symmetry_cell_setting 'orthorhombic'
loop_
_space_group_symop_operation_xyz
x,y,z
1/2-x,-y,z
1/2+x,-y,-z
-x,y,-z
-x,-y,-z
1/2+x,y,-z
1/2-x,y,z
x,-y,z
loop_
_atom_site_type_symbol
_atom_site_label
_atom_site_fract_x
_atom_site_fract_y
_atom_site_fract_z
Si Si1 0.581676 0.311567 0.374780
Si Si2 0.082159 0.808073 0.957705
Si Si3 0.081633 0.188530 0.292299
Si Si4 0.918675 0.809705 0.872728
Si Si5 0.081643 0.311542 0.790186
Si Si6 0.081273 0.190144 0.457325
O O1 0.750000 0.258942 0.375064
O O2 0.579561 0.500000 0.373669
O O3 0.500239 0.248343 0.333677
O O4 0.500512 0.253710 0.416515
O O5 0.250000 0.757562 0.957276
O O6 0.997998 0.758669 0.915642
O O7 0.081776 0.000000 0.957957
O O8 0.000000 0.757016 0.000000
O O9 0.250000 0.240971 0.292531
O O10 0.001050 0.248746 0.250752
O O11 0.079893 0.000000 0.292228
O O12 0.750000 0.760829 0.872452
O O13 0.002176 0.747203 0.832104
O O14 0.922002 0.000000 0.871607
O O15 0.250000 0.259187 0.789926
O O16 0.079205 0.500000 0.789297
O O17 0.250000 0.239308 0.457770
O O18 0.000000 0.240080 0.500000
O O19 0.077790 0.000000 0.455822
#
# Coordination Sequence:
#
# PCOD9404005 Si02
#       6
#     8   8   8   8   8   8
#     4  11  24  40  59  86 119 154 192 233 280 335
#     4   9  16  27  46  74 108 144 182 227 277 326
#     4  11  24  41  62  88 115 145 185 231 279 333
#     4  10  20  34  54  81 111 144 185 230 276 330
#     4  11  24  40  58  82 112 146 185 228 276 332
#     4  10  21  38  61  88 117 152 195 240 286 336
#
# _framework density 19.303488999999999
#
# number of rings (size 3 to 8) (size 9 to 14) (size 15 to 20)
#    0.000    1.667    0.000    4.500    0.000   14.333 
#    0.000    0.000    0.000    0.500    0.000    0.000 
#    0.000    0.000    0.000    0.000    0.000    0.000 
#
# Total GULP energy -268382.590553 kJ/mol
# GULP energy per Si atom -5591.303970 kJ/mol
# Density = 1.925955 g / cm^3
# Si number density = 19.303489 Si / 1000 Ang^3
#
#
#
# Elastic Constant Matrix: (Units=GPa)
#
#
# Indices 1 2 3 4 5 6 
#
# 1 246.8403 41.8780 151.2608 0.0000 0.0000 0.0000
# 2 41.8780 19.4735 35.5707 0.0000 0.0000 0.0000
# 3 151.2608 35.5707 243.7843 0.0000 0.0000 0.0000
# 4 0.0000 0.0000 0.0000 -294.1184 0.0000 0.0000
# 5 0.0000 0.0000 0.0000 0.0000 46.5269 0.0000
# 6 0.0000 0.0000 0.0000 0.0000 0.0000 23.7695
#
#
#
# Elastic Compliance Matrix: (Units=1/GPa)
#
#
# Indices 1 2 3 4 5 6 
#
# 1 0.007967 -0.011048 -0.003331 0.000000 0.000000 0.000000
# 2 -0.011048 0.085333 -0.005596 0.000000 0.000000 0.000000
# 3 -0.003331 -0.005596 0.006985 0.000000 0.000000 0.000000
# 4 0.000000 0.000000 0.000000 -0.003400 0.000000 0.000000
# 5 0.000000 0.000000 0.000000 0.000000 0.021493 0.000000
# 6 0.000000 0.000000 0.000000 0.000000 0.000000 0.042071
#
#
# Mechanical properties :
#
#
# Convention : Reuss Voigt Hill
#
# Bulk Modulus (GPa) = 16.57425 107.50189 62.03807
# Shear Modulus (GPa) = 22.67464 -26.00516 -1.66526
#
# Velocity S-wave (km/s) = 3.43102 -3.67437 -0.92981
# Velocity P-wave (km/s) = 4.92957 6.14898 5.57273
#
# Compressibility (1/GPa) = 0.06033457
#
# Stress axis : x y z
#
# Youngs Moduli (GPa) = 125.51946 11.71883 143.15602
#
# Poissons Ratio (x) = 0.12947 0.47688
# Poissons Ratio (y) = 1.38675 0.80109
# Poissons Ratio (z) = 0.41813 0.06558
#
# Static dielectric constant tensor:
#      x y z
#    x 1.658370 0.000000 0.000000 
#    y 0.000000 1.661050 0.000000 
#    z 0.000000 0.000000 1.618870 
# 
# From -- ./inp_files/37038.got.cif
#   From: 2010.05.17/outbox.cif.g08.bks.cpg/sg51_19_cif.got.tgz:37038.got - 2010.06.03 11:52:47.
