data_PCOD9404046
_publ_section_title
;
Structure prediction by ZEFSAII (Michael W. Deem and Ramdas Pophale) SiO2 
 PCOD9404046
Probable space group: P M M A
;
_chemical_formula_sum "Si O2"
_cell_formula_units_Z 48
_cell_length_a 9.055060
_cell_length_b 18.554150
_cell_length_c 16.057815
_cell_angle_alpha 90.000000
_cell_angle_beta 90.000000
_cell_angle_gamma 90.000000
_cell_volume 2697.856501
_symmetry_space_group_name_H-M "P M M A"
_symmetry_group_IT_number 51
_symmetry_cell_setting 'orthorhombic'
loop_
_space_group_symop_operation_xyz
x,y,z
1/2-x,-y,z
1/2+x,-y,-z
-x,y,-z
-x,-y,-z
1/2+x,y,-z
1/2-x,y,z
x,-y,z
loop_
_atom_site_type_symbol
_atom_site_label
_atom_site_fract_x
_atom_site_fract_y
_atom_site_fract_z
Si Si1 0.579203 0.500000 0.146546
Si Si2 0.079966 0.154034 0.841194
Si Si3 0.577348 0.268380 0.727564
Si Si4 0.571404 0.500000 0.673561
Si Si5 0.591033 0.369472 0.885363
Si Si6 0.928566 0.000000 0.091316
Si Si7 0.000000 0.245359 0.000000
Si Si8 0.427938 0.642014 0.590397
O O1 0.750000 0.500000 0.168327
O O2 0.482153 0.500000 0.230748
O O3 0.535460 0.427378 0.098602
O O4 0.250000 0.153789 0.813034
O O5 0.982106 0.198205 0.775783
O O6 0.030019 0.072714 0.859821
O O7 0.073645 0.195468 0.930223
O O8 0.750000 0.261212 0.705191
O O9 0.566785 0.333040 0.795335
O O10 0.478178 0.292699 0.650335
O O11 0.750000 0.500000 0.668160
O O12 0.501572 0.570015 0.629299
O O13 0.750000 0.406378 0.887008
O O14 0.594509 0.301833 0.946908
O O15 0.750000 0.000000 0.082120
O O16 0.000000 0.000000 0.000000
O O17 0.500000 0.651917 0.500000
O O18 0.250000 0.635482 0.586960
#
# Coordination Sequence:
#
# PCOD9404046 Si02
#       8
#     4   8   8   4   8   4   4   8
#     4  12  24  36  54  74  97 139 188 236 288 338
#     4  10  20  35  56  82 114 150 188 230 278 330
#     4  10  21  37  57  81 110 146 185 227 280 334
#     4  12  23  39  57  79 112 146 185 230 283 337
#     4  10  21  36  54  73 100 138 182 236 287 332
#     4  10  20  34  54  84 119 154 189 232 278 328
#     4  10  20  34  56  76 106 138 194 230 286 324
#     4  12  24  39  60  86 115 146 185 230 280 334
#
# _framework density 17.791900999999999
#
# number of rings (size 3 to 8) (size 9 to 14) (size 15 to 20)
#    0.000    1.333    2.500    4.250    0.000    5.000 
#    0.000    0.000    0.000    0.000    0.000    0.583 
#    0.000    0.000    0.000    0.000    0.000    0.000 
#
# Total GULP energy -268001.772454 kJ/mol
# GULP energy per Si atom -5583.370259 kJ/mol
# Density = 1.775141 g / cm^3
# Si number density = 17.791901 Si / 1000 Ang^3
#
#
#
# Elastic Constant Matrix: (Units=GPa)
#
#
# Indices 1 2 3 4 5 6 
#
# 1 132.0891 50.8210 38.9697 0.0000 0.0000 0.0000
# 2 50.8210 125.9811 40.1637 0.0000 0.0000 0.0000
# 3 38.9697 40.1637 92.6467 0.0000 0.0000 0.0000
# 4 0.0000 0.0000 0.0000 16.7274 0.0000 0.0000
# 5 0.0000 0.0000 0.0000 0.0000 3.2352 0.0000
# 6 0.0000 0.0000 0.0000 0.0000 0.0000 22.4438
#
#
#
# Elastic Compliance Matrix: (Units=1/GPa)
#
#
# Indices 1 2 3 4 5 6 
#
# 1 0.009515 -0.002973 -0.002713 0.000000 0.000000 0.000000
# 2 -0.002973 0.010140 -0.003145 0.000000 0.000000 0.000000
# 3 -0.002713 -0.003145 0.013298 0.000000 0.000000 0.000000
# 4 0.000000 0.000000 0.000000 0.059782 0.000000 0.000000
# 5 0.000000 0.000000 0.000000 0.000000 0.309097 0.000000
# 6 0.000000 0.000000 0.000000 0.000000 0.000000 0.044556
#
#
# Mechanical properties :
#
#
# Convention : Reuss Voigt Hill
#
# Bulk Modulus (GPa) = 65.40293 67.84728 66.62510
# Shear Modulus (GPa) = 10.65760 23.19879 16.92819
#
# Velocity S-wave (km/s) = 2.45013 3.61487 3.08791
# Velocity P-wave (km/s) = 6.69656 7.45920 7.08814
#
# Compressibility (1/GPa) = 0.01528984
#
# Stress axis : x y z
#
# Youngs Moduli (GPa) = 105.09552 98.62080 75.19685
#
# Poissons Ratio (x) = 0.29324 0.20403
# Poissons Ratio (y) = 0.31249 0.23650
# Poissons Ratio (z) = 0.28516 0.31017
#
# Static dielectric constant tensor:
#      x y z
#    x 1.622560 0.000000 0.000000 
#    y 0.000000 1.607280 0.000000 
#    z 0.000000 0.000000 1.619250 
# 
# From -- ./inp_files/21280.got.cif
#   From: 2010.05.17/outbox.cif.g08.bks.cpg/sg51_11_cif.got.tgz:21280.got - 2010.06.03 11:52:47.
