data_PCOD9404529
_publ_section_title
;
Structure prediction by ZEFSAII (Michael W. Deem and Ramdas Pophale) SiO2 
 PCOD9404529
Probable space group: P M M A
;
_chemical_formula_sum "Si O2"
_cell_formula_units_Z 48
_cell_length_a 16.487427
_cell_length_b 9.558186
_cell_length_c 15.412412
_cell_angle_alpha 90.000000
_cell_angle_beta 90.000000
_cell_angle_gamma 90.000000
_cell_volume 2428.840372
_symmetry_space_group_name_H-M "P M M A"
_symmetry_group_IT_number 51
_symmetry_cell_setting 'orthorhombic'
loop_
_space_group_symop_operation_xyz
x,y,z
1/2-x,-y,z
1/2+x,-y,-z
-x,y,-z
-x,-y,-z
1/2+x,y,-z
1/2-x,y,z
x,-y,z
loop_
_atom_site_type_symbol
_atom_site_label
_atom_site_fract_x
_atom_site_fract_y
_atom_site_fract_z
Si Si1 0.845392 0.836009 0.211605
Si Si2 0.987141 0.337193 0.282362
Si Si3 0.250000 0.158673 0.454620
Si Si4 0.250000 0.840842 0.246250
Si Si5 0.426628 0.165132 0.432222
Si Si6 0.621522 0.661135 0.852641
Si Si7 0.097262 0.157590 0.986724
O O1 0.750000 0.804947 0.218660
O O2 0.874076 0.819162 0.111542
O O3 0.901972 0.740847 0.271360
O O4 0.857984 0.000000 0.233548
O O5 0.979079 0.500000 0.306405
O O6 0.043685 0.256469 0.351100
O O7 0.031801 0.331867 0.188590
O O8 0.250000 0.157942 0.349774
O O9 0.340492 0.216097 0.472935
O O10 0.250000 0.000000 0.490134
O O11 0.325616 0.757267 0.209539
O O12 0.250000 0.000000 0.215642
O O13 0.500000 0.170891 0.500000
O O14 0.415177 0.000000 0.407452
O O15 0.647154 0.500000 0.850235
O O16 0.628792 0.725825 0.947684
O O17 0.124956 0.000000 0.011390
O O18 0.000000 0.158730 0.000000
#
# Coordination Sequence:
#
# PCOD9404529 Si02
#       7
#     8   8   4   4   8   8   8
#     4  10  22  40  60  84 116 157 210 258 297 351
#     4  11  23  39  61  86 120 158 196 244 303 369
#     4   9  18  35  61  93 120 151 194 243 303 358
#     4  11  21  35  59  83 114 153 194 247 297 356
#     4  10  21  40  66  93 123 157 200 252 301 358
#     4  11  23  36  53  84 120 155 197 246 303 362
#     4  10  20  35  57  82 111 153 202 253 301 349
#
# _framework density 19.762518
#
# number of rings (size 3 to 8) (size 9 to 14) (size 15 to 20)
#    0.000    1.667    3.333    1.250    1.167    3.000 
#    1.500    0.417    0.000    0.000    0.000    0.000 
#    0.000    0.000    0.000    0.000    0.000    0.000 
#
# Total GULP energy -267816.992690 kJ/mol
# GULP energy per Si atom -5579.520681 kJ/mol
# Density = 1.971754 g / cm^3
# Si number density = 19.762518 Si / 1000 Ang^3
#
#
#
# Elastic Constant Matrix: (Units=GPa)
#
#
# Indices 1 2 3 4 5 6 
#
# 1 145.0522 50.3553 18.3699 0.0000 0.0000 0.0000
# 2 50.3553 108.1458 28.8723 0.0000 0.0000 0.0000
# 3 18.3699 28.8723 24.2098 0.0000 0.0000 0.0000
# 4 0.0000 0.0000 0.0000 15.5195 0.0000 0.0000
# 5 0.0000 0.0000 0.0000 0.0000 25.6957 0.0000
# 6 0.0000 0.0000 0.0000 0.0000 0.0000 10.6179
#
#
#
# Elastic Compliance Matrix: (Units=1/GPa)
#
#
# Indices 1 2 3 4 5 6 
#
# 1 0.008324 -0.003212 -0.002485 0.000000 0.000000 0.000000
# 2 -0.003212 0.014806 -0.015220 0.000000 0.000000 0.000000
# 3 -0.002485 -0.015220 0.061342 0.000000 0.000000 0.000000
# 4 0.000000 0.000000 0.000000 0.064435 0.000000 0.000000
# 5 0.000000 0.000000 0.000000 0.000000 0.038917 0.000000
# 6 0.000000 0.000000 0.000000 0.000000 0.000000 0.094181
#
#
# Mechanical properties :
#
#
# Convention : Reuss Voigt Hill
#
# Bulk Modulus (GPa) = 23.45349 52.51142 37.98246
# Shear Modulus (GPa) = 14.79063 22.35396 18.57229
#
# Velocity S-wave (km/s) = 2.73869 3.36687 3.06890
# Velocity P-wave (km/s) = 4.67910 6.46091 5.64081
#
# Compressibility (1/GPa) = 0.04263757
#
# Stress axis : x y z
#
# Youngs Moduli (GPa) = 120.13492 67.54088 16.30203
#
# Poissons Ratio (x) = 0.21697 0.04051
# Poissons Ratio (y) = 0.38592 0.24811
# Poissons Ratio (z) = 0.29854 1.02795
#
# Static dielectric constant tensor:
#      x y z
#    x 1.768250 0.000000 0.000000 
#    y 0.000000 1.669650 0.000000 
#    z 0.000000 0.000000 1.682030 
# 
# From -- ./inp_files/29634.got.cif
#   From: 2010.05.17/outbox.cif.g08.bks.cpg/sg51_15_cif.got.tgz:29634.got - 2010.06.03 11:52:47.
