data_PCOD9404315
_publ_section_title
;
Structure prediction by ZEFSAII (Michael W. Deem and Ramdas Pophale) SiO2 
 PCOD9404315
Probable space group: P M M A
;
_chemical_formula_sum "Si O2"
_cell_formula_units_Z 48
_cell_length_a 16.535933
_cell_length_b 8.470062
_cell_length_c 18.601574
_cell_angle_alpha 90.000000
_cell_angle_beta 90.000000
_cell_angle_gamma 90.000000
_cell_volume 2605.343481
_symmetry_space_group_name_H-M "P M M A"
_symmetry_group_IT_number 51
_symmetry_cell_setting 'orthorhombic'
loop_
_space_group_symop_operation_xyz
x,y,z
1/2-x,-y,z
1/2+x,-y,-z
-x,y,-z
-x,-y,-z
1/2+x,y,-z
1/2-x,y,z
x,-y,z
loop_
_atom_site_type_symbol
_atom_site_label
_atom_site_fract_x
_atom_site_fract_y
_atom_site_fract_z
Si Si1 0.428158 0.688443 0.192832
Si Si2 0.085707 0.190000 0.032551
Si Si3 0.585514 0.688919 0.282833
Si Si4 0.750000 0.810966 0.214132
Si Si5 0.750000 0.807022 0.047478
Si Si6 0.839678 0.809584 0.671996
Si Si7 0.505240 0.809169 0.582149
O O1 0.429945 0.500000 0.185664
O O2 0.412769 0.763728 0.115820
O O3 0.513397 0.741432 0.228650
O O4 0.361251 0.738618 0.250716
O O5 0.085378 0.000000 0.026503
O O6 0.167033 0.245715 0.991656
O O7 0.000000 0.248201 0.000000
O O8 0.585981 0.500000 0.283306
O O9 0.670084 0.751639 0.254088
O O10 0.562069 0.748280 0.362315
O O11 0.750000 0.757517 0.130798
O O12 0.750000 0.000000 0.214017
O O13 0.750000 0.000000 0.045792
O O14 0.750000 0.763910 0.648914
O O15 0.909288 0.759663 0.616896
O O16 0.843108 0.000000 0.677646
O O17 0.500000 0.754729 0.500000
O O18 0.501508 0.000000 0.582147
#
# Coordination Sequence:
#
# PCOD9404315 Si02
#       7
#     8   8   8   4   4   8   8
#     4  10  21  35  53  77 108 144 182 225 270 326
#     4  10  20  35  54  76 105 141 181 228 279 331
#     4  10  21  37  56  80 112 149 184 222 274 331
#     4  11  21  37  61  83 106 139 188 237 271 320
#     4   9  20  35  53  79 106 137 182 231 283 332
#     4   9  18  33  54  78 105 142 181 221 269 319
#     4   9  18  35  57  83 113 143 182 227 271 320
#
# _framework density 18.423674999999999
#
# number of rings (size 3 to 8) (size 9 to 14) (size 15 to 20)
#    0.000    2.333    0.000    2.250    1.167    4.333 
#    1.500    1.667    0.000    0.000    0.000    0.000 
#    0.000    0.000    0.000    0.000    0.000    0.000 
#
# Total GULP energy -267878.027024 kJ/mol
# GULP energy per Si atom -5580.792230 kJ/mol
# Density = 1.838174 g / cm^3
# Si number density = 18.423675 Si / 1000 Ang^3
#
#
#
# Elastic Constant Matrix: (Units=GPa)
#
#
# Indices 1 2 3 4 5 6 
#
# 1 144.4206 22.1936 92.7432 0.0000 0.0000 0.0000
# 2 22.1936 7.2228 18.8548 0.0000 0.0000 0.0000
# 3 92.7432 18.8548 175.2177 0.0000 0.0000 0.0000
# 4 0.0000 0.0000 0.0000 -5.5433 0.0000 0.0000
# 5 0.0000 0.0000 0.0000 0.0000 13.6768 0.0000
# 6 0.0000 0.0000 0.0000 0.0000 0.0000 16.8990
#
#
#
# Elastic Compliance Matrix: (Units=1/GPa)
#
#
# Indices 1 2 3 4 5 6 
#
# 1 0.015013 -0.035303 -0.004147 0.000000 0.000000 0.000000
# 2 -0.035303 0.275550 -0.010965 0.000000 0.000000 0.000000
# 3 -0.004147 -0.010965 0.009082 0.000000 0.000000 0.000000
# 4 0.000000 0.000000 0.000000 -0.180398 0.000000 0.000000
# 5 0.000000 0.000000 0.000000 0.000000 0.073117 0.000000
# 6 0.000000 0.000000 0.000000 0.000000 0.000000 0.059175
#
#
# Mechanical properties :
#
#
# Convention : Reuss Voigt Hill
#
# Bulk Modulus (GPa) = 5.02984 66.04939 35.53961
# Shear Modulus (GPa) = 11.94338 17.87780 14.91059
#
# Velocity S-wave (km/s) = 2.54886 3.11846 2.84794
# Velocity P-wave (km/s) = 3.37613 6.99246 5.49057
#
# Compressibility (1/GPa) = 0.19881366
#
# Stress axis : x y z
#
# Youngs Moduli (GPa) = 66.61033 3.62910 110.10342
#
# Poissons Ratio (x) = 0.12812 0.45664
# Poissons Ratio (y) = 2.35155 1.20733
# Poissons Ratio (z) = 0.27626 0.03979
#
# Static dielectric constant tensor:
#      x y z
#    x 1.640650 0.000000 0.000000 
#    y 0.000000 1.621680 0.000000 
#    z 0.000000 0.000000 1.601490 
# 
# From -- ./inp_files/29582.got.cif
#   From: 2010.05.17/outbox.cif.g08.bks.cpg/sg51_15_cif.got.tgz:29582.got - 2010.06.03 11:52:47.
