data_PCOD9404421
_publ_section_title
;
Structure prediction by ZEFSAII (Michael W. Deem and Ramdas Pophale) SiO2 
 PCOD9404421
Probable space group: P M M A
;
_chemical_formula_sum "Si O2"
_cell_formula_units_Z 40
_cell_length_a 9.786928
_cell_length_b 14.890229
_cell_length_c 14.469542
_cell_angle_alpha 90.000000
_cell_angle_beta 90.000000
_cell_angle_gamma 90.000000
_cell_volume 2108.640555
_symmetry_space_group_name_H-M "P M M A"
_symmetry_group_IT_number 51
_symmetry_cell_setting 'orthorhombic'
loop_
_space_group_symop_operation_xyz
x,y,z
1/2-x,-y,z
1/2+x,-y,-z
-x,y,-z
-x,-y,-z
1/2+x,y,-z
1/2-x,y,z
x,-y,z
loop_
_atom_site_type_symbol
_atom_site_label
_atom_site_fract_x
_atom_site_fract_y
_atom_site_fract_z
Si Si1 0.414813 0.764634 0.594179
Si Si2 0.415444 0.601483 0.726020
Si Si3 0.462670 0.901322 0.892118
Si Si4 0.096375 0.699485 0.911256
Si Si5 0.900341 0.104057 0.706185
O O1 0.500000 0.771594 0.500000
O O2 0.250000 0.772956 0.583154
O O3 0.447472 0.669845 0.643738
O O4 0.476985 0.840575 0.661518
O O5 0.250000 0.599133 0.730394
O O6 0.465409 0.500000 0.713402
O O7 0.459207 0.644333 0.823705
O O8 0.393498 0.804491 0.882519
O O9 0.583980 0.894992 0.817368
O O10 0.398927 0.000000 0.871792
O O11 0.500000 0.904574 0.000000
O O12 0.250000 0.668199 0.933284
O O13 0.000000 0.692110 0.000000
O O14 0.750000 0.139388 0.680066
O O15 0.908637 0.000000 0.677105
#
# Coordination Sequence:
#
# PCOD9404421 Si02
#       5
#     8   8   8   8   8
#     4  11  23  41  63  88 115 149 192 241 299 354
#     4   9  19  38  61  84 115 152 190 237 296 354
#     4   9  18  32  52  83 120 157 192 229 275 331
#     4  10  20  35  55  84 117 157 197 234 282 338
#     4  10  21  38  61  89 121 158 197 238 285 339
#
# _framework density 18.969567999999999
#
# number of rings (size 3 to 8) (size 9 to 14) (size 15 to 20)
#    0.000    2.200    2.000    0.600    0.000    5.200 
#    0.000    6.000    0.000    4.200    0.000    0.000 
#    0.000    0.000    0.000    0.000    0.000    0.000 
#
# Total GULP energy -222692.423359 kJ/mol
# GULP energy per Si atom -5567.310584 kJ/mol
# Density = 1.892639 g / cm^3
# Si number density = 18.969568 Si / 1000 Ang^3
#
#
#
# Elastic Constant Matrix: (Units=GPa)
#
#
# Indices 1 2 3 4 5 6 
#
# 1 92.2977 29.5673 46.3796 0.0000 0.0000 0.0000
# 2 29.5673 94.7939 34.5101 0.0000 0.0000 0.0000
# 3 46.3796 34.5101 104.9465 0.0000 0.0000 0.0000
# 4 0.0000 0.0000 0.0000 -27.7499 0.0000 0.0000
# 5 0.0000 0.0000 0.0000 0.0000 15.5502 0.0000
# 6 0.0000 0.0000 0.0000 0.0000 0.0000 18.2317
#
#
#
# Elastic Compliance Matrix: (Units=1/GPa)
#
#
# Indices 1 2 3 4 5 6 
#
# 1 0.014421 -0.002474 -0.005559 0.000000 0.000000 0.000000
# 2 -0.002474 0.012408 -0.002987 0.000000 0.000000 0.000000
# 3 -0.005559 -0.002987 0.012968 0.000000 0.000000 0.000000
# 4 0.000000 0.000000 0.000000 -0.036036 0.000000 0.000000
# 5 0.000000 0.000000 0.000000 0.000000 0.064308 0.000000
# 6 0.000000 0.000000 0.000000 0.000000 0.000000 0.054849
#
#
# Mechanical properties :
#
#
# Convention : Reuss Voigt Hill
#
# Bulk Modulus (GPa) = 56.31919 56.99466 56.65692
# Shear Modulus (GPa) = 33.13952 13.31182 23.22567
#
# Velocity S-wave (km/s) = 4.18423 2.65192 3.50289
# Velocity P-wave (km/s) = 7.28679 6.28391 6.80385
#
# Compressibility (1/GPa) = 0.01775594
#
# Stress axis : x y z
#
# Youngs Moduli (GPa) = 69.34481 80.59130 77.11413
#
# Poissons Ratio (x) = 0.19939 0.42871
# Poissons Ratio (y) = 0.17156 0.23033
# Poissons Ratio (z) = 0.38552 0.24072
#
# Static dielectric constant tensor:
#      x y z
#    x 1.539560 0.000000 0.000000 
#    y 0.000000 1.679260 0.000000 
#    z 0.000000 0.000000 1.661220 
# 
# From -- ./inp_files/20514.got.cif
#   From: 2010.05.17/outbox.cif.g08.bks.cpg/sg51_11_cif.got.tgz:20514.got - 2010.06.03 11:52:47.
