data_PCOD9404865
_publ_section_title
;
Structure prediction by ZEFSAII (Michael W. Deem and Ramdas Pophale) SiO2 
 PCOD9404865
Probable space group: P M M A
;
_chemical_formula_sum "Si O2"
_cell_formula_units_Z 64
_cell_length_a 25.683019
_cell_length_b 8.029858
_cell_length_c 14.986274
_cell_angle_alpha 90.000000
_cell_angle_beta 90.000000
_cell_angle_gamma 90.000000
_cell_volume 3090.634207
_symmetry_space_group_name_H-M "P M M A"
_symmetry_group_IT_number 51
_symmetry_cell_setting 'orthorhombic'
loop_
_space_group_symop_operation_xyz
x,y,z
1/2-x,-y,z
1/2+x,-y,-z
-x,y,-z
-x,-y,-z
1/2+x,y,-z
1/2-x,y,z
x,-y,z
loop_
_atom_site_type_symbol
_atom_site_label
_atom_site_fract_x
_atom_site_fract_y
_atom_site_fract_z
Si Si1 0.193047 0.798116 0.180344
Si Si2 0.167489 0.807612 0.985711
Si Si3 0.586534 0.698360 0.727216
Si Si4 0.520214 0.812173 0.205222
Si Si5 0.055565 0.689782 0.969540
Si Si6 0.441616 0.297418 0.471512
Si Si7 0.401982 0.302302 0.655573
Si Si8 0.190751 0.201425 0.786095
O O1 0.250000 0.751527 0.216749
O O2 0.143533 0.737451 0.235650
O O3 0.190084 0.000000 0.177581
O O4 0.189690 0.736066 0.077521
O O5 0.105429 0.793252 0.996009
O O6 0.180806 0.735998 0.887937
O O7 0.184295 0.000000 0.982236
O O8 0.578690 0.500000 0.729351
O O9 0.540687 0.775769 0.787247
O O10 0.576643 0.759707 0.625963
O O11 0.549737 0.692631 0.136899
O O12 0.548256 0.783808 0.299009
O O13 0.529702 0.000000 0.174921
O O14 0.061042 0.500000 0.002741
O O15 0.000000 0.758195 0.000000
O O16 0.500000 0.244376 0.500000
O O17 0.443070 0.500000 0.466749
O O18 0.402511 0.251515 0.551836
O O19 0.410785 0.500000 0.658483
O O20 0.351509 0.261901 0.714743
O O21 0.250000 0.244448 0.761405
O O22 0.186008 0.000000 0.788857
#
# Coordination Sequence:
#
# PCOD9404865 Si02
#       8
#     8   8   8   8   8   8   8   8
#     4  10  22  41  62  86 120 161 201 242 291 348
#     4  10  20  36  59  84 113 154 201 241 285 345
#     4  11  22  39  63  89 117 152 197 248 298 349
#     4  12  23  36  56  85 121 156 190 233 293 358
#     4  11  23  36  52  80 118 157 196 241 291 343
#     4   9  18  36  61  87 116 152 191 236 297 358
#     4  11  21  37  61  87 117 151 193 243 291 345
#     4  10  21  38  59  85 118 156 197 240 289 347
#
# _framework density 20.707725
#
# number of rings (size 3 to 8) (size 9 to 14) (size 15 to 20)
#    0.000    1.500    2.500    3.375    0.000    5.500 
#    0.000    3.750    0.000    6.000    0.000    0.000 
#    0.000    0.000    0.000    0.000    0.000    0.000 
#
# Total GULP energy -357463.046755 kJ/mol
# GULP energy per Si atom -5585.360106 kJ/mol
# Density = 2.066059 g / cm^3
# Si number density = 20.707725 Si / 1000 Ang^3
#
#
#
# Elastic Constant Matrix: (Units=GPa)
#
#
# Indices 1 2 3 4 5 6 
#
# 1 132.5658 7.9097 39.6708 0.0000 0.0000 0.0000
# 2 7.9097 37.7326 0.7745 0.0000 0.0000 0.0000
# 3 39.6708 0.7745 91.5147 0.0000 0.0000 0.0000
# 4 0.0000 0.0000 0.0000 96.5101 0.0000 0.0000
# 5 0.0000 0.0000 0.0000 0.0000 15.4397 0.0000
# 6 0.0000 0.0000 0.0000 0.0000 0.0000 84.6176
#
#
#
# Elastic Compliance Matrix: (Units=1/GPa)
#
#
# Indices 1 2 3 4 5 6 
#
# 1 0.008784 -0.001763 -0.003793 0.000000 0.000000 0.000000
# 2 -0.001763 0.026861 0.000537 0.000000 0.000000 0.000000
# 3 -0.003793 0.000537 0.012567 0.000000 0.000000 0.000000
# 4 0.000000 0.000000 0.000000 0.010362 0.000000 0.000000
# 5 0.000000 0.000000 0.000000 0.000000 0.064768 0.000000
# 6 0.000000 0.000000 0.000000 0.000000 0.000000 0.011818
#
#
# Mechanical properties :
#
#
# Convention : Reuss Voigt Hill
#
# Bulk Modulus (GPa) = 26.19634 39.83589 33.01612
# Shear Modulus (GPa) = 31.66133 53.54402 42.60268
#
# Velocity S-wave (km/s) = 3.91444 5.09050 4.54070
# Velocity P-wave (km/s) = 5.75399 7.33688 6.59311
#
# Compressibility (1/GPa) = 0.03817327
#
# Stress axis : x y z
#
# Youngs Moduli (GPa) = 113.84825 37.22880 79.57498
#
# Poissons Ratio (x) = 0.06565 0.30180
# Poissons Ratio (y) = 0.20076 -0.04274
# Poissons Ratio (z) = 0.43179 -0.02000
#
# Static dielectric constant tensor:
#      x y z
#    x 1.716380 0.000000 0.000000 
#    y 0.000000 1.748150 0.000000 
#    z 0.000000 0.000000 1.796810 
# 
# From -- ./inp_files/26231.got.cif
#   From: 2010.05.17/outbox.cif.g08.bks.cpg/sg51_14_cif.got.tgz:26231.got - 2010.06.03 11:52:47.
