data_PCOD9404305
_publ_section_title
;
Structure prediction by ZEFSAII (Michael W. Deem and Ramdas Pophale) SiO2 
 PCOD9404305
Probable space group: P M M A
;
_chemical_formula_sum "Si O2"
_cell_formula_units_Z 44
_cell_length_a 8.293449
_cell_length_b 29.528187
_cell_length_c 10.213905
_cell_angle_alpha 90.000000
_cell_angle_beta 90.000000
_cell_angle_gamma 90.000000
_cell_volume 2501.288435
_symmetry_space_group_name_H-M "P M M A"
_symmetry_group_IT_number 51
_symmetry_cell_setting 'orthorhombic'
loop_
_space_group_symop_operation_xyz
x,y,z
1/2-x,-y,z
1/2+x,-y,-z
-x,y,-z
-x,-y,-z
1/2+x,y,-z
1/2-x,y,z
x,-y,z
loop_
_atom_site_type_symbol
_atom_site_label
_atom_site_fract_x
_atom_site_fract_y
_atom_site_fract_z
Si Si1 0.054975 0.727414 0.353211
Si Si2 0.555333 0.902655 0.848784
Si Si3 0.057508 0.375562 0.354145
Si Si4 0.445194 0.000000 0.152033
Si Si5 0.942614 0.448754 0.146338
Si Si6 0.945254 0.803287 0.849600
O O1 0.250000 0.727554 0.351270
O O2 0.999647 0.675855 0.325509
O O3 0.997673 0.763391 0.245598
O O4 0.000000 0.739159 0.500000
O O5 0.750000 0.902779 0.844425
O O6 0.499871 0.951264 0.791425
O O7 0.501451 0.853307 0.799311
O O8 0.500000 0.902966 0.000000
O O9 0.250000 0.374729 0.353469
O O10 0.000000 0.387393 0.500000
O O11 0.000090 0.411953 0.249631
O O12 0.250000 0.000000 0.154690
O O13 0.500000 0.000000 0.000000
O O14 0.750000 0.449523 0.147110
O O15 0.001427 0.500000 0.176689
O O16 0.000000 0.437535 0.000000
O O17 0.750000 0.802794 0.849875
O O18 0.000000 0.797581 0.000000
#
# Coordination Sequence:
#
# PCOD9404305 Si02
#       6
#     8   8   8   4   8   8
#     4   9  19  34  50  69  93 122 157 194 232 275
#     4   8  13  21  34  53  80 110 140 177 219 265
#     4  10  20  35  54  75  99 127 161 201 241 282
#     4   8  12  18  30  50  75 106 140 172 214 264
#     4  10  21  37  56  78 104 133 163 195 233 278
#     4   9  17  29  44  65  92 119 149 187 230 275
#
# _framework density 17.590935000000002
#
# number of rings (size 3 to 8) (size 9 to 14) (size 15 to 20)
#    0.000    2.909    0.000    1.091    0.000    3.636 
#    0.000    1.818    0.000    0.000    0.000    0.636 
#    0.000    0.000    0.000    0.000    0.000    0.000 
#
# Total GULP energy -244939.872571 kJ/mol
# GULP energy per Si atom -5566.815286 kJ/mol
# Density = 1.755090 g / cm^3
# Si number density = 17.590935 Si / 1000 Ang^3
#
#
#
# Elastic Constant Matrix: (Units=GPa)
#
#
# Indices 1 2 3 4 5 6 
#
# 1 15.2791 22.4796 13.5383 0.0000 0.0000 0.0000
# 2 22.4796 182.3468 114.1929 0.0000 0.0000 0.0000
# 3 13.5383 114.1929 89.7977 0.0000 0.0000 0.0000
# 4 0.0000 0.0000 0.0000 -10.9449 0.0000 0.0000
# 5 0.0000 0.0000 0.0000 0.0000 23.8233 0.0000
# 6 0.0000 0.0000 0.0000 0.0000 0.0000 313.5406
#
#
#
# Elastic Compliance Matrix: (Units=1/GPa)
#
#
# Indices 1 2 3 4 5 6 
#
# 1 0.080051 -0.011347 0.002361 0.000000 0.000000 0.000000
# 2 -0.011347 0.028540 -0.034583 0.000000 0.000000 0.000000
# 3 0.002361 -0.034583 0.054758 0.000000 0.000000 0.000000
# 4 0.000000 0.000000 0.000000 -0.091367 0.000000 0.000000
# 5 0.000000 0.000000 0.000000 0.000000 0.041976 0.000000
# 6 0.000000 0.000000 0.000000 0.000000 0.000000 0.003189
#
#
# Mechanical properties :
#
#
# Convention : Reuss Voigt Hill
#
# Bulk Modulus (GPa) = 13.12135 65.31614 39.21874
# Shear Modulus (GPa) = 21.76858 74.43132 48.09995
#
# Velocity S-wave (km/s) = 3.52161 6.51185 5.23478
# Velocity P-wave (km/s) = 4.90010 9.68246 7.67337
#
# Compressibility (1/GPa) = 0.07621169
#
# Stress axis : x y z
#
# Youngs Moduli (GPa) = 12.49196 35.03854 18.26223
#
# Poissons Ratio (x) = 0.39760 -0.04312
# Poissons Ratio (y) = 0.14175 0.63156
# Poissons Ratio (z) = -0.02950 1.21173
#
# Static dielectric constant tensor:
#      x y z
#    x 1.605540 0.000000 0.000000 
#    y 0.000000 1.675010 0.000000 
#    z 0.000000 0.000000 1.540630 
# 
# From -- ./inp_files/5762.got.cif
#   From: 2010.05.17/outbox.cif.g08.bks.cpg/sg51_3_cif.got.tgz:5762.got - 2010.06.03 11:52:47.
