data_PCOD9404867
_publ_section_title
;
Structure prediction by ZEFSAII (Michael W. Deem and Ramdas Pophale) SiO2 
 PCOD9404867
Probable space group: P M M A
;
_chemical_formula_sum "Si O2"
_cell_formula_units_Z 40
_cell_length_a 20.875732
_cell_length_b 7.730688
_cell_length_c 11.888181
_cell_angle_alpha 90.000000
_cell_angle_beta 90.000000
_cell_angle_gamma 90.000000
_cell_volume 1918.559478
_symmetry_space_group_name_H-M "P M M A"
_symmetry_group_IT_number 51
_symmetry_cell_setting 'orthorhombic'
loop_
_space_group_symop_operation_xyz
x,y,z
1/2-x,-y,z
1/2+x,-y,-z
-x,y,-z
-x,-y,-z
1/2+x,y,-z
1/2-x,y,z
x,-y,z
loop_
_atom_site_type_symbol
_atom_site_label
_atom_site_fract_x
_atom_site_fract_y
_atom_site_fract_z
Si Si1 0.497824 0.289967 0.629676
Si Si2 0.629859 0.798311 0.240600
Si Si3 0.750000 0.206334 0.644375
Si Si4 0.619850 0.294968 0.773083
Si Si5 0.750000 0.787088 0.385175
Si Si6 0.927514 0.203560 0.013512
O O1 0.500000 0.238115 0.500000
O O2 0.494681 0.500000 0.634194
O O3 0.435220 0.217232 0.689114
O O4 0.561309 0.232189 0.695242
O O5 0.687744 0.727207 0.315659
O O6 0.612262 0.721363 0.118495
O O7 0.646639 0.000000 0.223115
O O8 0.686708 0.259908 0.712141
O O9 0.750000 0.271946 0.515196
O O10 0.750000 0.000000 0.638709
O O11 0.612742 0.500000 0.785391
O O12 0.610327 0.219445 0.897159
O O13 0.750000 0.000000 0.389606
O O14 0.936223 0.000000 0.039627
O O15 0.000000 0.276382 0.000000
#
# Coordination Sequence:
#
# PCOD9404867 Si02
#       6
#     8   8   4   8   4   8
#     4  10  21  36  55  82 114 150 194 241 293 349
#     4  10  20  36  59  84 115 151 194 242 288 345
#     4  11  23  40  61  84 116 151 192 241 292 351
#     4  11  23  38  59  85 117 155 195 240 293 351
#     4   9  20  38  59  86 114 149 192 239 294 345
#     4  10  20  36  59  89 120 152 196 244 292 345
#
# _framework density 20.848977999999999
#
# number of rings (size 3 to 8) (size 9 to 14) (size 15 to 20)
#    0.000    1.800    2.000    2.100    0.000    3.200 
#    0.000    3.500    0.000    0.000    0.000    0.000 
#    0.000    0.000    0.000    0.000    0.000    0.000 
#
# Total GULP energy -223450.380661 kJ/mol
# GULP energy per Si atom -5586.259517 kJ/mol
# Density = 2.080152 g / cm^3
# Si number density = 20.848978 Si / 1000 Ang^3
#
#
#
# Elastic Constant Matrix: (Units=GPa)
#
#
# Indices 1 2 3 4 5 6 
#
# 1 158.7079 -19.0208 75.7699 0.0000 0.0000 0.0000
# 2 -19.0208 25.3332 -14.4823 0.0000 0.0000 0.0000
# 3 75.7699 -14.4823 188.3079 0.0000 0.0000 0.0000
# 4 0.0000 0.0000 0.0000 -3.2626 0.0000 0.0000
# 5 0.0000 0.0000 0.0000 0.0000 32.7546 0.0000
# 6 0.0000 0.0000 0.0000 0.0000 0.0000 23.1179
#
#
#
# Elastic Compliance Matrix: (Units=1/GPa)
#
#
# Indices 1 2 3 4 5 6 
#
# 1 0.008262 0.004501 -0.002978 0.000000 0.000000 0.000000
# 2 0.004501 0.043741 0.001553 0.000000 0.000000 0.000000
# 3 -0.002978 0.001553 0.006628 0.000000 0.000000 0.000000
# 4 0.000000 0.000000 0.000000 -0.306504 0.000000 0.000000
# 5 0.000000 0.000000 0.000000 0.000000 0.030530 0.000000
# 6 0.000000 0.000000 0.000000 0.000000 0.000000 0.043257
#
#
# Mechanical properties :
#
#
# Convention : Reuss Voigt Hill
#
# Bulk Modulus (GPa) = 15.43630 50.76476 33.10053
# Shear Modulus (GPa) = -31.51742 32.52746 0.50502
#
# Velocity S-wave (km/s) = -3.89228 3.95415 0.49270
# Velocity P-wave (km/s) = 3.57489 6.72672 4.02920
#
# Compressibility (1/GPa) = 0.06478237
#
# Stress axis : x y z
#
# Youngs Moduli (GPa) = 121.03311 22.86188 150.86856
#
# Poissons Ratio (x) = -0.10290 0.44934
# Poissons Ratio (y) = -0.54475 -0.23430
# Poissons Ratio (z) = 0.36048 -0.03550
#
# Static dielectric constant tensor:
#      x y z
#    x 1.697780 0.000000 0.000000 
#    y 0.000000 1.771210 0.000000 
#    z 0.000000 0.000000 1.734880 
# 
# From -- ./inp_files/17941.got.cif
#   From: 2010.05.17/outbox.cif.g08.bks.cpg/sg51_9_cif.got.tgz:17941.got - 2010.06.03 11:52:47.
