data_PCOD9404778
_publ_section_title
;
Structure prediction by ZEFSAII (Michael W. Deem and Ramdas Pophale) SiO2 
 PCOD9404778
Probable space group: P M M A
;
_chemical_formula_sum "Si O2"
_cell_formula_units_Z 48
_cell_length_a 17.238450
_cell_length_b 7.449485
_cell_length_c 16.783414
_cell_angle_alpha 90.000000
_cell_angle_beta 90.000000
_cell_angle_gamma 90.000000
_cell_volume 2155.285321
_symmetry_space_group_name_H-M "P M M A"
_symmetry_group_IT_number 51
_symmetry_cell_setting 'orthorhombic'
loop_
_space_group_symop_operation_xyz
x,y,z
1/2-x,-y,z
1/2+x,-y,-z
-x,y,-z
-x,-y,-z
1/2+x,y,-z
1/2-x,y,z
x,-y,z
loop_
_atom_site_type_symbol
_atom_site_label
_atom_site_fract_x
_atom_site_fract_y
_atom_site_fract_z
Si Si1 0.250000 0.705778 0.501868
Si Si2 0.535203 0.294804 0.727197
Si Si3 0.912094 0.219371 0.019367
Si Si4 0.836900 0.782641 0.855090
Si Si5 0.077284 0.719122 0.450097
Si Si6 0.878701 0.796879 0.193758
Si Si7 0.250000 0.781137 0.686388
O O1 0.250000 0.500000 0.472203
O O2 0.164511 0.780403 0.475989
O O3 0.250000 0.709569 0.597455
O O4 0.509505 0.500000 0.715517
O O5 0.604982 0.288268 0.789307
O O6 0.561405 0.226667 0.641176
O O7 0.463969 0.197865 0.769138
O O8 0.884153 0.285072 0.105657
O O9 0.912941 0.000000 0.023154
O O10 0.860549 0.272250 0.944252
O O11 0.000000 0.274932 0.000000
O O12 0.750000 0.727463 0.837134
O O13 0.841589 0.000000 0.853080
O O14 0.079093 0.500000 0.455228
O O15 0.000000 0.775060 0.500000
O O16 0.823132 0.720098 0.261178
O O17 0.849705 0.000000 0.181322
O O18 0.250000 0.000000 0.678117
#
# Coordination Sequence:
#
# PCOD9404778 Si02
#       7
#     4   8   8   8   8   8   4
#     4  10  20  38  62  79 104 146 186 229 276 332
#     4  11  22  36  58  84 111 144 187 234 282 331
#     4   9  16  31  55  79 104 142 190 229 261 315
#     4  10  21  36  56  82 112 148 190 232 276 328
#     4   9  19  35  56  81 105 138 187 231 269 326
#     4  10  20  36  57  83 115 148 185 228 277 328
#     4  10  22  36  56  87 118 142 174 231 288 330
#
# _framework density 22.270833
#
# number of rings (size 3 to 8) (size 9 to 14) (size 15 to 20)
#    0.000    2.167    1.667    1.500    2.333    2.333 
#    0.000    3.333    0.000    4.500    0.000    0.000 
#    0.000    0.000    0.000    0.000    0.000    0.000 
#
# Total GULP energy -268015.704581 kJ/mol
# GULP energy per Si atom -5583.660512 kJ/mol
# Density = 2.222014 g / cm^3
# Si number density = 22.270833 Si / 1000 Ang^3
#
#
#
# Elastic Constant Matrix: (Units=GPa)
#
#
# Indices 1 2 3 4 5 6 
#
# 1 154.7099 -0.4438 70.0280 0.0000 0.0000 0.0000
# 2 -0.4438 66.5222 -3.0911 0.0000 0.0000 0.0000
# 3 70.0280 -3.0911 183.8343 0.0000 0.0000 0.0000
# 4 0.0000 0.0000 0.0000 13.3370 0.0000 0.0000
# 5 0.0000 0.0000 0.0000 0.0000 12.4901 0.0000
# 6 0.0000 0.0000 0.0000 0.0000 0.0000 24.4242
#
#
#
# Elastic Compliance Matrix: (Units=1/GPa)
#
#
# Indices 1 2 3 4 5 6 
#
# 1 0.007811 -0.000086 -0.002977 0.000000 0.000000 0.000000
# 2 -0.000086 0.015045 0.000286 0.000000 0.000000 0.000000
# 3 -0.002977 0.000286 0.006578 0.000000 0.000000 0.000000
# 4 0.000000 0.000000 0.000000 0.074979 0.000000 0.000000
# 5 0.000000 0.000000 0.000000 0.000000 0.080063 0.000000
# 6 0.000000 0.000000 0.000000 0.000000 0.000000 0.040943
#
#
# Mechanical properties :
#
#
# Convention : Reuss Voigt Hill
#
# Bulk Modulus (GPa) = 41.87579 59.78363 50.82971
# Shear Modulus (GPa) = 20.92621 32.62182 26.77401
#
# Velocity S-wave (km/s) = 3.06865 3.83139 3.47104
# Velocity P-wave (km/s) = 5.60351 6.81725 6.23996
#
# Compressibility (1/GPa) = 0.02388015
#
# Stress axis : x y z
#
# Youngs Moduli (GPa) = 128.02596 66.46602 152.01117
#
# Poissons Ratio (x) = 0.00573 0.45252
# Poissons Ratio (y) = 0.01104 -0.04345
# Poissons Ratio (z) = 0.38112 -0.01900
#
# Static dielectric constant tensor:
#      x y z
#    x 1.855940 0.000000 0.000000 
#    y 0.000000 1.883480 0.000000 
#    z 0.000000 0.000000 1.772550 
# 
# From -- ./inp_files/24870.got.cif
#   From: 2010.05.17/outbox.cif.g08.bks.cpg/sg51_13_cif.got.tgz:24870.got - 2010.06.03 11:52:47.
