data_PCOD9404671
_publ_section_title
;
Structure prediction by ZEFSAII (Michael W. Deem and Ramdas Pophale) SiO2 
 PCOD9404671
Probable space group: P M M A
;
_chemical_formula_sum "Si O2"
_cell_formula_units_Z 56
_cell_length_a 15.302800
_cell_length_b 15.694396
_cell_length_c 11.440207
_cell_angle_alpha 90.000000
_cell_angle_beta 90.000000
_cell_angle_gamma 90.000000
_cell_volume 2747.573958
_symmetry_space_group_name_H-M "P M M A"
_symmetry_group_IT_number 51
_symmetry_cell_setting 'orthorhombic'
loop_
_space_group_symop_operation_xyz
x,y,z
1/2-x,-y,z
1/2+x,-y,-z
-x,y,-z
-x,-y,-z
1/2+x,y,-z
1/2-x,y,z
x,-y,z
loop_
_atom_site_type_symbol
_atom_site_label
_atom_site_fract_x
_atom_site_fract_y
_atom_site_fract_z
Si Si1 0.099293 0.095343 0.456925
Si Si2 0.853919 0.098454 0.810010
Si Si3 0.150535 0.643875 0.293574
Si Si4 0.038858 0.408558 0.663875
Si Si5 0.904025 0.738726 0.943006
Si Si6 0.655101 0.729967 0.458830
Si Si7 0.653471 0.593237 0.108978
O O1 0.104044 0.115590 0.317884
O O2 0.141669 0.169039 0.535224
O O3 0.000000 0.092899 0.500000
O O4 0.137376 0.000000 0.470051
O O5 0.750000 0.107465 0.792306
O O6 0.880431 0.163937 0.911875
O O7 0.873204 0.000000 0.840117
O O8 0.250000 0.609479 0.272718
O O9 0.116101 0.694158 0.180919
O O10 0.158525 0.703832 0.405868
O O11 0.065526 0.589439 0.327644
O O12 0.069372 0.500000 0.612794
O O13 0.078840 0.326696 0.598460
O O14 0.079591 0.403292 0.793162
O O15 0.851647 0.676637 0.029942
O O16 0.000000 0.736748 0.000000
O O17 0.750000 0.708969 0.405396
O O18 0.750000 0.591326 0.163426
O O19 0.642930 0.500000 0.046510
#
# Coordination Sequence:
#
# PCOD9404671 Si02
#       7
#     8   8   8   8   8   8   8
#     4  10  20  35  61  95 130 169 216 267 321 384
#     4  10  21  39  64  95 130 168 212 264 323 387
#     4  11  23  40  62  93 127 164 213 266 321 384
#     4  11  24  43  64  91 129 171 216 266 324 386
#     4  12  23  39  65  93 128 166 211 270 324 380
#     4  11  23  39  64  93 130 172 214 263 320 388
#     4  10  22  41  64  88 120 166 217 264 316 383
#
# _framework density 20.381616999999999
#
# number of rings (size 3 to 8) (size 9 to 14) (size 15 to 20)
#    0.000    1.286    2.857    3.429    0.000    4.286 
#    0.000    1.429    0.000    0.857    0.000    0.000 
#    0.000    0.000    0.000    0.000    0.000    0.000 
#
# Total GULP energy -312006.215497 kJ/mol
# GULP energy per Si atom -5571.539562 kJ/mol
# Density = 2.033523 g / cm^3
# Si number density = 20.381617 Si / 1000 Ang^3
#
#
#
# Elastic Constant Matrix: (Units=GPa)
#
#
# Indices 1 2 3 4 5 6 
#
# 1 141.5025 59.6323 32.5991 0.0000 0.0000 0.0000
# 2 59.6323 146.5864 50.7842 0.0000 0.0000 0.0000
# 3 32.5991 50.7842 67.9166 0.0000 0.0000 0.0000
# 4 0.0000 0.0000 0.0000 32.9616 0.0000 0.0000
# 5 0.0000 0.0000 0.0000 0.0000 27.6623 0.0000
# 6 0.0000 0.0000 0.0000 0.0000 0.0000 23.9526
#
#
#
# Elastic Compliance Matrix: (Units=1/GPa)
#
#
# Indices 1 2 3 4 5 6 
#
# 1 0.008740 -0.002837 -0.002074 0.000000 0.000000 0.000000
# 2 -0.002837 0.010128 -0.006211 0.000000 0.000000 0.000000
# 3 -0.002074 -0.006211 0.020364 0.000000 0.000000 0.000000
# 4 0.000000 0.000000 0.000000 0.030338 0.000000 0.000000
# 5 0.000000 0.000000 0.000000 0.000000 0.036150 0.000000
# 6 0.000000 0.000000 0.000000 0.000000 0.000000 0.041749
#
#
# Mechanical properties :
#
#
# Convention : Reuss Voigt Hill
#
# Bulk Modulus (GPa) = 58.86650 71.33741 65.10196
# Shear Modulus (GPa) = 28.51001 31.11465 29.81233
#
# Velocity S-wave (km/s) = 3.74412 3.91142 3.82868
# Velocity P-wave (km/s) = 6.90189 7.44820 7.18025
#
# Compressibility (1/GPa) = 0.01698759
#
# Stress axis : x y z
#
# Youngs Moduli (GPa) = 114.41084 98.73636 49.10679
#
# Poissons Ratio (x) = 0.28014 0.10184
# Poissons Ratio (y) = 0.32461 0.30502
# Poissons Ratio (z) = 0.23726 0.61328
#
# Static dielectric constant tensor:
#      x y z
#    x 1.758090 0.000000 0.000000 
#    y 0.000000 1.784190 0.000000 
#    z 0.000000 0.000000 1.711550 
# 
# From -- ./inp_files/16664.got.cif
#   From: 2010.05.17/outbox.cif.g08.bks.cpg/sg51_9_cif.got.tgz:16664.got - 2010.06.03 11:52:47.
