data_PCOD9404598
_publ_section_title
;
Structure prediction by ZEFSAII (Michael W. Deem and Ramdas Pophale) SiO2 
 PCOD9404598
Probable space group: P M M A
;
_chemical_formula_sum "Si O2"
_cell_formula_units_Z 48
_cell_length_a 19.522872
_cell_length_b 8.619073
_cell_length_c 15.503843
_cell_angle_alpha 90.000000
_cell_angle_beta 90.000000
_cell_angle_gamma 90.000000
_cell_volume 2608.817072
_symmetry_space_group_name_H-M "P M M A"
_symmetry_group_IT_number 51
_symmetry_cell_setting 'orthorhombic'
loop_
_space_group_symop_operation_xyz
x,y,z
1/2-x,-y,z
1/2+x,-y,-z
-x,y,-z
-x,-y,-z
1/2+x,y,-z
1/2-x,y,z
x,-y,z
loop_
_atom_site_type_symbol
_atom_site_label
_atom_site_fract_x
_atom_site_fract_y
_atom_site_fract_z
Si Si1 0.076424 0.685957 0.529617
Si Si2 0.924139 0.187043 0.780304
Si Si3 0.424019 0.687142 0.030041
Si Si4 0.829189 0.687703 0.128662
Si Si5 0.923582 0.813941 0.279728
Si Si6 0.329178 0.187746 0.378261
O O1 0.078346 0.500000 0.530781
O O2 0.089543 0.749358 0.625088
O O3 0.130732 0.748424 0.460810
O O4 0.000000 0.735528 0.500000
O O5 0.909112 0.250015 0.875121
O O6 0.869924 0.237260 0.707777
O O7 0.000415 0.236696 0.751139
O O8 0.923618 0.000000 0.783324
O O9 0.424097 0.500000 0.033503
O O10 0.500000 0.737595 0.000000
O O11 0.369564 0.736346 0.957724
O O12 0.750000 0.735263 0.126822
O O13 0.831846 0.500000 0.132639
O O14 0.868886 0.753812 0.210878
O O15 0.922623 0.000000 0.282276
O O16 0.250000 0.236301 0.376722
O O17 0.331270 0.000000 0.381349
#
# Coordination Sequence:
#
# PCOD9404598 Si02
#       6
#     8   8   8   8   8   8
#     4  11  23  38  61  90 118 152 195 241 290 345
#     4  10  21  36  58  88 117 150 192 238 285 339
#     4  10  20  35  58  85 113 150 193 236 285 343
#     4  10  22  40  59  83 118 155 193 241 293 343
#     4  11  22  37  61  88 116 152 195 240 288 345
#     4  10  22  41  62  86 120 157 191 235 292 347
#
# _framework density 18.399142999999999
#
# number of rings (size 3 to 8) (size 9 to 14) (size 15 to 20)
#    0.000    1.667    3.333    1.000    0.000    5.000 
#    0.000    0.000    0.000    0.000    0.000    0.000 
#    0.000    0.000    0.000    0.000    0.000    0.000 
#
# Total GULP energy -268201.390379 kJ/mol
# GULP energy per Si atom -5587.528966 kJ/mol
# Density = 1.835727 g / cm^3
# Si number density = 18.399143 Si / 1000 Ang^3
#
#
#
# Elastic Constant Matrix: (Units=GPa)
#
#
# Indices 1 2 3 4 5 6 
#
# 1 194.5573 39.1092 122.2820 0.0000 0.0000 0.0000
# 2 39.1092 14.1450 36.5874 0.0000 0.0000 0.0000
# 3 122.2820 36.5874 226.5865 0.0000 0.0000 0.0000
# 4 0.0000 0.0000 0.0000 39.0710 0.0000 0.0000
# 5 0.0000 0.0000 0.0000 0.0000 34.5096 0.0000
# 6 0.0000 0.0000 0.0000 0.0000 0.0000 24.9376
#
#
#
# Elastic Compliance Matrix: (Units=1/GPa)
#
#
# Indices 1 2 3 4 5 6 
#
# 1 0.012042 -0.028308 -0.001928 0.000000 0.000000 0.000000
# 2 -0.028308 0.187948 -0.015071 0.000000 0.000000 0.000000
# 3 -0.001928 -0.015071 0.007887 0.000000 0.000000 0.000000
# 4 0.000000 0.000000 0.000000 0.025594 0.000000 0.000000
# 5 0.000000 0.000000 0.000000 0.000000 0.028977 0.000000
# 6 0.000000 0.000000 0.000000 0.000000 0.000000 0.040100
#
#
# Mechanical properties :
#
#
# Convention : Reuss Voigt Hill
#
# Bulk Modulus (GPa) = 8.52784 92.36068 50.44426
# Shear Modulus (GPa) = 11.56735 35.52432 23.54584
#
# Velocity S-wave (km/s) = 2.51009 4.39881 3.58120
# Velocity P-wave (km/s) = 3.61188 8.72391 6.67654
#
# Compressibility (1/GPa) = 0.11726303
#
# Stress axis : x y z
#
# Youngs Moduli (GPa) = 83.04384 5.32062 126.78758
#
# Poissons Ratio (x) = 0.15062 0.24440
# Poissons Ratio (y) = 2.35082 1.91085
# Poissons Ratio (z) = 0.16008 0.08019
#
# Static dielectric constant tensor:
#      x y z
#    x 1.622250 0.000000 0.000000 
#    y 0.000000 1.628350 0.000000 
#    z 0.000000 0.000000 1.590290 
# 
# From -- ./inp_files/24702.got.cif
#   From: 2010.05.17/outbox.cif.g08.bks.cpg/sg51_13_cif.got.tgz:24702.got - 2010.06.03 11:52:47.
