data_PCOD9404114
_publ_section_title
;
Structure prediction by ZEFSAII (Michael W. Deem and Ramdas Pophale) SiO2 
 PCOD9404114
Probable space group: P M M A
;
_chemical_formula_sum "Si O2"
_cell_formula_units_Z 64
_cell_length_a 24.225844
_cell_length_b 13.721240
_cell_length_c 9.684008
_cell_angle_alpha 90.000000
_cell_angle_beta 90.000000
_cell_angle_gamma 90.000000
_cell_volume 3219.047733
_symmetry_space_group_name_H-M "P M M A"
_symmetry_group_IT_number 51
_symmetry_cell_setting 'orthorhombic'
loop_
_space_group_symop_operation_xyz
x,y,z
1/2-x,-y,z
1/2+x,-y,-z
-x,y,-z
-x,-y,-z
1/2+x,y,-z
1/2-x,y,z
x,-y,z
loop_
_atom_site_type_symbol
_atom_site_label
_atom_site_fract_x
_atom_site_fract_y
_atom_site_fract_z
Si Si1 0.347538 0.108375 0.319421
Si Si2 0.684255 0.608740 0.027104
Si Si3 0.977600 0.112750 0.647744
Si Si4 0.614148 0.611417 0.300777
Si Si5 0.813950 0.893777 0.253667
Si Si6 0.185509 0.736397 0.529354
Si Si7 0.643142 0.185674 0.979970
Si Si8 0.535374 0.752910 0.128538
O O1 0.411596 0.113535 0.361132
O O2 0.317892 0.199417 0.391324
O O3 0.348492 0.123395 0.155699
O O4 0.325831 0.000000 0.356707
O O5 0.750000 0.618205 0.022332
O O6 0.669092 0.500000 0.976064
O O7 0.662911 0.614901 0.184912
O O8 0.656979 0.700769 0.952082
O O9 0.000000 0.147199 0.500000
O O10 0.998900 0.178785 0.772939
O O11 0.995333 0.000000 0.668326
O O12 0.596040 0.500000 0.315593
O O13 0.642545 0.649728 0.441856
O O14 0.566304 0.675820 0.228576
O O15 0.750000 0.901387 0.292747
O O16 0.836551 0.813238 0.355604
O O17 0.840319 0.000000 0.266641
O O18 0.817755 0.855090 0.099365
O O19 0.250000 0.709041 0.552703
O O20 0.582987 0.184890 0.050725
O O21 0.500000 0.710084 0.000000
#
# Coordination Sequence:
#
# PCOD9404114 Si02
#       8
#     8   8   8   8   8   8   8   8
#     4  11  24  40  57  84 123 163 198 241 298 360
#     4   9  17  32  57  86 114 146 191 245 296 349
#     4  10  22  38  59  85 116 161 209 251 301 357
#     4  10  21  38  63  92 118 150 198 252 309 364
#     4  10  20  34  55  83 114 151 196 241 291 355
#     4  11  22  39  61  87 118 156 198 247 304 363
#     4  11  21  36  57  86 120 160 201 246 301 358
#     4  11  21  38  61  91 122 161 203 261 306 362
#
# _framework density 19.881657000000001
#
# number of rings (size 3 to 8) (size 9 to 14) (size 15 to 20)
#    0.000    1.625    3.750    2.250    0.000    4.000 
#    0.000    0.625    0.000    3.375    0.000    0.000 
#    0.000    0.000    0.000    0.000    0.000    0.000 
#
# Total GULP energy -356945.035020 kJ/mol
# GULP energy per Si atom -5577.266172 kJ/mol
# Density = 1.983641 g / cm^3
# Si number density = 19.881657 Si / 1000 Ang^3
#
#
#
# Elastic Constant Matrix: (Units=GPa)
#
#
# Indices 1 2 3 4 5 6 
#
# 1 49.5731 14.2619 2.3175 0.0000 0.0000 0.0000
# 2 14.2619 68.6020 6.0548 0.0000 0.0000 0.0000
# 3 2.3175 6.0548 53.3607 0.0000 0.0000 0.0000
# 4 0.0000 0.0000 0.0000 110.9136 0.0000 0.0000
# 5 0.0000 0.0000 0.0000 0.0000 16.1588 0.0000
# 6 0.0000 0.0000 0.0000 0.0000 0.0000 -18.6409
#
#
#
# Elastic Compliance Matrix: (Units=1/GPa)
#
#
# Indices 1 2 3 4 5 6 
#
# 1 0.021465 -0.004424 -0.000430 0.000000 0.000000 0.000000
# 2 -0.004424 0.015636 -0.001582 0.000000 0.000000 0.000000
# 3 -0.000430 -0.001582 0.018939 0.000000 0.000000 0.000000
# 4 0.000000 0.000000 0.000000 0.009016 0.000000 0.000000
# 5 0.000000 0.000000 0.000000 0.000000 0.061886 0.000000
# 6 0.000000 0.000000 0.000000 0.000000 0.000000 -0.053645
#
#
# Mechanical properties :
#
#
# Convention : Reuss Voigt Hill
#
# Bulk Modulus (GPa) = 23.16608 24.08934 23.62771
# Shear Modulus (GPa) = 49.72211 31.61307 40.66759
#
# Velocity S-wave (km/s) = 5.00633 3.99188 4.52761
# Velocity P-wave (km/s) = 6.71529 5.77837 6.26437
#
# Compressibility (1/GPa) = 0.04316656
#
# Stress axis : x y z
#
# Youngs Moduli (GPa) = 46.58691 63.95383 52.80221
#
# Poissons Ratio (x) = 0.28296 0.02272
# Poissons Ratio (y) = 0.20612 0.08354
# Poissons Ratio (z) = 0.02004 0.10118
#
# Static dielectric constant tensor:
#      x y z
#    x 1.716240 0.000000 0.000000 
#    y 0.000000 1.779070 0.000000 
#    z 0.000000 0.000000 1.700260 
# 
# From -- ./inp_files/11894.got.cif
#   From: 2010.05.17/outbox.cif.g08.bks.cpg/sg51_6_cif.got.tgz:11894.got - 2010.06.03 11:52:47.
