data_PCOD9404219
_publ_section_title
;
Structure prediction by ZEFSAII (Michael W. Deem and Ramdas Pophale) SiO2 
 PCOD9404219
Probable space group: P M M A
;
_chemical_formula_sum "Si O2"
_cell_formula_units_Z 40
_cell_length_a 8.939174
_cell_length_b 15.649288
_cell_length_c 14.825092
_cell_angle_alpha 90.000000
_cell_angle_beta 90.000000
_cell_angle_gamma 90.000000
_cell_volume 2073.907447
_symmetry_space_group_name_H-M "P M M A"
_symmetry_group_IT_number 51
_symmetry_cell_setting 'orthorhombic'
loop_
_space_group_symop_operation_xyz
x,y,z
1/2-x,-y,z
1/2+x,-y,-z
-x,y,-z
-x,-y,-z
1/2+x,y,-z
1/2-x,y,z
x,-y,z
loop_
_atom_site_type_symbol
_atom_site_label
_atom_site_fract_x
_atom_site_fract_y
_atom_site_fract_z
Si Si1 0.924055 0.896240 0.405725
Si Si2 0.427986 0.148517 0.217234
Si Si3 0.928825 0.000000 0.099002
Si Si4 0.927343 0.601636 0.406823
Si Si5 0.430579 0.500000 0.098624
Si Si6 0.071644 0.341516 0.223321
O O1 0.750000 0.870127 0.402778
O O2 0.000000 0.870468 0.500000
O O3 0.012690 0.862510 0.319210
O O4 0.928533 0.000000 0.401419
O O5 0.250000 0.131627 0.214712
O O6 0.455530 0.246142 0.188152
O O7 0.513439 0.081962 0.154343
O O8 0.750000 0.000000 0.094081
O O9 0.000000 0.000000 0.000000
O O10 0.750000 0.611923 0.411322
O O11 0.961344 0.500000 0.398245
O O12 0.000000 0.632152 0.500000
O O13 0.992474 0.646355 0.319010
O O14 0.250000 0.500000 0.091734
O O15 0.476137 0.583944 0.155155
O O16 0.500000 0.500000 0.000000
O O17 0.250000 0.350780 0.237603
#
# Coordination Sequence:
#
# PCOD9404219 Si02
#       6
#     8   8   4   8   4   8
#     4  10  20  35  58  88 123 164 206 247 298 356
#     4  11  23  40  64  94 125 160 203 251 305 366
#     4  12  26  46  69  92 121 160 200 252 310 364
#     4  10  20  34  57  88 122 163 208 251 299 355
#     4  10  22  42  65  88 119 154 195 246 302 360
#     4  10  22  40  63  90 123 161 201 248 303 360
#
# _framework density 19.287264
#
# number of rings (size 3 to 8) (size 9 to 14) (size 15 to 20)
#    0.000    1.600    2.000    2.700    0.000    5.600 
#    0.000    2.000    0.000    0.000    0.000    0.000 
#    0.000    0.000    0.000    0.000    0.000    0.000 
#
# Total GULP energy -223652.983200 kJ/mol
# GULP energy per Si atom -5591.324580 kJ/mol
# Density = 1.924337 g / cm^3
# Si number density = 19.287264 Si / 1000 Ang^3
#
#
#
# Elastic Constant Matrix: (Units=GPa)
#
#
# Indices 1 2 3 4 5 6 
#
# 1 90.7718 69.0457 57.2397 0.0000 0.0000 0.0000
# 2 69.0457 110.0811 72.7498 0.0000 0.0000 0.0000
# 3 57.2397 72.7498 150.6602 0.0000 0.0000 0.0000
# 4 0.0000 0.0000 0.0000 -8.4942 0.0000 0.0000
# 5 0.0000 0.0000 0.0000 0.0000 41.5302 0.0000
# 6 0.0000 0.0000 0.0000 0.0000 0.0000 13.3033
#
#
#
# Elastic Compliance Matrix: (Units=1/GPa)
#
#
# Indices 1 2 3 4 5 6 
#
# 1 0.021668 -0.011970 -0.002452 0.000000 0.000000 0.000000
# 2 -0.011970 0.019955 -0.005088 0.000000 0.000000 0.000000
# 3 -0.002452 -0.005088 0.010026 0.000000 0.000000 0.000000
# 4 0.000000 0.000000 0.000000 -0.117728 0.000000 0.000000
# 5 0.000000 0.000000 0.000000 0.000000 0.024079 0.000000
# 6 0.000000 0.000000 0.000000 0.000000 0.000000 0.075169
#
#
# Mechanical properties :
#
#
# Convention : Reuss Voigt Hill
#
# Bulk Modulus (GPa) = 79.18747 83.28708 81.23727
# Shear Modulus (GPa) = 65.44609 19.43305 42.43957
#
# Velocity S-wave (km/s) = 5.83146 3.17765 4.69592
# Velocity P-wave (km/s) = 9.29985 7.53256 8.46247
#
# Compressibility (1/GPa) = 0.01262826
#
# Stress axis : x y z
#
# Youngs Moduli (GPa) = 46.15068 50.11364 99.74223
#
# Poissons Ratio (x) = 0.59987 0.24459
# Poissons Ratio (y) = 0.55244 0.50746
# Poissons Ratio (z) = 0.11317 0.25497
#
# Static dielectric constant tensor:
#      x y z
#    x 1.643080 0.000000 0.000000 
#    y 0.000000 1.703570 0.000000 
#    z 0.000000 0.000000 1.620920 
# 
# From -- ./inp_files/20583.got.cif
#   From: 2010.05.17/outbox.cif.g08.bks.cpg/sg51_11_cif.got.tgz:20583.got - 2010.06.03 11:52:47.
