data_PCOD9404774
_publ_section_title
;
Structure prediction by ZEFSAII (Michael W. Deem and Ramdas Pophale) SiO2 
 PCOD9404774
Probable space group: P M M A
;
_chemical_formula_sum "Si O2"
_cell_formula_units_Z 44
_cell_length_a 8.559068
_cell_length_b 28.749602
_cell_length_c 9.558643
_cell_angle_alpha 90.000000
_cell_angle_beta 90.000000
_cell_angle_gamma 90.000000
_cell_volume 2352.093357
_symmetry_space_group_name_H-M "P M M A"
_symmetry_group_IT_number 51
_symmetry_cell_setting 'orthorhombic'
loop_
_space_group_symop_operation_xyz
x,y,z
1/2-x,-y,z
1/2+x,-y,-z
-x,y,-z
-x,-y,-z
1/2+x,y,-z
1/2-x,y,z
x,-y,z
loop_
_atom_site_type_symbol
_atom_site_label
_atom_site_fract_x
_atom_site_fract_y
_atom_site_fract_z
Si Si1 0.061330 0.552962 0.345162
Si Si2 0.938923 0.361274 0.843052
Si Si3 0.436757 0.916419 0.843712
Si Si4 0.936554 0.000000 0.657045
Si Si5 0.438456 0.726766 0.342903
Si Si6 0.438113 0.185837 0.155554
O O1 0.250000 0.553633 0.349430
O O2 0.011334 0.500000 0.312216
O O3 0.009591 0.591195 0.233243
O O4 0.000000 0.564600 0.500000
O O5 0.750000 0.361019 0.846808
O O6 0.990061 0.317508 0.748871
O O7 0.000000 0.357822 0.000000
O O8 0.250000 0.917638 0.845876
O O9 0.494601 0.864641 0.805939
O O10 0.501903 0.954793 0.738860
O O11 0.500000 0.926090 0.000000
O O12 0.000000 0.000000 0.500000
O O13 0.750000 0.000000 0.656776
O O14 0.500000 0.724587 0.500000
O O15 0.250000 0.725994 0.347186
O O16 0.485567 0.774014 0.263341
O O17 0.250000 0.183141 0.150568
O O18 0.500000 0.197106 0.000000
#
# Coordination Sequence:
#
# PCOD9404774 Si02
#       6
#     8   8   8   4   8   8
#     4   9  18  33  53  77 106 139 177 221 269 323
#     4  10  21  36  53  77 107 140 179 224 271 321
#     4  11  22  39  62  88 116 151 190 230 276 328
#     4  12  25  42  61  86 118 152 190 234 281 330
#     4  10  22  37  55  79 108 141 180 224 271 326
#     4  10  20  36  57  83 111 142 182 227 273 325
#
# _framework density 18.706738999999999
#
# number of rings (size 3 to 8) (size 9 to 14) (size 15 to 20)
#    0.000    1.818    0.000    5.455    0.000    4.000 
#    0.000    1.818    0.000    0.000    0.000    0.000 
#    0.000    0.000    0.000    0.000    0.000    0.000 
#
# Total GULP energy -245871.644083 kJ/mol
# GULP energy per Si atom -5587.991911 kJ/mol
# Density = 1.866416 g / cm^3
# Si number density = 18.706739 Si / 1000 Ang^3
#
#
#
# Elastic Constant Matrix: (Units=GPa)
#
#
# Indices 1 2 3 4 5 6 
#
# 1 74.4210 49.7448 44.4984 0.0000 0.0000 0.0000
# 2 49.7448 163.5353 146.1867 0.0000 0.0000 0.0000
# 3 44.4984 146.1867 181.1280 0.0000 0.0000 0.0000
# 4 0.0000 0.0000 0.0000 83.7047 0.0000 0.0000
# 5 0.0000 0.0000 0.0000 0.0000 37.1981 0.0000
# 6 0.0000 0.0000 0.0000 0.0000 0.0000 -11.6498
#
#
#
# Elastic Compliance Matrix: (Units=1/GPa)
#
#
# Indices 1 2 3 4 5 6 
#
# 1 0.016866 -0.005121 -0.000010 0.000000 0.000000 0.000000
# 2 -0.005121 0.023509 -0.017716 0.000000 0.000000 0.000000
# 3 -0.000010 -0.017716 0.019822 0.000000 0.000000 0.000000
# 4 0.000000 0.000000 0.000000 0.011947 0.000000 0.000000
# 5 0.000000 0.000000 0.000000 0.000000 0.026883 0.000000
# 6 0.000000 0.000000 0.000000 0.000000 0.000000 -0.085838
#
#
# Mechanical properties :
#
#
# Convention : Reuss Voigt Hill
#
# Bulk Modulus (GPa) = 68.95366 99.99380 84.47373
# Shear Modulus (GPa) = 78.47034 33.76088 56.11561
#
# Velocity S-wave (km/s) = 6.48373 4.25284 5.48294
# Velocity P-wave (km/s) = 9.64323 8.81390 9.23788
#
# Compressibility (1/GPa) = 0.01450249
#
# Stress axis : x y z
#
# Youngs Moduli (GPa) = 59.28938 42.53646 50.44940
#
# Poissons Ratio (x) = 0.21784 0.00052
# Poissons Ratio (y) = 0.30364 0.89376
# Poissons Ratio (z) = 0.00061 0.75357
#
# Static dielectric constant tensor:
#      x y z
#    x 1.633400 0.000000 0.000000 
#    y 0.000000 1.649040 0.000000 
#    z 0.000000 0.000000 1.598950 
# 
# From -- ./inp_files/5801.got.cif
#   From: 2010.05.17/outbox.cif.g08.bks.cpg/sg51_3_cif.got.tgz:5801.got - 2010.06.03 11:52:47.
