data_PCOD9404499
_publ_section_title
;
Structure prediction by ZEFSAII (Michael W. Deem and Ramdas Pophale) SiO2 
 PCOD9404499
Probable space group: P M M A
;
_chemical_formula_sum "Si O2"
_cell_formula_units_Z 64
_cell_length_a 29.190071
_cell_length_b 7.894561
_cell_length_c 13.232621
_cell_angle_alpha 90.000000
_cell_angle_beta 90.000000
_cell_angle_gamma 90.000000
_cell_volume 3049.362183
_symmetry_space_group_name_H-M "P M M A"
_symmetry_group_IT_number 51
_symmetry_cell_setting 'orthorhombic'
loop_
_space_group_symop_operation_xyz
x,y,z
1/2-x,-y,z
1/2+x,-y,-z
-x,y,-z
-x,-y,-z
1/2+x,y,-z
1/2-x,y,z
x,-y,z
loop_
_atom_site_type_symbol
_atom_site_label
_atom_site_fract_x
_atom_site_fract_y
_atom_site_fract_z
Si Si1 0.049984 0.196725 0.525511
Si Si2 0.351660 0.698357 0.468390
Si Si3 0.698272 0.799007 0.734405
Si Si4 0.802792 0.707082 0.327403
Si Si5 0.471602 0.795022 0.098340
Si Si6 0.048620 0.701304 0.753747
Si Si7 0.867338 0.798132 0.909327
Si Si8 0.139517 0.704523 0.865720
O O1 0.093767 0.278230 0.472388
O O2 0.055537 0.213490 0.645832
O O3 0.000000 0.270598 0.500000
O O4 0.049830 0.000000 0.495292
O O5 0.341192 0.500000 0.464341
O O6 0.327670 0.777371 0.371460
O O7 0.330682 0.765200 0.573984
O O8 0.750000 0.728839 0.730770
O O9 0.666829 0.727660 0.824643
O O10 0.702273 0.000000 0.752516
O O11 0.750000 0.758607 0.333585
O O12 0.804307 0.500000 0.327188
O O13 0.826580 0.761618 0.223300
O O14 0.499986 0.741032 0.196538
O O15 0.419464 0.731394 0.097947
O O16 0.470965 0.000000 0.094985
O O17 0.500000 0.734992 0.000000
O O18 0.053747 0.500000 0.738409
O O19 0.088442 0.757391 0.831083
O O20 0.870746 0.000000 0.893185
O O21 0.850049 0.768540 0.022817
O O22 0.140474 0.500000 0.869004
#
# Coordination Sequence:
#
# PCOD9404499 Si02
#       8
#     8   8   8   8   8   8   8   8
#     4  11  25  42  61  87 122 163 200 237 294 367
#     4  11  22  40  65  93 122 154 201 254 306 363
#     4  10  23  43  63  85 120 165 210 259 312 362
#     4   9  18  35  59  86 117 151 186 235 300 360
#     4  10  20  35  56  83 113 154 202 242 292 360
#     4  11  22  37  58  86 121 155 194 246 301 356
#     4  10  22  39  59  83 117 160 208 255 298 356
#     4  10  20  36  57  86 121 154 192 242 300 358
#
# _framework density 20.987995999999999
#
# number of rings (size 3 to 8) (size 9 to 14) (size 15 to 20)
#    0.000    1.750    2.500    1.500    1.750    4.000 
#    0.000    0.000    0.000    1.500    0.000    0.000 
#    0.000    0.000    0.000    0.000    0.000    0.000 
#
# Total GULP energy -357638.624101 kJ/mol
# GULP energy per Si atom -5588.103502 kJ/mol
# Density = 2.094023 g / cm^3
# Si number density = 20.987996 Si / 1000 Ang^3
#
#
#
# Elastic Constant Matrix: (Units=GPa)
#
#
# Indices 1 2 3 4 5 6 
#
# 1 165.0742 4.9382 83.5491 0.0000 0.0000 0.0000
# 2 4.9382 17.3445 -8.9879 0.0000 0.0000 0.0000
# 3 83.5491 -8.9879 115.1619 0.0000 0.0000 0.0000
# 4 0.0000 0.0000 0.0000 29.4072 0.0000 0.0000
# 5 0.0000 0.0000 0.0000 0.0000 25.6256 0.0000
# 6 0.0000 0.0000 0.0000 0.0000 0.0000 -1.9401
#
#
#
# Elastic Compliance Matrix: (Units=1/GPa)
#
#
# Indices 1 2 3 4 5 6 
#
# 1 0.010355 -0.007130 -0.008069 0.000000 0.000000 0.000000
# 2 -0.007130 0.064994 0.010245 0.000000 0.000000 0.000000
# 3 -0.008069 0.010245 0.015337 0.000000 0.000000 0.000000
# 4 0.000000 0.000000 0.000000 0.034005 0.000000 0.000000
# 5 0.000000 0.000000 0.000000 0.000000 0.039023 0.000000
# 6 0.000000 0.000000 0.000000 0.000000 0.000000 -0.515440
#
#
# Mechanical properties :
#
#
# Convention : Reuss Voigt Hill
#
# Bulk Modulus (GPa) = 12.37946 50.73102 31.55524
# Shear Modulus (GPa) = -15.87848 25.15729 4.63940
#
# Velocity S-wave (km/s) = -2.75353 3.46591 1.48839
# Velocity P-wave (km/s) = 2.04892 6.34355 4.24515
#
# Compressibility (1/GPa) = 0.08077894
#
# Stress axis : x y z
#
# Youngs Moduli (GPa) = 96.57047 15.38603 65.20179
#
# Poissons Ratio (x) = 0.10970 0.52611
# Poissons Ratio (y) = 0.68851 -0.66799
# Poissons Ratio (z) = 0.77923 -0.15763
#
# Static dielectric constant tensor:
#      x y z
#    x 1.757070 0.000000 0.000000 
#    y 0.000000 1.755240 0.000000 
#    z 0.000000 0.000000 1.719460 
# 
# From -- ./inp_files/19648.got.cif
#   From: 2010.05.17/outbox.cif.g08.bks.cpg/sg51_10_cif.got.tgz:19648.got - 2010.06.03 11:52:47.
