data_PCOD9404638
_publ_section_title
;
Structure prediction by ZEFSAII (Michael W. Deem and Ramdas Pophale) SiO2 
 PCOD9404638
Probable space group: P M M A
;
_chemical_formula_sum "Si O2"
_cell_formula_units_Z 64
_cell_length_a 19.045586
_cell_length_b 20.314047
_cell_length_c 9.303523
_cell_angle_alpha 90.000000
_cell_angle_beta 90.000000
_cell_angle_gamma 90.000000
_cell_volume 3599.467265
_symmetry_space_group_name_H-M "P M M A"
_symmetry_group_IT_number 51
_symmetry_cell_setting 'orthorhombic'
loop_
_space_group_symop_operation_xyz
x,y,z
1/2-x,-y,z
1/2+x,-y,-z
-x,y,-z
-x,-y,-z
1/2+x,y,-z
1/2-x,y,z
x,-y,z
loop_
_atom_site_type_symbol
_atom_site_label
_atom_site_fract_x
_atom_site_fract_y
_atom_site_fract_z
Si Si1 0.051942 0.422202 0.368719
Si Si2 0.067941 0.330086 0.101649
Si Si3 0.424379 0.186001 0.172034
Si Si4 0.832627 0.072818 0.331921
Si Si5 0.832686 0.924915 0.676595
Si Si6 0.834717 0.674976 0.153810
Si Si7 0.666719 0.574885 0.410368
Si Si8 0.913082 0.185440 0.166543
O O1 0.042235 0.500000 0.340655
O O2 0.045408 0.381329 0.223201
O O3 0.127835 0.410905 0.440787
O O4 0.000000 0.403643 0.500000
O O5 0.094690 0.263342 0.178531
O O6 0.129206 0.351654 0.992235
O O7 0.000000 0.314191 0.000000
O O8 0.378726 0.133145 0.256850
O O9 0.506099 0.185730 0.215732
O O10 0.415811 0.169940 0.003137
O O11 0.750000 0.076973 0.298717
O O12 0.839321 0.078060 0.503978
O O13 0.872728 0.129914 0.252417
O O14 0.857976 0.000000 0.288980
O O15 0.750000 0.916365 0.711894
O O16 0.852744 0.000000 0.720750
O O17 0.750000 0.681734 0.141436
O O18 0.851144 0.625776 0.284682
O O19 0.872501 0.745102 0.182105
O O20 0.750000 0.576719 0.429258
O O21 0.646049 0.500000 0.368619
#
# Coordination Sequence:
#
# PCOD9404638 Si02
#       8
#     8   8   8   8   8   8   8   8
#     4  10  22  37  58  85 111 150 197 238 289 347
#     4  11  21  39  56  78 119 149 186 240 291 336
#     4  10  21  37  55  79 112 150 183 225 289 333
#     4   9  19  36  56  79 108 141 180 230 280 327
#     4   9  20  39  59  82 114 148 187 235 282 336
#     4  10  20  35  59  84 110 151 193 231 283 345
#     4   9  19  37  57  81 115 147 183 235 289 342
#     4  10  20  36  54  78 111 144 185 231 274 335
#
# _framework density 17.780408999999999
#
# number of rings (size 3 to 8) (size 9 to 14) (size 15 to 20)
#    0.000    2.250    2.500    1.875    0.000    6.250 
#    0.000    5.000    0.000    0.000    0.000    0.000 
#    0.000    0.000    0.000    0.000    0.000    0.000 
#
# Total GULP energy -356799.774848 kJ/mol
# GULP energy per Si atom -5574.996482 kJ/mol
# Density = 1.773994 g / cm^3
# Si number density = 17.780409 Si / 1000 Ang^3
#
#
#
# Elastic Constant Matrix: (Units=GPa)
#
#
# Indices 1 2 3 4 5 6 
#
# 1 65.9904 44.1923 34.1609 0.0000 0.0000 0.0000
# 2 44.1923 95.7510 58.9221 0.0000 0.0000 0.0000
# 3 34.1609 58.9221 54.0968 0.0000 0.0000 0.0000
# 4 0.0000 0.0000 0.0000 41.2030 0.0000 0.0000
# 5 0.0000 0.0000 0.0000 0.0000 35.8311 0.0000
# 6 0.0000 0.0000 0.0000 0.0000 0.0000 24.9161
#
#
#
# Elastic Compliance Matrix: (Units=1/GPa)
#
#
# Indices 1 2 3 4 5 6 
#
# 1 0.023324 -0.005160 -0.009109 0.000000 0.000000 0.000000
# 2 -0.005160 0.032814 -0.032483 0.000000 0.000000 0.000000
# 3 -0.009109 -0.032483 0.059617 0.000000 0.000000 0.000000
# 4 0.000000 0.000000 0.000000 0.024270 0.000000 0.000000
# 5 0.000000 0.000000 0.000000 0.000000 0.027909 0.000000
# 6 0.000000 0.000000 0.000000 0.000000 0.000000 0.040135
#
#
# Mechanical properties :
#
#
# Convention : Reuss Voigt Hill
#
# Bulk Modulus (GPa) = 44.93708 54.48766 49.71237
# Shear Modulus (GPa) = 16.18179 25.62756 20.90467
#
# Velocity S-wave (km/s) = 3.02004 3.80061 3.43259
# Velocity P-wave (km/s) = 6.12284 7.06901 6.61286
#
# Compressibility (1/GPa) = 0.02225334
#
# Stress axis : x y z
#
# Youngs Moduli (GPa) = 42.87356 30.47490 16.77363
#
# Poissons Ratio (x) = 0.15724 0.15279
# Poissons Ratio (y) = 0.22121 0.54485
# Poissons Ratio (z) = 0.39053 0.98990
#
# Static dielectric constant tensor:
#      x y z
#    x 1.628560 0.000000 0.000000 
#    y 0.000000 1.612520 0.000000 
#    z 0.000000 0.000000 1.583870 
# 
# From -- ./inp_files/10010.got.cif
#   From: 2010.05.17/outbox.cif.g08.bks.cpg/sg51_6_cif.got.tgz:10010.got - 2010.06.03 11:52:47.
