data_PCOD9404306
_publ_section_title
;
Structure prediction by ZEFSAII (Michael W. Deem and Ramdas Pophale) SiO2 
 PCOD9404306
Probable space group: P M M A
;
_chemical_formula_sum "Si O2"
_cell_formula_units_Z 40
_cell_length_a 8.455425
_cell_length_b 26.504554
_cell_length_c 10.249045
_cell_angle_alpha 90.000000
_cell_angle_beta 90.000000
_cell_angle_gamma 90.000000
_cell_volume 2296.885480
_symmetry_space_group_name_H-M "P M M A"
_symmetry_group_IT_number 51
_symmetry_cell_setting 'orthorhombic'
loop_
_space_group_symop_operation_xyz
x,y,z
1/2-x,-y,z
1/2+x,-y,-z
-x,y,-z
-x,-y,-z
1/2+x,y,-z
1/2-x,y,z
x,-y,z
loop_
_atom_site_type_symbol
_atom_site_label
_atom_site_fract_x
_atom_site_fract_y
_atom_site_fract_z
Si Si1 0.439256 0.442396 0.855424
Si Si2 0.060757 0.636342 0.355749
Si Si3 0.941537 0.835012 0.851314
Si Si4 0.440992 0.054125 0.149437
Si Si5 0.941165 0.248210 0.644748
O O1 0.250000 0.441799 0.856214
O O2 0.492126 0.500000 0.826135
O O3 0.500054 0.402865 0.750257
O O4 0.500000 0.429718 0.000000
O O5 0.250000 0.635785 0.356354
O O6 0.007945 0.694061 0.327818
O O7 0.000000 0.623176 0.500000
O O8 0.750000 0.834038 0.854582
O O9 0.991720 0.890836 0.800245
O O10 0.996241 0.791006 0.754551
O O11 0.000000 0.828692 0.000000
O O12 0.250000 0.054004 0.150371
O O13 0.493646 0.000000 0.208213
O O14 0.500000 0.053763 0.000000
O O15 0.750000 0.247435 0.643592
O O16 0.000000 0.234798 0.500000
#
# Coordination Sequence:
#
# PCOD9404306 Si02
#       5
#     8   8   8   8   8
#     4  10  21  37  56  78 104 133 163 196 238 286
#     4  10  20  35  54  75  99 128 165 205 243 286
#     4   9  17  29  45  68  95 120 153 195 236 281
#     4   8  13  22  38  60  86 116 148 185 230 276
#     4   9  19  34  50  69  94 126 161 196 236 282
#
# _framework density 17.414885000000002
#
# number of rings (size 3 to 8) (size 9 to 14) (size 15 to 20)
#    0.000    2.800    0.000    1.200    0.000    4.000 
#    0.000    2.000    0.000    0.600    0.000    0.000 
#    0.000    0.000    0.000    0.000    0.000    0.000 
#
# Total GULP energy -222787.024234 kJ/mol
# GULP energy per Si atom -5569.675606 kJ/mol
# Density = 1.737525 g / cm^3
# Si number density = 17.414885 Si / 1000 Ang^3
#
#
#
# Elastic Constant Matrix: (Units=GPa)
#
#
# Indices 1 2 3 4 5 6 
#
# 1 17.4340 27.6482 20.8493 0.0000 0.0000 0.0000
# 2 27.6482 162.3384 119.5078 0.0000 0.0000 0.0000
# 3 20.8493 119.5078 111.1263 0.0000 0.0000 0.0000
# 4 0.0000 0.0000 0.0000 -19.5885 0.0000 0.0000
# 5 0.0000 0.0000 0.0000 0.0000 27.2327 0.0000
# 6 0.0000 0.0000 0.0000 0.0000 0.0000 2084.1476
#
#
#
# Elastic Compliance Matrix: (Units=1/GPa)
#
#
# Indices 1 2 3 4 5 6 
#
# 1 0.078650 -0.012155 -0.001684 0.000000 0.000000 0.000000
# 2 -0.012155 0.031449 -0.031541 0.000000 0.000000 0.000000
# 3 -0.001684 -0.031541 0.043235 0.000000 0.000000 0.000000
# 4 0.000000 0.000000 0.000000 -0.051050 0.000000 0.000000
# 5 0.000000 0.000000 0.000000 0.000000 0.036721 0.000000
# 6 0.000000 0.000000 0.000000 0.000000 0.000000 0.000480
#
#
# Mechanical properties :
#
#
# Convention : Reuss Voigt Hill
#
# Bulk Modulus (GPa) = 15.98117 69.65658 42.81888
# Shear Modulus (GPa) = 19.91215 426.55125 223.23170
#
# Velocity S-wave (km/s) = 3.38509 15.66737 11.33414
# Velocity P-wave (km/s) = 4.94723 19.16700 13.99730
#
# Compressibility (1/GPa) = 0.06257364
#
# Stress axis : x y z
#
# Youngs Moduli (GPa) = 12.71451 31.79703 23.12966
#
# Poissons Ratio (x) = 0.38650 0.03895
# Poissons Ratio (y) = 0.15455 0.72953
# Poissons Ratio (z) = 0.02141 1.00291
#
# Static dielectric constant tensor:
#      x y z
#    x 1.592910 0.000000 0.000000 
#    y 0.000000 1.646390 0.000000 
#    z 0.000000 0.000000 1.543050 
# 
# From -- ./inp_files/5194.got.cif
#   From: 2010.05.17/outbox.cif.g08.bks.cpg/sg51_3_cif.got.tgz:5194.got - 2010.06.03 11:52:47.
