data_PCOD9404003
_publ_section_title
;
Structure prediction by ZEFSAII (Michael W. Deem and Ramdas Pophale) SiO2 
 PCOD9404003
Probable space group: P M M A
;
_chemical_formula_sum "Si O2"
_cell_formula_units_Z 40
_cell_length_a 9.227774
_cell_length_b 8.244344
_cell_length_c 26.543068
_cell_angle_alpha 90.000000
_cell_angle_beta 90.000000
_cell_angle_gamma 90.000000
_cell_volume 2019.315477
_symmetry_space_group_name_H-M "P M M A"
_symmetry_group_IT_number 51
_symmetry_cell_setting 'orthorhombic'
loop_
_space_group_symop_operation_xyz
x,y,z
1/2-x,-y,z
1/2+x,-y,-z
-x,y,-z
-x,-y,-z
1/2+x,y,-z
1/2-x,y,z
x,-y,z
loop_
_atom_site_type_symbol
_atom_site_label
_atom_site_fract_x
_atom_site_fract_y
_atom_site_fract_z
Si Si1 0.583631 0.803960 0.550025
Si Si2 0.416208 0.194224 0.250820
Si Si3 0.583827 0.694198 0.350395
Si Si4 0.916505 0.696111 0.151186
Si Si5 0.082754 0.301684 0.050559
O O1 0.500000 0.746945 0.500000
O O2 0.750000 0.746598 0.550630
O O3 0.499610 0.752990 0.600081
O O4 0.586309 0.000000 0.548615
O O5 0.250000 0.254228 0.251185
O O6 0.500495 0.250742 0.300428
O O7 0.498582 0.251789 0.200935
O O8 0.413208 0.000000 0.250891
O O9 0.750000 0.754341 0.350218
O O10 0.586937 0.500000 0.350862
O O11 0.750000 0.752815 0.152097
O O12 0.914087 0.500000 0.150030
O O13 0.999047 0.751480 0.100780
O O14 0.250000 0.249728 0.050753
O O15 0.082470 0.500000 0.050595
O O16 0.000000 0.250010 0.000000
#
# Coordination Sequence:
#
# PCOD9404003 Si02
#       5
#     8   8   8   8   8
#     4  10  21  38  61  88 117 151 190 229 272 324
#     4  11  24  40  58  81 109 143 184 228 276 332
#     4  11  24  40  59  85 115 147 185 229 277 328
#     4  10  20  34  54  81 111 143 182 227 274 326
#     4   9  16  27  46  74 108 144 181 223 271 322
#
# _framework density 19.808693000000002
#
# number of rings (size 3 to 8) (size 9 to 14) (size 15 to 20)
#    0.000    1.800    0.000    4.200    0.000   13.200 
#    0.000    0.000    0.000    0.600    0.000    0.000 
#    0.000    0.000    0.000    0.000    0.000    0.000 
#
# Total GULP energy -223607.357182 kJ/mol
# GULP energy per Si atom -5590.183930 kJ/mol
# Density = 1.976361 g / cm^3
# Si number density = 19.808693 Si / 1000 Ang^3
#
#
#
# Elastic Constant Matrix: (Units=GPa)
#
#
# Indices 1 2 3 4 5 6 
#
# 1 254.0494 22.7243 153.1866 0.0000 0.0000 0.0000
# 2 22.7243 12.3065 15.5511 0.0000 0.0000 0.0000
# 3 153.1866 15.5511 245.3841 0.0000 0.0000 0.0000
# 4 0.0000 0.0000 0.0000 41.6459 0.0000 0.0000
# 5 0.0000 0.0000 0.0000 0.0000 46.5119 0.0000
# 6 0.0000 0.0000 0.0000 0.0000 0.0000 24.2440
#
#
#
# Elastic Compliance Matrix: (Units=1/GPa)
#
#
# Indices 1 2 3 4 5 6 
#
# 1 0.006971 -0.008015 -0.003844 0.000000 0.000000 0.000000
# 2 -0.008015 0.097547 -0.001179 0.000000 0.000000 0.000000
# 3 -0.003844 -0.001179 0.006550 0.000000 0.000000 0.000000
# 4 0.000000 0.000000 0.000000 0.024012 0.000000 0.000000
# 5 0.000000 0.000000 0.000000 0.000000 0.021500 0.000000
# 6 0.000000 0.000000 0.000000 0.000000 0.000000 0.041247
#
#
# Mechanical properties :
#
#
# Convention : Reuss Voigt Hill
#
# Bulk Modulus (GPa) = 11.76567 99.40709 55.58638
# Shear Modulus (GPa) = 19.82304 43.83224 31.82764
#
# Velocity S-wave (km/s) = 3.16685 4.70912 4.01278
# Velocity P-wave (km/s) = 4.39596 8.93646 7.04219
#
# Compressibility (1/GPa) = 0.08499305
#
# Stress axis : x y z
#
# Youngs Moduli (GPa) = 143.45391 10.25148 152.68298
#
# Poissons Ratio (x) = 0.08216 0.58688
# Poissons Ratio (y) = 1.14974 0.17995
# Poissons Ratio (z) = 0.55141 0.01208
#
# Static dielectric constant tensor:
#      x y z
#    x 1.686170 0.000000 0.000000 
#    y 0.000000 1.700310 0.000000 
#    z 0.000000 0.000000 1.641710 
# 
# From -- ./inp_files/34301.got.cif
#   From: 2010.05.17/outbox.cif.g08.bks.cpg/sg51_18_cif.got.tgz:34301.got - 2010.06.03 11:52:47.
