data_PCOD9404871
_publ_section_title
;
Structure prediction by ZEFSAII (Michael W. Deem and Ramdas Pophale) SiO2 
 PCOD9404871
Probable space group: P M M A
;
_chemical_formula_sum "Si O2"
_cell_formula_units_Z 64
_cell_length_a 31.978227
_cell_length_b 7.794382
_cell_length_c 12.195760
_cell_angle_alpha 90.000000
_cell_angle_beta 90.000000
_cell_angle_gamma 90.000000
_cell_volume 3039.799484
_symmetry_space_group_name_H-M "P M M A"
_symmetry_group_IT_number 51
_symmetry_cell_setting 'orthorhombic'
loop_
_space_group_symop_operation_xyz
x,y,z
1/2-x,-y,z
1/2+x,-y,-z
-x,y,-z
-x,-y,-z
1/2+x,y,-z
1/2-x,y,z
x,-y,z
loop_
_atom_site_type_symbol
_atom_site_label
_atom_site_fract_x
_atom_site_fract_y
_atom_site_fract_z
Si Si1 0.589745 0.198859 0.746314
Si Si2 0.454111 0.702608 0.033534
Si Si3 0.295315 0.201098 0.004811
Si Si4 0.376101 0.790154 0.626690
Si Si5 0.546865 0.790388 0.522573
Si Si6 0.204224 0.796096 0.491105
Si Si7 0.122287 0.791456 0.880116
Si Si8 0.183417 0.304804 0.245233
O O1 0.563336 0.211339 0.856772
O O2 0.563438 0.260262 0.642213
O O3 0.633152 0.296798 0.758211
O O4 0.601422 0.000000 0.726163
O O5 0.457395 0.500000 0.056093
O O6 0.500000 0.766503 0.000000
O O7 0.419834 0.730647 0.939090
O O8 0.250000 0.276350 0.974187
O O9 0.336722 0.271776 0.946133
O O10 0.294263 0.000000 0.975594
O O11 0.300660 0.214069 0.135700
O O12 0.418562 0.735612 0.565882
O O13 0.335501 0.728902 0.558965
O O14 0.375289 0.739049 0.753416
O O15 0.375756 0.000000 0.623920
O O16 0.500000 0.729723 0.500000
O O17 0.545787 0.000000 0.520649
O O18 0.250000 0.725379 0.521402
O O19 0.197297 0.770435 0.361483
O O20 0.205191 0.000000 0.511335
O O21 0.121669 0.000000 0.884851
O O22 0.197814 0.500000 0.240221
#
# Coordination Sequence:
#
# PCOD9404871 Si02
#       8
#     8   8   8   8   8   8   8   8
#     4  11  21  37  64  90 116 149 193 241 289 342
#     4  11  25  42  59  84 122 159 192 236 292 349
#     4  10  21  37  57  84 117 151 192 243 294 343
#     4   9  18  34  55  83 116 147 188 239 287 335
#     4   9  18  32  55  87 118 143 177 234 290 331
#     4  10  20  36  59  85 115 152 193 238 286 337
#     4  10  21  37  61  87 114 152 199 245 289 346
#     4  12  23  36  57  85 120 154 191 237 292 348
#
# _framework density 21.054022
#
# number of rings (size 3 to 8) (size 9 to 14) (size 15 to 20)
#    0.000    1.750    2.500    2.250    1.750    3.500 
#    0.000    3.125    0.000    1.500    0.000    1.750 
#    0.000    0.000    0.000    0.000    0.000    0.000 
#
# Total GULP energy -357641.769362 kJ/mol
# GULP energy per Si atom -5588.152646 kJ/mol
# Density = 2.100610 g / cm^3
# Si number density = 21.054022 Si / 1000 Ang^3
#
#
#
# Elastic Constant Matrix: (Units=GPa)
#
#
# Indices 1 2 3 4 5 6 
#
# 1 209.0300 0.5641 77.4769 0.0000 0.0000 0.0000
# 2 0.5641 33.1362 -10.4401 0.0000 0.0000 0.0000
# 3 77.4769 -10.4401 131.1466 0.0000 0.0000 0.0000
# 4 0.0000 0.0000 0.0000 -25.5004 0.0000 0.0000
# 5 0.0000 0.0000 0.0000 0.0000 -24.2499 0.0000
# 6 0.0000 0.0000 0.0000 0.0000 0.0000 15.9638
#
#
#
# Elastic Compliance Matrix: (Units=1/GPa)
#
#
# Indices 1 2 3 4 5 6 
#
# 1 0.006178 -0.001287 -0.003752 0.000000 0.000000 0.000000
# 2 -0.001287 0.031223 0.003246 0.000000 0.000000 0.000000
# 3 -0.003752 0.003246 0.010100 0.000000 0.000000 0.000000
# 4 0.000000 0.000000 0.000000 -0.039215 0.000000 0.000000
# 5 0.000000 0.000000 0.000000 0.000000 -0.041237 0.000000
# 6 0.000000 0.000000 0.000000 0.000000 0.000000 0.062642
#
#
# Mechanical properties :
#
#
# Convention : Reuss Voigt Hill
#
# Bulk Modulus (GPa) = 22.77161 56.50160 39.63660
# Shear Modulus (GPa) = 104.34773 13.62350 58.98562
#
# Velocity S-wave (km/s) = 7.04766 2.54652 5.29879
# Velocity P-wave (km/s) = 8.77868 5.96164 7.50355
#
# Compressibility (1/GPa) = 0.04391433
#
# Stress axis : x y z
#
# Youngs Moduli (GPa) = 161.85654 32.02749 99.00726
#
# Poissons Ratio (x) = 0.04123 0.37152
# Poissons Ratio (y) = 0.20838 -0.32139
# Poissons Ratio (z) = 0.60735 -0.10397
#
# Static dielectric constant tensor:
#      x y z
#    x 1.755530 0.000000 0.000000 
#    y 0.000000 1.763320 0.000000 
#    z 0.000000 0.000000 1.710490 
# 
# From -- ./inp_files/19494.got.cif
#   From: 2010.05.17/outbox.cif.g08.bks.cpg/sg51_10_cif.got.tgz:19494.got - 2010.06.03 11:52:47.
