data_PCOD9404479
_publ_section_title
;
Structure prediction by ZEFSAII (Michael W. Deem and Ramdas Pophale) SiO2 
 PCOD9404479
Probable space group: P M M A
;
_chemical_formula_sum "Si O2"
_cell_formula_units_Z 56
_cell_length_a 8.212103
_cell_length_b 20.746748
_cell_length_c 15.997586
_cell_angle_alpha 90.000000
_cell_angle_beta 90.000000
_cell_angle_gamma 90.000000
_cell_volume 2725.579620
_symmetry_space_group_name_H-M "P M M A"
_symmetry_group_IT_number 51
_symmetry_cell_setting 'orthorhombic'
loop_
_space_group_symop_operation_xyz
x,y,z
1/2-x,-y,z
1/2+x,-y,-z
-x,y,-z
-x,-y,-z
1/2+x,y,-z
1/2-x,y,z
x,-y,z
loop_
_atom_site_type_symbol
_atom_site_label
_atom_site_fract_x
_atom_site_fract_y
_atom_site_fract_z
Si Si1 0.938863 0.928951 0.109704
Si Si2 0.556998 0.216889 0.909017
Si Si3 0.446047 0.180487 0.587068
Si Si4 0.441007 0.932214 0.691218
Si Si5 0.444156 0.575374 0.905665
Si Si6 0.444093 0.325753 0.590124
Si Si7 0.559700 0.679220 0.775745
O O1 0.750000 0.926843 0.081237
O O2 0.940898 0.931009 0.209716
O O3 0.016267 0.859631 0.090573
O O4 0.008625 0.000000 0.085390
O O5 0.750000 0.223876 0.906422
O O6 0.492140 0.257470 0.827819
O O7 0.500000 0.242581 0.000000
O O8 0.500000 0.150346 0.500000
O O9 0.250000 0.186391 0.592066
O O10 0.512134 0.133640 0.657560
O O11 0.512571 0.252477 0.589512
O O12 0.250000 0.932787 0.665511
O O13 0.515413 0.000000 0.662342
O O14 0.250000 0.585040 0.899038
O O15 0.479692 0.500000 0.889202
O O16 0.532686 0.621710 0.841080
O O17 0.500000 0.589190 0.000000
O O18 0.500000 0.355318 0.500000
O O19 0.250000 0.326638 0.585506
O O20 0.487731 0.343475 0.686037
O O21 0.750000 0.690956 0.760741
#
# Coordination Sequence:
#
# PCOD9404479 Si02
#       7
#     8   8   8   8   8   8   8
#     4   9  18  34  55  74  94 129 179 231 283 341
#     4  11  24  38  54  79 111 146 186 235 288 344
#     4   9  17  28  43  64  91 125 164 210 267 328
#     4   8  14  26  44  64  86 116 158 207 261 325
#     4  10  21  38  62  93 128 165 202 238 281 337
#     4  10  20  35  56  81 111 148 190 238 289 341
#     4  11  23  38  59  88 120 155 196 241 290 343
#
# _framework density 20.546088000000001
#
# number of rings (size 3 to 8) (size 9 to 14) (size 15 to 20)
#    0.000    2.286    0.000    3.857    0.000    6.857 
#    0.000    0.714    0.000    1.286    0.000    0.000 
#    0.000    0.000    0.000    0.000    0.000    0.429 
#
# Total GULP energy -311739.220066 kJ/mol
# GULP energy per Si atom -5566.771787 kJ/mol
# Density = 2.049932 g / cm^3
# Si number density = 20.546088 Si / 1000 Ang^3
#
#
#
# Elastic Constant Matrix: (Units=GPa)
#
#
# Indices 1 2 3 4 5 6 
#
# 1 34.6521 7.3088 16.4412 0.0000 0.0000 0.0000
# 2 7.3088 49.1984 30.0074 0.0000 0.0000 0.0000
# 3 16.4412 30.0074 110.0295 0.0000 0.0000 0.0000
# 4 0.0000 0.0000 0.0000 17.3727 0.0000 0.0000
# 5 0.0000 0.0000 0.0000 0.0000 30.8993 0.0000
# 6 0.0000 0.0000 0.0000 0.0000 0.0000 13.1559
#
#
#
# Elastic Compliance Matrix: (Units=1/GPa)
#
#
# Indices 1 2 3 4 5 6 
#
# 1 0.031249 -0.002152 -0.004082 0.000000 0.000000 0.000000
# 2 -0.002152 0.024530 -0.006368 0.000000 0.000000 0.000000
# 3 -0.004082 -0.006368 0.011435 0.000000 0.000000 0.000000
# 4 0.000000 0.000000 0.000000 0.057562 0.000000 0.000000
# 5 0.000000 0.000000 0.000000 0.000000 0.032363 0.000000
# 6 0.000000 0.000000 0.000000 0.000000 0.000000 0.076012
#
#
# Mechanical properties :
#
#
# Convention : Reuss Voigt Hill
#
# Bulk Modulus (GPa) = 23.80484 33.48832 28.64658
# Shear Modulus (GPa) = 18.35811 21.62707 19.99259
#
# Velocity S-wave (km/s) = 2.99240 3.24792 3.12278
# Velocity P-wave (km/s) = 4.85289 5.51360 5.19376
#
# Compressibility (1/GPa) = 0.04200827
#
# Stress axis : x y z
#
# Youngs Moduli (GPa) = 32.00080 40.76684 87.44907
#
# Poissons Ratio (x) = 0.08774 0.35701
# Poissons Ratio (y) = 0.06888 0.55689
# Poissons Ratio (z) = 0.13064 0.25961
#
# Static dielectric constant tensor:
#      x y z
#    x 1.711770 0.000000 0.000000 
#    y 0.000000 1.771980 0.000000 
#    z 0.000000 0.000000 1.804330 
# 
# From -- ./inp_files/21823.got.cif
#   From: 2010.05.17/outbox.cif.g08.bks.cpg/sg51_11_cif.got.tgz:21823.got - 2010.06.03 11:52:47.
