data_PCOD9404587
_publ_section_title
;
Structure prediction by ZEFSAII (Michael W. Deem and Ramdas Pophale) SiO2 
 PCOD9404587
Probable space group: P M M A
;
_chemical_formula_sum "Si O2"
_cell_formula_units_Z 58
_cell_length_a 27.487587
_cell_length_b 7.570110
_cell_length_c 12.246019
_cell_angle_alpha 90.000000
_cell_angle_beta 90.000000
_cell_angle_gamma 90.000000
_cell_volume 2548.201318
_symmetry_space_group_name_H-M "P M M A"
_symmetry_group_IT_number 51
_symmetry_cell_setting 'orthorhombic'
loop_
_space_group_symop_operation_xyz
x,y,z
1/2-x,-y,z
1/2+x,-y,-z
-x,y,-z
-x,-y,-z
1/2+x,y,-z
1/2-x,y,z
x,-y,z
loop_
_atom_site_type_symbol
_atom_site_label
_atom_site_fract_x
_atom_site_fract_y
_atom_site_fract_z
Si Si1 0.119103 0.298236 0.457452
Si Si2 0.047589 0.209898 0.064250
Si Si3 0.193905 0.715907 0.276007
Si Si4 0.026640 0.789809 0.320158
Si Si5 0.580785 0.799803 0.315942
Si Si6 0.341878 0.702857 0.039802
Si Si7 0.172741 0.204130 0.802033
Si Si8 0.250000 0.500000 0.740593
O O1 0.132647 0.500000 0.483918
O O2 0.159285 0.223624 0.374340
O O3 0.068210 0.295629 0.392751
O O4 0.110232 0.202799 0.571239
O O5 0.039091 0.232856 0.193103
O O6 0.099664 0.289962 0.035904
O O7 0.051650 0.000000 0.041175
O O8 0.000000 0.275752 0.000000
O O9 0.250000 0.764451 0.291236
O O10 0.190683 0.500000 0.275683
O O11 0.174866 0.775265 0.157330
O O12 0.972051 0.718294 0.336038
O O13 0.028137 0.000000 0.347542
O O14 0.617663 0.732739 0.224993
O O15 0.569228 0.000000 0.281043
O O16 0.325137 0.500000 0.034059
O O17 0.320709 0.793068 0.932524
O O18 0.208201 0.343574 0.747538
O O19 0.178035 0.000000 0.764511
#
# Coordination Sequence:
#
# PCOD9404587 Si02
#       8
#     8   8   8   8   8   8   8   2
#     4  11  22  38  61  93 126 165 219 279 334 394
#     4  10  20  35  57  87 126 174 220 268 333 404
#     4   9  20  38  60  87 124 168 211 266 334 395
#     4  10  20  37  61  88 127 174 218 267 332 403
#     4  10  23  43  65  91 127 172 219 269 331 398
#     4  11  21  37  65  94 131 168 215 271 329 398
#     4  11  25  46  70 100 135 173 222 279 335 400
#     4  12  26  48  72 102 130 176 226 278 340 404
#
# _framework density 22.761153
#
# number of rings (size 3 to 8) (size 9 to 14) (size 15 to 20)
#    0.000    1.655    2.069    2.276    1.931    4.690 
#    1.241    0.000    0.000    4.552    0.000    0.000 
#    0.000    0.000    0.000    0.000    0.000    0.000 
#
# Total GULP energy -323711.121916 kJ/mol
# GULP energy per Si atom -5581.226240 kJ/mol
# Density = 2.270935 g / cm^3
# Si number density = 22.761153 Si / 1000 Ang^3
#
#
#
# Elastic Constant Matrix: (Units=GPa)
#
#
# Indices 1 2 3 4 5 6 
#
# 1 116.1052 7.4133 16.5599 0.0000 0.0000 0.0000
# 2 7.4133 75.2951 5.3897 0.0000 0.0000 0.0000
# 3 16.5599 5.3897 59.4886 0.0000 0.0000 0.0000
# 4 0.0000 0.0000 0.0000 31.5112 0.0000 0.0000
# 5 0.0000 0.0000 0.0000 0.0000 93.5537 0.0000
# 6 0.0000 0.0000 0.0000 0.0000 0.0000 27.2600
#
#
#
# Elastic Compliance Matrix: (Units=1/GPa)
#
#
# Indices 1 2 3 4 5 6 
#
# 1 0.009007 -0.000712 -0.002443 0.000000 0.000000 0.000000
# 2 -0.000712 0.013424 -0.001018 0.000000 0.000000 0.000000
# 3 -0.002443 -0.001018 0.017582 0.000000 0.000000 0.000000
# 4 0.000000 0.000000 0.000000 0.031735 0.000000 0.000000
# 5 0.000000 0.000000 0.000000 0.000000 0.010689 0.000000
# 6 0.000000 0.000000 0.000000 0.000000 0.000000 0.036684
#
#
# Mechanical properties :
#
#
# Convention : Reuss Voigt Hill
#
# Bulk Modulus (GPa) = 31.57804 34.40163 32.98984
# Shear Modulus (GPa) = 36.22616 45.23336 40.72976
#
# Velocity S-wave (km/s) = 3.99379 4.46276 4.23477
# Velocity P-wave (km/s) = 5.93051 6.45770 6.19971
#
# Compressibility (1/GPa) = 0.03166757
#
# Stress axis : x y z
#
# Youngs Moduli (GPa) = 111.02800 74.49324 56.87585
#
# Poissons Ratio (x) = 0.05303 0.13893
# Poissons Ratio (y) = 0.07904 0.05790
# Poissons Ratio (z) = 0.27121 0.07584
#
# Static dielectric constant tensor:
#      x y z
#    x 1.829290 0.000000 0.000000 
#    y 0.000000 1.864870 0.000000 
#    z 0.000000 0.000000 1.823400 
# 
# From -- ./inp_files/19158.got.cif
#   From: 2010.05.17/outbox.cif.g08.bks.cpg/sg51_10_cif.got.tgz:19158.got - 2010.06.03 11:52:47.
