data_PCOD9404313
_publ_section_title
;
Structure prediction by ZEFSAII (Michael W. Deem and Ramdas Pophale) SiO2 
 PCOD9404313
Probable space group: P M M A
;
_chemical_formula_sum "Si O2"
_cell_formula_units_Z 48
_cell_length_a 8.174241
_cell_length_b 10.413249
_cell_length_c 28.279129
_cell_angle_alpha 90.000000
_cell_angle_beta 90.000000
_cell_angle_gamma 90.000000
_cell_volume 2407.130968
_symmetry_space_group_name_H-M "P M M A"
_symmetry_group_IT_number 51
_symmetry_cell_setting 'orthorhombic'
loop_
_space_group_symop_operation_xyz
x,y,z
1/2-x,-y,z
1/2+x,-y,-z
-x,y,-z
-x,-y,-z
1/2+x,y,-z
1/2-x,y,z
x,-y,z
loop_
_atom_site_type_symbol
_atom_site_label
_atom_site_fract_x
_atom_site_fract_y
_atom_site_fract_z
Si Si1 0.945460 0.145223 0.553355
Si Si2 0.947340 0.644503 0.371145
Si Si3 0.054256 0.000000 0.229248
Si Si4 0.446718 0.500000 0.088798
Si Si5 0.947120 0.273452 0.266818
Si Si6 0.551683 0.500000 0.197380
Si Si7 0.949969 0.000000 0.879052
Si Si8 0.447454 0.773246 0.052418
O O1 0.750000 0.142477 0.554381
O O2 0.000000 0.176222 0.500000
O O3 0.003781 0.250121 0.590585
O O4 0.006242 0.000000 0.564314
O O5 0.750000 0.641366 0.369549
O O6 0.004600 0.500000 0.382642
O O7 0.005643 0.683505 0.318658
O O8 0.997308 0.870553 0.254595
O O9 0.250000 0.000000 0.228293
O O10 0.993476 0.000000 0.174935
O O11 0.250000 0.500000 0.084225
O O12 0.488102 0.500000 0.144179
O O13 0.508913 0.630414 0.064663
O O14 0.750000 0.280179 0.267455
O O15 0.002720 0.374391 0.226795
O O16 0.750000 0.500000 0.195909
O O17 0.003039 0.125307 0.908176
O O18 0.750000 0.000000 0.878365
O O19 0.250000 0.771767 0.053762
O O20 0.500000 0.811937 0.000000
#
# Coordination Sequence:
#
# PCOD9404313 Si02
#       8
#     8   8   4   4   8   4   4   8
#     4  10  22  40  62  90 123 157 198 245 291 342
#     4  10  21  39  62  86 116 157 199 238 290 349
#     4  11  23  38  58  84 115 151 192 234 283 346
#     4  10  21  35  53  78 110 145 179 220 279 342
#     4  10  21  39  59  84 116 152 192 239 290 340
#     4  10  20  37  61  84 112 149 194 240 282 334
#     4   9  19  36  54  74 104 141 177 220 277 336
#     4  10  20  35  54  76 104 138 177 223 275 333
#
# _framework density 19.940750000000001
#
# number of rings (size 3 to 8) (size 9 to 14) (size 15 to 20)
#    0.000    2.000    0.833    2.250    1.167    5.000 
#    0.000    1.667    0.000    0.000    0.000    0.000 
#    0.000    0.000    0.000    0.000    0.000    0.000 
#
# Total GULP energy -268183.902716 kJ/mol
# GULP energy per Si atom -5587.164640 kJ/mol
# Density = 1.989536 g / cm^3
# Si number density = 19.940750 Si / 1000 Ang^3
#
#
#
# Elastic Constant Matrix: (Units=GPa)
#
#
# Indices 1 2 3 4 5 6 
#
# 1 9.0806 6.2990 2.5755 0.0000 0.0000 0.0000
# 2 6.2990 118.9410 44.9533 0.0000 0.0000 0.0000
# 3 2.5755 44.9533 102.2383 0.0000 0.0000 0.0000
# 4 0.0000 0.0000 0.0000 45.1975 0.0000 0.0000
# 5 0.0000 0.0000 0.0000 0.0000 31.5795 0.0000
# 6 0.0000 0.0000 0.0000 0.0000 0.0000 6.0105
#
#
#
# Elastic Compliance Matrix: (Units=1/GPa)
#
#
# Indices 1 2 3 4 5 6 
#
# 1 0.114330 -0.005956 -0.000261 0.000000 0.000000 0.000000
# 2 -0.005956 0.010393 -0.004420 0.000000 0.000000 0.000000
# 3 -0.000261 -0.004420 0.011731 0.000000 0.000000 0.000000
# 4 0.000000 0.000000 0.000000 0.022125 0.000000 0.000000
# 5 0.000000 0.000000 0.000000 0.000000 0.031666 0.000000
# 6 0.000000 0.000000 0.000000 0.000000 0.000000 0.166376
#
#
# Mechanical properties :
#
#
# Convention : Reuss Voigt Hill
#
# Bulk Modulus (GPa) = 8.68205 37.54615 23.11410
# Shear Modulus (GPa) = 12.01087 28.31963 20.16525
#
# Velocity S-wave (km/s) = 2.45690 3.77263 3.18348
# Velocity P-wave (km/s) = 3.52304 6.15197 5.01291
#
# Compressibility (1/GPa) = 0.11518020
#
# Stress axis : x y z
#
# Youngs Moduli (GPa) = 8.74660 96.21469 85.24403
#
# Poissons Ratio (x) = 0.57306 0.02228
# Poissons Ratio (y) = 0.05209 0.37677
# Poissons Ratio (z) = 0.00229 0.42526
#
# Static dielectric constant tensor:
#      x y z
#    x 1.699490 0.000000 0.000000 
#    y 0.000000 1.699890 0.000000 
#    z 0.000000 0.000000 1.661300 
# 
# From -- ./inp_files/37268.got.cif
#   From: 2010.05.17/outbox.cif.g08.bks.cpg/sg51_19_cif.got.tgz:37268.got - 2010.06.03 11:52:47.
