data_PCOD9404364
_publ_section_title
;
Structure prediction by ZEFSAII (Michael W. Deem and Ramdas Pophale) SiO2 
 PCOD9404364
Probable space group: P M M A
;
_chemical_formula_sum "Si O2"
_cell_formula_units_Z 48
_cell_length_a 27.669485
_cell_length_b 7.791781
_cell_length_c 10.659956
_cell_angle_alpha 90.000000
_cell_angle_beta 90.000000
_cell_angle_gamma 90.000000
_cell_volume 2298.228603
_symmetry_space_group_name_H-M "P M M A"
_symmetry_group_IT_number 51
_symmetry_cell_setting 'orthorhombic'
loop_
_space_group_symop_operation_xyz
x,y,z
1/2-x,-y,z
1/2+x,-y,-z
-x,y,-z
-x,-y,-z
1/2+x,y,-z
1/2-x,y,z
x,-y,z
loop_
_atom_site_type_symbol
_atom_site_label
_atom_site_fract_x
_atom_site_fract_y
_atom_site_fract_z
Si Si1 0.304960 0.793911 0.629190
Si Si2 0.860451 0.704647 0.625148
Si Si3 0.528858 0.710366 0.623960
Si Si4 0.025487 0.706210 0.874015
Si Si5 0.138159 0.792639 0.874659
Si Si6 0.805024 0.205856 0.879668
O O1 0.250000 0.727749 0.627596
O O2 0.332035 0.756832 0.499696
O O3 0.334787 0.729461 0.749443
O O4 0.302361 0.000000 0.641239
O O5 0.862937 0.500000 0.626421
O O6 0.915641 0.769524 0.623253
O O7 0.832399 0.758834 0.750188
O O8 0.500000 0.764206 0.500000
O O9 0.529123 0.500000 0.624154
O O10 0.501214 0.768888 0.748844
O O11 0.020260 0.500000 0.874110
O O12 0.082080 0.745358 0.873394
O O13 0.000000 0.772931 0.000000
O O14 0.140846 0.000000 0.874849
O O15 0.164947 0.729333 0.000351
O O16 0.750000 0.272314 0.877481
O O17 0.802184 0.000000 0.892648
#
# Coordination Sequence:
#
# PCOD9404364 Si02
#       6
#     8   8   8   8   8   8
#     4  10  21  38  58  80 110 147 183 222 274 332
#     4  11  22  36  57  84 111 141 182 229 271 317
#     4   9  18  33  52  74 103 140 177 213 260 319
#     4  10  20  35  55  78 107 144 181 218 269 328
#     4  10  21  37  58  83 109 141 185 231 270 315
#     4  10  21  38  58  79 108 147 184 219 268 328
#
# _framework density 20.885649999999998
#
# number of rings (size 3 to 8) (size 9 to 14) (size 15 to 20)
#    0.000    2.000    0.000    3.500    0.000    9.000 
#    0.000    1.667    0.000    7.500    0.000    0.000 
#    0.000    0.000    0.000    0.000    0.000    0.000 
#
# Total GULP energy -268306.322782 kJ/mol
# GULP energy per Si atom -5589.715058 kJ/mol
# Density = 2.083811 g / cm^3
# Si number density = 20.885650 Si / 1000 Ang^3
#
#
#
# Elastic Constant Matrix: (Units=GPa)
#
#
# Indices 1 2 3 4 5 6 
#
# 1 247.1585 0.0064 152.4690 0.0000 0.0000 0.0000
# 2 0.0064 25.2630 2.1394 0.0000 0.0000 0.0000
# 3 152.4690 2.1394 250.5205 0.0000 0.0000 0.0000
# 4 0.0000 0.0000 0.0000 -51.0288 0.0000 0.0000
# 5 0.0000 0.0000 0.0000 0.0000 49.7442 0.0000
# 6 0.0000 0.0000 0.0000 0.0000 0.0000 28.8430
#
#
#
# Elastic Compliance Matrix: (Units=1/GPa)
#
#
# Indices 1 2 3 4 5 6 
#
# 1 0.006481 0.000333 -0.003947 0.000000 0.000000 0.000000
# 2 0.000333 0.039629 -0.000541 0.000000 0.000000 0.000000
# 3 -0.003947 -0.000541 0.006399 0.000000 0.000000 0.000000
# 4 0.000000 0.000000 0.000000 -0.019597 0.000000 0.000000
# 5 0.000000 0.000000 0.000000 0.000000 0.020103 0.000000
# 6 0.000000 0.000000 0.000000 0.000000 0.000000 0.034670
#
#
# Mechanical properties :
#
#
# Convention : Reuss Voigt Hill
#
# Bulk Modulus (GPa) = 22.62545 92.46352 57.54448
# Shear Modulus (GPa) = 45.15526 30.06682 37.61104
#
# Velocity S-wave (km/s) = 4.65480 3.79831 4.24820
# Velocity P-wave (km/s) = 6.30445 7.97519 7.18852
#
# Compressibility (1/GPa) = 0.04419802
#
# Stress axis : x y z
#
# Youngs Moduli (GPa) = 154.29810 25.23382 156.28384
#
# Poissons Ratio (x) = -0.00839 0.61689
# Poissons Ratio (y) = -0.05132 0.08453
# Poissons Ratio (z) = 0.60905 0.01365
#
# Static dielectric constant tensor:
#      x y z
#    x 1.711890 0.000000 0.000000 
#    y 0.000000 1.771370 0.000000 
#    z 0.000000 0.000000 1.727850 
# 
# From -- ./inp_files/12791.got.cif
#   From: 2010.05.17/outbox.cif.g08.bks.cpg/sg51_7_cif.got.tgz:12791.got - 2010.06.03 11:52:47.
