data_PCOD9404452
_publ_section_title
;
Structure prediction by ZEFSAII (Michael W. Deem and Ramdas Pophale) SiO2 
 PCOD9404452
Probable space group: P M M A
;
_chemical_formula_sum "Si O2"
_cell_formula_units_Z 64
_cell_length_a 21.447051
_cell_length_b 8.751496
_cell_length_c 16.909188
_cell_angle_alpha 90.000000
_cell_angle_beta 90.000000
_cell_angle_gamma 90.000000
_cell_volume 3173.749430
_symmetry_space_group_name_H-M "P M M A"
_symmetry_group_IT_number 51
_symmetry_cell_setting 'orthorhombic'
loop_
_space_group_symop_operation_xyz
x,y,z
1/2-x,-y,z
1/2+x,-y,-z
-x,y,-z
-x,-y,-z
1/2+x,y,-z
1/2-x,y,z
x,-y,z
loop_
_atom_site_type_symbol
_atom_site_label
_atom_site_fract_x
_atom_site_fract_y
_atom_site_fract_z
Si Si1 0.928892 0.180796 0.514300
Si Si2 0.820826 0.314962 0.403380
Si Si3 0.912794 0.822913 0.941205
Si Si4 0.995976 0.318121 0.177409
Si Si5 0.182391 0.683764 0.941375
Si Si6 0.594056 0.677706 0.680520
Si Si7 0.640629 0.685791 0.228075
Si Si8 0.822828 0.676130 0.819012
O O1 0.876133 0.256018 0.459268
O O2 0.913431 0.217870 0.605077
O O3 0.000000 0.237278 0.500000
O O4 0.928226 0.000000 0.499520
O O5 0.750000 0.268183 0.425797
O O6 0.822254 0.500000 0.404835
O O7 0.834771 0.263431 0.313100
O O8 0.975149 0.754377 0.901777
O O9 0.861267 0.790824 0.872902
O O10 0.921732 0.000000 0.956556
O O11 0.879022 0.745093 0.015512
O O12 0.991895 0.500000 0.163896
O O13 0.042806 0.293603 0.251170
O O14 0.929131 0.261661 0.206858
O O15 0.250000 0.734405 0.974695
O O16 0.180565 0.500000 0.947744
O O17 0.180054 0.725891 0.849130
O O18 0.588169 0.500000 0.655959
O O19 0.658485 0.697435 0.727855
O O20 0.639527 0.500000 0.231908
O O21 0.750000 0.688669 0.831220
O O22 0.842391 0.500000 0.839700
#
# Coordination Sequence:
#
# PCOD9404452 Si02
#       8
#     8   8   8   8   8   8   8   8
#     4  11  24  39  56  82 117 155 192 230 277 337
#     4  10  21  39  64  91 117 147 189 242 295 345
#     4  11  22  34  50  76 111 146 182 223 266 318
#     4   9  18  35  58  82 109 141 179 224 275 329
#     4  10  20  35  56  80 107 140 179 224 274 328
#     4   9  18  33  55  82 108 137 177 224 273 325
#     4   9  18  35  61  87 107 135 181 233 280 330
#     4   9  18  34  55  77 103 136 174 217 267 322
#
# _framework density 20.165422
#
# number of rings (size 3 to 8) (size 9 to 14) (size 15 to 20)
#    0.000    2.250    0.000    3.750    0.000    8.750 
#    0.000    5.625    0.000    1.500    0.000    0.000 
#    0.000    0.000    0.000    0.000    0.000    0.000 
#
# Total GULP energy -357165.027627 kJ/mol
# GULP energy per Si atom -5580.703557 kJ/mol
# Density = 2.011953 g / cm^3
# Si number density = 20.165422 Si / 1000 Ang^3
#
#
#
# Elastic Constant Matrix: (Units=GPa)
#
#
# Indices 1 2 3 4 5 6 
#
# 1 128.3345 27.5556 36.9617 0.0000 0.0000 0.0000
# 2 27.5556 30.6211 25.0940 0.0000 0.0000 0.0000
# 3 36.9617 25.0940 79.0233 0.0000 0.0000 0.0000
# 4 0.0000 0.0000 0.000023332.5816 0.0000 0.0000
# 5 0.0000 0.0000 0.0000 0.0000 19.7111 0.0000
# 6 0.0000 0.0000 0.0000 0.0000 0.0000 13.8823
#
#
#
# Elastic Compliance Matrix: (Units=1/GPa)
#
#
# Indices 1 2 3 4 5 6 
#
# 1 0.010000 -0.006983 -0.002460 0.000000 0.000000 0.000000
# 2 -0.006983 0.049022 -0.012301 0.000000 0.000000 0.000000
# 3 -0.002460 -0.012301 0.017711 0.000000 0.000000 0.000000
# 4 0.000000 0.000000 0.000000 0.000043 0.000000 0.000000
# 5 0.000000 0.000000 0.000000 0.000000 0.050733 0.000000
# 6 0.000000 0.000000 0.000000 0.000000 0.000000 0.072034
#
#
# Mechanical properties :
#
#
# Convention : Reuss Voigt Hill
#
# Bulk Modulus (GPa) = 30.07920 46.35572 38.21746
# Shear Modulus (GPa) = 19.67639 4683.12619 2351.40129
#
# Velocity S-wave (km/s) = 3.12709 48.24310 34.18461
# Velocity P-wave (km/s) = 5.29026 55.91272 39.71284
#
# Compressibility (1/GPa) = 0.03324556
#
# Stress axis : x y z
#
# Youngs Moduli (GPa) = 100.00033 20.39919 56.46162
#
# Poissons Ratio (x) = 0.14245 0.13889
# Poissons Ratio (y) = 0.69830 0.69452
# Poissons Ratio (z) = 0.24598 0.25092
#
# Static dielectric constant tensor:
#      x y z
#    x 1.756960 0.000000 0.000000 
#    y 0.000000 1.696540 0.000000 
#    z 0.000000 0.000000 1.711020 
# 
# From -- ./inp_files/26325.got.cif
#   From: 2010.05.17/outbox.cif.g08.bks.cpg/sg51_14_cif.got.tgz:26325.got - 2010.06.03 11:52:47.
