data_PCOD9404985
_publ_section_title
;
Structure prediction by ZEFSAII (Michael W. Deem and Ramdas Pophale) SiO2 
 PCOD9404985
Probable space group: P M M A
;
_chemical_formula_sum "Si O2"
_cell_formula_units_Z 64
_cell_length_a 8.658211
_cell_length_b 26.872695
_cell_length_c 14.822380
_cell_angle_alpha 90.000000
_cell_angle_beta 90.000000
_cell_angle_gamma 90.000000
_cell_volume 3448.715202
_symmetry_space_group_name_H-M "P M M A"
_symmetry_group_IT_number 51
_symmetry_cell_setting 'orthorhombic'
loop_
_space_group_symop_operation_xyz
x,y,z
1/2-x,-y,z
1/2+x,-y,-z
-x,y,-z
-x,-y,-z
1/2+x,y,-z
1/2-x,y,z
x,-y,z
loop_
_atom_site_type_symbol
_atom_site_label
_atom_site_fract_x
_atom_site_fract_y
_atom_site_fract_z
Si Si1 0.065098 0.057323 0.100070
Si Si2 0.564721 0.183073 0.404342
Si Si3 0.434006 0.555056 0.784416
Si Si4 0.422288 0.559247 0.409297
Si Si5 0.435764 0.852036 0.788565
Si Si6 0.934780 0.757875 0.898890
Si Si7 0.561966 0.337028 0.207423
Si Si8 0.564545 0.700965 0.402868
O O1 0.250000 0.062245 0.098374
O O2 0.993824 0.097249 0.167320
O O3 0.026398 0.000000 0.123201
O O4 0.000000 0.067049 0.000000
O O5 0.500000 0.165732 0.500000
O O6 0.750000 0.182142 0.408982
O O7 0.515807 0.153256 0.315855
O O8 0.519040 0.240992 0.390945
O O9 0.250000 0.553152 0.796647
O O10 0.496823 0.500000 0.811005
O O11 0.471621 0.562180 0.678594
O O12 0.488184 0.607727 0.825086
O O13 0.500000 0.578921 0.500000
O O14 0.250000 0.579883 0.394276
O O15 0.404629 0.500000 0.423243
O O16 0.250000 0.849249 0.793028
O O17 0.503350 0.805179 0.843101
O O18 0.750000 0.758659 0.900557
O O19 0.994045 0.707509 0.851245
O O20 0.000000 0.760411 0.000000
O O21 0.750000 0.334591 0.204233
O O22 0.515487 0.327810 0.312359
O O23 0.500000 0.685641 0.500000
O O24 0.750000 0.697984 0.406930
#
# Coordination Sequence:
#
# PCOD9404985 Si02
#       8
#     8   8   8   8   8   8   8   8
#     4  10  21  37  57  85 121 160 202 246 291 340
#     4   9  18  32  52  78 111 149 188 231 278 328
#     4   9  18  32  51  73  97 131 172 214 267 328
#     4   9  16  26  41  61  89 125 165 210 256 306
#     4  11  21  37  60  87 120 155 194 237 284 335
#     4  12  25  40  60  85 113 144 180 223 278 338
#     4  10  20  37  56  77 110 143 176 224 276 330
#     4   9  17  31  49  72 104 142 181 222 270 321
#
# _framework density 18.557637
#
# number of rings (size 3 to 8) (size 9 to 14) (size 15 to 20)
#    0.000    2.125    1.250    2.625    0.000    4.750 
#    0.000    1.250    0.000    0.750    0.000    0.000 
#    0.000    0.000    0.000    0.000    0.000    0.000 
#
# Total GULP energy -357075.662149 kJ/mol
# GULP energy per Si atom -5579.307221 kJ/mol
# Density = 1.851540 g / cm^3
# Si number density = 18.557637 Si / 1000 Ang^3
#
#
#
# Elastic Constant Matrix: (Units=GPa)
#
#
# Indices 1 2 3 4 5 6 
#
# 1 35.6532 41.2572 33.3806 0.0000 0.0000 0.0000
# 2 41.2572 142.1139 83.0275 0.0000 0.0000 0.0000
# 3 33.3806 83.0275 115.5605 0.0000 0.0000 0.0000
# 4 0.0000 0.0000 0.0000 -76.1117 0.0000 0.0000
# 5 0.0000 0.0000 0.0000 0.0000 28.9477 0.0000
# 6 0.0000 0.0000 0.0000 0.0000 0.0000 29.0851
#
#
#
# Elastic Compliance Matrix: (Units=1/GPa)
#
#
# Indices 1 2 3 4 5 6 
#
# 1 0.044658 -0.009355 -0.006178 0.000000 0.000000 0.000000
# 2 -0.009355 0.014087 -0.007419 0.000000 0.000000 0.000000
# 3 -0.006178 -0.007419 0.015768 0.000000 0.000000 0.000000
# 4 0.000000 0.000000 0.000000 -0.013139 0.000000 0.000000
# 5 0.000000 0.000000 0.000000 0.000000 0.034545 0.000000
# 6 0.000000 0.000000 0.000000 0.000000 0.000000 0.034382
#
#
# Mechanical properties :
#
#
# Convention : Reuss Voigt Hill
#
# Bulk Modulus (GPa) = 34.95434 67.62869 51.29151
# Shear Modulus (GPa) = 26.91901 5.42836 16.17369
#
# Velocity S-wave (km/s) = 3.81276 1.71216 2.95539
# Velocity P-wave (km/s) = 6.18541 6.35848 6.27254
#
# Compressibility (1/GPa) = 0.02860875
#
# Stress axis : x y z
#
# Youngs Moduli (GPa) = 22.39232 70.98884 63.41827
#
# Poissons Ratio (x) = 0.66411 0.39183
# Poissons Ratio (y) = 0.20948 0.47048
# Poissons Ratio (z) = 0.13835 0.52664
#
# Static dielectric constant tensor:
#      x y z
#    x 1.643800 0.000000 0.000000 
#    y 0.000000 1.671650 0.000000 
#    z 0.000000 0.000000 1.622930 
# 
# From -- ./inp_files/22369.got.cif
#   From: 2010.05.17/outbox.cif.g08.bks.cpg/sg51_12_cif.got.tgz:22369.got - 2010.06.03 11:52:47.
