data_PCOD9404660
_publ_section_title
;
Structure prediction by ZEFSAII (Michael W. Deem and Ramdas Pophale) SiO2 
 PCOD9404660
Probable space group: P M M A
;
_chemical_formula_sum "Si O2"
_cell_formula_units_Z 58
_cell_length_a 22.583705
_cell_length_b 15.699384
_cell_length_c 9.191433
_cell_angle_alpha 90.000000
_cell_angle_beta 90.000000
_cell_angle_gamma 90.000000
_cell_volume 3258.824932
_symmetry_space_group_name_H-M "P M M A"
_symmetry_group_IT_number 51
_symmetry_cell_setting 'orthorhombic'
loop_
_space_group_symop_operation_xyz
x,y,z
1/2-x,-y,z
1/2+x,-y,-z
-x,y,-z
-x,-y,-z
1/2+x,y,-z
1/2-x,y,z
x,-y,z
loop_
_atom_site_type_symbol
_atom_site_label
_atom_site_fract_x
_atom_site_fract_y
_atom_site_fract_z
Si Si1 0.319952 0.251907 0.905079
Si Si2 0.183755 0.098386 0.447452
Si Si3 0.590704 0.660922 0.522670
Si Si4 0.180495 0.405951 0.702100
Si Si5 0.480420 0.902451 0.168406
Si Si6 0.091228 0.824731 0.668960
Si Si7 0.000000 0.500000 0.500000
Si Si8 0.129867 0.221250 0.222293
O O1 0.250000 0.229155 0.889500
O O2 0.328032 0.346745 0.841556
O O3 0.364354 0.198729 0.801631
O O4 0.340601 0.246394 0.070661
O O5 0.250000 0.109967 0.510966
O O6 0.131614 0.121093 0.559098
O O7 0.174939 0.164560 0.316959
O O8 0.178877 0.000000 0.400931
O O9 0.650038 0.634391 0.437619
O O10 0.569418 0.740107 0.419134
O O11 0.549713 0.577520 0.526326
O O12 0.606771 0.700664 0.678689
O O13 0.250000 0.410142 0.675982
O O14 0.155905 0.500000 0.727178
O O15 0.535208 0.874036 0.268310
O O16 0.426162 0.839394 0.192987
O O17 0.463750 0.000000 0.200525
O O18 0.500000 0.897368 0.000000
#
# Coordination Sequence:
#
# PCOD9404660 Si02
#       8
#     8   8   8   8   8   8   2   8
#     4  10  20  35  60  85 114 152 189 234 288 345
#     4  10  21  37  59  88 121 151 189 242 291 343
#     4  10  22  35  62  82 114 149 182 234 288 339
#     4   9  18  37  60  84 110 145 190 232 278 338
#     4  11  22  37  58  81 113 155 199 245 282 331
#     4  10  20  39  60  85 112 153 198 235 282 342
#     4  12  20  40  54  86 110 140 196 232 280 344
#     4  11  22  39  56  86 119 155 191 235 296 349
#
# _framework density 17.797826000000001
#
# number of rings (size 3 to 8) (size 9 to 14) (size 15 to 20)
#    0.000    1.793    2.069    2.483    0.000    5.517 
#    1.241    3.448    0.000    4.966    0.000    0.000 
#    0.000    0.000    0.000    0.000    0.000    0.000 
#
# Total GULP energy -322956.725786 kJ/mol
# GULP energy per Si atom -5568.219410 kJ/mol
# Density = 1.775732 g / cm^3
# Si number density = 17.797826 Si / 1000 Ang^3
#
#
#
# Elastic Constant Matrix: (Units=GPa)
#
#
# Indices 1 2 3 4 5 6 
#
# 1 68.4865 39.8760 19.5216 0.0000 0.0000 0.0000
# 2 39.8760 108.9472 35.0665 0.0000 0.0000 0.0000
# 3 19.5216 35.0665 82.3336 0.0000 0.0000 0.0000
# 4 0.0000 0.0000 0.0000 10.8925 0.0000 0.0000
# 5 0.0000 0.0000 0.0000 0.0000 25.0645 0.0000
# 6 0.0000 0.0000 0.0000 0.0000 0.0000 31.2616
#
#
#
# Elastic Compliance Matrix: (Units=1/GPa)
#
#
# Indices 1 2 3 4 5 6 
#
# 1 0.018775 -0.006303 -0.001767 0.000000 0.000000 0.000000
# 2 -0.006303 0.012753 -0.003937 0.000000 0.000000 0.000000
# 3 -0.001767 -0.003937 0.014242 0.000000 0.000000 0.000000
# 4 0.000000 0.000000 0.000000 0.091806 0.000000 0.000000
# 5 0.000000 0.000000 0.000000 0.000000 0.039897 0.000000
# 6 0.000000 0.000000 0.000000 0.000000 0.000000 0.031988
#
#
# Mechanical properties :
#
#
# Convention : Reuss Voigt Hill
#
# Bulk Modulus (GPa) = 45.96650 49.85504 47.91077
# Shear Modulus (GPa) = 20.77036 24.46392 22.61714
#
# Velocity S-wave (km/s) = 3.41987 3.71151 3.56867
# Velocity P-wave (km/s) = 6.44027 6.81467 6.63011
#
# Compressibility (1/GPa) = 0.02175497
#
# Stress axis : x y z
#
# Youngs Moduli (GPa) = 53.26205 78.41293 70.21713
#
# Poissons Ratio (x) = 0.49425 0.12408
# Poissons Ratio (y) = 0.33572 0.27645
# Poissons Ratio (z) = 0.09412 0.30872
#
# Static dielectric constant tensor:
#      x y z
#    x 1.614960 0.000000 0.000000 
#    y 0.000000 1.616400 0.000000 
#    z 0.000000 0.000000 1.590680 
# 
# From -- ./inp_files/11845.got.cif
#   From: 2010.05.17/outbox.cif.g08.bks.cpg/sg51_6_cif.got.tgz:11845.got - 2010.06.03 11:52:47.
