data_PCOD9404463
_publ_section_title
;
Structure prediction by ZEFSAII (Michael W. Deem and Ramdas Pophale) SiO2 
 PCOD9404463
Probable space group: P M M A
;
_chemical_formula_sum "Si O2"
_cell_formula_units_Z 56
_cell_length_a 19.624442
_cell_length_b 8.498567
_cell_length_c 18.398968
_cell_angle_alpha 90.000000
_cell_angle_beta 90.000000
_cell_angle_gamma 90.000000
_cell_volume 3068.573171
_symmetry_space_group_name_H-M "P M M A"
_symmetry_group_IT_number 51
_symmetry_cell_setting 'orthorhombic'
loop_
_space_group_symop_operation_xyz
x,y,z
1/2-x,-y,z
1/2+x,-y,-z
-x,y,-z
-x,-y,-z
1/2+x,y,-z
1/2-x,y,z
x,-y,z
loop_
_atom_site_type_symbol
_atom_site_label
_atom_site_fract_x
_atom_site_fract_y
_atom_site_fract_z
Si Si1 0.828844 0.187238 0.574884
Si Si2 0.427682 0.185649 0.705203
Si Si3 0.329574 0.687363 0.581974
Si Si4 0.423631 0.691436 0.131904
Si Si5 0.078854 0.312560 0.296351
Si Si6 0.328443 0.307581 0.000044
Si Si7 0.919278 0.309503 0.136507
O O1 0.750000 0.234331 0.587796
O O2 0.851607 0.266584 0.499509
O O3 0.874803 0.235311 0.642576
O O4 0.831111 0.000000 0.565041
O O5 0.374856 0.230595 0.642725
O O6 0.499676 0.271483 0.691844
O O7 0.402559 0.240935 0.784561
O O8 0.439582 0.000000 0.706098
O O9 0.250000 0.733880 0.588777
O O10 0.334325 0.500000 0.590953
O O11 0.422586 0.500000 0.131243
O O12 0.404755 0.740955 0.213786
O O13 0.372104 0.745471 0.069779
O O14 0.502459 0.736435 0.118240
O O15 0.087677 0.500000 0.299590
O O16 0.250000 0.256278 0.001897
O O17 0.328437 0.500000 0.001007
O O18 0.367861 0.260388 0.926782
O O19 0.917929 0.500000 0.141502
#
# Coordination Sequence:
#
# PCOD9404463 Si02
#       7
#     8   8   8   8   8   8   8
#     4  10  21  37  56  80 112 146 178 214 262 319
#     4  11  22  36  55  79 108 140 176 220 271 323
#     4  10  21  38  59  81 106 138 178 221 264 314
#     4   8  15  28  47  71 100 133 169 214 263 307
#     4  10  20  35  56  81 108 140 182 227 267 311
#     4   9  16  26  45  75 104 129 166 217 265 306
#     4   9  17  31  50  72 100 135 173 212 259 314
#
# _framework density 18.249524999999998
#
# number of rings (size 3 to 8) (size 9 to 14) (size 15 to 20)
#    0.000    2.429    0.000    3.857    0.000    5.143 
#    0.000    5.714    0.000    7.714    0.000    0.000 
#    0.000    0.000    0.000    0.000    0.000    0.000 
#
# Total GULP energy -312519.934258 kJ/mol
# GULP energy per Si atom -5580.713112 kJ/mol
# Density = 1.820799 g / cm^3
# Si number density = 18.249525 Si / 1000 Ang^3
#
#
#
# Elastic Constant Matrix: (Units=GPa)
#
#
# Indices 1 2 3 4 5 6 
#
# 1 67.5711 -4.5443 69.6891 0.0000 0.0000 0.0000
# 2 -4.5443 12.0240 -1.3215 0.0000 0.0000 0.0000
# 3 69.6891 -1.3215 120.1019 0.0000 0.0000 0.0000
# 4 0.0000 0.0000 0.0000 -10.9765 0.0000 0.0000
# 5 0.0000 0.0000 0.0000 0.0000 344.3231 0.0000
# 6 0.0000 0.0000 0.0000 0.0000 0.0000 17.5471
#
#
#
# Elastic Compliance Matrix: (Units=1/GPa)
#
#
# Indices 1 2 3 4 5 6 
#
# 1 0.038542 0.012123 -0.022231 0.000000 0.000000 0.000000
# 2 0.012123 0.087081 -0.006076 0.000000 0.000000 0.000000
# 3 -0.022231 -0.006076 0.021159 0.000000 0.000000 0.000000
# 4 0.000000 0.000000 0.000000 -0.091103 0.000000 0.000000
# 5 0.000000 0.000000 0.000000 0.000000 0.002904 0.000000
# 6 0.000000 0.000000 0.000000 0.000000 0.000000 0.056990
#
#
# Mechanical properties :
#
#
# Convention : Reuss Voigt Hill
#
# Bulk Modulus (GPa) = 8.74017 36.37151 22.55584
# Shear Modulus (GPa) = 26.87052 79.23697 53.05374
#
# Velocity S-wave (km/s) = 3.84134 6.59643 5.39763
# Velocity P-wave (km/s) = 4.94714 8.83123 7.15768
#
# Compressibility (1/GPa) = 0.11441419
#
# Stress axis : x y z
#
# Youngs Moduli (GPa) = 25.94583 11.48355 47.26196
#
# Poissons Ratio (x) = -0.13922 1.05066
# Poissons Ratio (y) = -0.31454 0.28717
# Poissons Ratio (z) = 0.57679 0.06978
#
# Static dielectric constant tensor:
#      x y z
#    x 1.607990 0.000000 0.000000 
#    y 0.000000 1.611340 0.000000 
#    z 0.000000 0.000000 1.608510 
# 
# From -- ./inp_files/25663.got.cif
#   From: 2010.05.17/outbox.cif.g08.bks.cpg/sg51_13_cif.got.tgz:25663.got - 2010.06.03 11:52:47.
