data_PCOD9404495
_publ_section_title
;
Structure prediction by ZEFSAII (Michael W. Deem and Ramdas Pophale) SiO2 
 PCOD9404495
Probable space group: P M M A
;
_chemical_formula_sum "Si O2"
_cell_formula_units_Z 48
_cell_length_a 8.977513
_cell_length_b 9.888444
_cell_length_c 30.311653
_cell_angle_alpha 90.000000
_cell_angle_beta 90.000000
_cell_angle_gamma 90.000000
_cell_volume 2690.875606
_symmetry_space_group_name_H-M "P M M A"
_symmetry_group_IT_number 51
_symmetry_cell_setting 'orthorhombic'
loop_
_space_group_symop_operation_xyz
x,y,z
1/2-x,-y,z
1/2+x,-y,-z
-x,y,-z
-x,-y,-z
1/2+x,y,-z
1/2-x,y,z
x,-y,z
loop_
_atom_site_type_symbol
_atom_site_label
_atom_site_fract_x
_atom_site_fract_y
_atom_site_fract_z
Si Si1 0.070121 0.339771 0.196759
Si Si2 0.071598 0.265910 0.895745
Si Si3 0.429723 0.657636 0.362861
Si Si4 0.573530 0.000000 0.048274
Si Si5 0.579318 0.664432 0.455273
Si Si6 0.568773 0.156863 0.718974
Si Si7 0.426855 0.500000 0.047691
O O1 0.250000 0.331976 0.191335
O O2 0.034252 0.500000 0.202470
O O3 0.027871 0.247622 0.238643
O O4 0.990164 0.281345 0.153561
O O5 0.250000 0.288045 0.895837
O O6 0.986423 0.374565 0.924894
O O7 0.038654 0.127173 0.920897
O O8 0.250000 0.660070 0.364941
O O9 0.472327 0.500000 0.353719
O O10 0.494678 0.698866 0.410237
O O11 0.478595 0.760033 0.324502
O O12 0.750000 0.000000 0.040099
O O13 0.500000 0.000000 0.000000
O O14 0.500000 0.712049 0.500000
O O15 0.750000 0.709495 0.453883
O O16 0.579195 0.500000 0.456960
O O17 0.750000 0.153467 0.718237
O O18 0.518331 0.000000 0.720618
O O19 0.250000 0.500000 0.044148
O O20 0.500000 0.500000 0.000000
#
# Coordination Sequence:
#
# PCOD9404495 Si02
#       7
#     8   8   8   4   8   8   4
#     4  10  20  35  56  83 112 142 183 228 273 325
#     4  11  23  40  60  85 117 151 186 228 276 327
#     4   9  16  28  48  73 102 137 175 219 268 317
#     4  10  24  42  60  84 114 150 188 226 269 324
#     4   9  16  26  43  70 103 136 172 216 264 316
#     4   9  18  32  52  78 106 139 181 226 271 322
#     4  12  24  40  62  90 118 148 186 228 273 326
#
# _framework density 17.838059000000001
#
# number of rings (size 3 to 8) (size 9 to 14) (size 15 to 20)
#    0.000    2.167    0.833    2.750    1.167    6.667 
#    0.000    0.833    0.000    4.000    0.000    0.000 
#    0.000    0.000    0.000    0.000    0.000    0.000 
#
# Total GULP energy -267711.952435 kJ/mol
# GULP energy per Si atom -5577.332342 kJ/mol
# Density = 1.779746 g / cm^3
# Si number density = 17.838059 Si / 1000 Ang^3
#
#
#
# Elastic Constant Matrix: (Units=GPa)
#
#
# Indices 1 2 3 4 5 6 
#
# 1 52.6605 55.3400 64.1482 0.0000 0.0000 0.0000
# 2 55.3400 139.3347 100.4631 0.0000 0.0000 0.0000
# 3 64.1482 100.4631 208.2438 0.0000 0.0000 0.0000
# 4 0.0000 0.0000 0.0000 25.1485 0.0000 0.0000
# 5 0.0000 0.0000 0.0000 0.0000 32.7246 0.0000
# 6 0.0000 0.0000 0.0000 0.0000 0.0000 18.6373
#
#
#
# Elastic Compliance Matrix: (Units=1/GPa)
#
#
# Indices 1 2 3 4 5 6 
#
# 1 0.037948 -0.010187 -0.006775 0.000000 0.000000 0.000000
# 2 -0.010187 0.013740 -0.003490 0.000000 0.000000 0.000000
# 3 -0.006775 -0.003490 0.008573 0.000000 0.000000 0.000000
# 4 0.000000 0.000000 0.000000 0.039764 0.000000 0.000000
# 5 0.000000 0.000000 0.000000 0.000000 0.030558 0.000000
# 6 0.000000 0.000000 0.000000 0.000000 0.000000 0.053656
#
#
# Mechanical properties :
#
#
# Convention : Reuss Voigt Hill
#
# Bulk Modulus (GPa) = 51.66460 93.34908 72.50684
# Shear Modulus (GPa) = 21.58943 27.32126 24.45535
#
# Velocity S-wave (km/s) = 3.48271 3.91785 3.70667
# Velocity P-wave (km/s) = 6.72297 8.53880 7.68471
#
# Compressibility (1/GPa) = 0.01935561
#
# Stress axis : x y z
#
# Youngs Moduli (GPa) = 26.35192 72.78268 116.64575
#
# Poissons Ratio (x) = 0.74143 0.79029
# Poissons Ratio (y) = 0.26844 0.40714
# Poissons Ratio (z) = 0.17854 0.25404
#
# Static dielectric constant tensor:
#      x y z
#    x 1.602370 0.000000 0.000000 
#    y 0.000000 1.634820 0.000000 
#    z 0.000000 0.000000 1.586050 
# 
# From -- ./inp_files/37210.got.cif
#   From: 2010.05.17/outbox.cif.g08.bks.cpg/sg51_19_cif.got.tgz:37210.got - 2010.06.03 11:52:47.
