data_PCOD9404206
_publ_section_title
;
Structure prediction by ZEFSAII (Michael W. Deem and Ramdas Pophale) SiO2 
 PCOD9404206
Probable space group: P M M A
;
_chemical_formula_sum "Si O2"
_cell_formula_units_Z 48
_cell_length_a 15.475317
_cell_length_b 18.123387
_cell_length_c 8.550796
_cell_angle_alpha 90.000000
_cell_angle_beta 90.000000
_cell_angle_gamma 90.000000
_cell_volume 2398.200359
_symmetry_space_group_name_H-M "P M M A"
_symmetry_group_IT_number 51
_symmetry_cell_setting 'orthorhombic'
loop_
_space_group_symop_operation_xyz
x,y,z
1/2-x,-y,z
1/2+x,-y,-z
-x,y,-z
-x,-y,-z
1/2+x,y,-z
1/2-x,y,z
x,-y,z
loop_
_atom_site_type_symbol
_atom_site_label
_atom_site_fract_x
_atom_site_fract_y
_atom_site_fract_z
Si Si1 0.650788 0.346302 0.794368
Si Si2 0.154815 0.144785 0.707408
Si Si3 0.849708 0.305198 0.157938
Si Si4 0.985126 0.082295 0.816684
Si Si5 0.588396 0.206482 0.599376
Si Si6 0.983641 0.583020 0.315343
O O1 0.750000 0.369738 0.767135
O O2 0.626129 0.279272 0.678402
O O3 0.576632 0.406135 0.765708
O O4 0.643399 0.319385 0.973297
O O5 0.250000 0.118772 0.750552
O O6 0.133931 0.219454 0.804506
O O7 0.079428 0.087462 0.738023
O O8 0.150917 0.171044 0.528516
O O9 0.750000 0.320504 0.205938
O O10 0.917094 0.356704 0.249017
O O11 0.931698 0.146414 0.732727
O O12 0.948559 0.000000 0.795502
O O13 0.000000 0.095525 0.000000
O O14 0.500000 0.221250 0.500000
O O15 0.950781 0.500000 0.287476
O O16 0.000000 0.592374 0.500000
#
# Coordination Sequence:
#
# PCOD9404206 Si02
#       6
#     8   8   8   8   8   8
#     4  11  22  37  60  86 113 146 186 232 278 329
#     4  10  20  35  57  83 111 142 180 228 277 327
#     4  10  22  39  60  86 113 145 186 231 278 329
#     4  10  21  37  56  78 109 149 187 225 274 330
#     4  10  20  34  57  84 111 145 185 228 274 327
#     4  11  24  40  58  82 114 151 187 227 278 333
#
# _framework density 20.015008999999999
#
# number of rings (size 3 to 8) (size 9 to 14) (size 15 to 20)
#    0.000    1.667    0.000    5.500    0.000    7.333 
#    0.000    4.167    0.000    3.500    0.000    0.000 
#    0.000    0.000    0.000    0.000    0.000    0.000 
#
# Total GULP energy -268192.229071 kJ/mol
# GULP energy per Si atom -5587.338106 kJ/mol
# Density = 1.996945 g / cm^3
# Si number density = 20.015009 Si / 1000 Ang^3
#
#
#
# Elastic Constant Matrix: (Units=GPa)
#
#
# Indices 1 2 3 4 5 6 
#
# 1 73.5184 7.1088 5.5206 0.0000 0.0000 0.0000
# 2 7.1088 41.0026 5.3746 0.0000 0.0000 0.0000
# 3 5.5206 5.3746 61.3774 0.0000 0.0000 0.0000
# 4 0.0000 0.0000 0.0000 24.5616 0.0000 0.0000
# 5 0.0000 0.0000 0.0000 0.0000 20.3778 0.0000
# 6 0.0000 0.0000 0.0000 0.0000 0.0000 106.2185
#
#
#
# Elastic Compliance Matrix: (Units=1/GPa)
#
#
# Indices 1 2 3 4 5 6 
#
# 1 0.013901 -0.002272 -0.001051 0.000000 0.000000 0.000000
# 2 -0.002272 0.025043 -0.001989 0.000000 0.000000 0.000000
# 3 -0.001051 -0.001989 0.016561 0.000000 0.000000 0.000000
# 4 0.000000 0.000000 0.000000 0.040714 0.000000 0.000000
# 5 0.000000 0.000000 0.000000 0.000000 0.049073 0.000000
# 6 0.000000 0.000000 0.000000 0.000000 0.000000 0.009415
#
#
# Mechanical properties :
#
#
# Convention : Reuss Voigt Hill
#
# Bulk Modulus (GPa) = 22.28112 23.54517 22.91314
# Shear Modulus (GPa) = 27.73290 40.75790 34.24540
#
# Velocity S-wave (km/s) = 3.72641 4.51751 4.14089
# Velocity P-wave (km/s) = 5.44713 6.24498 5.85965
#
# Compressibility (1/GPa) = 0.04488105
#
# Stress axis : x y z
#
# Youngs Moduli (GPa) = 71.93891 39.93087 60.38161
#
# Poissons Ratio (x) = 0.09073 0.06348
# Poissons Ratio (y) = 0.16346 0.12007
# Poissons Ratio (z) = 0.07563 0.07941
#
# Static dielectric constant tensor:
#      x y z
#    x 1.725020 0.000000 0.000000 
#    y 0.000000 1.689520 0.000000 
#    z 0.000000 0.000000 1.697990 
# 
# From -- ./inp_files/8292.got.cif
#   From: 2010.05.17/outbox.cif.g08.bks.cpg/sg51_5_cif.got.tgz:8292.got - 2010.06.03 11:52:47.
