data_PCOD9404506
_publ_section_title
;
Structure prediction by ZEFSAII (Michael W. Deem and Ramdas Pophale) SiO2 
 PCOD9404506
Probable space group: P M M A
;
_chemical_formula_sum "Si O2"
_cell_formula_units_Z 48
_cell_length_a 9.652896
_cell_length_b 30.174366
_cell_length_c 9.037110
_cell_angle_alpha 90.000000
_cell_angle_beta 90.000000
_cell_angle_gamma 90.000000
_cell_volume 2632.239182
_symmetry_space_group_name_H-M "P M M A"
_symmetry_group_IT_number 51
_symmetry_cell_setting 'orthorhombic'
loop_
_space_group_symop_operation_xyz
x,y,z
1/2-x,-y,z
1/2+x,-y,-z
-x,y,-z
-x,-y,-z
1/2+x,y,-z
1/2-x,y,z
x,-y,z
loop_
_atom_site_type_symbol
_atom_site_label
_atom_site_fract_x
_atom_site_fract_y
_atom_site_fract_z
Si Si1 0.502994 0.396056 0.323111
Si Si2 0.418148 0.864729 0.345423
Si Si3 0.585633 0.691589 0.151916
Si Si4 0.250000 0.553549 0.176041
Si Si5 0.250000 0.447502 0.824723
Si Si6 0.413056 0.049095 0.149054
Si Si7 0.083319 0.780126 0.654464
O O1 0.500000 0.393598 0.500000
O O2 0.524632 0.347540 0.253589
O O3 0.375010 0.421969 0.254933
O O4 0.624375 0.426093 0.260446
O O5 0.500000 0.870034 0.500000
O O6 0.250000 0.857947 0.359619
O O7 0.440604 0.909515 0.254211
O O8 0.498763 0.822069 0.278758
O O9 0.750000 0.683196 0.125495
O O10 0.573361 0.737747 0.239970
O O11 0.500000 0.692787 0.000000
O O12 0.250000 0.500000 0.194851
O O13 0.250000 0.562806 0.999891
O O14 0.250000 0.500000 0.812485
O O15 0.250000 0.050270 0.112934
O O16 0.442443 0.000000 0.214431
O O17 0.500000 0.053198 0.000000
O O18 0.250000 0.788809 0.631015
O O19 0.000000 0.771459 0.500000
#
# Coordination Sequence:
#
# PCOD9404506 Si02
#       7
#     8   8   8   4   4   8   8
#     4  12  25  42  64  94 126 160 204 250 301 356
#     4  10  20  35  56  84 116 153 196 243 298 356
#     4  11  25  43  64  90 120 156 199 245 297 358
#     4  11  25  43  67  95 125 167 203 245 304 355
#     4  11  23  43  67  91 127 163 203 249 296 361
#     4   9  19  35  54  78 111 151 196 246 298 355
#     4  10  21  39  61  87 119 153 195 243 296 355
#
# _framework density 18.235424999999999
#
# number of rings (size 3 to 8) (size 9 to 14) (size 15 to 20)
#    0.000    1.500    0.833    5.000    1.167    7.000 
#    0.000    3.333    0.000    0.000    0.000    0.000 
#    0.000    0.000    0.000    0.000    0.000    0.000 
#
# Total GULP energy -267696.075023 kJ/mol
# GULP energy per Si atom -5577.001563 kJ/mol
# Density = 1.819392 g / cm^3
# Si number density = 18.235425 Si / 1000 Ang^3
#
#
#
# Elastic Constant Matrix: (Units=GPa)
#
#
# Indices 1 2 3 4 5 6 
#
# 1 162.4402 86.7690 72.3241 0.0000 0.0000 0.0000
# 2 86.7690 170.5297 96.8491 0.0000 0.0000 0.0000
# 3 72.3241 96.8491 128.1710 0.0000 0.0000 0.0000
# 4 0.0000 0.0000 0.0000 38.9839 0.0000 0.0000
# 5 0.0000 0.0000 0.0000 0.0000 31.8777 0.0000
# 6 0.0000 0.0000 0.0000 0.0000 0.0000 34.5144
#
#
#
# Elastic Compliance Matrix: (Units=1/GPa)
#
#
# Indices 1 2 3 4 5 6 
#
# 1 0.009006 -0.002972 -0.002837 0.000000 0.000000 0.000000
# 2 -0.002972 0.011253 -0.006826 0.000000 0.000000 0.000000
# 3 -0.002837 -0.006826 0.014561 0.000000 0.000000 0.000000
# 4 0.000000 0.000000 0.000000 0.025652 0.000000 0.000000
# 5 0.000000 0.000000 0.000000 0.000000 0.031370 0.000000
# 6 0.000000 0.000000 0.000000 0.000000 0.000000 0.028973
#
#
# Mechanical properties :
#
#
# Convention : Reuss Voigt Hill
#
# Bulk Modulus (GPa) = 104.69927 108.11392 106.40659
# Shear Modulus (GPa) = 33.49691 34.75513 34.12602
#
# Velocity S-wave (km/s) = 4.29057 4.37041 4.33068
# Velocity P-wave (km/s) = 9.06009 9.21325 9.13699
#
# Compressibility (1/GPa) = 0.00955117
#
# Stress axis : x y z
#
# Youngs Moduli (GPa) = 111.03188 88.86639 68.67778
#
# Poissons Ratio (x) = 0.26407 0.19482
# Poissons Ratio (y) = 0.32994 0.46880
# Poissons Ratio (z) = 0.31497 0.60661
#
# Static dielectric constant tensor:
#      x y z
#    x 1.594090 0.000000 0.000000 
#    y 0.000000 1.647850 0.000000 
#    z 0.000000 0.000000 1.593040 
# 
# From -- ./inp_files/6283.got.cif
#   From: 2010.05.17/outbox.cif.g08.bks.cpg/sg51_4_cif.got.tgz:6283.got - 2010.06.03 11:52:47.
