data_PCOD9404271
_publ_section_title
;
Structure prediction by ZEFSAII (Michael W. Deem and Ramdas Pophale) SiO2 
 PCOD9404271
Probable space group: P M M A
;
_chemical_formula_sum "Si O2"
_cell_formula_units_Z 56
_cell_length_a 7.602279
_cell_length_b 20.364306
_cell_length_c 16.138232
_cell_angle_alpha 90.000000
_cell_angle_beta 90.000000
_cell_angle_gamma 90.000000
_cell_volume 2498.442580
_symmetry_space_group_name_H-M "P M M A"
_symmetry_group_IT_number 51
_symmetry_cell_setting 'orthorhombic'
loop_
_space_group_symop_operation_xyz
x,y,z
1/2-x,-y,z
1/2+x,-y,-z
-x,y,-z
-x,-y,-z
1/2+x,y,-z
1/2-x,y,z
x,-y,z
loop_
_atom_site_type_symbol
_atom_site_label
_atom_site_fract_x
_atom_site_fract_y
_atom_site_fract_z
Si Si1 0.038948 0.070727 0.597981
Si Si2 0.451288 0.787685 0.642561
Si Si3 0.465290 0.424540 0.755536
Si Si4 0.044786 0.794913 0.176768
Si Si5 0.038828 0.349866 0.590792
Si Si6 0.461272 0.928066 0.097552
Si Si7 0.041174 0.665489 0.907569
O O1 0.250000 0.069732 0.610737
O O2 0.968971 0.139627 0.632927
O O3 0.000000 0.072193 0.500000
O O4 0.970634 0.000000 0.630141
O O5 0.250000 0.793460 0.612355
O O6 0.451836 0.771437 0.739816
O O7 0.532935 0.724834 0.597672
O O8 0.250000 0.424049 0.755843
O O9 0.520800 0.500000 0.761517
O O10 0.523784 0.391918 0.669076
O O11 0.524761 0.381786 0.834308
O O12 0.250000 0.802633 0.197066
O O13 0.971810 0.864738 0.146257
O O14 0.029281 0.738808 0.107933
O O15 0.250000 0.345632 0.599220
O O16 0.000000 0.377295 0.500000
O O17 0.250000 0.928218 0.106237
O O18 0.527845 0.000000 0.124316
O O19 0.500000 0.920934 0.000000
O O20 0.250000 0.669527 0.899336
O O21 0.000000 0.642225 0.000000
#
# Coordination Sequence:
#
# PCOD9404271 Si02
#       7
#     8   8   8   8   8   8   8
#     4   9  18  32  50  73 104 142 186 235 287 345
#     4  10  20  35  53  76 109 147 188 233 287 341
#     4   9  19  38  62  86 117 156 192 228 280 343
#     4  11  22  35  55  82 111 146 190 238 286 337
#     4  10  20  36  58  85 114 151 191 233 282 336
#     4   9  19  35  52  73 103 139 181 229 279 331
#     4  11  22  39  62  88 119 154 192 235 284 338
#
# _framework density 22.413964
#
# number of rings (size 3 to 8) (size 9 to 14) (size 15 to 20)
#    0.000    2.143    1.429    1.714    0.000    4.571 
#    0.000    0.000    0.000    3.000    0.000    0.000 
#    0.000    0.000    0.000    0.000    0.000    0.000 
#
# Total GULP energy -312749.999380 kJ/mol
# GULP energy per Si atom -5584.821418 kJ/mol
# Density = 2.236295 g / cm^3
# Si number density = 22.413964 Si / 1000 Ang^3
#
#
#
# Elastic Constant Matrix: (Units=GPa)
#
#
# Indices 1 2 3 4 5 6 
#
# 1 57.0537 8.5877 -7.9284 0.0000 0.0000 0.0000
# 2 8.5877 142.2845 58.9702 0.0000 0.0000 0.0000
# 3 -7.9284 58.9702 126.5906 0.0000 0.0000 0.0000
# 4 0.0000 0.0000 0.0000 17.9051 0.0000 0.0000
# 5 0.0000 0.0000 0.0000 0.0000 23.8362 0.0000
# 6 0.0000 0.0000 0.0000 0.0000 0.0000 -3.6479
#
#
#
# Elastic Compliance Matrix: (Units=1/GPa)
#
#
# Indices 1 2 3 4 5 6 
#
# 1 0.018102 -0.001936 0.002036 0.000000 0.000000 0.000000
# 2 -0.001936 0.008917 -0.004275 0.000000 0.000000 0.000000
# 3 0.002036 -0.004275 0.010018 0.000000 0.000000 0.000000
# 4 0.000000 0.000000 0.000000 0.055850 0.000000 0.000000
# 5 0.000000 0.000000 0.000000 0.000000 0.041953 0.000000
# 6 0.000000 0.000000 0.000000 0.000000 0.000000 -0.274130
#
#
# Mechanical properties :
#
#
# Convention : Reuss Voigt Hill
#
# Bulk Modulus (GPa) = 34.86050 49.46532 42.16291
# Shear Modulus (GPa) = -41.19418 25.37194 -7.91112
#
# Velocity S-wave (km/s) = -4.29170 3.36813 -1.88075
# Velocity P-wave (km/s) = 2.99524 6.10267 3.75973
#
# Compressibility (1/GPa) = 0.02868576
#
# Stress axis : x y z
#
# Youngs Moduli (GPa) = 55.24348 112.14739 99.81598
#
# Poissons Ratio (x) = 0.21714 -0.20319
# Poissons Ratio (y) = 0.10696 0.42672
# Poissons Ratio (z) = -0.11246 0.47943
#
# Static dielectric constant tensor:
#      x y z
#    x 1.841520 0.000000 0.000000 
#    y 0.000000 1.846710 0.000000 
#    z 0.000000 0.000000 1.375380 
# 
# From -- ./inp_files/21716.got.cif
#   From: 2010.05.17/outbox.cif.g08.bks.cpg/sg51_11_cif.got.tgz:21716.got - 2010.06.03 11:52:47.
