data_PCOD9404884
_publ_section_title
;
Structure prediction by ZEFSAII (Michael W. Deem and Ramdas Pophale) SiO2 
 PCOD9404884
Probable space group: P M M A
;
_chemical_formula_sum "Si O2"
_cell_formula_units_Z 64
_cell_length_a 19.631480
_cell_length_b 13.770894
_cell_length_c 12.302805
_cell_angle_alpha 90.000000
_cell_angle_beta 90.000000
_cell_angle_gamma 90.000000
_cell_volume 3325.977583
_symmetry_space_group_name_H-M "P M M A"
_symmetry_group_IT_number 51
_symmetry_cell_setting 'orthorhombic'
loop_
_space_group_symop_operation_xyz
x,y,z
1/2-x,-y,z
1/2+x,-y,-z
-x,y,-z
-x,-y,-z
1/2+x,y,-z
1/2-x,y,z
x,-y,z
loop_
_atom_site_type_symbol
_atom_site_label
_atom_site_fract_x
_atom_site_fract_y
_atom_site_fract_z
Si Si1 0.580005 0.883930 0.378198
Si Si2 0.170584 0.117145 0.166899
Si Si3 0.076611 0.616524 0.467038
Si Si4 0.927235 0.116539 0.636709
Si Si5 0.393994 0.389043 0.830594
Si Si6 0.923298 0.245221 0.973377
Si Si7 0.450925 0.612339 0.225364
Si Si8 0.672164 0.286982 0.356624
O O1 0.584625 0.865954 0.508766
O O2 0.504753 0.851651 0.338611
O O3 0.636068 0.814795 0.326594
O O4 0.588033 0.000000 0.360714
O O5 0.250000 0.146813 0.169572
O O6 0.129980 0.146625 0.277333
O O7 0.129063 0.163896 0.067015
O O8 0.168649 0.000000 0.160096
O O9 0.081486 0.500000 0.479141
O O10 0.082111 0.640254 0.339822
O O11 0.131226 0.666542 0.543270
O O12 0.000000 0.645147 0.500000
O O13 0.930066 0.000000 0.644997
O O14 0.386645 0.500000 0.870127
O O15 0.466749 0.384528 0.767568
O O16 0.337363 0.359129 0.744455
O O17 0.398269 0.310604 0.926264
O O18 0.930700 0.319203 0.872666
O O19 0.000000 0.208201 0.000000
O O20 0.433365 0.500000 0.201976
O O21 0.750000 0.271594 0.384699
#
# Coordination Sequence:
#
# PCOD9404884 Si02
#       8
#     8   8   8   8   8   8   8   8
#     4   9  20  37  59  88 123 159 202 248 291 356
#     4  10  22  39  60  90 127 161 200 255 315 370
#     4  10  20  36  59  86 118 158 198 241 300 366
#     4   8  17  35  61  88 114 156 202 241 293 355
#     4  10  21  40  62  86 119 157 203 256 302 356
#     4  10  22  37  63  93 118 155 209 256 303 356
#     4   9  18  35  61  91 117 147 195 254 307 355
#     4  12  26  37  57  91 124 164 205 245 304 366
#
# _framework density 19.242463000000001
#
# number of rings (size 3 to 8) (size 9 to 14) (size 15 to 20)
#    0.000    2.250    1.250    1.500    7.000    4.000 
#    0.000    1.875    0.000    1.875    0.000    0.000 
#    0.000    0.000    0.000    0.000    0.000    0.000 
#
# Total GULP energy -357293.746019 kJ/mol
# GULP energy per Si atom -5582.714782 kJ/mol
# Density = 1.919867 g / cm^3
# Si number density = 19.242463 Si / 1000 Ang^3
#
#
#
# Elastic Constant Matrix: (Units=GPa)
#
#
# Indices 1 2 3 4 5 6 
#
# 1 129.4825 49.2475 47.7265 0.0000 0.0000 0.0000
# 2 49.2475 73.4635 22.9091 0.0000 0.0000 0.0000
# 3 47.7265 22.9091 65.2114 0.0000 0.0000 0.0000
# 4 0.0000 0.0000 0.0000 16.7917 0.0000 0.0000
# 5 0.0000 0.0000 0.0000 0.0000 23.7060 0.0000
# 6 0.0000 0.0000 0.0000 0.0000 0.0000 20.8483
#
#
#
# Elastic Compliance Matrix: (Units=1/GPa)
#
#
# Indices 1 2 3 4 5 6 
#
# 1 0.012751 -0.006331 -0.007108 0.000000 0.000000 0.000000
# 2 -0.006331 0.018431 -0.001841 0.000000 0.000000 0.000000
# 3 -0.007108 -0.001841 0.021184 0.000000 0.000000 0.000000
# 4 0.000000 0.000000 0.000000 0.059553 0.000000 0.000000
# 5 0.000000 0.000000 0.000000 0.000000 0.042183 0.000000
# 6 0.000000 0.000000 0.000000 0.000000 0.000000 0.047965
#
#
# Mechanical properties :
#
#
# Convention : Reuss Voigt Hill
#
# Bulk Modulus (GPa) = 45.86169 56.43596 51.14883
# Shear Modulus (GPa) = 20.84235 22.15416 21.49825
#
# Velocity S-wave (km/s) = 3.29468 3.39679 3.34612
# Velocity P-wave (km/s) = 6.19343 6.69154 6.44730
#
# Compressibility (1/GPa) = 0.02180469
#
# Stress axis : x y z
#
# Youngs Moduli (GPa) = 78.42497 54.25745 47.20632
#
# Poissons Ratio (x) = 0.34352 0.33554
# Poissons Ratio (y) = 0.49653 0.08691
# Poissons Ratio (z) = 0.55744 0.09989
#
# Static dielectric constant tensor:
#      x y z
#    x 1.652590 0.000000 0.000000 
#    y 0.000000 1.710780 0.000000 
#    z 0.000000 0.000000 1.671980 
# 
# From -- ./inp_files/17617.got.cif
#   From: 2010.05.17/outbox.cif.g08.bks.cpg/sg51_9_cif.got.tgz:17617.got - 2010.06.03 11:52:47.
