data_PCOD9404013
_publ_section_title
;
Structure prediction by ZEFSAII (Michael W. Deem and Ramdas Pophale) SiO2 
 PCOD9404013
Probable space group: P M M A
;
_chemical_formula_sum "Si O2"
_cell_formula_units_Z 48
_cell_length_a 9.980076
_cell_length_b 8.992158
_cell_length_c 30.155623
_cell_angle_alpha 90.000000
_cell_angle_beta 90.000000
_cell_angle_gamma 90.000000
_cell_volume 2706.238592
_symmetry_space_group_name_H-M "P M M A"
_symmetry_group_IT_number 51
_symmetry_cell_setting 'orthorhombic'
loop_
_space_group_symop_operation_xyz
x,y,z
1/2-x,-y,z
1/2+x,-y,-z
-x,y,-z
-x,-y,-z
1/2+x,y,-z
1/2-x,y,z
x,-y,z
loop_
_atom_site_type_symbol
_atom_site_label
_atom_site_fract_x
_atom_site_fract_y
_atom_site_fract_z
Si Si1 0.587665 0.169320 0.289471
Si Si2 0.750000 0.177886 0.944094
Si Si3 0.908268 0.820611 0.542779
Si Si4 0.994975 0.321113 0.101274
Si Si5 0.750000 0.178041 0.049206
Si Si6 0.407167 0.321933 0.617940
Si Si7 0.909825 0.676637 0.199315
O O1 0.750000 0.167615 0.286898
O O2 0.556986 0.266679 0.332634
O O3 0.541395 0.237715 0.242882
O O4 0.541461 0.000000 0.295310
O O5 0.624685 0.251878 0.920502
O O6 0.750000 0.000000 0.938648
O O7 0.750000 0.208415 0.996722
O O8 0.750000 0.776363 0.539089
O O9 0.000000 0.782335 0.500000
O O10 0.987773 0.749048 0.583862
O O11 0.909837 0.000000 0.547116
O O12 0.992654 0.500000 0.098333
O O13 0.875143 0.251556 0.073271
O O14 0.978952 0.281691 0.153170
O O15 0.750000 0.000000 0.055120
O O16 0.250000 0.277333 0.609058
O O17 0.412508 0.500000 0.615559
O O18 0.750000 0.703503 0.193728
O O19 0.926285 0.500000 0.206476
#
# Coordination Sequence:
#
# PCOD9404013 Si02
#       7
#     8   4   8   8   4   8   8
#     4   9  17  29  50  81 111 142 182 227 274 326
#     4  11  25  41  55  79 115 151 185 229 288 341
#     4  10  21  37  58  83 112 148 189 234 282 331
#     4  11  22  38  60  85 111 146 189 233 281 339
#     4  11  23  39  59  83 113 147 185 233 284 337
#     4  10  20  34  54  81 113 149 186 227 277 329
#     4   9  17  32  53  80 112 141 178 229 279 328
#
# _framework density 17.736794
#
# number of rings (size 3 to 8) (size 9 to 14) (size 15 to 20)
#    0.000    2.000    0.833    3.000    0.000    9.000 
#    0.000    0.000    1.833    0.000    0.000    0.000 
#    0.000    0.000    0.000    0.000    0.000    0.000 
#
# Total GULP energy -267806.880865 kJ/mol
# GULP energy per Si atom -5579.310018 kJ/mol
# Density = 1.769642 g / cm^3
# Si number density = 17.736794 Si / 1000 Ang^3
#
#
#
# Elastic Constant Matrix: (Units=GPa)
#
#
# Indices 1 2 3 4 5 6 
#
# 1 128.0217 46.1295 81.3761 0.0000 0.0000 0.0000
# 2 46.1295 54.2693 70.0511 0.0000 0.0000 0.0000
# 3 81.3761 70.0511 171.0166 0.0000 0.0000 0.0000
# 4 0.0000 0.0000 0.0000 38.3048 0.0000 0.0000
# 5 0.0000 0.0000 0.0000 0.0000 -5.4958 0.0000
# 6 0.0000 0.0000 0.0000 0.0000 0.0000 23.6891
#
#
#
# Elastic Compliance Matrix: (Units=1/GPa)
#
#
# Indices 1 2 3 4 5 6 
#
# 1 0.012063 -0.006036 -0.003268 0.000000 0.000000 0.000000
# 2 -0.006036 0.042120 -0.014381 0.000000 0.000000 0.000000
# 3 -0.003268 -0.014381 0.013293 0.000000 0.000000 0.000000
# 4 0.000000 0.000000 0.000000 0.026106 0.000000 0.000000
# 5 0.000000 0.000000 0.000000 0.000000 -0.181956 0.000000
# 6 0.000000 0.000000 0.000000 0.000000 0.000000 0.042214
#
#
# Mechanical properties :
#
#
# Convention : Reuss Voigt Hill
#
# Bulk Modulus (GPa) = 49.73330 83.15790 66.44560
# Shear Modulus (GPa) = 631.93301 21.68300 326.80800
#
# Velocity S-wave (km/s) = 18.89596 3.50020 13.58876
# Velocity P-wave (km/s) = 22.45388 7.95747 16.84485
#
# Compressibility (1/GPa) = 0.02010725
#
# Stress axis : x y z
#
# Youngs Moduli (GPa) = 82.89718 23.74148 75.22731
#
# Poissons Ratio (x) = 0.14330 0.24582
# Poissons Ratio (y) = 0.50035 1.08185
# Poissons Ratio (z) = 0.27089 0.34143
#
# Static dielectric constant tensor:
#      x y z
#    x 1.570240 0.000000 0.000000 
#    y 0.000000 1.593640 0.000000 
#    z 0.000000 0.000000 1.591590 
# 
# From -- ./inp_files/37116.got.cif
#   From: 2010.05.17/outbox.cif.g08.bks.cpg/sg51_19_cif.got.tgz:37116.got - 2010.06.03 11:52:47.
