data_PCOD9404850
_publ_section_title
;
Structure prediction by ZEFSAII (Michael W. Deem and Ramdas Pophale) SiO2 
 PCOD9404850
Probable space group: P M M A
;
_chemical_formula_sum "Si O2"
_cell_formula_units_Z 48
_cell_length_a 10.062056
_cell_length_b 30.797536
_cell_length_c 9.055457
_cell_angle_alpha 90.000000
_cell_angle_beta 90.000000
_cell_angle_gamma 90.000000
_cell_volume 2806.164164
_symmetry_space_group_name_H-M "P M M A"
_symmetry_group_IT_number 51
_symmetry_cell_setting 'orthorhombic'
loop_
_space_group_symop_operation_xyz
x,y,z
1/2-x,-y,z
1/2+x,-y,-z
-x,y,-z
-x,-y,-z
1/2+x,y,-z
1/2-x,y,z
x,-y,z
loop_
_atom_site_type_symbol
_atom_site_label
_atom_site_fract_x
_atom_site_fract_y
_atom_site_fract_z
Si Si1 0.595907 0.777446 0.359745
Si Si2 0.906656 0.872264 0.357200
Si Si3 0.910374 0.681199 0.350208
Si Si4 0.250000 0.447178 0.323169
Si Si5 0.405985 0.951309 0.858757
Si Si6 0.250000 0.551429 0.671105
Si Si7 0.504596 0.402663 0.176716
O O1 0.500000 0.777800 0.500000
O O2 0.750000 0.777144 0.408816
O O3 0.575141 0.824281 0.283960
O O4 0.574950 0.730373 0.287403
O O5 0.750000 0.875609 0.397436
O O6 0.937686 0.912415 0.251881
O O7 0.000000 0.874043 0.500000
O O8 0.750000 0.673971 0.376154
O O9 0.967784 0.645467 0.239421
O O10 0.000000 0.678349 0.500000
O O11 0.250000 0.500000 0.308512
O O12 0.250000 0.436129 0.497927
O O13 0.375325 0.425041 0.245636
O O14 0.250000 0.947307 0.899967
O O15 0.423286 0.000000 0.794219
O O16 0.500000 0.948295 0.000000
O O17 0.250000 0.500000 0.674419
O O18 0.124377 0.569493 0.756929
O O19 0.500000 0.403011 0.000000
#
# Coordination Sequence:
#
# PCOD9404850 Si02
#       7
#     8   8   8   4   8   4   8
#     4   8  15  29  50  75 102 133 172 214 259 308
#     4   9  17  30  49  74 103 133 168 216 266 314
#     4  10  20  36  59  83 107 141 183 221 260 319
#     4  11  25  43  65  87 111 147 187 223 260 317
#     4   9  18  32  48  68  97 135 179 221 264 318
#     4  11  23  43  65  85 109 143 189 225 258 317
#     4  12  25  39  58  87 119 146 175 222 277 321
#
# _framework density 17.105201000000001
#
# number of rings (size 3 to 8) (size 9 to 14) (size 15 to 20)
#    0.000    2.167    0.833    2.500    1.167    4.333 
#    0.000    0.833    0.000    0.000    0.000    0.000 
#    0.000    0.000    0.000    0.000    0.000    0.000 
#
# Total GULP energy -267299.436154 kJ/mol
# GULP energy per Si atom -5568.738253 kJ/mol
# Density = 1.706627 g / cm^3
# Si number density = 17.105201 Si / 1000 Ang^3
#
#
#
# Elastic Constant Matrix: (Units=GPa)
#
#
# Indices 1 2 3 4 5 6 
#
# 1 99.3290 67.2094 53.5801 0.0000 0.0000 0.0000
# 2 67.2094 172.6844 83.6430 0.0000 0.0000 0.0000
# 3 53.5801 83.6430 108.5483 0.0000 0.0000 0.0000
# 4 0.0000 0.0000 0.0000 -11.7412 0.0000 0.0000
# 5 0.0000 0.0000 0.0000 0.0000 23.1969 0.0000
# 6 0.0000 0.0000 0.0000 0.0000 0.0000 19.2596
#
#
#
# Elastic Compliance Matrix: (Units=1/GPa)
#
#
# Indices 1 2 3 4 5 6 
#
# 1 0.014999 -0.003592 -0.004635 0.000000 0.000000 0.000000
# 2 -0.003592 0.010100 -0.006009 0.000000 0.000000 0.000000
# 3 -0.004635 -0.006009 0.016131 0.000000 0.000000 0.000000
# 4 0.000000 0.000000 0.000000 -0.085170 0.000000 0.000000
# 5 0.000000 0.000000 0.000000 0.000000 0.043109 0.000000
# 6 0.000000 0.000000 0.000000 0.000000 0.000000 0.051922
#
#
# Mechanical properties :
#
#
# Convention : Reuss Voigt Hill
#
# Bulk Modulus (GPa) = 78.39709 87.71407 83.05558
# Shear Modulus (GPa) = 59.65397 17.88498 38.76948
#
# Velocity S-wave (km/s) = 5.91189 3.23706 4.76598
# Velocity P-wave (km/s) = 9.61938 8.08467 8.88522
#
# Compressibility (1/GPa) = 0.01275558
#
# Stress axis : x y z
#
# Youngs Moduli (GPa) = 66.67274 99.01221 61.99230
#
# Poissons Ratio (x) = 0.35568 0.28735
# Poissons Ratio (y) = 0.23951 0.37253
# Poissons Ratio (z) = 0.30905 0.59499
#
# Static dielectric constant tensor:
#      x y z
#    x 1.550620 0.000000 0.000000 
#    y 0.000000 1.634470 0.000000 
#    z 0.000000 0.000000 1.527380 
# 
# From -- ./inp_files/6104.got.cif
#   From: 2010.05.17/outbox.cif.g08.bks.cpg/sg51_4_cif.got.tgz:6104.got - 2010.06.03 11:52:47.
