data_PCOD9404458
_publ_section_title
;
Structure prediction by ZEFSAII (Michael W. Deem and Ramdas Pophale) SiO2 
 PCOD9404458
Probable space group: P M M A
;
_chemical_formula_sum "Si O2"
_cell_formula_units_Z 56
_cell_length_a 15.837200
_cell_length_b 9.559598
_cell_length_c 19.946818
_cell_angle_alpha 90.000000
_cell_angle_beta 90.000000
_cell_angle_gamma 90.000000
_cell_volume 3019.893700
_symmetry_space_group_name_H-M "P M M A"
_symmetry_group_IT_number 51
_symmetry_cell_setting 'orthorhombic'
loop_
_space_group_symop_operation_xyz
x,y,z
1/2-x,-y,z
1/2+x,-y,-z
-x,y,-z
-x,-y,-z
1/2+x,y,-z
1/2-x,y,z
x,-y,z
loop_
_atom_site_type_symbol
_atom_site_label
_atom_site_fract_x
_atom_site_fract_y
_atom_site_fract_z
Si Si1 0.155748 0.832894 0.332556
Si Si2 0.647764 0.840072 0.071030
Si Si3 0.506321 0.167643 0.421271
Si Si4 0.899616 0.662299 0.795002
Si Si5 0.845438 0.332712 0.348104
Si Si6 0.147960 0.660771 0.055800
Si Si7 0.899790 0.660937 0.199775
O O1 0.250000 0.801690 0.358607
O O2 0.142189 0.754227 0.262445
O O3 0.080428 0.793841 0.383020
O O4 0.150344 0.000000 0.321825
O O5 0.750000 0.840999 0.069199
O O6 0.621238 0.759711 0.137972
O O7 0.618180 0.000000 0.070959
O O8 0.618098 0.756538 0.005212
O O9 0.500000 0.199084 0.500000
O O10 0.584056 0.248452 0.388024
O O11 0.518128 0.000000 0.413935
O O12 0.871515 0.500000 0.789845
O O13 0.879664 0.709828 0.870610
O O14 0.000336 0.666074 0.785979
O O15 0.750000 0.301111 0.370303
O O16 0.859591 0.500000 0.354501
O O17 0.854197 0.300167 0.268908
O O18 0.250000 0.659630 0.054859
O O19 0.118699 0.500000 0.047097
O O20 0.877175 0.500000 0.182644
#
# Coordination Sequence:
#
# PCOD9404458 Si02
#       7
#     8   8   8   8   8   8   8
#     4  10  21  37  58  85 118 154 191 235 288 342
#     4  10  21  35  51  74 105 143 189 237 284 339
#     4  10  22  40  62  89 121 157 195 235 282 342
#     4  10  20  35  57  83 109 143 190 239 284 339
#     4  10  21  38  61  89 120 155 196 241 292 346
#     4   9  18  33  52  74 103 140 183 232 284 338
#     4  10  20  35  56  80 110 147 187 236 291 342
#
# _framework density 18.543700000000001
#
# number of rings (size 3 to 8) (size 9 to 14) (size 15 to 20)
#    0.000    2.143    1.429    1.286    0.000    5.714 
#    0.000    5.714    0.000    0.000    0.000    0.000 
#    0.000    0.000    0.000    0.000    0.000    0.000 
#
# Total GULP energy -312669.984380 kJ/mol
# GULP energy per Si atom -5583.392578 kJ/mol
# Density = 1.850149 g / cm^3
# Si number density = 18.543700 Si / 1000 Ang^3
#
#
#
# Elastic Constant Matrix: (Units=GPa)
#
#
# Indices 1 2 3 4 5 6 
#
# 1 101.1809 49.8905 69.6555 0.0000 0.0000 0.0000
# 2 49.8905 62.6983 72.5008 0.0000 0.0000 0.0000
# 3 69.6555 72.5008 141.5631 0.0000 0.0000 0.0000
# 4 0.0000 0.0000 0.0000 31.5872 0.0000 0.0000
# 5 0.0000 0.0000 0.0000 0.0000 -46.6683 0.0000
# 6 0.0000 0.0000 0.0000 0.0000 0.0000 25.6963
#
#
#
# Elastic Compliance Matrix: (Units=1/GPa)
#
#
# Indices 1 2 3 4 5 6 
#
# 1 0.016949 -0.009424 -0.003513 0.000000 0.000000 0.000000
# 2 -0.009424 0.044353 -0.018078 0.000000 0.000000 0.000000
# 3 -0.003513 -0.018078 0.018051 0.000000 0.000000 0.000000
# 4 0.000000 0.000000 0.000000 0.031658 0.000000 0.000000
# 5 0.000000 0.000000 0.000000 0.000000 -0.021428 0.000000
# 6 0.000000 0.000000 0.000000 0.000000 0.000000 0.038916
#
#
# Mechanical properties :
#
#
# Convention : Reuss Voigt Hill
#
# Bulk Modulus (GPa) = 57.72924 76.61511 67.17218
# Shear Modulus (GPa) = 25.47081 9.68273 17.57677
#
# Velocity S-wave (km/s) = 3.71017 2.28756 3.08207
# Velocity P-wave (km/s) = 7.03938 6.95578 6.99771
#
# Compressibility (1/GPa) = 0.01732224
#
# Stress axis : x y z
#
# Youngs Moduli (GPa) = 59.00189 22.54653 55.39878
#
# Poissons Ratio (x) = 0.21249 0.19461
# Poissons Ratio (y) = 0.55605 1.00149
# Poissons Ratio (z) = 0.20727 0.40759
#
# Static dielectric constant tensor:
#      x y z
#    x 1.652770 0.000000 0.000000 
#    y 0.000000 1.627380 0.000000 
#    z 0.000000 0.000000 1.604900 
# 
# From -- ./inp_files/33332.got.cif
#   From: 2010.05.17/outbox.cif.g08.bks.cpg/sg51_17_cif.got.tgz:33332.got - 2010.06.03 11:52:47.
