data_PCOD9404718
_publ_section_title
;
Structure prediction by ZEFSAII (Michael W. Deem and Ramdas Pophale) SiO2 
 PCOD9404718
Probable space group: P M M A
;
_chemical_formula_sum "Si O2"
_cell_formula_units_Z 48
_cell_length_a 8.326502
_cell_length_b 31.935837
_cell_length_c 9.593629
_cell_angle_alpha 90.000000
_cell_angle_beta 90.000000
_cell_angle_gamma 90.000000
_cell_volume 2551.078445
_symmetry_space_group_name_H-M "P M M A"
_symmetry_group_IT_number 51
_symmetry_cell_setting 'orthorhombic'
loop_
_space_group_symop_operation_xyz
x,y,z
1/2-x,-y,z
1/2+x,-y,-z
-x,y,-z
-x,-y,-z
1/2+x,y,-z
1/2-x,y,z
x,-y,z
loop_
_atom_site_type_symbol
_atom_site_label
_atom_site_fract_x
_atom_site_fract_y
_atom_site_fract_z
Si Si1 0.056026 0.748973 0.342831
Si Si2 0.057420 0.843320 0.341534
Si Si3 0.055957 0.578506 0.158821
Si Si4 0.055589 0.000000 0.659965
Si Si5 0.555623 0.500000 0.658498
Si Si6 0.058078 0.079721 0.840985
Si Si7 0.444039 0.328117 0.158048
O O1 0.250000 0.748844 0.338801
O O2 0.003440 0.796051 0.302773
O O3 0.996418 0.710905 0.248246
O O4 0.000000 0.742115 0.500000
O O5 0.250000 0.844303 0.341751
O O6 0.000000 0.851853 0.500000
O O7 0.995173 0.877696 0.234368
O O8 0.250000 0.578035 0.158544
O O9 0.999630 0.541390 0.258906
O O10 0.003303 0.625241 0.204074
O O11 0.000000 0.571769 0.000000
O O12 0.000265 0.040927 0.745437
O O13 0.000000 0.000000 0.500000
O O14 0.250000 0.000000 0.658865
O O15 0.750000 0.500000 0.660824
O O16 0.500000 0.500000 0.500000
O O17 0.250000 0.078212 0.842911
O O18 0.000000 0.076743 0.000000
O O19 0.250000 0.327716 0.161965
O O20 0.500000 0.323093 0.000000
#
# Coordination Sequence:
#
# PCOD9404718 Si02
#       7
#     8   8   8   4   4   8   8
#     4   9  19  34  52  75 104 136 172 212 256 303
#     4  10  20  36  56  79 107 141 179 219 261 311
#     4   9  18  33  52  72  97 129 167 207 250 300
#     4  10  23  40  60  84 110 142 179 216 259 310
#     4  10  21  34  48  72 102 130 161 204 252 300
#     4  11  23  39  58  83 112 143 178 219 265 311
#     4   9  18  33  51  73 100 131 167 209 253 301
#
# _framework density 18.815573000000001
#
# number of rings (size 3 to 8) (size 9 to 14) (size 15 to 20)
#    0.000    2.333    0.000    2.000    0.000    6.000 
#    0.000    1.667    0.000    0.000    0.000    0.000 
#    0.000    0.000    0.000    0.000    0.000    0.000 
#
# Total GULP energy -267869.245690 kJ/mol
# GULP energy per Si atom -5580.609285 kJ/mol
# Density = 1.877275 g / cm^3
# Si number density = 18.815573 Si / 1000 Ang^3
#
#
#
# Elastic Constant Matrix: (Units=GPa)
#
#
# Indices 1 2 3 4 5 6 
#
# 1 14.9194 25.9516 17.9705 0.0000 0.0000 0.0000
# 2 25.9516 209.2149 135.5734 0.0000 0.0000 0.0000
# 3 17.9705 135.5734 141.6487 0.0000 0.0000 0.0000
# 4 0.0000 0.0000 0.0000 37.0009 0.0000 0.0000
# 5 0.0000 0.0000 0.0000 0.0000 34.6933 0.0000
# 6 0.0000 0.0000 0.0000 0.0000 0.0000 27.4432
#
#
#
# Elastic Compliance Matrix: (Units=1/GPa)
#
#
# Indices 1 2 3 4 5 6 
#
# 1 0.085649 -0.009434 -0.001837 0.000000 0.000000 0.000000
# 2 -0.009434 0.013625 -0.011843 0.000000 0.000000 0.000000
# 3 -0.001837 -0.011843 0.018628 0.000000 0.000000 0.000000
# 4 0.000000 0.000000 0.000000 0.027026 0.000000 0.000000
# 5 0.000000 0.000000 0.000000 0.000000 0.028824 0.000000
# 6 0.000000 0.000000 0.000000 0.000000 0.000000 0.036439
#
#
# Mechanical properties :
#
#
# Convention : Reuss Voigt Hill
#
# Bulk Modulus (GPa) = 13.95211 80.53044 47.24127
# Shear Modulus (GPa) = 17.83736 32.24665 25.04201
#
# Velocity S-wave (km/s) = 3.08232 4.14433 3.65213
# Velocity P-wave (km/s) = 4.48318 8.11132 6.55333
#
# Compressibility (1/GPa) = 0.07167373
#
# Stress axis : x y z
#
# Youngs Moduli (GPa) = 11.67555 73.39641 53.68203
#
# Poissons Ratio (x) = 0.69241 0.09860
# Poissons Ratio (y) = 0.11015 0.63578
# Poissons Ratio (z) = 0.02145 0.86927
#
# Static dielectric constant tensor:
#      x y z
#    x 1.651370 0.000000 0.000000 
#    y 0.000000 1.684020 0.000000 
#    z 0.000000 0.000000 1.572650 
# 
# From -- ./inp_files/6140.got.cif
#   From: 2010.05.17/outbox.cif.g08.bks.cpg/sg51_4_cif.got.tgz:6140.got - 2010.06.03 11:52:47.
