data_PCOD9404570
_publ_section_title
;
Structure prediction by ZEFSAII (Michael W. Deem and Ramdas Pophale) SiO2 
 PCOD9404570
Probable space group: P M M A
;
_chemical_formula_sum "Si O2"
_cell_formula_units_Z 48
_cell_length_a 9.453328
_cell_length_b 9.430065
_cell_length_c 28.934159
_cell_angle_alpha 90.000000
_cell_angle_beta 90.000000
_cell_angle_gamma 90.000000
_cell_volume 2579.349999
_symmetry_space_group_name_H-M "P M M A"
_symmetry_group_IT_number 51
_symmetry_cell_setting 'orthorhombic'
loop_
_space_group_symop_operation_xyz
x,y,z
1/2-x,-y,z
1/2+x,-y,-z
-x,y,-z
-x,-y,-z
1/2+x,y,-z
1/2-x,y,z
x,-y,z
loop_
_atom_site_type_symbol
_atom_site_label
_atom_site_fract_x
_atom_site_fract_y
_atom_site_fract_z
Si Si1 0.910798 0.665941 0.707074
Si Si2 0.413738 0.672320 0.954822
Si Si3 0.582017 0.670273 0.861270
Si Si4 0.250000 0.833205 0.567905
Si Si5 0.250000 0.338200 0.473850
Si Si6 0.506959 0.662100 0.601782
Si Si7 0.082770 0.830631 0.780034
O O1 0.750000 0.699812 0.721682
O O2 0.937027 0.500000 0.718500
O O3 0.921932 0.678801 0.651742
O O4 0.021831 0.764731 0.732814
O O5 0.250000 0.720889 0.953768
O O6 0.409300 0.500000 0.956829
O O7 0.501317 0.707942 0.908797
O O8 0.500000 0.720849 0.000000
O O9 0.750000 0.699954 0.863971
O O10 0.566787 0.500000 0.854081
O O11 0.506431 0.754538 0.820255
O O12 0.250000 0.765829 0.516748
O O13 0.385047 0.774066 0.594577
O O14 0.250000 0.000000 0.564866
O O15 0.250000 0.500000 0.491711
O O16 0.383544 0.321441 0.440161
O O17 0.451823 0.500000 0.599714
O O18 0.250000 0.800572 0.784987
O O19 0.063283 0.000000 0.781207
#
# Coordination Sequence:
#
# PCOD9404570 Si02
#       7
#     8   8   8   4   4   8   8
#     4  10  21  40  65  90 112 139 185 239 287 339
#     4   9  16  27  47  78 116 154 193 242 297 346
#     4  10  20  35  57  85 115 150 196 244 289 342
#     4  12  26  38  54  86 126 158 190 230 277 336
#     4  10  20  40  66  88 112 148 194 240 283 336
#     4  10  21  40  64  88 113 147 191 237 285 336
#     4  11  25  41  57  82 117 153 189 230 283 346
#
# _framework density 18.609338000000001
#
# number of rings (size 3 to 8) (size 9 to 14) (size 15 to 20)
#    0.000    1.833    0.833    3.250    1.167   10.000 
#    0.000    0.000    0.000    0.500    0.000    0.000 
#    0.000    0.000    0.000    0.000    0.000    0.000 
#
# Total GULP energy -268095.265616 kJ/mol
# GULP energy per Si atom -5585.318034 kJ/mol
# Density = 1.856698 g / cm^3
# Si number density = 18.609338 Si / 1000 Ang^3
#
#
#
# Elastic Constant Matrix: (Units=GPa)
#
#
# Indices 1 2 3 4 5 6 
#
# 1 141.4402 67.9324 45.2356 0.0000 0.0000 0.0000
# 2 67.9324 73.0530 35.3423 0.0000 0.0000 0.0000
# 3 45.2356 35.3423 83.6654 0.0000 0.0000 0.0000
# 4 0.0000 0.0000 0.0000 -19.8600 0.0000 0.0000
# 5 0.0000 0.0000 0.0000 0.0000 25.2287 0.0000
# 6 0.0000 0.0000 0.0000 0.0000 0.0000 368.1067
#
#
#
# Elastic Compliance Matrix: (Units=1/GPa)
#
#
# Indices 1 2 3 4 5 6 
#
# 1 0.013163 -0.011057 -0.002446 0.000000 0.000000 0.000000
# 2 -0.011057 0.026493 -0.005213 0.000000 0.000000 0.000000
# 3 -0.002446 -0.005213 0.015477 0.000000 0.000000 0.000000
# 4 0.000000 0.000000 0.000000 -0.050352 0.000000 0.000000
# 5 0.000000 0.000000 0.000000 0.000000 0.039637 0.000000
# 6 0.000000 0.000000 0.000000 0.000000 0.000000 0.002717
#
#
# Mechanical properties :
#
#
# Convention : Reuss Voigt Hill
#
# Bulk Modulus (GPa) = 56.49544 66.13103 61.31323
# Shear Modulus (GPa) = 55.26928 84.67164 69.97046
#
# Velocity S-wave (km/s) = 5.45566 6.75265 6.13851
# Velocity P-wave (km/s) = 8.37318 9.81893 9.12474
#
# Compressibility (1/GPa) = 0.01770054
#
# Stress axis : x y z
#
# Youngs Moduli (GPa) = 75.97063 37.74652 64.61200
#
# Poissons Ratio (x) = 0.41736 0.15805
# Poissons Ratio (y) = 0.84000 0.33682
# Poissons Ratio (z) = 0.18584 0.19677
#
# Static dielectric constant tensor:
#      x y z
#    x 1.537180 0.000000 0.000000 
#    y 0.000000 1.608260 0.000000 
#    z 0.000000 0.000000 1.636010 
# 
# From -- ./inp_files/37070.got.cif
#   From: 2010.05.17/outbox.cif.g08.bks.cpg/sg51_19_cif.got.tgz:37070.got - 2010.06.03 11:52:47.
