data_PCOD9404216
_publ_section_title
;
Structure prediction by ZEFSAII (Michael W. Deem and Ramdas Pophale) SiO2 
 PCOD9404216
Probable space group: P M M A
;
_chemical_formula_sum "Si O2"
_cell_formula_units_Z 64
_cell_length_a 8.940457
_cell_length_b 24.682743
_cell_length_c 15.125639
_cell_angle_alpha 90.000000
_cell_angle_beta 90.000000
_cell_angle_gamma 90.000000
_cell_volume 3337.850423
_symmetry_space_group_name_H-M "P M M A"
_symmetry_group_IT_number 51
_symmetry_cell_setting 'orthorhombic'
loop_
_space_group_symop_operation_xyz
x,y,z
1/2-x,-y,z
1/2+x,-y,-z
-x,y,-z
-x,-y,-z
1/2+x,y,-z
1/2-x,y,z
x,-y,z
loop_
_atom_site_type_symbol
_atom_site_label
_atom_site_fract_x
_atom_site_fract_y
_atom_site_fract_z
Si Si1 0.569454 0.660086 0.097342
Si Si2 0.078235 0.415834 0.409197
Si Si3 0.077129 0.284788 0.409148
Si Si4 0.427735 0.127257 0.246474
Si Si5 0.929185 0.243217 0.230242
Si Si6 0.570334 0.560349 0.221699
Si Si7 0.571312 0.937471 0.403361
Si Si8 0.577905 0.934852 0.090446
O O1 0.750000 0.658105 0.089983
O O2 0.530489 0.713729 0.153791
O O3 0.520534 0.608058 0.155826
O O4 0.500000 0.660059 0.000000
O O5 0.250000 0.433509 0.408095
O O6 0.076113 0.350199 0.409832
O O7 0.000000 0.433904 0.500000
O O8 0.997322 0.433305 0.319436
O O9 0.250000 0.266721 0.404216
O O10 0.000000 0.266005 0.500000
O O11 0.985776 0.265988 0.324068
O O12 0.250000 0.129394 0.253846
O O13 0.493285 0.185424 0.219839
O O14 0.499250 0.105261 0.336965
O O15 0.481498 0.085923 0.171570
O O16 0.750000 0.237602 0.231222
O O17 0.750000 0.564741 0.229669
O O18 0.533849 0.500000 0.188093
O O19 0.500000 0.931719 0.500000
O O20 0.750000 0.930481 0.406970
O O21 0.542219 0.000000 0.373814
O O22 0.750000 0.915947 0.096916
O O23 0.580294 0.000000 0.090442
O O24 0.500000 0.916489 0.000000
#
# Coordination Sequence:
#
# PCOD9404216 Si02
#       8
#     8   8   8   8   8   8   8   8
#     4  10  23  42  65  89 115 152 195 244 303 362
#     4  10  20  34  57  87 121 158 196 237 285 346
#     4  10  20  35  58  87 116 151 192 237 286 344
#     4  12  25  39  59  89 124 160 202 251 302 359
#     4  11  23  41  62  85 117 156 200 248 299 357
#     4  10  21  39  62  89 122 157 197 246 298 355
#     4  10  21  39  63  91 125 166 211 257 305 359
#     4  10  21  39  63  90 120 155 196 243 298 357
#
# _framework density 19.174016000000002
#
# number of rings (size 3 to 8) (size 9 to 14) (size 15 to 20)
#    0.000    1.625    1.250    3.375    0.000    7.250 
#    0.000    3.750    0.000    0.000    0.000    0.000 
#    0.000    0.000    0.000    0.000    0.000    0.000 
#
# Total GULP energy -357664.252009 kJ/mol
# GULP energy per Si atom -5588.503938 kJ/mol
# Density = 1.913038 g / cm^3
# Si number density = 19.174016 Si / 1000 Ang^3
#
#
#
# Elastic Constant Matrix: (Units=GPa)
#
#
# Indices 1 2 3 4 5 6 
#
# 1 98.9483 48.4056 48.3723 0.0000 0.0000 0.0000
# 2 48.4056 65.6031 47.2113 0.0000 0.0000 0.0000
# 3 48.3723 47.2113 133.7708 0.0000 0.0000 0.0000
# 4 0.0000 0.0000 0.0000 15.1171 0.0000 0.0000
# 5 0.0000 0.0000 0.0000 0.0000 39.3675 0.0000
# 6 0.0000 0.0000 0.0000 0.0000 0.0000 25.7803
#
#
#
# Elastic Compliance Matrix: (Units=1/GPa)
#
#
# Indices 1 2 3 4 5 6 
#
# 1 0.016288 -0.010428 -0.002209 0.000000 0.000000 0.000000
# 2 -0.010428 0.027109 -0.005797 0.000000 0.000000 0.000000
# 3 -0.002209 -0.005797 0.010320 0.000000 0.000000 0.000000
# 4 0.000000 0.000000 0.000000 0.066150 0.000000 0.000000
# 5 0.000000 0.000000 0.000000 0.000000 0.025402 0.000000
# 6 0.000000 0.000000 0.000000 0.000000 0.000000 0.038789
#
#
# Mechanical properties :
#
#
# Convention : Reuss Voigt Hill
#
# Bulk Modulus (GPa) = 59.35124 65.14451 62.24787
# Shear Modulus (GPa) = 22.07086 26.34184 24.20635
#
# Velocity S-wave (km/s) = 3.39644 3.71054 3.55696
# Velocity P-wave (km/s) = 6.81192 7.23924 7.02883
#
# Compressibility (1/GPa) = 0.01684885
#
# Stress axis : x y z
#
# Youngs Moduli (GPa) = 61.39559 36.88788 96.89701
#
# Poissons Ratio (x) = 0.38467 0.21409
# Poissons Ratio (y) = 0.64024 0.56169
# Poissons Ratio (z) = 0.13565 0.21383
#
# Static dielectric constant tensor:
#      x y z
#    x 1.644290 0.000000 0.000000 
#    y 0.000000 1.690890 0.000000 
#    z 0.000000 0.000000 1.657610 
# 
# From -- ./inp_files/22267.got.cif
#   From: 2010.05.17/outbox.cif.g08.bks.cpg/sg51_12_cif.got.tgz:22267.got - 2010.06.03 11:52:47.
