data_PCOD9404595
_publ_section_title
;
Structure prediction by ZEFSAII (Michael W. Deem and Ramdas Pophale) SiO2 
 PCOD9404595
Probable space group: P M M A
;
_chemical_formula_sum "Si O2"
_cell_formula_units_Z 32
_cell_length_a 14.692252
_cell_length_b 11.462703
_cell_length_c 8.261136
_cell_angle_alpha 90.000000
_cell_angle_beta 90.000000
_cell_angle_gamma 90.000000
_cell_volume 1391.282045
_symmetry_space_group_name_H-M "P M M A"
_symmetry_group_IT_number 51
_symmetry_cell_setting 'orthorhombic'
loop_
_space_group_symop_operation_xyz
x,y,z
1/2-x,-y,z
1/2+x,-y,-z
-x,y,-z
-x,-y,-z
1/2+x,y,-z
1/2-x,y,z
x,-y,z
loop_
_atom_site_type_symbol
_atom_site_label
_atom_site_fract_x
_atom_site_fract_y
_atom_site_fract_z
Si Si1 0.898145 0.252780 0.656970
Si Si2 0.359411 0.000000 0.849974
Si Si3 0.898702 0.361756 0.334937
Si Si4 0.360284 0.000000 0.469081
Si Si5 0.394574 0.252637 0.986328
O O1 0.855003 0.315324 0.500869
O O2 0.896694 0.115939 0.616400
O O3 0.856035 0.271293 0.834264
O O4 0.001085 0.302156 0.665836
O O5 0.250000 0.000000 0.855936
O O6 0.385207 0.000000 0.659832
O O7 0.391991 0.116640 0.938319
O O8 0.907048 0.500000 0.339709
O O9 0.854289 0.320089 0.167437
O O10 0.250000 0.000000 0.458298
O O11 0.500000 0.289936 0.000000
#
# Coordination Sequence:
#
# PCOD9404595 Si02
#       5
#     8   4   8   4   8
#     4  10  20  35  58  84 115 147 187 234 287 339
#     4  11  22  39  59  82 119 157 189 237 300 357
#     4  10  21  37  58  86 119 150 187 235 287 338
#     4  11  23  38  59  84 116 156 193 236 291 357
#     4  10  21  36  58  89 117 150 189 240 291 350
#
# _framework density 23.000368000000002
#
# number of rings (size 3 to 8) (size 9 to 14) (size 15 to 20)
#    0.000    1.750    2.500    2.625    0.000   12.500 
#    0.000    0.000    0.000    5.250    0.000   10.500 
#    0.000    0.000    0.000    0.000    0.000    0.000 
#
# Total GULP energy -178843.180199 kJ/mol
# GULP energy per Si atom -5588.849381 kJ/mol
# Density = 2.294802 g / cm^3
# Si number density = 23.000368 Si / 1000 Ang^3
#
#
#
# Elastic Constant Matrix: (Units=GPa)
#
#
# Indices 1 2 3 4 5 6 
#
# 1 85.4847 20.4797 25.9694 0.0000 0.0000 0.0000
# 2 20.4797 176.0174 81.6174 0.0000 0.0000 0.0000
# 3 25.9694 81.6174 288.2257 0.0000 0.0000 0.0000
# 4 0.0000 0.0000 0.0000 -8.4787 0.0000 0.0000
# 5 0.0000 0.0000 0.0000 0.0000 -19.7057 0.0000
# 6 0.0000 0.0000 0.0000 0.0000 0.0000 -106.6698
#
#
#
# Elastic Compliance Matrix: (Units=1/GPa)
#
#
# Indices 1 2 3 4 5 6 
#
# 1 0.012192 -0.001047 -0.000802 0.000000 0.000000 0.000000
# 2 -0.001047 0.006630 -0.001783 0.000000 0.000000 0.000000
# 3 -0.000802 -0.001783 0.004047 0.000000 0.000000 0.000000
# 4 0.000000 0.000000 0.000000 -0.117942 0.000000 0.000000
# 5 0.000000 0.000000 0.000000 0.000000 -0.050747 0.000000
# 6 0.000000 0.000000 0.000000 0.000000 0.000000 -0.009375
#
#
# Mechanical properties :
#
#
# Convention : Reuss Voigt Hill
#
# Bulk Modulus (GPa) = 64.08126 89.54009 76.81068
# Shear Modulus (GPa) = -35.03138 1.13991 -16.94574
#
# Velocity S-wave (km/s) = -3.90690 0.70475 -2.71728
# Velocity P-wave (km/s) = 2.75130 6.29894 4.86036
#
# Compressibility (1/GPa) = 0.01560519
#
# Stress axis : x y z
#
# Youngs Moduli (GPa) = 82.01810 150.83356 247.11510
#
# Poissons Ratio (x) = 0.15787 0.19823
# Poissons Ratio (y) = 0.08584 0.44063
# Poissons Ratio (z) = 0.06579 0.26895
#
# Static dielectric constant tensor:
#      x y z
#    x 1.849760 0.000000 0.000000 
#    y 0.000000 1.810910 0.000000 
#    z 0.000000 0.000000 1.948490 
# 
# From -- ./inp_files/9184.got.cif
#   From: 2010.05.17/outbox.cif.g08.bks.cpg/sg51_5_cif.got.tgz:9184.got - 2010.06.03 11:52:47.
