data_PCOD9404717
_publ_section_title
;
Structure prediction by ZEFSAII (Michael W. Deem and Ramdas Pophale) SiO2 
 PCOD9404717
Probable space group: P M M A
;
_chemical_formula_sum "Si O2"
_cell_formula_units_Z 40
_cell_length_a 17.086007
_cell_length_b 7.575591
_cell_length_c 12.101569
_cell_angle_alpha 90.000000
_cell_angle_beta 90.000000
_cell_angle_gamma 90.000000
_cell_volume 1566.385956
_symmetry_space_group_name_H-M "P M M A"
_symmetry_group_IT_number 51
_symmetry_cell_setting 'orthorhombic'
loop_
_space_group_symop_operation_xyz
x,y,z
1/2-x,-y,z
1/2+x,-y,-z
-x,y,-z
-x,-y,-z
1/2+x,y,-z
1/2-x,y,z
x,-y,z
loop_
_atom_site_type_symbol
_atom_site_label
_atom_site_fract_x
_atom_site_fract_y
_atom_site_fract_z
Si Si1 0.662670 0.701935 0.794405
Si Si2 0.581403 0.284346 0.447360
Si Si3 0.109305 0.799781 0.968114
Si Si4 0.750000 0.285821 0.451212
Si Si5 0.504927 0.287909 0.228196
Si Si6 0.250000 0.712872 0.808140
O O1 0.750000 0.779318 0.780673
O O2 0.667398 0.500000 0.753180
O O3 0.582352 0.781253 0.746091
O O4 0.640378 0.696184 0.925061
O O5 0.500000 0.226146 0.500000
O O6 0.582737 0.500000 0.453915
O O7 0.665268 0.224013 0.493670
O O8 0.568062 0.233419 0.319373
O O9 0.176284 0.780102 0.876106
O O10 0.033191 0.753626 0.895098
O O11 0.103406 0.000000 0.006366
O O12 0.750000 0.500000 0.461286
O O13 0.750000 0.241325 0.320717
O O14 0.500681 0.500000 0.235111
O O15 0.250000 0.500000 0.812016
#
# Coordination Sequence:
#
# PCOD9404717 Si02
#       6
#     8   8   8   4   8   4
#     4  10  21  36  53  74 107 151 191 225 269 328
#     4   9  17  31  52  81 111 137 177 232 280 326
#     4  12  23  34  53  83 112 142 184 232 277 321
#     4   9  16  29  53  80 105 138 174 217 279 327
#     4  10  20  36  56  78 108 148 188 227 276 331
#     4  11  19  33  57  80 109 146 184 225 271 327
#
# _framework density 25.536490000000001
#
# number of rings (size 3 to 8) (size 9 to 14) (size 15 to 20)
#    0.000    1.800    3.000    2.700    0.000    3.200 
#    1.800    0.000    0.000    0.600    0.000    0.000 
#    0.000    0.000    0.000    0.000    0.000    0.000 
#
# Total GULP energy -223448.450386 kJ/mol
# GULP energy per Si atom -5586.211260 kJ/mol
# Density = 2.547837 g / cm^3
# Si number density = 25.536490 Si / 1000 Ang^3
#
#
#
# Elastic Constant Matrix: (Units=GPa)
#
#
# Indices 1 2 3 4 5 6 
#
# 1 249.6689 5.9408 20.8703 0.0000 0.0000 0.0000
# 2 5.9408 65.6284 -9.2145 0.0000 0.0000 0.0000
# 3 20.8703 -9.2145 45.9025 0.0000 0.0000 0.0000
# 4 0.0000 0.0000 0.0000 84.2418 0.0000 0.0000
# 5 0.0000 0.0000 0.0000 0.0000 41.2182 0.0000
# 6 0.0000 0.0000 0.0000 0.0000 0.0000-1020.4046
#
#
#
# Elastic Compliance Matrix: (Units=1/GPa)
#
#
# Indices 1 2 3 4 5 6 
#
# 1 0.004192 -0.000666 -0.002039 0.000000 0.000000 0.000000
# 2 -0.000666 0.015785 0.003471 0.000000 0.000000 0.000000
# 3 -0.002039 0.003471 0.023409 0.000000 0.000000 0.000000
# 4 0.000000 0.000000 0.000000 0.011871 0.000000 0.000000
# 5 0.000000 0.000000 0.000000 0.000000 0.024261 0.000000
# 6 0.000000 0.000000 0.000000 0.000000 0.000000 -0.000980
#
#
# Mechanical properties :
#
#
# Convention : Reuss Voigt Hill
#
# Bulk Modulus (GPa) = 22.26261 44.04366 33.15314
# Shear Modulus (GPa) = 54.36070 -156.08206 -50.86068
#
# Velocity S-wave (km/s) = 4.61884 -7.82649 -4.46767
# Velocity P-wave (km/s) = 6.09769 8.02415 3.68817
#
# Compressibility (1/GPa) = 0.04491836
#
# Stress axis : x y z
#
# Youngs Moduli (GPa) = 238.57085 63.35137 42.71785
#
# Poissons Ratio (x) = 0.04218 0.08712
# Poissons Ratio (y) = 0.15884 -0.14829
# Poissons Ratio (z) = 0.48655 -0.21992
#
# Static dielectric constant tensor:
#      x y z
#    x 2.052260 0.000000 0.000000 
#    y 0.000000 1.976800 0.000000 
#    z 0.000000 0.000000 2.023470 
# 
# From -- ./inp_files/23783.got.cif
#   From: 2010.05.17/outbox.cif.g08.bks.cpg/sg51_12_cif.got.tgz:23783.got - 2010.06.03 11:52:47.
