data_PCOD9404792
_publ_section_title
;
Structure prediction by ZEFSAII (Michael W. Deem and Ramdas Pophale) SiO2 
 PCOD9404792
Probable space group: P M M A
;
_chemical_formula_sum "Si O2"
_cell_formula_units_Z 64
_cell_length_a 14.091016
_cell_length_b 18.275485
_cell_length_c 12.562537
_cell_angle_alpha 90.000000
_cell_angle_beta 90.000000
_cell_angle_gamma 90.000000
_cell_volume 3235.106432
_symmetry_space_group_name_H-M "P M M A"
_symmetry_group_IT_number 51
_symmetry_cell_setting 'orthorhombic'
loop_
_space_group_symop_operation_xyz
x,y,z
1/2-x,-y,z
1/2+x,-y,-z
-x,y,-z
-x,-y,-z
1/2+x,y,-z
1/2-x,y,z
x,-y,z
loop_
_atom_site_type_symbol
_atom_site_label
_atom_site_fract_x
_atom_site_fract_y
_atom_site_fract_z
Si Si1 0.008413 0.192270 0.682720
Si Si2 0.858409 0.915514 0.707591
Si Si3 0.861220 0.083027 0.450096
Si Si4 0.135586 0.417911 0.580178
Si Si5 0.864274 0.307377 0.611060
Si Si6 0.860738 0.683420 0.224670
Si Si7 0.643255 0.420422 0.781633
Si Si8 0.889110 0.417906 0.025129
O O1 0.939288 0.138465 0.749099
O O2 0.933636 0.238854 0.612170
O O3 0.076313 0.142436 0.610052
O O4 0.073060 0.247065 0.752067
O O5 0.750000 0.893074 0.733070
O O6 0.867668 0.913805 0.578375
O O7 0.870702 0.000000 0.739903
O O8 0.750000 0.092818 0.424004
O O9 0.890197 0.000000 0.419318
O O10 0.250000 0.423483 0.579352
O O11 0.097424 0.500000 0.568500
O O12 0.113535 0.362818 0.484482
O O13 0.110243 0.379039 0.690246
O O14 0.750000 0.289304 0.608597
O O15 0.892255 0.351175 0.718279
O O16 0.750000 0.702411 0.244816
O O17 0.867215 0.644369 0.110080
O O18 0.750000 0.427399 0.737488
O O19 0.595473 0.500000 0.765706
O O20 0.650778 0.407456 0.906888
O O21 0.861669 0.500000 0.063458
O O22 0.000000 0.418452 0.000000
#
# Coordination Sequence:
#
# PCOD9404792 Si02
#       8
#     8   8   8   8   8   8   8   8
#     4  12  22  32  49  76 111 148 181 224 279 335
#     4   9  19  35  55  78 104 141 190 237 277 324
#     4   9  19  35  54  75 101 140 190 235 273 325
#     4   9  19  36  53  69 102 154 199 232 271 328
#     4  10  21  34  51  79 112 148 192 240 289 338
#     4  11  24  37  52  79 115 154 192 230 280 344
#     4   9  17  32  55  76  96 133 188 246 294 329
#     4  10  20  36  58  80 101 135 190 253 302 339
#
# _framework density 19.782965000000001
#
# number of rings (size 3 to 8) (size 9 to 14) (size 15 to 20)
#    0.000    2.125    0.000    4.125    3.500    3.750 
#    0.000    2.500    0.000    0.000    0.000    0.000 
#    0.000   18.000    0.000   50.500    0.000    0.000 
#
# Total GULP energy -357355.483287 kJ/mol
# GULP energy per Si atom -5583.679426 kJ/mol
# Density = 1.973794 g / cm^3
# Si number density = 19.782965 Si / 1000 Ang^3
#
#
#
# Elastic Constant Matrix: (Units=GPa)
#
#
# Indices 1 2 3 4 5 6 
#
# 1 116.7798 55.7614 10.9481 0.0000 0.0000 0.0000
# 2 55.7614 128.3444 33.0630 0.0000 0.0000 0.0000
# 3 10.9481 33.0630 39.6821 0.0000 0.0000 0.0000
# 4 0.0000 0.0000 0.0000 -563.4849 0.0000 0.0000
# 5 0.0000 0.0000 0.0000 0.0000 0.3354 0.0000
# 6 0.0000 0.0000 0.0000 0.0000 0.0000 34.2085
#
#
#
# Elastic Compliance Matrix: (Units=1/GPa)
#
#
# Indices 1 2 3 4 5 6 
#
# 1 0.010848 -0.005020 0.001189 0.000000 0.000000 0.000000
# 2 -0.005020 0.012244 -0.008816 0.000000 0.000000 0.000000
# 3 0.001189 -0.008816 0.032218 0.000000 0.000000 0.000000
# 4 0.000000 0.000000 0.000000 -0.001775 0.000000 0.000000
# 5 0.000000 0.000000 0.000000 0.000000 2.981300 0.000000
# 6 0.000000 0.000000 0.000000 0.000000 0.000000 0.029233
#
#
# Mechanical properties :
#
#
# Convention : Reuss Voigt Hill
#
# Bulk Modulus (GPa) = 33.31497 53.81681 43.56589
# Shear Modulus (GPa) = 1.61323 -93.45262 -45.91970
#
# Velocity S-wave (km/s) = 0.90401 -6.88052 -4.82308
# Velocity P-wave (km/s) = 4.23868 5.98826 2.99106
#
# Compressibility (1/GPa) = 0.03001653
#
# Stress axis : x y z
#
# Youngs Moduli (GPa) = 92.17868 81.67498 31.03853
#
# Poissons Ratio (x) = 0.40998 -0.03692
# Poissons Ratio (y) = 0.46271 0.27365
# Poissons Ratio (z) = -0.10963 0.72008
#
# Static dielectric constant tensor:
#      x y z
#    x 1.756320 0.000000 0.000000 
#    y 0.000000 1.701030 0.000000 
#    z 0.000000 0.000000 1.667160 
# 
# From -- ./inp_files/16893.got.cif
#   From: 2010.05.17/outbox.cif.g08.bks.cpg/sg51_9_cif.got.tgz:16893.got - 2010.06.03 11:52:47.
