data_PCOD9404336
_publ_section_title
;
Structure prediction by ZEFSAII (Michael W. Deem and Ramdas Pophale) SiO2 
 PCOD9404336
Probable space group: P M M A
;
_chemical_formula_sum "Si O2"
_cell_formula_units_Z 40
_cell_length_a 26.833851
_cell_length_b 7.663499
_cell_length_c 9.222166
_cell_angle_alpha 90.000000
_cell_angle_beta 90.000000
_cell_angle_gamma 90.000000
_cell_volume 1896.457193
_symmetry_space_group_name_H-M "P M M A"
_symmetry_group_IT_number 51
_symmetry_cell_setting 'orthorhombic'
loop_
_space_group_symop_operation_xyz
x,y,z
1/2-x,-y,z
1/2+x,-y,-z
-x,y,-z
-x,-y,-z
1/2+x,y,-z
1/2-x,y,z
x,-y,z
loop_
_atom_site_type_symbol
_atom_site_label
_atom_site_fract_x
_atom_site_fract_y
_atom_site_fract_z
Si Si1 0.941488 0.211036 0.837374
Si Si2 0.250000 0.288176 0.149009
Si Si3 0.843503 0.703241 0.661726
Si Si4 0.552726 0.212777 0.174279
Si Si5 0.349942 0.203303 0.668150
Si Si6 0.250000 0.793436 0.811645
O O1 0.895905 0.278025 0.743297
O O2 0.996592 0.270012 0.787934
O O3 0.940002 0.000000 0.830599
O O4 0.936622 0.259957 0.006846
O O5 0.250000 0.500000 0.144057
O O6 0.299110 0.229067 0.235872
O O7 0.250000 0.226279 0.984009
O O8 0.833110 0.500000 0.635977
O O9 0.845468 0.788007 0.504200
O O10 0.597591 0.277088 0.274667
O O11 0.550802 0.000000 0.179611
O O12 0.300702 0.281163 0.742762
O O13 0.351347 0.000000 0.712403
O O14 0.250000 0.000000 0.775645
#
# Coordination Sequence:
#
# PCOD9404336 Si02
#       6
#     8   4   8   8   8   4
#     4   9  17  34  58  80 103 137 177 220 264 310
#     4  10  23  40  56  74 104 142 175 208 260 322
#     4  11  23  37  52  76 108 143 179 214 255 312
#     4   8  16  32  56  81 105 136 176 215 263 321
#     4  10  20  35  54  80 110 138 170 215 264 311
#     4  10  21  36  60  88 106 126 173 228 264 302
#
# _framework density 21.09196
#
# number of rings (size 3 to 8) (size 9 to 14) (size 15 to 20)
#    0.000    2.400    0.000    3.600    0.000    4.800 
#    0.000    8.000    0.000    0.000    0.000    0.000 
#    0.000    0.000    0.000    0.000    0.000    0.000 
#
# Total GULP energy -223364.900927 kJ/mol
# GULP energy per Si atom -5584.122523 kJ/mol
# Density = 2.104395 g / cm^3
# Si number density = 21.091960 Si / 1000 Ang^3
#
#
#
# Elastic Constant Matrix: (Units=GPa)
#
#
# Indices 1 2 3 4 5 6 
#
# 1 197.5016 -6.3478 94.7564 0.0000 0.0000 0.0000
# 2 -6.3478 32.4525 -20.7953 0.0000 0.0000 0.0000
# 3 94.7564 -20.7953 95.6524 0.0000 0.0000 0.0000
# 4 0.0000 0.0000 0.0000 81.1149 0.0000 0.0000
# 5 0.0000 0.0000 0.0000 0.0000 -5.2670 0.0000
# 6 0.0000 0.0000 0.0000 0.0000 0.0000 10.8376
#
#
#
# Elastic Compliance Matrix: (Units=1/GPa)
#
#
# Indices 1 2 3 4 5 6 
#
# 1 0.010378 -0.005296 -0.011432 0.000000 0.000000 0.000000
# 2 -0.005296 0.038504 0.013617 0.000000 0.000000 0.000000
# 3 -0.011432 0.013617 0.024740 0.000000 0.000000 0.000000
# 4 0.000000 0.000000 0.000000 0.012328 0.000000 0.000000
# 5 0.000000 0.000000 0.000000 0.000000 -0.189863 0.000000
# 6 0.000000 0.000000 0.000000 0.000000 0.000000 0.092271
#
#
# Mechanical properties :
#
#
# Convention : Reuss Voigt Hill
#
# Bulk Modulus (GPa) = 14.83664 51.20368 33.02016
# Shear Modulus (GPa) = 293.32453 34.53665 163.93059
#
# Velocity S-wave (km/s) = 11.80556 4.05091 8.82556
# Velocity P-wave (km/s) = 13.88805 6.79771 10.93359
#
# Compressibility (1/GPa) = 0.06740069
#
# Stress axis : x y z
#
# Youngs Moduli (GPa) = 96.35985 25.97124 40.42090
#
# Poissons Ratio (x) = 0.13753 0.46209
# Poissons Ratio (y) = 0.51028 -0.55041
# Poissons Ratio (z) = 1.10157 -0.35365
#
# Static dielectric constant tensor:
#      x y z
#    x 1.774800 0.000000 0.000000 
#    y 0.000000 1.793690 0.000000 
#    z 0.000000 0.000000 1.686700 
# 
# From -- ./inp_files/12184.got.cif
#   From: 2010.05.17/outbox.cif.g08.bks.cpg/sg51_7_cif.got.tgz:12184.got - 2010.06.03 11:52:47.
