data_PCOD9404502
_publ_section_title
;
Structure prediction by ZEFSAII (Michael W. Deem and Ramdas Pophale) SiO2 
 PCOD9404502
Probable space group: P M M A
;
_chemical_formula_sum "Si O2"
_cell_formula_units_Z 44
_cell_length_a 8.771545
_cell_length_b 17.487701
_cell_length_c 15.567364
_cell_angle_alpha 90.000000
_cell_angle_beta 90.000000
_cell_angle_gamma 90.000000
_cell_volume 2387.942666
_symmetry_space_group_name_H-M "P M M A"
_symmetry_group_IT_number 51
_symmetry_cell_setting 'orthorhombic'
loop_
_space_group_symop_operation_xyz
x,y,z
1/2-x,-y,z
1/2+x,-y,-z
-x,y,-z
-x,-y,-z
1/2+x,y,-z
1/2-x,y,z
x,-y,z
loop_
_atom_site_type_symbol
_atom_site_label
_atom_site_fract_x
_atom_site_fract_y
_atom_site_fract_z
Si Si1 0.924207 0.302317 0.413071
Si Si2 0.431835 0.587528 0.095187
Si Si3 0.573621 0.116179 0.409961
Si Si4 0.565577 0.707259 0.226952
Si Si5 0.566811 0.000000 0.096535
Si Si6 0.432624 0.122670 0.226728
O O1 0.750000 0.326402 0.415603
O O2 0.929195 0.209259 0.413041
O O3 0.988329 0.323654 0.320243
O O4 0.000000 0.329750 0.500000
O O5 0.250000 0.600172 0.093382
O O6 0.459403 0.500000 0.124378
O O7 0.512864 0.648837 0.155138
O O8 0.500000 0.594179 0.000000
O O9 0.500000 0.090200 0.500000
O O10 0.750000 0.092830 0.404815
O O11 0.487591 0.095678 0.321817
O O12 0.750000 0.715613 0.228995
O O13 0.491579 0.790607 0.215483
O O14 0.506407 0.071762 0.152039
O O15 0.750000 0.000000 0.093166
O O16 0.500000 0.000000 0.000000
O O17 0.250000 0.118948 0.222701
#
# Coordination Sequence:
#
# PCOD9404502 Si02
#       6
#     8   8   8   8   4   8
#     4   8  15  26  44  72 106 141 178 218 261 310
#     4  10  21  37  57  82 111 143 179 223 278 336
#     4   9  16  29  50  79 112 147 183 224 273 325
#     4  10  20  35  56  84 114 146 185 228 272 322
#     4  12  26  46  65  82 107 142 184 232 284 336
#     4  11  22  38  59  85 114 147 187 230 276 329
#
# _framework density 18.425903999999999
#
# number of rings (size 3 to 8) (size 9 to 14) (size 15 to 20)
#    0.000    2.182    0.000    5.182    0.000    6.909 
#    0.000    4.091    0.000    0.545    0.000    0.000 
#    0.000    0.000    0.000    0.000    0.000    0.000 
#
# Total GULP energy -245534.081550 kJ/mol
# GULP energy per Si atom -5580.320035 kJ/mol
# Density = 1.838397 g / cm^3
# Si number density = 18.425904 Si / 1000 Ang^3
#
#
#
# Elastic Constant Matrix: (Units=GPa)
#
#
# Indices 1 2 3 4 5 6 
#
# 1 141.9443 44.6603 79.2411 0.0000 0.0000 0.0000
# 2 44.6603 68.3642 68.2838 0.0000 0.0000 0.0000
# 3 79.2411 68.2838 168.1380 0.0000 0.0000 0.0000
# 4 0.0000 0.0000 0.0000 1296.4864 0.0000 0.0000
# 5 0.0000 0.0000 0.0000 0.0000 37.8580 0.0000
# 6 0.0000 0.0000 0.0000 0.0000 0.0000 23.8258
#
#
#
# Elastic Compliance Matrix: (Units=1/GPa)
#
#
# Indices 1 2 3 4 5 6 
#
# 1 0.009924 -0.003048 -0.003439 0.000000 0.000000 0.000000
# 2 -0.003048 0.025547 -0.008939 0.000000 0.000000 0.000000
# 3 -0.003439 -0.008939 0.011198 0.000000 0.000000 0.000000
# 4 0.000000 0.000000 0.000000 0.000771 0.000000 0.000000
# 5 0.000000 0.000000 0.000000 0.000000 0.026415 0.000000
# 6 0.000000 0.000000 0.000000 0.000000 0.000000 0.041971
#
#
# Mechanical properties :
#
#
# Convention : Reuss Voigt Hill
#
# Bulk Modulus (GPa) = 63.21985 84.75742 73.98863
# Shear Modulus (GPa) = 32.90559 284.05147 158.47853
#
# Velocity S-wave (km/s) = 4.23050 12.42954 9.28414
# Velocity P-wave (km/s) = 7.63201 15.87735 12.45668
#
# Compressibility (1/GPa) = 0.01581782
#
# Stress axis : x y z
#
# Youngs Moduli (GPa) = 100.76649 39.14414 89.29802
#
# Poissons Ratio (x) = 0.11930 0.30712
# Poissons Ratio (y) = 0.30712 0.79819
# Poissons Ratio (z) = 0.34656 0.34989
#
# Static dielectric constant tensor:
#      x y z
#    x 1.624830 0.000000 0.000000 
#    y 0.000000 1.631200 0.000000 
#    z 0.000000 0.000000 1.637790 
# 
# From -- ./inp_files/20965.got.cif
#   From: 2010.05.17/outbox.cif.g08.bks.cpg/sg51_11_cif.got.tgz:20965.got - 2010.06.03 11:52:47.
