data_PCOD9404440
_publ_section_title
;
Structure prediction by ZEFSAII (Michael W. Deem and Ramdas Pophale) SiO2 
 PCOD9404440
Probable space group: P M M A
;
_chemical_formula_sum "Si O2"
_cell_formula_units_Z 40
_cell_length_a 11.515649
_cell_length_b 7.602558
_cell_length_c 19.862466
_cell_angle_alpha 90.000000
_cell_angle_beta 90.000000
_cell_angle_gamma 90.000000
_cell_volume 1738.926908
_symmetry_space_group_name_H-M "P M M A"
_symmetry_group_IT_number 51
_symmetry_cell_setting 'orthorhombic'
loop_
_space_group_symop_operation_xyz
x,y,z
1/2-x,-y,z
1/2+x,-y,-z
-x,y,-z
-x,-y,-z
1/2+x,y,-z
1/2-x,y,z
x,-y,z
loop_
_atom_site_type_symbol
_atom_site_label
_atom_site_fract_x
_atom_site_fract_y
_atom_site_fract_z
Si Si1 0.031336 0.200737 0.428200
Si Si2 0.120348 0.285345 0.964380
Si Si3 0.504097 0.285740 0.169816
Si Si4 0.750000 0.715814 0.813874
Si Si5 0.117274 0.287845 0.693012
Si Si6 0.250000 0.299154 0.338429
O O1 0.137981 0.270665 0.384440
O O2 0.000000 0.284951 0.500000
O O3 0.923373 0.212061 0.377791
O O4 0.064067 0.000000 0.442327
O O5 0.250000 0.226938 0.985936
O O6 0.121681 0.500000 0.969966
O O7 0.096661 0.236114 0.886575
O O8 0.000000 0.228241 0.000000
O O9 0.504545 0.500000 0.171008
O O10 0.372366 0.229746 0.154110
O O11 0.538978 0.227739 0.244552
O O12 0.750000 0.500000 0.817611
O O13 0.750000 0.784215 0.736039
O O14 0.250000 0.245537 0.707644
O O15 0.106070 0.500000 0.688039
O O16 0.250000 0.500000 0.319271
#
# Coordination Sequence:
#
# PCOD9404440 Si02
#       6
#     8   8   8   4   8   4
#     4  11  25  41  56  78 113 150 179 220 285 348
#     4   9  17  26  38  61  97 141 182 221 273 339
#     4   9  16  28  46  69 100 134 176 229 282 327
#     4   9  16  27  49  75  97 128 171 228 280 323
#     4  10  20  35  56  80 103 137 188 238 279 326
#     4  11  21  39  63  85 107 136 187 238 278 329
#
# _framework density 23.002694000000002
#
# number of rings (size 3 to 8) (size 9 to 14) (size 15 to 20)
#    0.000    2.200    2.000    1.500    2.800    4.400 
#    0.000    0.000    0.000    0.000    0.000    0.000 
#    0.000    0.800    0.000    1.800    0.000    3.000 
#
# Total GULP energy -223255.036842 kJ/mol
# GULP energy per Si atom -5581.375921 kJ/mol
# Density = 2.295034 g / cm^3
# Si number density = 23.002694 Si / 1000 Ang^3
#
#
#
# Elastic Constant Matrix: (Units=GPa)
#
#
# Indices 1 2 3 4 5 6 
#
# 1 152.7847 1.2061 34.2658 0.0000 0.0000 0.0000
# 2 1.2061 36.1880 -8.8787 0.0000 0.0000 0.0000
# 3 34.2658 -8.8787 81.1454 0.0000 0.0000 0.0000
# 4 0.0000 0.0000 0.0000 15.1913 0.0000 0.0000
# 5 0.0000 0.0000 0.0000 0.0000 -19.2780 0.0000
# 6 0.0000 0.0000 0.0000 0.0000 0.0000 23.0615
#
#
#
# Elastic Compliance Matrix: (Units=1/GPa)
#
#
# Indices 1 2 3 4 5 6 
#
# 1 0.007267 -0.001022 -0.003180 0.000000 0.000000 0.000000
# 2 -0.001022 0.028540 0.003554 0.000000 0.000000 0.000000
# 3 -0.003180 0.003554 0.014055 0.000000 0.000000 0.000000
# 4 0.000000 0.000000 0.000000 0.065827 0.000000 0.000000
# 5 0.000000 0.000000 0.000000 0.000000 -0.051873 0.000000
# 6 0.000000 0.000000 0.000000 0.000000 0.000000 0.043362
#
#
# Mechanical properties :
#
#
# Convention : Reuss Voigt Hill
#
# Bulk Modulus (GPa) = 20.59100 35.92273 28.25687
# Shear Modulus (GPa) = 40.10795 20.02995 30.06895
#
# Velocity S-wave (km/s) = 4.18020 2.95407 3.61943
# Velocity P-wave (km/s) = 5.68064 5.22361 5.45691
#
# Compressibility (1/GPa) = 0.04856490
#
# Stress axis : x y z
#
# Youngs Moduli (GPa) = 137.61774 35.03903 71.14667
#
# Poissons Ratio (x) = 0.03583 0.22627
# Poissons Ratio (y) = 0.14071 -0.25289
# Poissons Ratio (z) = 0.43767 -0.12455
#
# Static dielectric constant tensor:
#      x y z
#    x 1.849760 0.000000 0.000000 
#    y 0.000000 1.883370 0.000000 
#    z 0.000000 0.000000 1.900070 
# 
# From -- ./inp_files/32839.got.cif
#   From: 2010.05.17/outbox.cif.g08.bks.cpg/sg51_17_cif.got.tgz:32839.got - 2010.06.03 11:52:47.
