data_PCOD9404087
_publ_section_title
;
Structure prediction by ZEFSAII (Michael W. Deem and Ramdas Pophale) SiO2 
 PCOD9404087
Probable space group: P M M A
;
_chemical_formula_sum "Si O2"
_cell_formula_units_Z 64
_cell_length_a 32.236694
_cell_length_b 7.622544
_cell_length_c 12.182844
_cell_angle_alpha 90.000000
_cell_angle_beta 90.000000
_cell_angle_gamma 90.000000
_cell_volume 2993.636876
_symmetry_space_group_name_H-M "P M M A"
_symmetry_group_IT_number 51
_symmetry_cell_setting 'orthorhombic'
loop_
_space_group_symop_operation_xyz
x,y,z
1/2-x,-y,z
1/2+x,-y,-z
-x,y,-z
-x,-y,-z
1/2+x,y,-z
1/2-x,y,z
x,-y,z
loop_
_atom_site_type_symbol
_atom_site_label
_atom_site_fract_x
_atom_site_fract_y
_atom_site_fract_z
Si Si1 0.545404 0.211979 0.965250
Si Si2 0.822742 0.287691 0.743891
Si Si3 0.545851 0.202220 0.501609
Si Si4 0.795616 0.711120 0.503165
Si Si5 0.582080 0.293149 0.731083
Si Si6 0.705180 0.792916 0.984522
Si Si7 0.123558 0.784729 0.890006
Si Si8 0.377020 0.210322 0.638558
O O1 0.556784 0.263616 0.841821
O O2 0.544951 0.000000 0.969802
O O3 0.500000 0.275225 0.000000
O O4 0.582258 0.272062 0.045714
O O5 0.821386 0.500000 0.745090
O O6 0.803901 0.227876 0.628135
O O7 0.870765 0.230936 0.748339
O O8 0.800598 0.226773 0.854064
O O9 0.500000 0.284168 0.500000
O O10 0.561934 0.204614 0.625886
O O11 0.582751 0.279868 0.427176
O O12 0.540773 0.000000 0.464181
O O13 0.750000 0.773046 0.465903
O O14 0.794428 0.500000 0.507247
O O15 0.834514 0.755730 0.426814
O O16 0.583941 0.500000 0.706874
O O17 0.750000 0.717765 0.016852
O O18 0.706084 0.000000 0.009185
O O19 0.664606 0.722417 0.045903
O O20 0.124189 0.727006 0.763790
O O21 0.123541 0.000000 0.891610
O O22 0.381078 0.000000 0.642505
#
# Coordination Sequence:
#
# PCOD9404087 Si02
#       8
#     8   8   8   8   8   8   8   8
#     4  10  21  37  62  87 112 149 190 231 278 333
#     4  10  20  36  57  81 113 149 184 225 278 334
#     4  10  22  38  60  87 116 149 191 238 281 335
#     4  10  21  38  58  80 111 150 188 229 281 339
#     4  11  22  37  60  87 118 151 186 230 283 338
#     4  10  20  34  55  82 110 142 181 229 283 333
#     4   9  19  36  55  80 112 144 182 229 279 329
#     4  10  21  37  58  83 112 147 188 236 282 330
#
# _framework density 21.378679999999999
#
# number of rings (size 3 to 8) (size 9 to 14) (size 15 to 20)
#    0.000    2.000    2.500    0.750    1.750    3.000 
#    0.000    2.500    0.000    0.000    0.000    0.000 
#    0.000    0.000    0.000    0.000    0.000    0.000 
#
# Total GULP energy -357548.576767 kJ/mol
# GULP energy per Si atom -5586.696512 kJ/mol
# Density = 2.133002 g / cm^3
# Si number density = 21.378680 Si / 1000 Ang^3
#
#
#
# Elastic Constant Matrix: (Units=GPa)
#
#
# Indices 1 2 3 4 5 6 
#
# 1 197.0273 8.4359 70.5318 0.0000 0.0000 0.0000
# 2 8.4359 44.2074 -4.9008 0.0000 0.0000 0.0000
# 3 70.5318 -4.9008 133.2554 0.0000 0.0000 0.0000
# 4 0.0000 0.0000 0.0000 29.3261 0.0000 0.0000
# 5 0.0000 0.0000 0.0000 0.0000 86.9550 0.0000
# 6 0.0000 0.0000 0.0000 0.0000 0.0000 13.6807
#
#
#
# Elastic Compliance Matrix: (Units=1/GPa)
#
#
# Indices 1 2 3 4 5 6 
#
# 1 0.006372 -0.001596 -0.003432 0.000000 0.000000 0.000000
# 2 -0.001596 0.023113 0.001695 0.000000 0.000000 0.000000
# 3 -0.003432 0.001695 0.009383 0.000000 0.000000 0.000000
# 4 0.000000 0.000000 0.000000 0.034099 0.000000 0.000000
# 5 0.000000 0.000000 0.000000 0.000000 0.011500 0.000000
# 6 0.000000 0.000000 0.000000 0.000000 0.000000 0.073095
#
#
# Mechanical properties :
#
#
# Convention : Reuss Voigt Hill
#
# Bulk Modulus (GPa) = 31.05336 58.06933 44.56135
# Shear Modulus (GPa) = 28.57741 46.02058 37.29899
#
# Velocity S-wave (km/s) = 3.66009 4.64469 4.18147
# Velocity P-wave (km/s) = 5.69373 7.48234 6.64846
#
# Compressibility (1/GPa) = 0.03220263
#
# Stress axis : x y z
#
# Youngs Moduli (GPa) = 156.93165 43.26535 106.57557
#
# Poissons Ratio (x) = 0.06907 0.36571
# Poissons Ratio (y) = 0.25052 -0.18065
# Poissons Ratio (z) = 0.53851 -0.07334
#
# Static dielectric constant tensor:
#      x y z
#    x 1.777930 0.000000 0.000000 
#    y 0.000000 1.807400 0.000000 
#    z 0.000000 0.000000 1.717150 
# 
# From -- ./inp_files/19445.got.cif
#   From: 2010.05.17/outbox.cif.g08.bks.cpg/sg51_10_cif.got.tgz:19445.got - 2010.06.03 11:52:47.
