data_PCOD9404577
_publ_section_title
;
Structure prediction by ZEFSAII (Michael W. Deem and Ramdas Pophale) SiO2 
 PCOD9404577
Probable space group: P M M A
;
_chemical_formula_sum "Si O2"
_cell_formula_units_Z 44
_cell_length_a 9.172419
_cell_length_b 7.546197
_cell_length_c 30.970095
_cell_angle_alpha 90.000000
_cell_angle_beta 90.000000
_cell_angle_gamma 90.000000
_cell_volume 2143.653372
_symmetry_space_group_name_H-M "P M M A"
_symmetry_group_IT_number 51
_symmetry_cell_setting 'orthorhombic'
loop_
_space_group_symop_operation_xyz
x,y,z
1/2-x,-y,z
1/2+x,-y,-z
-x,y,-z
-x,-y,-z
1/2+x,y,-z
1/2-x,y,z
x,-y,z
loop_
_atom_site_type_symbol
_atom_site_label
_atom_site_fract_x
_atom_site_fract_y
_atom_site_fract_z
Si Si1 0.416053 0.712394 0.128083
Si Si2 0.579399 0.704499 0.603174
Si Si3 0.925065 0.000000 0.453329
Si Si4 0.082140 0.215447 0.691017
Si Si5 0.583162 0.787950 0.776156
Si Si6 0.416909 0.716919 0.956812
O O1 0.250000 0.781192 0.126539
O O2 0.409274 0.500000 0.124154
O O3 0.475272 0.750408 0.175881
O O4 0.506823 0.777632 0.087284
O O5 0.750000 0.757404 0.602111
O O6 0.569199 0.500000 0.589528
O O7 0.483478 0.830777 0.573150
O O8 0.517079 0.721566 0.651554
O O9 0.000000 0.000000 0.500000
O O10 0.750000 0.000000 0.456142
O O11 0.250000 0.271555 0.685921
O O12 0.014851 0.275729 0.736603
O O13 0.080599 0.000000 0.690120
O O14 0.750000 0.718968 0.773573
O O15 0.590953 0.000000 0.772017
O O16 0.250000 0.772617 0.958274
O O17 0.419235 0.500000 0.956613
O O18 0.500000 0.773327 0.000000
#
# Coordination Sequence:
#
# PCOD9404577 Si02
#       6
#     8   8   4   8   8   8
#     4   9  17  29  45  66  93 124 162 211 265 321
#     4  11  24  42  67  98 131 170 216 265 316 372
#     4  12  26  46  72 100 134 176 216 264 319 372
#     4  10  20  35  57  85 117 156 199 247 301 356
#     4   9  18  32  50  72 102 143 184 224 273 336
#     4   9  16  26  42  64  89 118 154 199 255 317
#
# _framework density 20.525706
#
# number of rings (size 3 to 8) (size 9 to 14) (size 15 to 20)
#    0.000    2.182    0.909    2.455    0.000    6.182 
#    0.000    1.818    0.000    0.545    0.000    0.000 
#    0.000    0.000    0.000    0.000    0.000    0.000 
#
# Total GULP energy -245831.549849 kJ/mol
# GULP energy per Si atom -5587.080678 kJ/mol
# Density = 2.047899 g / cm^3
# Si number density = 20.525706 Si / 1000 Ang^3
#
#
#
# Elastic Constant Matrix: (Units=GPa)
#
#
# Indices 1 2 3 4 5 6 
#
# 1 155.2599 33.6900 97.6378 0.0000 0.0000 0.0000
# 2 33.6900 67.0860 27.1574 0.0000 0.0000 0.0000
# 3 97.6378 27.1574 184.7869 0.0000 0.0000 0.0000
# 4 0.0000 0.0000 0.0000 18.1364 0.0000 0.0000
# 5 0.0000 0.0000 0.0000 0.0000 40.3281 0.0000
# 6 0.0000 0.0000 0.0000 0.0000 0.0000 7.8176
#
#
#
# Elastic Compliance Matrix: (Units=1/GPa)
#
#
# Indices 1 2 3 4 5 6 
#
# 1 0.010231 -0.003136 -0.004945 0.000000 0.000000 0.000000
# 2 -0.003136 0.016811 -0.000813 0.000000 0.000000 0.000000
# 3 -0.004945 -0.000813 0.008144 0.000000 0.000000 0.000000
# 4 0.000000 0.000000 0.000000 0.055138 0.000000 0.000000
# 5 0.000000 0.000000 0.000000 0.000000 0.024797 0.000000
# 6 0.000000 0.000000 0.000000 0.000000 0.000000 0.127916
#
#
# Mechanical properties :
#
#
# Convention : Reuss Voigt Hill
#
# Bulk Modulus (GPa) = 57.48335 80.45590 68.96962
# Shear Modulus (GPa) = 18.75299 29.83292 24.29295
#
# Velocity S-wave (km/s) = 3.02592 3.81654 3.44399
# Velocity P-wave (km/s) = 6.34623 7.66185 7.03486
#
# Compressibility (1/GPa) = 0.01739634
#
# Stress axis : x y z
#
# Youngs Moduli (GPa) = 97.74146 59.48659 122.78926
#
# Poissons Ratio (x) = 0.18656 0.60719
# Poissons Ratio (y) = 0.30653 0.09989
# Poissons Ratio (z) = 0.48333 0.04839
#
# Static dielectric constant tensor:
#      x y z
#    x 1.701250 0.000000 0.000000 
#    y 0.000000 1.780420 0.000000 
#    z 0.000000 0.000000 1.702840 
# 
# From -- ./inp_files/36736.got.cif
#   From: 2010.05.17/outbox.cif.g08.bks.cpg/sg51_19_cif.got.tgz:36736.got - 2010.06.03 11:52:47.
