data_PCOD9404737
_publ_section_title
;
Structure prediction by ZEFSAII (Michael W. Deem and Ramdas Pophale) SiO2 
 PCOD9404737
Probable space group: P M M A
;
_chemical_formula_sum "Si O2"
_cell_formula_units_Z 52
_cell_length_a 7.867426
_cell_length_b 20.653691
_cell_length_c 15.276134
_cell_angle_alpha 90.000000
_cell_angle_beta 90.000000
_cell_angle_gamma 90.000000
_cell_volume 2482.240180
_symmetry_space_group_name_H-M "P M M A"
_symmetry_group_IT_number 51
_symmetry_cell_setting 'orthorhombic'
loop_
_space_group_symop_operation_xyz
x,y,z
1/2-x,-y,z
1/2+x,-y,-z
-x,y,-z
-x,-y,-z
1/2+x,y,-z
1/2-x,y,z
x,-y,z
loop_
_atom_site_type_symbol
_atom_site_label
_atom_site_fract_x
_atom_site_fract_y
_atom_site_fract_z
Si Si1 0.454460 0.188457 0.901071
Si Si2 0.958150 0.070286 0.217478
Si Si3 0.545883 0.376576 0.282340
Si Si4 0.954622 0.737499 0.403359
Si Si5 0.954173 0.114374 0.404382
Si Si6 0.454617 0.663333 0.901719
Si Si7 0.049811 0.500000 0.397791
O O1 0.250000 0.190918 0.891842
O O2 0.517556 0.133161 0.835555
O O3 0.516314 0.262262 0.888209
O O4 0.500000 0.170030 0.000000
O O5 0.750000 0.071530 0.215395
O O6 0.011610 0.076897 0.318549
O O7 0.011268 0.000000 0.182368
O O8 0.750000 0.371378 0.278447
O O9 0.481308 0.311486 0.329972
O O10 0.485031 0.378179 0.181675
O O11 0.509075 0.437152 0.344019
O O12 0.750000 0.740221 0.396292
O O13 0.018312 0.811234 0.397346
O O14 0.000000 0.712515 0.500000
O O15 0.750000 0.116440 0.400937
O O16 0.000000 0.088534 0.500000
O O17 0.250000 0.664909 0.899682
O O18 0.500000 0.642249 0.000000
O O19 0.250000 0.500000 0.396165
O O20 0.000000 0.500000 0.500000
#
# Coordination Sequence:
#
# PCOD9404737 Si02
#       7
#     8   8   8   8   8   8   4
#     4   9  17  31  51  75 102 132 167 209 257 305
#     4   9  17  29  46  67  93 130 172 207 246 304
#     4  10  20  36  57  79 105 139 176 213 255 301
#     4   9  17  29  48  73  98 125 161 207 256 303
#     4   9  17  30  47  68  94 124 162 208 255 302
#     4   9  18  33  55  81 107 135 170 215 263 308
#     4  12  26  42  59  82 113 146 177 208 246 296
#
# _framework density 20.948820000000001
#
# number of rings (size 3 to 8) (size 9 to 14) (size 15 to 20)
#    0.000    2.615    0.000    2.077    0.000    6.769 
#    0.000    1.154    0.000    8.308    0.000    0.000 
#    0.000    0.000    0.000    0.000    0.000    0.000 
#
# Total GULP energy -290084.721087 kJ/mol
# GULP energy per Si atom -5578.552329 kJ/mol
# Density = 2.090114 g / cm^3
# Si number density = 20.948820 Si / 1000 Ang^3
#
#
#
# Elastic Constant Matrix: (Units=GPa)
#
#
# Indices 1 2 3 4 5 6 
#
# 1 20.9543 2.2116 6.8495 0.0000 0.0000 0.0000
# 2 2.2116 56.1607 60.6278 0.0000 0.0000 0.0000
# 3 6.8495 60.6278 164.8275 0.0000 0.0000 0.0000
# 4 0.0000 0.0000 0.0000 56.5063 0.0000 0.0000
# 5 0.0000 0.0000 0.0000 0.0000 26.0882 0.0000
# 6 0.0000 0.0000 0.0000 0.0000 0.0000 7.9126
#
#
#
# Elastic Compliance Matrix: (Units=1/GPa)
#
#
# Indices 1 2 3 4 5 6 
#
# 1 0.048387 0.000440 -0.002173 0.000000 0.000000 0.000000
# 2 0.000440 0.029537 -0.010883 0.000000 0.000000 0.000000
# 3 -0.002173 -0.010883 0.010160 0.000000 0.000000 0.000000
# 4 0.000000 0.000000 0.000000 0.017697 0.000000 0.000000
# 5 0.000000 0.000000 0.000000 0.000000 0.038332 0.000000
# 6 0.000000 0.000000 0.000000 0.000000 0.000000 0.126381
#
#
# Mechanical properties :
#
#
# Convention : Reuss Voigt Hill
#
# Bulk Modulus (GPa) = 15.91010 42.36893 29.13952
# Shear Modulus (GPa) = 15.78904 29.58499 22.68701
#
# Velocity S-wave (km/s) = 2.74833 3.76207 3.29443
# Velocity P-wave (km/s) = 4.20504 6.25618 5.33020
#
# Compressibility (1/GPa) = 0.06285315
#
# Stress axis : x y z
#
# Youngs Moduli (GPa) = 20.66683 33.85565 98.42313
#
# Poissons Ratio (x) = -0.01489 0.21383
# Poissons Ratio (y) = -0.00909 1.07112
# Poissons Ratio (z) = 0.04490 0.36844
#
# Static dielectric constant tensor:
#      x y z
#    x 1.769080 0.000000 0.000000 
#    y 0.000000 1.690180 0.000000 
#    z 0.000000 0.000000 1.734080 
# 
# From -- ./inp_files/21643.got.cif
#   From: 2010.05.17/outbox.cif.g08.bks.cpg/sg51_11_cif.got.tgz:21643.got - 2010.06.03 11:52:47.
