data_PCOD9404120
_publ_section_title
;
Structure prediction by ZEFSAII (Michael W. Deem and Ramdas Pophale) SiO2 
 PCOD9404120
Probable space group: P M M A
;
_chemical_formula_sum "Si O2"
_cell_formula_units_Z 48
_cell_length_a 18.164607
_cell_length_b 7.594144
_cell_length_c 15.889659
_cell_angle_alpha 90.000000
_cell_angle_beta 90.000000
_cell_angle_gamma 90.000000
_cell_volume 2191.893311
_symmetry_space_group_name_H-M "P M M A"
_symmetry_group_IT_number 51
_symmetry_cell_setting 'orthorhombic'
loop_
_space_group_symop_operation_xyz
x,y,z
1/2-x,-y,z
1/2+x,-y,-z
-x,y,-z
-x,-y,-z
1/2+x,y,-z
1/2-x,y,z
x,-y,z
loop_
_atom_site_type_symbol
_atom_site_label
_atom_site_fract_x
_atom_site_fract_y
_atom_site_fract_z
Si Si1 0.906041 0.295804 0.851095
Si Si2 0.570791 0.204008 0.185572
Si Si3 0.333560 0.210687 0.659992
Si Si4 0.335767 0.286458 0.976569
Si Si5 0.165085 0.715743 0.320678
Si Si6 0.416829 0.712265 0.488032
O O1 0.882737 0.500000 0.853609
O O2 0.868517 0.220556 0.767399
O O3 0.993531 0.289098 0.839533
O O4 0.878484 0.222253 0.940028
O O5 0.611301 0.279792 0.267988
O O6 0.626266 0.217272 0.107531
O O7 0.553411 0.000000 0.202255
O O8 0.250000 0.279265 0.667399
O O9 0.366918 0.243523 0.568231
O O10 0.329769 0.000000 0.672558
O O11 0.250000 0.238649 0.981480
O O12 0.340578 0.500000 0.972332
O O13 0.250000 0.766271 0.328727
O O14 0.162245 0.500000 0.320665
O O15 0.118747 0.775988 0.401156
O O16 0.500000 0.777899 0.500000
O O17 0.420046 0.500000 0.483251
#
# Coordination Sequence:
#
# PCOD9404120 Si02
#       6
#     8   8   8   8   8   8
#     4  10  20  36  58  82 109 141 179 223 269 320
#     4  11  23  38  56  79 110 147 183 221 270 323
#     4  10  22  39  56  76 106 145 186 226 270 319
#     4  10  21  37  58  84 111 141 180 224 269 318
#     4   9  17  31  53  80 109 141 177 220 271 323
#     4  10  20  34  55  84 113 141 177 221 269 322
#
# _framework density 21.898875
#
# number of rings (size 3 to 8) (size 9 to 14) (size 15 to 20)
#    0.000    2.000    0.000    3.500    0.000    9.667 
#    0.000    0.833    0.000    2.500    0.000    0.000 
#    0.000    0.000    0.000    0.000    0.000    0.000 
#
# Total GULP energy -268347.899058 kJ/mol
# GULP energy per Si atom -5590.581230 kJ/mol
# Density = 2.184903 g / cm^3
# Si number density = 21.898875 Si / 1000 Ang^3
#
#
#
# Elastic Constant Matrix: (Units=GPa)
#
#
# Indices 1 2 3 4 5 6 
#
# 1 64.1426 -10.1755 -12.6666 0.0000 0.0000 0.0000
# 2 -10.1755 44.9519 -8.6585 0.0000 0.0000 0.0000
# 3 -12.6666 -8.6585 86.9639 0.0000 0.0000 0.0000
# 4 0.0000 0.0000 0.0000 19.3452 0.0000 0.0000
# 5 0.0000 0.0000 0.0000 0.0000 49.3676 0.0000
# 6 0.0000 0.0000 0.0000 0.0000 0.0000 -20.8392
#
#
#
# Elastic Compliance Matrix: (Units=1/GPa)
#
#
# Indices 1 2 3 4 5 6 
#
# 1 0.016855 0.004372 0.002890 0.000000 0.000000 0.000000
# 2 0.004372 0.023815 0.003008 0.000000 0.000000 0.000000
# 3 0.002890 0.003008 0.012219 0.000000 0.000000 0.000000
# 4 0.000000 0.000000 0.000000 0.051692 0.000000 0.000000
# 5 0.000000 0.000000 0.000000 0.000000 0.020256 0.000000
# 6 0.000000 0.000000 0.000000 0.000000 0.000000 -0.047986
#
#
# Mechanical properties :
#
#
# Convention : Reuss Voigt Hill
#
# Bulk Modulus (GPa) = 13.61853 14.78413 14.20133
# Shear Modulus (GPa) = 61.89075 24.74531 43.31803
#
# Velocity S-wave (km/s) = 5.32198 3.36517 4.45240
# Velocity P-wave (km/s) = 6.63302 4.67599 5.73854
#
# Compressibility (1/GPa) = 0.07342938
#
# Stress axis : x y z
#
# Youngs Moduli (GPa) = 59.33102 41.99028 81.83660
#
# Poissons Ratio (x) = -0.18358 -0.23653
# Poissons Ratio (y) = -0.25939 -0.24616
# Poissons Ratio (z) = -0.17148 -0.12630
#
# Static dielectric constant tensor:
#      x y z
#    x 1.750390 0.000000 0.000000 
#    y 0.000000 1.753140 0.000000 
#    z 0.000000 0.000000 1.761910 
# 
# From -- ./inp_files/24676.got.cif
#   From: 2010.05.17/outbox.cif.g08.bks.cpg/sg51_13_cif.got.tgz:24676.got - 2010.06.03 11:52:47.
