data_PCOD9404518
_publ_section_title
;
Structure prediction by ZEFSAII (Michael W. Deem and Ramdas Pophale) SiO2 
 PCOD9404518
Probable space group: P M M A
;
_chemical_formula_sum "Si O2"
_cell_formula_units_Z 40
_cell_length_a 19.090362
_cell_length_b 7.565966
_cell_length_c 13.058213
_cell_angle_alpha 90.000000
_cell_angle_beta 90.000000
_cell_angle_gamma 90.000000
_cell_volume 1886.089500
_symmetry_space_group_name_H-M "P M M A"
_symmetry_group_IT_number 51
_symmetry_cell_setting 'orthorhombic'
loop_
_space_group_symop_operation_xyz
x,y,z
1/2-x,-y,z
1/2+x,-y,-z
-x,y,-z
-x,-y,-z
1/2+x,y,-z
1/2-x,y,z
x,-y,z
loop_
_atom_site_type_symbol
_atom_site_label
_atom_site_fract_x
_atom_site_fract_y
_atom_site_fract_z
Si Si1 0.077098 0.284548 0.383225
Si Si2 0.830065 0.283163 0.807228
Si Si3 0.083144 0.286556 0.614994
Si Si4 0.922089 0.705972 0.995618
Si Si5 0.829409 0.207029 0.187008
O O1 0.076826 0.500000 0.383701
O O2 0.129594 0.227176 0.295152
O O3 0.097383 0.228877 0.498231
O O4 0.996852 0.230295 0.361180
O O5 0.750000 0.224674 0.809956
O O6 0.828968 0.500000 0.807701
O O7 0.872905 0.220539 0.906261
O O8 0.083731 0.500000 0.615829
O O9 0.137490 0.227704 0.700567
O O10 0.931588 0.500000 0.967826
O O11 0.881738 0.713662 0.103093
O O12 0.000000 0.784689 0.000000
O O13 0.750000 0.278884 0.181575
O O14 0.826147 0.000000 0.163517
#
# Coordination Sequence:
#
# PCOD9404518 Si02
#       5
#     8   8   8   8   8
#     4   8  15  29  50  78 107 131 162 210 262 307
#     4   9  16  26  44  73 104 127 153 199 258 312
#     4   9  17  32  55  78 101 133 174 216 256 305
#     4  10  20  35  57  80 100 129 173 221 266 315
#     4  11  24  38  51  73 109 147 180 218 263 311
#
# _framework density 21.207902000000001
#
# number of rings (size 3 to 8) (size 9 to 14) (size 15 to 20)
#    0.000    2.600    0.000    3.600    0.000    6.800 
#    0.000    4.000    0.000    1.200    0.000    2.800 
#    0.000    0.000    0.000    0.000    0.000    0.000 
#
# Total GULP energy -223363.298321 kJ/mol
# GULP energy per Si atom -5584.082458 kJ/mol
# Density = 2.115963 g / cm^3
# Si number density = 21.207902 Si / 1000 Ang^3
#
#
#
# Elastic Constant Matrix: (Units=GPa)
#
#
# Indices 1 2 3 4 5 6 
#
# 1 173.7853 3.5424 95.9182 0.0000 0.0000 0.0000
# 2 3.5424 45.7604 -7.7117 0.0000 0.0000 0.0000
# 3 95.9182 -7.7117 121.3570 0.0000 0.0000 0.0000
# 4 0.0000 0.0000 0.0000 53.9345 0.0000 0.0000
# 5 0.0000 0.0000 0.0000 0.0000 -57.3061 0.0000
# 6 0.0000 0.0000 0.0000 0.0000 0.0000 0.3419
#
#
#
# Elastic Compliance Matrix: (Units=1/GPa)
#
#
# Indices 1 2 3 4 5 6 
#
# 1 0.010425 -0.002219 -0.008381 0.000000 0.000000 0.000000
# 2 -0.002219 0.022562 0.003188 0.000000 0.000000 0.000000
# 3 -0.008381 0.003188 0.015067 0.000000 0.000000 0.000000
# 4 0.000000 0.000000 0.000000 0.018541 0.000000 0.000000
# 5 0.000000 0.000000 0.000000 0.000000 -0.017450 0.000000
# 6 0.000000 0.000000 0.000000 0.000000 0.000000 2.924590
#
#
# Mechanical properties :
#
#
# Convention : Reuss Voigt Hill
#
# Bulk Modulus (GPa) = 30.09402 58.26671 44.18036
# Shear Modulus (GPa) = 1.66687 16.00432 8.83560
#
# Velocity S-wave (km/s) = 0.88751 2.75005 2.04334
# Velocity P-wave (km/s) = 3.90782 6.13330 5.14239
#
# Compressibility (1/GPa) = 0.03322919
#
# Stress axis : x y z
#
# Youngs Moduli (GPa) = 95.92164 44.32232 66.37100
#
# Poissons Ratio (x) = 0.09837 0.55625
# Poissons Ratio (y) = 0.21289 -0.21158
# Poissons Ratio (z) = 0.80391 -0.14129
#
# Static dielectric constant tensor:
#      x y z
#    x 1.744790 0.000000 0.000000 
#    y 0.000000 1.789430 0.000000 
#    z 0.000000 0.000000 1.738420 
# 
# From -- ./inp_files/17074.got.cif
#   From: 2010.05.17/outbox.cif.g08.bks.cpg/sg51_9_cif.got.tgz:17074.got - 2010.06.03 11:52:47.
