data_PCOD9404340
_publ_section_title
;
Structure prediction by ZEFSAII (Michael W. Deem and Ramdas Pophale) SiO2 
 PCOD9404340
Probable space group: P M M A
;
_chemical_formula_sum "Si O2"
_cell_formula_units_Z 64
_cell_length_a 18.064059
_cell_length_b 14.609583
_cell_length_c 12.480079
_cell_angle_alpha 90.000000
_cell_angle_beta 90.000000
_cell_angle_gamma 90.000000
_cell_volume 3293.597297
_symmetry_space_group_name_H-M "P M M A"
_symmetry_group_IT_number 51
_symmetry_cell_setting 'orthorhombic'
loop_
_space_group_symop_operation_xyz
x,y,z
1/2-x,-y,z
1/2+x,-y,-z
-x,y,-z
-x,-y,-z
1/2+x,y,-z
1/2-x,y,z
x,-y,z
loop_
_atom_site_type_symbol
_atom_site_label
_atom_site_fract_x
_atom_site_fract_y
_atom_site_fract_z
Si Si1 0.448047 0.396562 0.590915
Si Si2 0.436851 0.214361 0.851642
Si Si3 0.336052 0.787172 0.407373
Si Si4 0.516958 0.396258 0.827688
Si Si5 0.835340 0.892090 0.985002
Si Si6 0.580479 0.892844 0.771239
Si Si7 0.164941 0.606596 0.274149
Si Si8 0.336772 0.249876 0.646490
O O1 0.500000 0.351788 0.500000
O O2 0.433577 0.500000 0.556652
O O3 0.492783 0.396247 0.702242
O O4 0.371669 0.347641 0.616736
O O5 0.467481 0.316236 0.877693
O O6 0.391712 0.168528 0.947054
O O7 0.508077 0.155547 0.818390
O O8 0.383297 0.216545 0.747901
O O9 0.250000 0.810882 0.384587
O O10 0.391867 0.844889 0.336120
O O11 0.344654 0.681166 0.368383
O O12 0.347904 0.802058 0.533677
O O13 0.505713 0.500000 0.868277
O O14 0.604372 0.374577 0.818308
O O15 0.750000 0.867995 0.005625
O O16 0.845750 0.000000 0.011913
O O17 0.855483 0.882078 0.860364
O O18 0.566649 0.000000 0.755566
O O19 0.250000 0.614974 0.236984
O O20 0.153764 0.500000 0.307435
O O21 0.250000 0.252746 0.670096
#
# Coordination Sequence:
#
# PCOD9404340 Si02
#       8
#     8   8   8   8   8   8   8   8
#     4   9  17  28  47  74 109 152 199 245 284 324
#     4  11  21  37  61  87 119 153 191 237 289 347
#     4  10  20  35  54  82 119 157 193 236 289 344
#     4   9  17  30  49  79 115 154 194 232 280 337
#     4  10  22  42  68  92 112 138 183 245 303 352
#     4  11  23  40  63  89 111 141 188 246 302 352
#     4   9  16  28  49  78 115 158 203 246 285 332
#     4  10  22  35  52  80 119 161 196 230 280 347
#
# _framework density 19.431642
#
# number of rings (size 3 to 8) (size 9 to 14) (size 15 to 20)
#    0.000    2.125    1.250    2.250    1.750    3.500 
#    0.000    3.125    0.000    4.875    0.000    0.000 
#    0.000    0.000    0.000    0.000    0.000    0.000 
#
# Total GULP energy -357179.645442 kJ/mol
# GULP energy per Si atom -5580.931960 kJ/mol
# Density = 1.938741 g / cm^3
# Si number density = 19.431642 Si / 1000 Ang^3
#
#
#
# Elastic Constant Matrix: (Units=GPa)
#
#
# Indices 1 2 3 4 5 6 
#
# 1 104.7077 42.5782 32.7705 0.0000 0.0000 0.0000
# 2 42.5782 68.9658 20.5468 0.0000 0.0000 0.0000
# 3 32.7705 20.5468 54.5408 0.0000 0.0000 0.0000
# 4 0.0000 0.0000 0.0000 19.5827 0.0000 0.0000
# 5 0.0000 0.0000 0.0000 0.0000 29.9884 0.0000
# 6 0.0000 0.0000 0.0000 0.0000 0.0000 25.2635
#
#
#
# Elastic Compliance Matrix: (Units=1/GPa)
#
#
# Indices 1 2 3 4 5 6 
#
# 1 0.014268 -0.007045 -0.005918 0.000000 0.000000 0.000000
# 2 -0.007045 0.019812 -0.003231 0.000000 0.000000 0.000000
# 3 -0.005918 -0.003231 0.023108 0.000000 0.000000 0.000000
# 4 0.000000 0.000000 0.000000 0.051066 0.000000 0.000000
# 5 0.000000 0.000000 0.000000 0.000000 0.033346 0.000000
# 6 0.000000 0.000000 0.000000 0.000000 0.000000 0.039583
#
#
# Mechanical properties :
#
#
# Convention : Reuss Voigt Hill
#
# Bulk Modulus (GPa) = 40.32413 46.66723 43.49568
# Shear Modulus (GPa) = 22.53906 23.78817 23.16361
#
# Velocity S-wave (km/s) = 3.40945 3.50265 3.45636
# Velocity P-wave (km/s) = 6.02461 6.35817 6.19364
#
# Compressibility (1/GPa) = 0.02479904
#
# Stress axis : x y z
#
# Youngs Moduli (GPa) = 70.08900 50.47446 43.27508
#
# Poissons Ratio (x) = 0.35561 0.25612
# Poissons Ratio (y) = 0.49379 0.13980
# Poissons Ratio (z) = 0.41482 0.16306
#
# Static dielectric constant tensor:
#      x y z
#    x 1.685660 0.000000 0.000000 
#    y 0.000000 1.696650 0.000000 
#    z 0.000000 0.000000 1.683610 
# 
# From -- ./inp_files/17517.got.cif
#   From: 2010.05.17/outbox.cif.g08.bks.cpg/sg51_9_cif.got.tgz:17517.got - 2010.06.03 11:52:47.
