data_PCOD9404886
_publ_section_title
;
Structure prediction by ZEFSAII (Michael W. Deem and Ramdas Pophale) SiO2 
 PCOD9404886
Probable space group: P M M A
;
_chemical_formula_sum "Si O2"
_cell_formula_units_Z 56
_cell_length_a 17.368524
_cell_length_b 14.362212
_cell_length_c 12.021631
_cell_angle_alpha 90.000000
_cell_angle_beta 90.000000
_cell_angle_gamma 90.000000
_cell_volume 2998.800948
_symmetry_space_group_name_H-M "P M M A"
_symmetry_group_IT_number 51
_symmetry_cell_setting 'orthorhombic'
loop_
_space_group_symop_operation_xyz
x,y,z
1/2-x,-y,z
1/2+x,-y,-z
-x,y,-z
-x,-y,-z
1/2+x,y,-z
1/2-x,y,z
x,-y,z
loop_
_atom_site_type_symbol
_atom_site_label
_atom_site_fract_x
_atom_site_fract_y
_atom_site_fract_z
Si Si1 0.411151 0.609853 0.022947
Si Si2 0.339996 0.766742 0.887304
Si Si3 0.581037 0.889285 0.669484
Si Si4 0.660691 0.110789 0.902472
Si Si5 0.581969 0.610863 0.719431
Si Si6 0.161264 0.736468 0.461548
Si Si7 0.944629 0.749262 0.326035
O O1 0.406138 0.500000 0.001704
O O2 0.393349 0.626831 0.152695
O O3 0.500000 0.638373 0.000000
O O4 0.355933 0.666936 0.943075
O O5 0.250000 0.780510 0.863010
O O6 0.390977 0.774045 0.777825
O O7 0.363641 0.838253 0.984940
O O8 0.608047 0.868639 0.796124
O O9 0.642216 0.837541 0.590863
O O10 0.500901 0.836264 0.649421
O O11 0.577538 0.000000 0.653724
O O12 0.750000 0.137767 0.878837
O O13 0.659195 0.000000 0.919123
O O14 0.576562 0.500000 0.701764
O O15 0.638117 0.661206 0.632403
O O16 0.500338 0.662760 0.703187
O O17 0.250000 0.728304 0.491636
O O18 0.106336 0.725036 0.567400
#
# Coordination Sequence:
#
# PCOD9404886 Si02
#       7
#     8   8   8   8   8   8   8
#     4  10  20  36  59  87 117 147 186 235 284 341
#     4  11  22  36  57  84 119 159 191 229 289 349
#     4  10  21  38  62  87 110 144 194 245 289 340
#     4   9  19  35  56  85 118 150 188 238 293 346
#     4  10  21  39  64  86 111 150 193 239 290 340
#     4  11  24  40  58  84 116 150 193 243 289 338
#     4  11  23  38  57  83 117 153 194 237 283 344
#
# _framework density 18.674130000000002
#
# number of rings (size 3 to 8) (size 9 to 14) (size 15 to 20)
#    0.000    1.714    1.429    4.286    0.000    6.000 
#    0.000    2.857    0.000    5.143    0.000    0.000 
#    0.000    0.000    0.000    0.000    0.000    0.000 
#
# Total GULP energy -312832.219056 kJ/mol
# GULP energy per Si atom -5586.289626 kJ/mol
# Density = 1.863163 g / cm^3
# Si number density = 18.674130 Si / 1000 Ang^3
#
#
#
# Elastic Constant Matrix: (Units=GPa)
#
#
# Indices 1 2 3 4 5 6 
#
# 1 47.4057 0.9651 1.4228 0.0000 0.0000 0.0000
# 2 0.9651 48.7876 -3.6033 0.0000 0.0000 0.0000
# 3 1.4228 -3.6033 46.8484 0.0000 0.0000 0.0000
# 4 0.0000 0.0000 0.0000 5.7757 0.0000 0.0000
# 5 0.0000 0.0000 0.0000 0.0000 30.4925 0.0000
# 6 0.0000 0.0000 0.0000 0.0000 0.0000 13.1376
#
#
#
# Elastic Compliance Matrix: (Units=1/GPa)
#
#
# Indices 1 2 3 4 5 6 
#
# 1 0.021124 -0.000468 -0.000678 0.000000 0.000000 0.000000
# 2 -0.000468 0.020624 0.001601 0.000000 0.000000 0.000000
# 3 -0.000678 0.001601 0.021489 0.000000 0.000000 0.000000
# 4 0.000000 0.000000 0.000000 0.173139 0.000000 0.000000
# 5 0.000000 0.000000 0.000000 0.000000 0.032795 0.000000
# 6 0.000000 0.000000 0.000000 0.000000 0.000000 0.076117
#
#
# Mechanical properties :
#
#
# Convention : Reuss Voigt Hill
#
# Bulk Modulus (GPa) = 15.58892 15.62343 15.60618
# Shear Modulus (GPa) = 13.67009 19.49830 16.58419
#
# Velocity S-wave (km/s) = 2.70855 3.23481 2.98331
# Velocity P-wave (km/s) = 4.26000 4.72615 4.49912
#
# Compressibility (1/GPa) = 0.06414811
#
# Stress axis : x y z
#
# Youngs Moduli (GPa) = 47.33873 48.48607 46.53515
#
# Poissons Ratio (x) = 0.02269 0.03153
# Poissons Ratio (y) = 0.02215 -0.07448
# Poissons Ratio (z) = 0.03207 -0.07760
#
# Static dielectric constant tensor:
#      x y z
#    x 1.646190 0.000000 0.000000 
#    y 0.000000 1.639050 0.000000 
#    z 0.000000 0.000000 1.635660 
# 
# From -- ./inp_files/16644.got.cif
#   From: 2010.05.17/outbox.cif.g08.bks.cpg/sg51_9_cif.got.tgz:16644.got - 2010.06.03 11:52:47.
