data_PCOD9404653
_publ_section_title
;
Structure prediction by ZEFSAII (Michael W. Deem and Ramdas Pophale) SiO2 
 PCOD9404653
Probable space group: P M M A
;
_chemical_formula_sum "Si O2"
_cell_formula_units_Z 64
_cell_length_a 8.726356
_cell_length_b 24.185816
_cell_length_c 15.904493
_cell_angle_alpha 90.000000
_cell_angle_beta 90.000000
_cell_angle_gamma 90.000000
_cell_volume 3356.707511
_symmetry_space_group_name_H-M "P M M A"
_symmetry_group_IT_number 51
_symmetry_cell_setting 'orthorhombic'
loop_
_space_group_symop_operation_xyz
x,y,z
1/2-x,-y,z
1/2+x,-y,-z
-x,y,-z
-x,-y,-z
1/2+x,y,-z
1/2-x,y,z
x,-y,z
loop_
_atom_site_type_symbol
_atom_site_label
_atom_site_fract_x
_atom_site_fract_y
_atom_site_fract_z
Si Si1 0.434693 0.436045 0.590433
Si Si2 0.564129 0.362902 0.249963
Si Si3 0.566736 0.171799 0.587034
Si Si4 0.933346 0.062691 0.847960
Si Si5 0.433720 0.760020 0.246165
Si Si6 0.933209 0.062459 0.340422
Si Si7 0.934665 0.563961 0.090192
Si Si8 0.567933 0.174097 0.087842
O O1 0.500000 0.419037 0.500000
O O2 0.250000 0.435075 0.586586
O O3 0.481308 0.500000 0.605801
O O4 0.482443 0.396926 0.666923
O O5 0.750000 0.358953 0.249908
O O6 0.493404 0.302321 0.248948
O O7 0.517894 0.397326 0.167147
O O8 0.500000 0.194276 0.500000
O O9 0.750000 0.169325 0.582506
O O10 0.522753 0.208297 0.667900
O O11 0.500281 0.110628 0.602524
O O12 0.750000 0.070243 0.850421
O O13 0.990547 0.067743 0.751672
O O14 0.013984 0.110840 0.899466
O O15 0.969335 0.000000 0.875935
O O16 0.250000 0.761399 0.239426
O O17 0.504055 0.791844 0.166750
O O18 0.750000 0.068755 0.332191
O O19 0.964940 0.000000 0.370940
O O20 0.750000 0.564893 0.086243
O O21 0.981599 0.500000 0.104898
O O22 0.000000 0.581480 0.000000
O O23 0.750000 0.176943 0.086296
O O24 0.500000 0.195096 0.000000
#
# Coordination Sequence:
#
# PCOD9404653 Si02
#       8
#     8   8   8   8   8   8   8   8
#     4   9  18  34  57  86 120 156 195 241 293 350
#     4  10  21  37  59  84 114 156 199 239 289 350
#     4  11  24  41  63  86 115 154 198 248 302 360
#     4  10  20  36  60  90 124 158 193 238 294 355
#     4  11  25  44  62  85 118 155 200 252 301 352
#     4  10  20  35  59  90 121 154 193 239 295 358
#     4   9  18  34  57  86 119 153 190 233 283 339
#     4  12  25  42  66  90 118 156 199 248 300 358
#
# _framework density 19.066302
#
# number of rings (size 3 to 8) (size 9 to 14) (size 15 to 20)
#    0.000    1.750    1.250    3.000    0.000    7.000 
#    0.000    3.750    0.000    3.750    0.000    0.000 
#    0.000    0.000    0.000    0.000    0.000    0.000 
#
# Total GULP energy -357665.985945 kJ/mol
# GULP energy per Si atom -5588.531030 kJ/mol
# Density = 1.902291 g / cm^3
# Si number density = 19.066302 Si / 1000 Ang^3
#
#
#
# Elastic Constant Matrix: (Units=GPa)
#
#
# Indices 1 2 3 4 5 6 
#
# 1 58.3005 49.1415 59.9880 0.0000 0.0000 0.0000
# 2 49.1415 122.4136 100.4130 0.0000 0.0000 0.0000
# 3 59.9880 100.4130 178.3072 0.0000 0.0000 0.0000
# 4 0.0000 0.0000 0.0000 -5.9781 0.0000 0.0000
# 5 0.0000 0.0000 0.0000 0.0000 34.2503 0.0000
# 6 0.0000 0.0000 0.0000 0.0000 0.0000 26.1718
#
#
#
# Elastic Compliance Matrix: (Units=1/GPa)
#
#
# Indices 1 2 3 4 5 6 
#
# 1 0.028954 -0.006752 -0.005939 0.000000 0.000000 0.000000
# 2 -0.006752 0.016757 -0.007165 0.000000 0.000000 0.000000
# 3 -0.005939 -0.007165 0.011641 0.000000 0.000000 0.000000
# 4 0.000000 0.000000 0.000000 -0.167278 0.000000 0.000000
# 5 0.000000 0.000000 0.000000 0.000000 0.029197 0.000000
# 6 0.000000 0.000000 0.000000 0.000000 0.000000 0.038209
#
#
# Mechanical properties :
#
#
# Convention : Reuss Voigt Hill
#
# Bulk Modulus (GPa) = 56.68612 86.45625 71.57119
# Shear Modulus (GPa) = 1627.76881 20.85406 824.31143
#
# Velocity S-wave (km/s) = 29.25055 3.31080 20.81533
# Velocity P-wave (km/s) = 34.21386 7.74975 24.80572
#
# Compressibility (1/GPa) = 0.01764100
#
# Stress axis : x y z
#
# Youngs Moduli (GPa) = 34.53697 59.67750 85.90161
#
# Poissons Ratio (x) = 0.40294 0.51016
# Poissons Ratio (y) = 0.23319 0.61548
# Poissons Ratio (z) = 0.20511 0.42759
#
# Static dielectric constant tensor:
#      x y z
#    x 1.638760 0.000000 0.000000 
#    y 0.000000 1.645700 0.000000 
#    z 0.000000 0.000000 1.658970 
# 
# From -- ./inp_files/22362.got.cif
#   From: 2010.05.17/outbox.cif.g08.bks.cpg/sg51_12_cif.got.tgz:22362.got - 2010.06.03 11:52:47.
