data_PCOD9404927
_publ_section_title
;
Structure prediction by ZEFSAII (Michael W. Deem and Ramdas Pophale) SiO2 
 PCOD9404927
Probable space group: P M M A
;
_chemical_formula_sum "Si O2"
_cell_formula_units_Z 32
_cell_length_a 10.015748
_cell_length_b 9.864333
_cell_length_c 17.681009
_cell_angle_alpha 90.000000
_cell_angle_beta 90.000000
_cell_angle_gamma 90.000000
_cell_volume 1746.860236
_symmetry_space_group_name_H-M "P M M A"
_symmetry_group_IT_number 51
_symmetry_cell_setting 'orthorhombic'
loop_
_space_group_symop_operation_xyz
x,y,z
1/2-x,-y,z
1/2+x,-y,-z
-x,y,-z
-x,-y,-z
1/2+x,y,-z
1/2-x,y,z
x,-y,z
loop_
_atom_site_type_symbol
_atom_site_label
_atom_site_fract_x
_atom_site_fract_y
_atom_site_fract_z
Si Si1 0.588162 0.000000 0.423673
Si Si2 0.750000 0.165343 0.917529
Si Si3 0.595294 0.253143 0.318675
Si Si4 0.479050 0.659117 0.160943
Si Si5 0.396835 0.500000 0.566534
Si Si6 0.750000 0.346850 0.063345
O O1 0.500000 0.000000 0.500000
O O2 0.556306 0.874213 0.369317
O O3 0.750000 0.000000 0.439969
O O4 0.623171 0.236263 0.877149
O O5 0.750000 0.000000 0.915191
O O6 0.750000 0.227623 0.002061
O O7 0.750000 0.234903 0.293702
O O8 0.509374 0.290967 0.245830
O O9 0.590680 0.374200 0.378059
O O10 0.434500 0.500000 0.160842
O O11 0.617799 0.661987 0.114411
O O12 0.250000 0.500000 0.531638
O O13 0.500000 0.500000 0.500000
O O14 0.750000 0.500000 0.027898
#
# Coordination Sequence:
#
# PCOD9404927 Si02
#       6
#     4   4   8   8   4   4
#     4  10  22  40  60  86 125 171 210 252 311 379
#     4  12  28  44  58  96 139 168 205 265 318 377
#     4  10  20  38  63  91 123 164 210 260 308 374
#     4  11  22  42  69  95 128 168 215 263 319 375
#     4  10  20  36  60  88 125 155 204 258 307 363
#     4  10  22  42  74  96 121 168 217 259 316 385
#
# _framework density 18.318580000000001
#
# number of rings (size 3 to 8) (size 9 to 14) (size 15 to 20)
#    0.000    1.500    2.500    2.625    1.750    4.000 
#    4.500    0.000    0.000    0.000    0.000    0.000 
#    0.000    0.000    0.000    0.000    0.000    0.000 
#
# Total GULP energy -178551.340187 kJ/mol
# GULP energy per Si atom -5579.729381 kJ/mol
# Density = 1.827689 g / cm^3
# Si number density = 18.318580 Si / 1000 Ang^3
#
#
#
# Elastic Constant Matrix: (Units=GPa)
#
#
# Indices 1 2 3 4 5 6 
#
# 1 93.7356 55.8156 56.1795 0.0000 0.0000 0.0000
# 2 55.8156 192.3313 64.8549 0.0000 0.0000 0.0000
# 3 56.1795 64.8549 115.7315 0.0000 0.0000 0.0000
# 4 0.0000 0.0000 0.0000 55.1812 0.0000 0.0000
# 5 0.0000 0.0000 0.0000 0.0000 38.9844 0.0000
# 6 0.0000 0.0000 0.0000 0.0000 0.0000 23.4526
#
#
#
# Elastic Compliance Matrix: (Units=1/GPa)
#
#
# Indices 1 2 3 4 5 6 
#
# 1 0.015957 -0.002489 -0.006351 0.000000 0.000000 0.000000
# 2 -0.002489 0.006799 -0.002602 0.000000 0.000000 0.000000
# 3 -0.006351 -0.002602 0.013182 0.000000 0.000000 0.000000
# 4 0.000000 0.000000 0.000000 0.018122 0.000000 0.000000
# 5 0.000000 0.000000 0.000000 0.000000 0.025651 0.000000
# 6 0.000000 0.000000 0.000000 0.000000 0.000000 0.042639
#
#
# Mechanical properties :
#
#
# Convention : Reuss Voigt Hill
#
# Bulk Modulus (GPa) = 76.60711 83.94428 80.27569
# Shear Modulus (GPa) = 33.42564 38.52019 35.97291
#
# Velocity S-wave (km/s) = 4.27627 4.59060 4.43622
# Velocity P-wave (km/s) = 8.14199 8.60362 8.37599
#
# Compressibility (1/GPa) = 0.01305362
#
# Stress axis : x y z
#
# Youngs Moduli (GPa) = 62.66854 147.07869 75.86266
#
# Poissons Ratio (x) = 0.36611 0.48181
# Poissons Ratio (y) = 0.15599 0.19738
# Poissons Ratio (z) = 0.39801 0.38267
#
# Static dielectric constant tensor:
#      x y z
#    x 1.648620 0.000000 0.000000 
#    y 0.000000 1.590660 0.000000 
#    z 0.000000 0.000000 1.583950 
# 
# From -- ./inp_files/22887.got.cif
#   From: 2010.05.17/outbox.cif.g08.bks.cpg/sg51_12_cif.got.tgz:22887.got - 2010.06.03 11:52:47.
