data_PCOD9404854
_publ_section_title
;
Structure prediction by ZEFSAII (Michael W. Deem and Ramdas Pophale) SiO2 
 PCOD9404854
Probable space group: P M M A
;
_chemical_formula_sum "Si O2"
_cell_formula_units_Z 48
_cell_length_a 28.866733
_cell_length_b 7.584283
_cell_length_c 10.199929
_cell_angle_alpha 90.000000
_cell_angle_beta 90.000000
_cell_angle_gamma 90.000000
_cell_volume 2233.105874
_symmetry_space_group_name_H-M "P M M A"
_symmetry_group_IT_number 51
_symmetry_cell_setting 'orthorhombic'
loop_
_space_group_symop_operation_xyz
x,y,z
1/2-x,-y,z
1/2+x,-y,-z
-x,y,-z
-x,-y,-z
1/2+x,y,-z
1/2-x,y,z
x,-y,z
loop_
_atom_site_type_symbol
_atom_site_label
_atom_site_fract_x
_atom_site_fract_y
_atom_site_fract_z
Si Si1 0.535763 0.294539 0.105977
Si Si2 0.862574 0.786484 0.012748
Si Si3 0.859898 0.299200 0.519324
Si Si4 0.697322 0.205983 0.771079
Si Si5 0.042913 0.715736 0.593096
Si Si6 0.696846 0.786986 0.266704
O O1 0.522544 0.500000 0.122417
O O2 0.586415 0.283500 0.041827
O O3 0.537715 0.222723 0.255533
O O4 0.500000 0.215798 0.000000
O O5 0.830622 0.740907 0.136117
O O6 0.866821 0.000000 0.006206
O O7 0.836119 0.719770 0.883804
O O8 0.868498 0.500000 0.561405
O O9 0.830251 0.215243 0.635161
O O10 0.909319 0.222055 0.474418
O O11 0.828419 0.293749 0.390696
O O12 0.750000 0.278928 0.763508
O O13 0.702544 0.000000 0.804606
O O14 0.045546 0.500000 0.597837
O O15 0.000000 0.763186 0.500000
O O16 0.750000 0.733130 0.258543
O O17 0.695342 0.000000 0.280827
#
# Coordination Sequence:
#
# PCOD9404854 Si02
#       6
#     8   8   8   8   8   8
#     4  10  21  37  60  86 113 148 189 230 283 346
#     4  10  21  38  60  84 114 148 190 239 283 330
#     4  11  22  36  58  86 116 147 187 237 285 334
#     4  10  22  40  59  81 114 156 196 232 278 338
#     4   9  19  36  56  81 112 147 185 227 278 338
#     4  10  20  36  59  83 110 149 190 228 280 345
#
# _framework density 21.494724999999999
#
# number of rings (size 3 to 8) (size 9 to 14) (size 15 to 20)
#    0.000    2.000    1.667    1.500    2.333    5.667 
#    0.000    0.000    0.000    5.500    0.000    0.000 
#    0.000    0.000    0.000    0.000    0.000    0.000 
#
# Total GULP energy -268059.180550 kJ/mol
# GULP energy per Si atom -5584.566261 kJ/mol
# Density = 2.144580 g / cm^3
# Si number density = 21.494725 Si / 1000 Ang^3
#
#
#
# Elastic Constant Matrix: (Units=GPa)
#
#
# Indices 1 2 3 4 5 6 
#
# 1 186.1575 -3.3157 82.8928 0.0000 0.0000 0.0000
# 2 -3.3157 39.9172 3.4130 0.0000 0.0000 0.0000
# 3 82.8928 3.4130 133.2151 0.0000 0.0000 0.0000
# 4 0.0000 0.0000 0.0000 69.5538 0.0000 0.0000
# 5 0.0000 0.0000 0.0000 0.0000 39.9209 0.0000
# 6 0.0000 0.0000 0.0000 0.0000 0.0000 26.2659
#
#
#
# Elastic Compliance Matrix: (Units=1/GPa)
#
#
# Indices 1 2 3 4 5 6 
#
# 1 0.007472 0.001020 -0.004676 0.000000 0.000000 0.000000
# 2 0.001020 0.025246 -0.001282 0.000000 0.000000 0.000000
# 3 -0.004676 -0.001282 0.010449 0.000000 0.000000 0.000000
# 4 0.000000 0.000000 0.000000 0.014377 0.000000 0.000000
# 5 0.000000 0.000000 0.000000 0.000000 0.025050 0.000000
# 6 0.000000 0.000000 0.000000 0.000000 0.000000 0.038072
#
#
# Mechanical properties :
#
#
# Convention : Reuss Voigt Hill
#
# Bulk Modulus (GPa) = 30.03617 58.36333 44.19975
# Shear Modulus (GPa) = 35.30140 45.56810 40.43475
#
# Velocity S-wave (km/s) = 4.05696 4.60930 4.34193
# Velocity P-wave (km/s) = 5.99578 7.45244 6.76344
#
# Compressibility (1/GPa) = 0.03329320
#
# Stress axis : x y z
#
# Youngs Moduli (GPa) = 133.83475 39.60993 95.70454
#
# Poissons Ratio (x) = -0.04042 0.44747
# Poissons Ratio (y) = -0.13657 0.12267
# Poissons Ratio (z) = 0.62575 0.05077
#
# Static dielectric constant tensor:
#      x y z
#    x 1.748160 0.000000 0.000000 
#    y 0.000000 1.818560 0.000000 
#    z 0.000000 0.000000 1.744890 
# 
# From -- ./inp_files/12730.got.cif
#   From: 2010.05.17/outbox.cif.g08.bks.cpg/sg51_7_cif.got.tgz:12730.got - 2010.06.03 11:52:47.
