data_PCOD9404476
_publ_section_title
;
Structure prediction by ZEFSAII (Michael W. Deem and Ramdas Pophale) SiO2 
 PCOD9404476
Probable space group: P M M A
;
_chemical_formula_sum "Si O2"
_cell_formula_units_Z 64
_cell_length_a 32.471688
_cell_length_b 7.613526
_cell_length_c 12.318188
_cell_angle_alpha 90.000000
_cell_angle_beta 90.000000
_cell_angle_gamma 90.000000
_cell_volume 3045.352213
_symmetry_space_group_name_H-M "P M M A"
_symmetry_group_IT_number 51
_symmetry_cell_setting 'orthorhombic'
loop_
_space_group_symop_operation_xyz
x,y,z
1/2-x,-y,z
1/2+x,-y,-z
-x,y,-z
-x,-y,-z
1/2+x,y,-z
1/2-x,y,z
x,-y,z
loop_
_atom_site_type_symbol
_atom_site_label
_atom_site_fract_x
_atom_site_fract_y
_atom_site_fract_z
Si Si1 0.111354 0.203198 0.858138
Si Si2 0.516554 0.288663 0.118950
Si Si3 0.296727 0.285446 0.484610
Si Si4 0.374376 0.295655 0.618847
Si Si5 0.126302 0.795059 0.094376
Si Si6 0.559872 0.793326 0.735047
Si Si7 0.454262 0.298831 0.504803
Si Si8 0.703331 0.712151 0.764729
O O1 0.061929 0.217196 0.860974
O O2 0.127473 0.288001 0.748145
O O3 0.123919 0.000000 0.852258
O O4 0.125778 0.281040 0.973446
O O5 0.518607 0.500000 0.120588
O O6 0.484670 0.229141 0.210487
O O7 0.500000 0.233829 0.000000
O O8 0.250000 0.228079 0.511928
O O9 0.295815 0.500000 0.487922
O O10 0.333531 0.222397 0.561538
O O11 0.305597 0.235185 0.359709
O O12 0.376118 0.500000 0.584775
O O13 0.417990 0.217885 0.577781
O O14 0.092443 0.720294 0.177361
O O15 0.169927 0.782005 0.152368
O O16 0.114621 0.000000 0.080762
O O17 0.561707 0.703084 0.618659
O O18 0.568150 0.000000 0.717416
O O19 0.500000 0.216676 0.500000
O O20 0.460571 0.500000 0.544605
O O21 0.750000 0.766378 0.790126
O O22 0.701755 0.500000 0.767962
#
# Coordination Sequence:
#
# PCOD9404476 Si02
#       8
#     8   8   8   8   8   8   8   8
#     4  11  23  39  56  76 111 151 186 226 271 326
#     4  11  22  36  56  81 107 141 186 231 275 322
#     4   8  15  31  56  84 111 139 175 225 283 334
#     4  10  20  35  56  81 110 146 187 233 283 332
#     4  10  22  37  53  78 111 146 179 217 270 325
#     4  11  22  36  56  81 110 143 184 227 271 327
#     4  10  21  36  53  77 111 145 182 230 280 330
#     4   9  18  34  59  88 112 137 175 223 274 329
#
# _framework density 21.015632
#
# number of rings (size 3 to 8) (size 9 to 14) (size 15 to 20)
#    0.000    2.000    1.250    3.375    0.000    5.500 
#    0.000    1.250    0.000    3.375    0.000    0.000 
#    0.000    0.000    0.000    0.000    0.000    0.000 
#
# Total GULP energy -357519.779068 kJ/mol
# GULP energy per Si atom -5586.246548 kJ/mol
# Density = 2.096780 g / cm^3
# Si number density = 21.015632 Si / 1000 Ang^3
#
#
#
# Elastic Constant Matrix: (Units=GPa)
#
#
# Indices 1 2 3 4 5 6 
#
# 1 134.3701 -6.1281 76.7683 0.0000 0.0000 0.0000
# 2 -6.1281 47.3362 -8.2764 0.0000 0.0000 0.0000
# 3 76.7683 -8.2764 129.1956 0.0000 0.0000 0.0000
# 4 0.0000 0.0000 0.0000 28.9571 0.0000 0.0000
# 5 0.0000 0.0000 0.0000 0.0000 36.8697 0.0000
# 6 0.0000 0.0000 0.0000 0.0000 0.0000 8.2144
#
#
#
# Elastic Compliance Matrix: (Units=1/GPa)
#
#
# Indices 1 2 3 4 5 6 
#
# 1 0.011271 0.000291 -0.006679 0.000000 0.000000 0.000000
# 2 0.000291 0.021372 0.001196 0.000000 0.000000 0.000000
# 3 -0.006679 0.001196 0.011785 0.000000 0.000000 0.000000
# 4 0.000000 0.000000 0.000000 0.034534 0.000000 0.000000
# 5 0.000000 0.000000 0.000000 0.000000 0.027123 0.000000
# 6 0.000000 0.000000 0.000000 0.000000 0.000000 0.121738
#
#
# Mechanical properties :
#
#
# Convention : Reuss Voigt Hill
#
# Bulk Modulus (GPa) = 29.37185 48.40329 38.88757
# Shear Modulus (GPa) = 20.03574 31.37744 25.70659
#
# Velocity S-wave (km/s) = 3.09102 3.86820 3.50124
# Velocity P-wave (km/s) = 5.17163 6.55993 5.90671
#
# Compressibility (1/GPa) = 0.03404620
#
# Stress axis : x y z
#
# Youngs Moduli (GPa) = 88.72295 46.78946 84.85177
#
# Poissons Ratio (x) = -0.01364 0.56669
# Poissons Ratio (y) = -0.02586 -0.10148
# Poissons Ratio (z) = 0.59255 -0.05596
#
# Static dielectric constant tensor:
#      x y z
#    x 1.745510 0.000000 0.000000 
#    y 0.000000 1.804150 0.000000 
#    z 0.000000 0.000000 1.737110 
# 
# From -- ./inp_files/19638.got.cif
#   From: 2010.05.17/outbox.cif.g08.bks.cpg/sg51_10_cif.got.tgz:19638.got - 2010.06.03 11:52:47.
