data_PCOD9404757
_publ_section_title
;
Structure prediction by ZEFSAII (Michael W. Deem and Ramdas Pophale) SiO2 
 PCOD9404757
Probable space group: P M M A
;
_chemical_formula_sum "Si O2"
_cell_formula_units_Z 48
_cell_length_a 8.613270
_cell_length_b 31.705180
_cell_length_c 9.553950
_cell_angle_alpha 90.000000
_cell_angle_beta 90.000000
_cell_angle_gamma 90.000000
_cell_volume 2609.043070
_symmetry_space_group_name_H-M "P M M A"
_symmetry_group_IT_number 51
_symmetry_cell_setting 'orthorhombic'
loop_
_space_group_symop_operation_xyz
x,y,z
1/2-x,-y,z
1/2+x,-y,-z
-x,y,-z
-x,-y,-z
1/2+x,y,-z
1/2-x,y,z
x,-y,z
loop_
_atom_site_type_symbol
_atom_site_label
_atom_site_fract_x
_atom_site_fract_y
_atom_site_fract_z
Si Si1 0.063490 0.419134 0.842524
Si Si2 0.062681 0.500000 0.657990
Si Si3 0.562887 0.170858 0.844276
Si Si4 0.563321 0.343533 0.657550
Si Si5 0.063296 0.075869 0.157765
Si Si6 0.062813 0.752000 0.344730
Si Si7 0.564879 0.000000 0.343194
O O1 0.250000 0.418636 0.848048
O O2 0.014332 0.458803 0.746149
O O3 0.003576 0.377283 0.765228
O O4 0.000000 0.422702 0.000000
O O5 0.250000 0.500000 0.650365
O O6 0.000000 0.500000 0.500000
O O7 0.750000 0.172171 0.847389
O O8 0.519587 0.123563 0.796269
O O9 0.506507 0.209723 0.751114
O O10 0.500000 0.175768 0.000000
O O11 0.500000 0.351027 0.500000
O O12 0.750000 0.346508 0.654121
O O13 0.518574 0.295567 0.699324
O O14 0.250000 0.072543 0.154966
O O15 0.994877 0.040863 0.259478
O O16 0.000000 0.069826 0.000000
O O17 0.250000 0.753161 0.347303
O O18 0.000000 0.758066 0.500000
O O19 0.500000 0.000000 0.500000
O O20 0.750000 0.000000 0.346193
#
# Coordination Sequence:
#
# PCOD9404757 Si02
#       7
#     8   4   8   8   8   8   4
#     4  11  23  39  58  83 113 145 183 227 277 326
#     4  10  23  40  60  84 110 144 183 224 271 326
#     4   9  19  35  55  80 109 141 179 222 266 316
#     4  10  20  36  57  81 111 147 187 228 271 324
#     4  10  20  37  59  82 109 143 183 223 267 321
#     4   9  19  35  54  79 110 144 182 223 269 320
#     4  12  25  40  57  80 110 142 178 222 273 324
#
# _framework density 18.397552000000001
#
# number of rings (size 3 to 8) (size 9 to 14) (size 15 to 20)
#    0.000    2.000    0.000    3.250    0.000    6.000 
#    0.000    3.333    0.000    0.000    0.000    0.000 
#    0.000    0.000    0.000    0.000    0.000    0.000 
#
# Total GULP energy -268029.824499 kJ/mol
# GULP energy per Si atom -5583.954677 kJ/mol
# Density = 1.835568 g / cm^3
# Si number density = 18.397552 Si / 1000 Ang^3
#
#
#
# Elastic Constant Matrix: (Units=GPa)
#
#
# Indices 1 2 3 4 5 6 
#
# 1 53.0195 54.0284 43.2583 0.0000 0.0000 0.0000
# 2 54.0284 205.2477 132.2023 0.0000 0.0000 0.0000
# 3 43.2583 132.2023 141.1592 0.0000 0.0000 0.0000
# 4 0.0000 0.0000 0.0000 38.2001 0.0000 0.0000
# 5 0.0000 0.0000 0.0000 0.0000 36.0737 0.0000
# 6 0.0000 0.0000 0.0000 0.0000 0.0000 23.6790
#
#
#
# Elastic Compliance Matrix: (Units=1/GPa)
#
#
# Indices 1 2 3 4 5 6 
#
# 1 0.026652 -0.004423 -0.004025 0.000000 0.000000 0.000000
# 2 -0.004423 0.013014 -0.010833 0.000000 0.000000 0.000000
# 3 -0.004025 -0.010833 0.018463 0.000000 0.000000 0.000000
# 4 0.000000 0.000000 0.000000 0.026178 0.000000 0.000000
# 5 0.000000 0.000000 0.000000 0.000000 0.027721 0.000000
# 6 0.000000 0.000000 0.000000 0.000000 0.000000 0.042232
#
#
# Mechanical properties :
#
#
# Convention : Reuss Voigt Hill
#
# Bulk Modulus (GPa) = 51.10543 95.37827 73.24185
# Shear Modulus (GPa) = 25.08221 30.91972 28.00097
#
# Velocity S-wave (km/s) = 3.69636 4.10401 3.90551
# Velocity P-wave (km/s) = 6.78646 8.62628 7.76108
#
# Compressibility (1/GPa) = 0.01956739
#
# Stress axis : x y z
#
# Youngs Moduli (GPa) = 37.52002 76.84037 54.16232
#
# Poissons Ratio (x) = 0.33989 0.21801
# Poissons Ratio (y) = 0.16596 0.58672
# Poissons Ratio (z) = 0.15102 0.83239
#
# Static dielectric constant tensor:
#      x y z
#    x 1.621170 0.000000 0.000000 
#    y 0.000000 1.652560 0.000000 
#    z 0.000000 0.000000 1.581340 
# 
# From -- ./inp_files/6155.got.cif
#   From: 2010.05.17/outbox.cif.g08.bks.cpg/sg51_4_cif.got.tgz:6155.got - 2010.06.03 11:52:47.
