data_PCOD9404566
_publ_section_title
;
Structure prediction by ZEFSAII (Michael W. Deem and Ramdas Pophale) SiO2 
 PCOD9404566
Probable space group: P M M A
;
_chemical_formula_sum "Si O2"
_cell_formula_units_Z 58
_cell_length_a 9.858875
_cell_length_b 17.315236
_cell_length_c 18.636158
_cell_angle_alpha 90.000000
_cell_angle_beta 90.000000
_cell_angle_gamma 90.000000
_cell_volume 3181.355187
_symmetry_space_group_name_H-M "P M M A"
_symmetry_group_IT_number 51
_symmetry_cell_setting 'orthorhombic'
loop_
_space_group_symop_operation_xyz
x,y,z
1/2-x,-y,z
1/2+x,-y,-z
-x,y,-z
-x,-y,-z
1/2+x,y,-z
1/2-x,y,z
x,-y,z
loop_
_atom_site_type_symbol
_atom_site_label
_atom_site_fract_x
_atom_site_fract_y
_atom_site_fract_z
Si Si1 0.912840 0.257104 0.571538
Si Si2 0.899025 0.355216 0.226940
Si Si3 0.963329 0.363418 0.916648
Si Si4 0.905759 0.185421 0.930050
Si Si5 0.905763 0.908520 0.175981
Si Si6 0.904014 0.193146 0.307307
Si Si7 0.909569 0.414942 0.653889
Si Si8 0.250000 0.500000 0.110347
O O1 0.750000 0.245946 0.563525
O O2 0.936778 0.345003 0.599576
O O3 0.000000 0.245214 0.500000
O O4 0.980987 0.204761 0.633412
O O5 0.750000 0.382128 0.248647
O O6 0.912483 0.266215 0.252634
O O7 0.917354 0.362957 0.142093
O O8 0.009592 0.400592 0.272931
O O9 0.904624 0.276630 0.911749
O O10 0.865760 0.431797 0.893491
O O11 0.000000 0.375574 0.000000
O O12 0.750000 0.160557 0.941364
O O13 0.982270 0.136850 0.869258
O O14 0.000000 0.176824 0.000000
O O15 0.750000 0.886924 0.154456
O O16 0.919339 0.882082 0.258478
O O17 0.920182 0.000000 0.167452
O O18 0.750000 0.195393 0.337952
O O19 0.750000 0.412394 0.670623
O O20 0.942207 0.500000 0.624827
#
# Coordination Sequence:
#
# PCOD9404566 Si02
#       8
#     8   8   8   8   8   8   8   2
#     4  10  20  35  57  85 113 151 195 238 283 344
#     4  10  21  36  57  80 106 147 196 242 295 359
#     4  11  25  40  59  77 110 155 205 256 309 360
#     4  11  23  40  63  87 116 160 205 248 306 367
#     4  10  21  39  65  96 127 157 194 243 298 358
#     4   9  18  36  59  86 118 150 187 231 281 346
#     4   9  20  36  54  77 110 147 189 239 299 355
#     4  12  26  44  50  80 110 154 204 262 320 346
#
# _framework density 18.231224000000001
#
# number of rings (size 3 to 8) (size 9 to 14) (size 15 to 20)
#    0.000    1.931    2.069    1.034    2.897    2.759 
#    0.000    0.000    0.000    0.414    0.000    0.000 
#    0.000    0.000    0.000    0.000    0.000    0.000 
#
# Total GULP energy -322909.467658 kJ/mol
# GULP energy per Si atom -5567.404615 kJ/mol
# Density = 1.818973 g / cm^3
# Si number density = 18.231224 Si / 1000 Ang^3
#
#
#
# Elastic Constant Matrix: (Units=GPa)
#
#
# Indices 1 2 3 4 5 6 
#
# 1 114.1326 43.0991 56.2552 0.0000 0.0000 0.0000
# 2 43.0991 62.2928 23.2713 0.0000 0.0000 0.0000
# 3 56.2552 23.2713 81.2304 0.0000 0.0000 0.0000
# 4 0.0000 0.0000 0.0000 6.9027 0.0000 0.0000
# 5 0.0000 0.0000 0.0000 0.0000 16.3947 0.0000
# 6 0.0000 0.0000 0.0000 0.0000 0.0000 -23.2276
#
#
#
# Elastic Compliance Matrix: (Units=1/GPa)
#
#
# Indices 1 2 3 4 5 6 
#
# 1 0.016107 -0.007813 -0.008916 0.000000 0.000000 0.000000
# 2 -0.007813 0.021767 -0.000825 0.000000 0.000000 0.000000
# 3 -0.008916 -0.000825 0.018722 0.000000 0.000000 0.000000
# 4 0.000000 0.000000 0.000000 0.144871 0.000000 0.000000
# 5 0.000000 0.000000 0.000000 0.000000 0.060995 0.000000
# 6 0.000000 0.000000 0.000000 0.000000 0.000000 -0.043052
#
#
# Mechanical properties :
#
#
# Convention : Reuss Voigt Hill
#
# Bulk Modulus (GPa) = 46.53976 55.87854 51.20915
# Shear Modulus (GPa) = 19.10716 9.01597 14.06157
#
# Velocity S-wave (km/s) = 3.24087 2.22623 2.78022
# Velocity P-wave (km/s) = 6.29184 6.10938 6.20128
#
# Compressibility (1/GPa) = 0.02148701
#
# Stress axis : x y z
#
# Youngs Moduli (GPa) = 62.08499 45.94072 53.41319
#
# Poissons Ratio (x) = 0.35894 0.47625
# Poissons Ratio (y) = 0.48508 0.04407
# Poissons Ratio (z) = 0.55357 0.03791
#
# Static dielectric constant tensor:
#      x y z
#    x 1.623720 0.000000 0.000000 
#    y 0.000000 1.629580 0.000000 
#    z 0.000000 0.000000 1.628210 
# 
# From -- ./inp_files/28037.got.cif
#   From: 2010.05.17/outbox.cif.g08.bks.cpg/sg51_15_cif.got.tgz:28037.got - 2010.06.03 11:52:47.
