data_PCOD9404112
_publ_section_title
;
Structure prediction by ZEFSAII (Michael W. Deem and Ramdas Pophale) SiO2 
 PCOD9404112
Probable space group: P M M A
;
_chemical_formula_sum "Si O2"
_cell_formula_units_Z 56
_cell_length_a 18.837866
_cell_length_b 8.096331
_cell_length_c 18.043333
_cell_angle_alpha 90.000000
_cell_angle_beta 90.000000
_cell_angle_gamma 90.000000
_cell_volume 2751.925818
_symmetry_space_group_name_H-M "P M M A"
_symmetry_group_IT_number 51
_symmetry_cell_setting 'orthorhombic'
loop_
_space_group_symop_operation_xyz
x,y,z
1/2-x,-y,z
1/2+x,-y,-z
-x,y,-z
-x,-y,-z
1/2+x,y,-z
1/2-x,y,z
x,-y,z
loop_
_atom_site_type_symbol
_atom_site_label
_atom_site_fract_x
_atom_site_fract_y
_atom_site_fract_z
Si Si1 0.079716 0.797782 0.479945
Si Si2 0.830491 0.199896 0.098747
Si Si3 0.169757 0.197775 0.340568
Si Si4 0.574797 0.800395 0.963662
Si Si5 0.669852 0.801631 0.379092
Si Si6 0.579619 0.303203 0.793991
Si Si7 0.577452 0.696750 0.239441
O O1 0.113224 0.741284 0.402023
O O2 0.132350 0.744744 0.545636
O O3 0.000000 0.742860 0.500000
O O4 0.077807 0.000000 0.478724
O O5 0.750000 0.258297 0.108948
O O6 0.880844 0.257086 0.164887
O O7 0.830003 0.000000 0.100077
O O8 0.863684 0.251782 0.020353
O O9 0.250000 0.261641 0.351992
O O10 0.140662 0.234730 0.258920
O O11 0.172886 0.000000 0.349490
O O12 0.585328 0.739242 0.880524
O O13 0.573359 0.000000 0.961164
O O14 0.500000 0.745814 0.000000
O O15 0.750000 0.737110 0.370294
O O16 0.620837 0.761123 0.309415
O O17 0.674189 0.000000 0.383776
O O18 0.580016 0.500000 0.786573
O O19 0.502956 0.238018 0.765920
O O20 0.574057 0.500000 0.244708
#
# Coordination Sequence:
#
# PCOD9404112 Si02
#       7
#     8   8   8   8   8   8   8
#     4   9  17  32  57  87 115 146 188 238 290 342
#     4  10  21  37  58  84 112 143 184 235 288 341
#     4  10  21  38  61  88 118 153 195 243 292 344
#     4  10  20  37  61  86 111 145 190 238 289 344
#     4  10  20  34  55  83 114 147 185 232 284 337
#     4  11  24  39  58  84 116 153 193 236 284 342
#     4  11  23  37  54  80 115 152 190 230 277 338
#
# _framework density 20.349385999999999
#
# number of rings (size 3 to 8) (size 9 to 14) (size 15 to 20)
#    0.000    1.857    1.429    2.571    0.000    8.571 
#    0.000    2.143    0.000    4.286    0.000    0.000 
#    0.000    0.000    0.000    0.000    0.000    0.000 
#
# Total GULP energy -312870.374980 kJ/mol
# GULP energy per Si atom -5586.970982 kJ/mol
# Density = 2.030307 g / cm^3
# Si number density = 20.349386 Si / 1000 Ang^3
#
#
#
# Elastic Constant Matrix: (Units=GPa)
#
#
# Indices 1 2 3 4 5 6 
#
# 1 98.6431 10.2114 37.2161 0.0000 0.0000 0.0000
# 2 10.2114 9.2629 0.1478 0.0000 0.0000 0.0000
# 3 37.2161 0.1478 127.6025 0.0000 0.0000 0.0000
# 4 0.0000 0.0000 0.0000 -110.0782 0.0000 0.0000
# 5 0.0000 0.0000 0.0000 0.0000 18.3913 0.0000
# 6 0.0000 0.0000 0.0000 0.0000 0.0000 8.6856
#
#
#
# Elastic Compliance Matrix: (Units=1/GPa)
#
#
# Indices 1 2 3 4 5 6 
#
# 1 0.013050 -0.014326 -0.003790 0.000000 0.000000 0.000000
# 2 -0.014326 0.123687 0.004035 0.000000 0.000000 0.000000
# 3 -0.003790 0.004035 0.008937 0.000000 0.000000 0.000000
# 4 0.000000 0.000000 0.000000 -0.009084 0.000000 0.000000
# 5 0.000000 0.000000 0.000000 0.000000 0.054373 0.000000
# 6 0.000000 0.000000 0.000000 0.000000 0.000000 0.115133
#
#
# Mechanical properties :
#
#
# Convention : Reuss Voigt Hill
#
# Bulk Modulus (GPa) = 8.50970 36.73990 22.62480
# Shear Modulus (GPa) = 13.38942 -4.07137 4.65903
#
# Velocity S-wave (km/s) = 2.56789 -1.41601 1.51476
# Velocity P-wave (km/s) = 3.60319 3.92687 3.76850
#
# Compressibility (1/GPa) = 0.11751298
#
# Stress axis : x y z
#
# Youngs Moduli (GPa) = 76.62634 8.08494 111.88902
#
# Poissons Ratio (x) = 0.11583 0.42402
# Poissons Ratio (y) = 1.09777 -0.45148
# Poissons Ratio (z) = 0.29038 -0.03262
#
# Static dielectric constant tensor:
#      x y z
#    x 1.717780 0.000000 0.000000 
#    y 0.000000 1.724950 0.000000 
#    z 0.000000 0.000000 1.684390 
# 
# From -- ./inp_files/25671.got.cif
#   From: 2010.05.17/outbox.cif.g08.bks.cpg/sg51_13_cif.got.tgz:25671.got - 2010.06.03 11:52:47.
