data_PCOD9404277
_publ_section_title
;
Structure prediction by ZEFSAII (Michael W. Deem and Ramdas Pophale) SiO2 
 PCOD9404277
Probable space group: P M M A
;
_chemical_formula_sum "Si O2"
_cell_formula_units_Z 48
_cell_length_a 14.264834
_cell_length_b 15.719392
_cell_length_c 10.894872
_cell_angle_alpha 90.000000
_cell_angle_beta 90.000000
_cell_angle_gamma 90.000000
_cell_volume 2443.006366
_symmetry_space_group_name_H-M "P M M A"
_symmetry_group_IT_number 51
_symmetry_cell_setting 'orthorhombic'
loop_
_space_group_symop_operation_xyz
x,y,z
1/2-x,-y,z
1/2+x,-y,-z
-x,y,-z
-x,-y,-z
1/2+x,y,-z
1/2-x,y,z
x,-y,z
loop_
_atom_site_type_symbol
_atom_site_label
_atom_site_fract_x
_atom_site_fract_y
_atom_site_fract_z
Si Si1 0.135432 0.000000 0.571967
Si Si2 0.136358 0.808196 0.229063
Si Si3 0.934795 0.594675 0.121668
Si Si4 0.136341 0.000000 0.291953
Si Si5 0.001804 0.685943 0.638107
Si Si6 0.357771 0.232197 0.959472
Si Si7 0.362960 0.829838 0.708052
O O1 0.106591 0.915297 0.641795
O O2 0.250000 0.000000 0.570608
O O3 0.103781 0.000000 0.432453
O O4 0.250000 0.800410 0.242375
O O5 0.084692 0.749139 0.328755
O O6 0.110929 0.908121 0.236961
O O7 0.102561 0.774984 0.095547
O O8 0.894155 0.500000 0.134388
O O9 0.987290 0.620096 0.248588
O O10 0.865618 0.672365 0.092077
O O11 0.000000 0.593507 0.000000
O O12 0.250000 0.000000 0.290732
O O13 0.091363 0.748525 0.644804
O O14 0.000000 0.650210 0.500000
O O15 0.250000 0.207601 0.975203
O O16 0.394818 0.173329 0.850116
O O17 0.250000 0.824543 0.704991
#
# Coordination Sequence:
#
# PCOD9404277 Si02
#       7
#     4   8   8   4   8   8   8
#     4   9  16  30  48  71 105 147 186 222 268 318
#     4  10  20  35  53  78 111 145 185 229 269 319
#     4  10  20  37  59  80 107 137 173 221 272 327
#     4   9  18  30  48  71 105 149 184 222 272 314
#     4  11  22  35  57  83 109 146 183 221 275 329
#     4   9  18  34  56  80 105 139 180 223 274 324
#     4   9  19  33  52  77 108 143 185 230 268 317
#
# _framework density 19.647922999999999
#
# number of rings (size 3 to 8) (size 9 to 14) (size 15 to 20)
#    0.000    2.333    1.667    1.000    0.000    4.000 
#    0.000    5.000    0.000    3.500    0.000    2.333 
#    0.000    0.000    0.000    0.000    0.000    0.000 
#
# Total GULP energy -267569.939537 kJ/mol
# GULP energy per Si atom -5574.373740 kJ/mol
# Density = 1.960320 g / cm^3
# Si number density = 19.647923 Si / 1000 Ang^3
#
#
#
# Elastic Constant Matrix: (Units=GPa)
#
#
# Indices 1 2 3 4 5 6 
#
# 1 55.6017 2.6827 14.2365 0.0000 0.0000 0.0000
# 2 2.6827 101.0930 46.0473 0.0000 0.0000 0.0000
# 3 14.2365 46.0473 149.1464 0.0000 0.0000 0.0000
# 4 0.0000 0.0000 0.0000 13.2280 0.0000 0.0000
# 5 0.0000 0.0000 0.0000 0.0000 22.5002 0.0000
# 6 0.0000 0.0000 0.0000 0.0000 0.0000 18.8282
#
#
#
# Elastic Compliance Matrix: (Units=1/GPa)
#
#
# Indices 1 2 3 4 5 6 
#
# 1 0.018447 0.000364 -0.001873 0.000000 0.000000 0.000000
# 2 0.000364 0.011518 -0.003591 0.000000 0.000000 0.000000
# 3 -0.001873 -0.003591 0.007992 0.000000 0.000000 0.000000
# 4 0.000000 0.000000 0.000000 0.075597 0.000000 0.000000
# 5 0.000000 0.000000 0.000000 0.000000 0.044444 0.000000
# 6 0.000000 0.000000 0.000000 0.000000 0.000000 0.053112
#
#
# Mechanical properties :
#
#
# Convention : Reuss Voigt Hill
#
# Bulk Modulus (GPa) = 36.02720 47.97490 42.00105
# Shear Modulus (GPa) = 21.68607 27.10292 24.39450
#
# Velocity S-wave (km/s) = 3.32585 3.71810 3.52743
# Velocity P-wave (km/s) = 5.75540 6.55001 6.16552
#
# Compressibility (1/GPa) = 0.02775680
#
# Stress axis : x y z
#
# Youngs Moduli (GPa) = 54.20899 86.82237 125.12194
#
# Poissons Ratio (x) = -0.03157 0.23437
# Poissons Ratio (y) = -0.01971 0.44927
# Poissons Ratio (z) = 0.10154 0.31175
#
# Static dielectric constant tensor:
#      x y z
#    x 1.731170 0.000000 0.000000 
#    y 0.000000 1.655190 0.000000 
#    z 0.000000 0.000000 1.725240 
# 
# From -- ./inp_files/16513.got.cif
#   From: 2010.05.17/outbox.cif.g08.bks.cpg/sg51_9_cif.got.tgz:16513.got - 2010.06.03 11:52:47.
