data_PCOD9404696
_publ_section_title
;
Structure prediction by ZEFSAII (Michael W. Deem and Ramdas Pophale) SiO2 
 PCOD9404696
Probable space group: P M M A
;
_chemical_formula_sum "Si O2"
_cell_formula_units_Z 48
_cell_length_a 15.537693
_cell_length_b 18.101093
_cell_length_c 8.653377
_cell_angle_alpha 90.000000
_cell_angle_beta 90.000000
_cell_angle_gamma 90.000000
_cell_volume 2433.755584
_symmetry_space_group_name_H-M "P M M A"
_symmetry_group_IT_number 51
_symmetry_cell_setting 'orthorhombic'
loop_
_space_group_symop_operation_xyz
x,y,z
1/2-x,-y,z
1/2+x,-y,-z
-x,y,-z
-x,-y,-z
1/2+x,y,-z
1/2-x,y,z
x,-y,z
loop_
_atom_site_type_symbol
_atom_site_label
_atom_site_fract_x
_atom_site_fract_y
_atom_site_fract_z
Si Si1 0.403856 0.500000 0.066447
Si Si2 0.906650 0.189675 0.062034
Si Si3 0.250000 0.914593 0.939900
Si Si4 0.250000 0.084254 0.562329
Si Si5 0.901925 0.500000 0.567460
Si Si6 0.596411 0.811155 0.435601
Si Si7 0.402743 0.648549 0.563327
Si Si8 0.850230 0.350140 0.091085
O O1 0.405664 0.500000 0.249927
O O2 0.500000 0.500000 0.000000
O O3 0.360814 0.575566 0.006696
O O4 0.833681 0.132052 0.011210
O O5 0.908195 0.188579 0.248919
O O6 0.883870 0.274217 0.015223
O O7 0.000000 0.169940 0.000000
O O8 0.250000 0.915064 0.751129
O O9 0.250000 0.000000 0.990273
O O10 0.164253 0.127519 0.513029
O O11 0.250000 0.000000 0.510446
O O12 0.860454 0.424269 0.507587
O O13 0.000000 0.500000 0.500000
O O14 0.500000 0.821105 0.500000
O O15 0.632165 0.729497 0.476834
O O16 0.500000 0.651123 0.500000
O O17 0.400675 0.639588 0.747885
O O18 0.750000 0.338444 0.129585
#
# Coordination Sequence:
#
# PCOD9404696 Si02
#       8
#     4   8   4   4   4   8   8   8
#     4  12  23  36  59  85 116 156 199 247 293 353
#     4  10  20  36  61  86 115 156 198 240 291 350
#     4   9  18  36  59  88 119 150 192 239 289 355
#     4   9  18  34  59  84 113 152 188 229 287 347
#     4  10  20  36  55  79 115 146 194 244 288 343
#     4   9  19  34  57  85 115 147 194 236 281 344
#     4   9  18  34  58  83 111 150 198 238 286 345
#     4  11  22  38  59  84 119 160 203 249 297 351
#
# _framework density 19.722604
#
# number of rings (size 3 to 8) (size 9 to 14) (size 15 to 20)
#    0.000    2.167    0.833    3.250    3.500    4.667 
#    0.000    2.500    3.667    1.000    0.000    0.000 
#    0.000    0.000    0.000    0.000    0.000    0.000 
#
# Total GULP energy -267861.596012 kJ/mol
# GULP energy per Si atom -5580.449917 kJ/mol
# Density = 1.967771 g / cm^3
# Si number density = 19.722604 Si / 1000 Ang^3
#
#
#
# Elastic Constant Matrix: (Units=GPa)
#
#
# Indices 1 2 3 4 5 6 
#
# 1 118.1234 76.1815 18.8634 0.0000 0.0000 0.0000
# 2 76.1815 212.5446 41.2575 0.0000 0.0000 0.0000
# 3 18.8634 41.2575 41.0401 0.0000 0.0000 0.0000
# 4 0.0000 0.0000 0.0000 4.0572 0.0000 0.0000
# 5 0.0000 0.0000 0.0000 0.0000 15.3976 0.0000
# 6 0.0000 0.0000 0.0000 0.0000 0.0000 38.3747
#
#
#
# Elastic Compliance Matrix: (Units=1/GPa)
#
#
# Indices 1 2 3 4 5 6 
#
# 1 0.011072 -0.003703 -0.001366 0.000000 0.000000 0.000000
# 2 -0.003703 0.007084 -0.005420 0.000000 0.000000 0.000000
# 3 -0.001366 -0.005420 0.030443 0.000000 0.000000 0.000000
# 4 0.000000 0.000000 0.000000 0.246477 0.000000 0.000000
# 5 0.000000 0.000000 0.000000 0.000000 0.064945 0.000000
# 6 0.000000 0.000000 0.000000 0.000000 0.000000 0.026059
#
#
# Mechanical properties :
#
#
# Convention : Reuss Voigt Hill
#
# Bulk Modulus (GPa) = 36.20446 71.59032 53.89739
# Shear Modulus (GPa) = 12.01155 27.25961 19.63558
#
# Velocity S-wave (km/s) = 2.47052 3.72176 3.15872
# Velocity P-wave (km/s) = 5.15118 7.40582 6.37890
#
# Compressibility (1/GPa) = 0.02762091
#
# Stress axis : x y z
#
# Youngs Moduli (GPa) = 90.31512 141.15683 32.84862
#
# Poissons Ratio (x) = 0.52276 0.04488
# Poissons Ratio (y) = 0.33448 0.17803
# Poissons Ratio (z) = 0.12338 0.76502
#
# Static dielectric constant tensor:
#      x y z
#    x 1.679750 0.000000 0.000000 
#    y 0.000000 1.734090 0.000000 
#    z 0.000000 0.000000 1.687790 
# 
# From -- ./inp_files/8396.got.cif
#   From: 2010.05.17/outbox.cif.g08.bks.cpg/sg51_5_cif.got.tgz:8396.got - 2010.06.03 11:52:47.
