data_PCOD9404869
_publ_section_title
;
Structure prediction by ZEFSAII (Michael W. Deem and Ramdas Pophale) SiO2 
 PCOD9404869
Probable space group: P M M A
;
_chemical_formula_sum "Si O2"
_cell_formula_units_Z 64
_cell_length_a 26.534527
_cell_length_b 14.386416
_cell_length_c 8.789539
_cell_angle_alpha 90.000000
_cell_angle_beta 90.000000
_cell_angle_gamma 90.000000
_cell_volume 3355.289997
_symmetry_space_group_name_H-M "P M M A"
_symmetry_group_IT_number 51
_symmetry_cell_setting 'orthorhombic'
loop_
_space_group_symop_operation_xyz
x,y,z
1/2-x,-y,z
1/2+x,-y,-z
-x,y,-z
-x,-y,-z
1/2+x,y,-z
1/2-x,y,z
x,-y,z
loop_
_atom_site_type_symbol
_atom_site_label
_atom_site_fract_x
_atom_site_fract_y
_atom_site_fract_z
Si Si1 0.418456 0.891355 0.339403
Si Si2 0.482817 0.887699 0.835298
Si Si3 0.635298 0.390347 0.289768
Si Si4 0.616867 0.891345 0.314699
Si Si5 0.138190 0.264808 0.152003
Si Si6 0.309252 0.611341 0.401511
Si Si7 0.441022 0.388566 0.966444
Si Si8 0.308314 0.232529 0.849592
O O1 0.475952 0.868119 0.293510
O O2 0.405136 0.884392 0.516208
O O3 0.384989 0.818092 0.250264
O O4 0.410480 0.000000 0.293943
O O5 0.427481 0.854950 0.794535
O O6 0.479301 0.000000 0.842347
O O7 0.500000 0.853981 0.000000
O O8 0.641565 0.500000 0.281315
O O9 0.650722 0.365087 0.463000
O O10 0.581713 0.369713 0.204911
O O11 0.676757 0.337872 0.189960
O O12 0.664808 0.830358 0.276979
O O13 0.626987 0.000000 0.284834
O O14 0.173842 0.329581 0.255645
O O15 0.094127 0.328917 0.079209
O O16 0.168366 0.217215 0.014782
O O17 0.250000 0.630375 0.441882
O O18 0.312785 0.500000 0.374021
O O19 0.434341 0.500000 0.991788
O O20 0.500000 0.368710 0.000000
O O21 0.250000 0.216585 0.848989
#
# Coordination Sequence:
#
# PCOD9404869 Si02
#       8
#     8   8   8   8   8   8   8   8
#     4  10  21  36  55  81 112 146 183 227 279 333
#     4   9  17  32  56  83 109 138 175 221 273 326
#     4   9  19  36  58  83 110 142 182 225 273 332
#     4  10  21  38  58  79 108 145 185 229 277 332
#     4  11  22  36  56  82 113 146 188 235 286 344
#     4  10  20  36  59  85 113 145 183 233 289 340
#     4   9  19  37  58  81 114 153 190 231 281 341
#     4  11  23  37  56  81 108 142 186 234 281 329
#
# _framework density 19.074356999999999
#
# number of rings (size 3 to 8) (size 9 to 14) (size 15 to 20)
#    0.000    2.125    0.000    3.000    0.000    7.000 
#    0.000    2.500    0.000    5.625    0.000    0.000 
#    0.000    0.000    0.000    0.000    0.000    0.000 
#
# Total GULP energy -356952.101122 kJ/mol
# GULP energy per Si atom -5577.376580 kJ/mol
# Density = 1.903094 g / cm^3
# Si number density = 19.074357 Si / 1000 Ang^3
#
#
#
# Elastic Constant Matrix: (Units=GPa)
#
#
# Indices 1 2 3 4 5 6 
#
# 1 132.1897 34.1906 37.6636 0.0000 0.0000 0.0000
# 2 34.1906 57.0568 25.5068 0.0000 0.0000 0.0000
# 3 37.6636 25.5068 61.1103 0.0000 0.0000 0.0000
# 4 0.0000 0.0000 0.0000 27.7525 0.0000 0.0000
# 5 0.0000 0.0000 0.0000 0.0000 26.8025 0.0000
# 6 0.0000 0.0000 0.0000 0.0000 0.0000 23.8181
#
#
#
# Elastic Compliance Matrix: (Units=1/GPa)
#
#
# Indices 1 2 3 4 5 6 
#
# 1 0.009840 -0.003916 -0.004430 0.000000 0.000000 0.000000
# 2 -0.003916 0.023105 -0.007230 0.000000 0.000000 0.000000
# 3 -0.004430 -0.007230 0.022112 0.000000 0.000000 0.000000
# 4 0.000000 0.000000 0.000000 0.036033 0.000000 0.000000
# 5 0.000000 0.000000 0.000000 0.000000 0.037310 0.000000
# 6 0.000000 0.000000 0.000000 0.000000 0.000000 0.041985
#
#
# Mechanical properties :
#
#
# Convention : Reuss Voigt Hill
#
# Bulk Modulus (GPa) = 41.83330 49.45320 45.64325
# Shear Modulus (GPa) = 23.86564 25.87433 24.86999
#
# Velocity S-wave (km/s) = 3.54105 3.68706 3.61480
# Velocity P-wave (km/s) = 6.22078 6.64144 6.43455
#
# Compressibility (1/GPa) = 0.02390440
#
# Stress axis : x y z
#
# Youngs Moduli (GPa) = 101.62615 43.28005 45.22418
#
# Poissons Ratio (x) = 0.16949 0.20035
# Poissons Ratio (y) = 0.39798 0.32699
# Poissons Ratio (z) = 0.45021 0.31293
#
# Static dielectric constant tensor:
#      x y z
#    x 1.652310 0.000000 0.000000 
#    y 0.000000 1.668830 0.000000 
#    z 0.000000 0.000000 1.689400 
# 
# From -- ./inp_files/11910.got.cif
#   From: 2010.05.17/outbox.cif.g08.bks.cpg/sg51_6_cif.got.tgz:11910.got - 2010.06.03 11:52:47.
