data_PCOD9404686
_publ_section_title
;
Structure prediction by ZEFSAII (Michael W. Deem and Ramdas Pophale) SiO2 
 PCOD9404686
Probable space group: P M M A
;
_chemical_formula_sum "Si O2"
_cell_formula_units_Z 64
_cell_length_a 33.149783
_cell_length_b 8.114627
_cell_length_c 10.658565
_cell_angle_alpha 90.000000
_cell_angle_beta 90.000000
_cell_angle_gamma 90.000000
_cell_volume 2867.133991
_symmetry_space_group_name_H-M "P M M A"
_symmetry_group_IT_number 51
_symmetry_cell_setting 'orthorhombic'
loop_
_space_group_symop_operation_xyz
x,y,z
1/2-x,-y,z
1/2+x,-y,-z
-x,y,-z
-x,-y,-z
1/2+x,y,-z
1/2-x,y,z
x,-y,z
loop_
_atom_site_type_symbol
_atom_site_label
_atom_site_fract_x
_atom_site_fract_y
_atom_site_fract_z
Si Si1 0.593956 0.188179 0.249021
Si Si2 0.018057 0.312778 0.861739
Si Si3 0.296453 0.804304 0.406568
Si Si4 0.705764 0.701071 0.053396
Si Si5 0.045823 0.806211 0.493824
Si Si6 0.350310 0.698853 0.169578
Si Si7 0.436264 0.692321 0.240302
Si Si8 0.821069 0.689442 0.318445
O O1 0.561606 0.229098 0.141866
O O2 0.566550 0.206191 0.372675
O O3 0.632694 0.299221 0.271805
O O4 0.608003 0.000000 0.238593
O O5 0.025016 0.500000 0.815353
O O6 0.980616 0.233118 0.785833
O O7 0.000000 0.318336 0.000000
O O8 0.250000 0.741515 0.399007
O O9 0.324623 0.736208 0.295047
O O10 0.313653 0.770483 0.546541
O O11 0.295452 0.000000 0.389841
O O12 0.750000 0.742669 0.003478
O O13 0.702795 0.500000 0.058963
O O14 0.672413 0.759492 0.955039
O O15 0.701695 0.760499 0.196543
O O16 0.069792 0.707986 0.388707
O O17 0.000000 0.745516 0.500000
O O18 0.045507 0.000000 0.458696
O O19 0.352936 0.500000 0.161661
O O20 0.396145 0.763275 0.178200
O O21 0.439668 0.500000 0.202916
O O22 0.808798 0.500000 0.334555
#
# Coordination Sequence:
#
# PCOD9404686 Si02
#       8
#     8   8   8   8   8   8   8   8
#     4  11  23  39  59  85 119 155 199 246 297 358
#     4  10  22  38  58  82 115 158 201 245 296 351
#     4  11  24  42  63  90 126 164 202 248 304 365
#     4   9  19  37  63  93 121 152 195 248 303 361
#     4  10  20  36  55  76 107 149 192 237 288 342
#     4  10  21  38  63  93 123 156 199 250 301 359
#     4  10  21  35  56  87 117 148 191 242 293 347
#     4  11  23  39  64  93 124 160 204 254 307 365
#
# _framework density 22.321940999999999
#
# number of rings (size 3 to 8) (size 9 to 14) (size 15 to 20)
#    0.000    1.750    1.250    2.625    1.750    6.000 
#    0.000    1.250    0.000    3.000    0.000    0.000 
#    0.000    0.000    0.000    0.000    0.000    0.000 
#
# Total GULP energy -357352.458658 kJ/mol
# GULP energy per Si atom -5583.632167 kJ/mol
# Density = 2.227114 g / cm^3
# Si number density = 22.321941 Si / 1000 Ang^3
#
#
#
# Elastic Constant Matrix: (Units=GPa)
#
#
# Indices 1 2 3 4 5 6 
#
# 1 82.0174 -1.7745 -1.3596 0.0000 0.0000 0.0000
# 2 -1.7745 16.5223 -0.1364 0.0000 0.0000 0.0000
# 3 -1.3596 -0.1364 61.8977 0.0000 0.0000 0.0000
# 4 0.0000 0.0000 0.0000 -67.7793 0.0000 0.0000
# 5 0.0000 0.0000 0.0000 0.0000 31.4364 0.0000
# 6 0.0000 0.0000 0.0000 0.0000 0.0000 11.2294
#
#
#
# Elastic Compliance Matrix: (Units=1/GPa)
#
#
# Indices 1 2 3 4 5 6 
#
# 1 0.012225 0.001315 0.000271 0.000000 0.000000 0.000000
# 2 0.001315 0.060667 0.000163 0.000000 0.000000 0.000000
# 3 0.000271 0.000163 0.016162 0.000000 0.000000 0.000000
# 4 0.000000 0.000000 0.000000 -0.014754 0.000000 0.000000
# 5 0.000000 0.000000 0.000000 0.000000 0.031810 0.000000
# 6 0.000000 0.000000 0.000000 0.000000 0.000000 0.089052
#
#
# Mechanical properties :
#
#
# Convention : Reuss Voigt Hill
#
# Bulk Modulus (GPa) = 10.80463 17.09960 13.95212
# Shear Modulus (GPa) = 22.47035 5.89115 14.18075
#
# Velocity S-wave (km/s) = 3.17621 1.62632 2.52322
# Velocity P-wave (km/s) = 4.27808 3.34718 3.84094
#
# Compressibility (1/GPa) = 0.09255289
#
# Stress axis : x y z
#
# Youngs Moduli (GPa) = 81.79626 16.48345 61.87349
#
# Poissons Ratio (x) = -0.02168 -0.01679
# Poissons Ratio (y) = -0.10758 -0.01006
# Poissons Ratio (z) = -0.02220 -0.00268
#
# Static dielectric constant tensor:
#      x y z
#    x 1.904100 0.000000 0.000000 
#    y 0.000000 1.826500 0.000000 
#    z 0.000000 0.000000 1.851920 
# 
# From -- ./inp_files/19653.got.cif
#   From: 2010.05.17/outbox.cif.g08.bks.cpg/sg51_10_cif.got.tgz:19653.got - 2010.06.03 11:52:47.
