data_PCOD9404504
_publ_section_title
;
Structure prediction by ZEFSAII (Michael W. Deem and Ramdas Pophale) SiO2 
 PCOD9404504
Probable space group: P M M A
;
_chemical_formula_sum "Si O2"
_cell_formula_units_Z 48
_cell_length_a 16.429517
_cell_length_b 7.588878
_cell_length_c 17.190258
_cell_angle_alpha 90.000000
_cell_angle_beta 90.000000
_cell_angle_gamma 90.000000
_cell_volume 2143.308874
_symmetry_space_group_name_H-M "P M M A"
_symmetry_group_IT_number 51
_symmetry_cell_setting 'orthorhombic'
loop_
_space_group_symop_operation_xyz
x,y,z
1/2-x,-y,z
1/2+x,-y,-z
-x,y,-z
-x,-y,-z
1/2+x,y,-z
1/2-x,y,z
x,-y,z
loop_
_atom_site_type_symbol
_atom_site_label
_atom_site_fract_x
_atom_site_fract_y
_atom_site_fract_z
Si Si1 0.841777 0.714929 0.191205
Si Si2 0.061591 0.295790 0.659115
Si Si3 0.621057 0.799943 0.663644
Si Si4 0.837911 0.296345 0.833208
Si Si5 0.003933 0.715371 0.909896
Si Si6 0.158472 0.213052 0.508599
O O1 0.750000 0.776653 0.175158
O O2 0.839354 0.500000 0.188307
O O3 0.872019 0.764586 0.277811
O O4 0.913233 0.773127 0.132742
O O5 0.043854 0.500000 0.676672
O O6 0.095830 0.279367 0.572491
O O7 0.976512 0.199227 0.667933
O O8 0.654211 0.707314 0.739995
O O9 0.643323 0.724030 0.579310
O O10 0.651942 0.000000 0.666177
O O11 0.750000 0.217225 0.855063
O O12 0.836179 0.500000 0.858933
O O13 0.921579 0.220682 0.867532
O O14 0.004617 0.500000 0.905373
O O15 0.000000 0.764607 0.000000
O O16 0.250000 0.261224 0.532258
O O17 0.151732 0.000000 0.507328
#
# Coordination Sequence:
#
# PCOD9404504 Si02
#       6
#     8   8   8   8   8   8
#     4   9  17  30  50  77 109 142 178 221 270 326
#     4  11  21  35  55  80 111 145 187 235 286 333
#     4  11  22  37  57  79 108 150 195 231 277 334
#     4  10  20  35  56  84 116 147 183 232 284 332
#     4   9  17  31  52  80 115 147 177 221 279 341
#     4  10  22  38  53  75 109 146 188 235 278 330
#
# _framework density 22.395278000000001
#
# number of rings (size 3 to 8) (size 9 to 14) (size 15 to 20)
#    0.000    2.000    1.667    2.500    0.000    6.000 
#    0.000    3.333    0.000    0.500    0.000    0.000 
#    0.000    0.000    0.000    0.000    0.000    0.000 
#
# Total GULP energy -268230.209898 kJ/mol
# GULP energy per Si atom -5588.129373 kJ/mol
# Density = 2.234431 g / cm^3
# Si number density = 22.395278 Si / 1000 Ang^3
#
#
#
# Elastic Constant Matrix: (Units=GPa)
#
#
# Indices 1 2 3 4 5 6 
#
# 1 193.0194 5.9736 58.2396 0.0000 0.0000 0.0000
# 2 5.9736 51.9020 -3.9495 0.0000 0.0000 0.0000
# 3 58.2396 -3.9495 112.6200 0.0000 0.0000 0.0000
# 4 0.0000 0.0000 0.0000 37.0428 0.0000 0.0000
# 5 0.0000 0.0000 0.0000 0.0000 8.7706 0.0000
# 6 0.0000 0.0000 0.0000 0.0000 0.0000 2.1098
#
#
#
# Elastic Compliance Matrix: (Units=1/GPa)
#
#
# Indices 1 2 3 4 5 6 
#
# 1 0.006186 -0.000958 -0.003232 0.000000 0.000000 0.000000
# 2 -0.000958 0.019467 0.001178 0.000000 0.000000 0.000000
# 3 -0.003232 0.001178 0.010592 0.000000 0.000000 0.000000
# 4 0.000000 0.000000 0.000000 0.026996 0.000000 0.000000
# 5 0.000000 0.000000 0.000000 0.000000 0.114017 0.000000
# 6 0.000000 0.000000 0.000000 0.000000 0.000000 0.473975
#
#
# Mechanical properties :
#
#
# Convention : Reuss Voigt Hill
#
# Bulk Modulus (GPa) = 33.09017 53.11877 43.10447
# Shear Modulus (GPa) = 7.49254 29.40316 18.44785
#
# Velocity S-wave (km/s) = 1.83108 3.62735 2.87320
# Velocity P-wave (km/s) = 4.39068 6.42758 5.50417
#
# Compressibility (1/GPa) = 0.03022045
#
# Stress axis : x y z
#
# Youngs Moduli (GPa) = 161.66038 51.36904 94.40764
#
# Poissons Ratio (x) = 0.04921 0.30517
# Poissons Ratio (y) = 0.15486 -0.11122
# Poissons Ratio (z) = 0.52256 -0.06052
#
# Static dielectric constant tensor:
#      x y z
#    x 1.818900 0.000000 0.000000 
#    y 0.000000 1.856320 0.000000 
#    z 0.000000 0.000000 1.780860 
# 
# From -- ./inp_files/29420.got.cif
#   From: 2010.05.17/outbox.cif.g08.bks.cpg/sg51_15_cif.got.tgz:29420.got - 2010.06.03 11:52:47.
