data_PCOD9404410
_publ_section_title
;
Structure prediction by ZEFSAII (Michael W. Deem and Ramdas Pophale) SiO2 
 PCOD9404410
Probable space group: P M M A
;
_chemical_formula_sum "Si O2"
_cell_formula_units_Z 56
_cell_length_a 21.743785
_cell_length_b 7.475458
_cell_length_c 15.526373
_cell_angle_alpha 90.000000
_cell_angle_beta 90.000000
_cell_angle_gamma 90.000000
_cell_volume 2523.730441
_symmetry_space_group_name_H-M "P M M A"
_symmetry_group_IT_number 51
_symmetry_cell_setting 'orthorhombic'
loop_
_space_group_symop_operation_xyz
x,y,z
1/2-x,-y,z
1/2+x,-y,-z
-x,y,-z
-x,-y,-z
1/2+x,y,-z
1/2-x,y,z
x,-y,z
loop_
_atom_site_type_symbol
_atom_site_label
_atom_site_fract_x
_atom_site_fract_y
_atom_site_fract_z
Si Si1 0.560247 0.219551 0.554919
Si Si2 0.681766 0.717437 0.932576
Si Si3 0.956364 0.707215 0.921736
Si Si4 0.611363 0.712009 0.288999
Si Si5 0.183562 0.716909 0.867454
Si Si6 0.318043 0.785953 0.543841
Si Si7 0.019597 0.200931 0.267652
O O1 0.500000 0.276012 0.500000
O O2 0.623323 0.279340 0.510150
O O3 0.559190 0.281103 0.654636
O O4 0.559029 0.000000 0.556453
O O5 0.750000 0.777957 0.899745
O O6 0.683200 0.500000 0.923814
O O7 0.613410 0.778948 0.904957
O O8 0.679902 0.766073 0.033607
O O9 0.946884 0.500000 0.947386
O O10 0.985934 0.712454 0.826526
O O11 0.000000 0.781264 0.000000
O O12 0.600344 0.500000 0.285832
O O13 0.631518 0.780816 0.195715
O O14 0.664333 0.747009 0.357523
O O15 0.547560 0.802003 0.311419
O O16 0.250000 0.772810 0.833531
O O17 0.181614 0.500000 0.865696
O O18 0.250000 0.716730 0.522593
O O19 0.316622 0.000000 0.533091
O O20 0.040810 0.000000 0.250862
#
# Coordination Sequence:
#
# PCOD9404410 Si02
#       7
#     8   8   8   8   8   8   8
#     4   9  17  35  58  76 102 141 183 223 269 327
#     4   8  14  27  48  71  97 135 179 218 262 321
#     4  10  20  35  55  81 113 145 183 232 284 341
#     4  11  20  31  50  78 112 143 176 222 284 344
#     4   8  14  25  43  69 100 134 171 210 258 321
#     4  10  20  35  56  80 106 141 185 231 278 331
#     4  11  22  36  56  79 105 142 190 235 280 334
#
# _framework density 22.189373
#
# number of rings (size 3 to 8) (size 9 to 14) (size 15 to 20)
#    0.000    2.429    1.429    3.000    0.000    3.429 
#    0.000    2.857    0.000    1.286    0.000    4.000 
#    0.000    0.000    0.000    0.000    0.000    0.000 
#
# Total GULP energy -312038.895501 kJ/mol
# GULP energy per Si atom -5572.123134 kJ/mol
# Density = 2.213887 g / cm^3
# Si number density = 22.189373 Si / 1000 Ang^3
#
#
#
# Elastic Constant Matrix: (Units=GPa)
#
#
# Indices 1 2 3 4 5 6 
#
# 1 160.4688 9.7042 41.0052 0.0000 0.0000 0.0000
# 2 9.7042 62.5682 0.0176 0.0000 0.0000 0.0000
# 3 41.0052 0.0176 77.8521 0.0000 0.0000 0.0000
# 4 0.0000 0.0000 0.0000 10.1453 0.0000 0.0000
# 5 0.0000 0.0000 0.0000 0.0000 38.5674 0.0000
# 6 0.0000 0.0000 0.0000 0.0000 0.0000 -1.9118
#
#
#
# Elastic Compliance Matrix: (Units=1/GPa)
#
#
# Indices 1 2 3 4 5 6 
#
# 1 0.007280 -0.001128 -0.003834 0.000000 0.000000 0.000000
# 2 -0.001128 0.016157 0.000590 0.000000 0.000000 0.000000
# 3 -0.003834 0.000590 0.014864 0.000000 0.000000 0.000000
# 4 0.000000 0.000000 0.000000 0.098568 0.000000 0.000000
# 5 0.000000 0.000000 0.000000 0.000000 0.025929 0.000000
# 6 0.000000 0.000000 0.000000 0.000000 0.000000 -0.523063
#
#
# Mechanical properties :
#
#
# Convention : Reuss Voigt Hill
#
# Bulk Modulus (GPa) = 33.83166 44.70477 39.26822
# Shear Modulus (GPa) = -14.63400 26.03766 5.70183
#
# Velocity S-wave (km/s) = -2.57087 3.42925 1.60474
# Velocity P-wave (km/s) = 2.54311 5.98919 4.60096
#
# Compressibility (1/GPa) = 0.02955811
#
# Stress axis : x y z
#
# Youngs Moduli (GPa) = 137.36892 61.89141 67.27607
#
# Poissons Ratio (x) = 0.06981 0.25794
# Poissons Ratio (y) = 0.15495 -0.03972
# Poissons Ratio (z) = 0.52667 -0.03654
#
# Static dielectric constant tensor:
#      x y z
#    x 1.887390 0.000000 0.000000 
#    y 0.000000 1.856170 0.000000 
#    z 0.000000 0.000000 1.802040 
# 
# From -- ./inp_files/25756.got.cif
#   From: 2010.05.17/outbox.cif.g08.bks.cpg/sg51_13_cif.got.tgz:25756.got - 2010.06.03 11:52:47.
