data_PCOD9404190
_publ_section_title
;
Structure prediction by ZEFSAII (Michael W. Deem and Ramdas Pophale) SiO2 
 PCOD9404190
Probable space group: P M M A
;
_chemical_formula_sum "Si O2"
_cell_formula_units_Z 64
_cell_length_a 9.269300
_cell_length_b 24.182851
_cell_length_c 15.141899
_cell_angle_alpha 90.000000
_cell_angle_beta 90.000000
_cell_angle_gamma 90.000000
_cell_volume 3394.179322
_symmetry_space_group_name_H-M "P M M A"
_symmetry_group_IT_number 51
_symmetry_cell_setting 'orthorhombic'
loop_
_space_group_symop_operation_xyz
x,y,z
1/2-x,-y,z
1/2+x,-y,-z
-x,y,-z
-x,-y,-z
1/2+x,y,-z
1/2-x,y,z
x,-y,z
loop_
_atom_site_type_symbol
_atom_site_label
_atom_site_fract_x
_atom_site_fract_y
_atom_site_fract_z
Si Si1 0.919290 0.881421 0.753088
Si Si2 0.918691 0.751700 0.763578
Si Si3 0.585213 0.280112 0.413296
Si Si4 0.920822 0.935321 0.406520
Si Si5 0.084252 0.586130 0.587618
Si Si6 0.423629 0.339754 0.094635
Si Si7 0.920814 0.562801 0.769802
Si Si8 0.085148 0.066472 0.913953
O O1 0.750000 0.895130 0.744716
O O2 0.931474 0.816992 0.777924
O O3 0.002227 0.895867 0.663350
O O4 0.996224 0.916168 0.828880
O O5 0.750000 0.738643 0.745679
O O6 0.961562 0.714561 0.847496
O O7 0.008873 0.736903 0.676986
O O8 0.500000 0.260350 0.500000
O O9 0.750000 0.260667 0.415946
O O10 0.585206 0.346937 0.415231
O O11 0.750000 0.924227 0.413552
O O12 0.000000 0.929653 0.500000
O O13 0.937008 0.000000 0.378462
O O14 0.250000 0.567421 0.586630
O O15 0.000000 0.567117 0.500000
O O16 0.005840 0.569814 0.678214
O O17 0.250000 0.340621 0.082235
O O18 0.463213 0.392051 0.156931
O O19 0.500000 0.340992 0.000000
O O20 0.750000 0.571059 0.751630
O O21 0.941097 0.500000 0.802063
O O22 0.250000 0.086895 0.910993
O O23 0.090712 0.000000 0.918103
O O24 0.000000 0.086764 0.000000
#
# Coordination Sequence:
#
# PCOD9404190 Si02
#       8
#     8   8   8   8   8   8   8   8
#     4  11  23  37  57  86 118 152 194 239 289 347
#     4  10  22  40  59  82 114 153 192 235 287 340
#     4  10  20  34  57  85 112 147 189 230 276 332
#     4  10  21  38  60  86 118 158 202 245 293 345
#     4  10  20  34  56  86 118 153 190 229 278 334
#     4  10  22  41  63  84 112 147 188 238 290 347
#     4  10  21  38  61  87 116 152 192 237 289 343
#     4  10  21  38  60  85 114 149 188 233 287 343
#
# _framework density 18.855809000000001
#
# number of rings (size 3 to 8) (size 9 to 14) (size 15 to 20)
#    0.000    1.875    1.250    2.250    0.000    7.750 
#    0.000    1.250    0.000    0.000    0.000    0.000 
#    0.000    0.000    0.000    0.000    0.000    0.000 
#
# Total GULP energy -357482.830552 kJ/mol
# GULP energy per Si atom -5585.669227 kJ/mol
# Density = 1.881289 g / cm^3
# Si number density = 18.855809 Si / 1000 Ang^3
#
#
#
# Elastic Constant Matrix: (Units=GPa)
#
#
# Indices 1 2 3 4 5 6 
#
# 1 118.5084 44.9309 72.5337 0.0000 0.0000 0.0000
# 2 44.9309 38.8223 39.4428 0.0000 0.0000 0.0000
# 3 72.5337 39.4428 143.0222 0.0000 0.0000 0.0000
# 4 0.0000 0.0000 0.0000 64.2872 0.0000 0.0000
# 5 0.0000 0.0000 0.0000 0.0000 40.7837 0.0000
# 6 0.0000 0.0000 0.0000 0.0000 0.0000 170.1334
#
#
#
# Elastic Compliance Matrix: (Units=1/GPa)
#
#
# Indices 1 2 3 4 5 6 
#
# 1 0.016810 -0.014995 -0.004390 0.000000 0.000000 0.000000
# 2 -0.014995 0.049161 -0.005953 0.000000 0.000000 0.000000
# 3 -0.004390 -0.005953 0.010860 0.000000 0.000000 0.000000
# 4 0.000000 0.000000 0.000000 0.015555 0.000000 0.000000
# 5 0.000000 0.000000 0.000000 0.000000 0.024520 0.000000
# 6 0.000000 0.000000 0.000000 0.000000 0.000000 0.005878
#
#
# Mechanical properties :
#
#
# Convention : Reuss Voigt Hill
#
# Bulk Modulus (GPa) = 38.23319 68.24086 53.23702
# Shear Modulus (GPa) = 27.44555 64.60390 46.02473
#
# Velocity S-wave (km/s) = 3.81930 5.85973 4.94588
# Velocity P-wave (km/s) = 6.30635 9.05822 7.80453
#
# Compressibility (1/GPa) = 0.02615528
#
# Stress axis : x y z
#
# Youngs Moduli (GPa) = 59.48693 20.34124 92.08124
#
# Poissons Ratio (x) = 0.30502 0.40423
# Poissons Ratio (y) = 0.89203 0.54814
# Poissons Ratio (z) = 0.26115 0.12109
#
# Static dielectric constant tensor:
#      x y z
#    x 1.641040 0.000000 0.000000 
#    y 0.000000 1.670950 0.000000 
#    z 0.000000 0.000000 1.634000 
# 
# From -- ./inp_files/22264.got.cif
#   From: 2010.05.17/outbox.cif.g08.bks.cpg/sg51_12_cif.got.tgz:22264.got - 2010.06.03 11:52:47.
