data_PCOD9404533
_publ_section_title
;
Structure prediction by ZEFSAII (Michael W. Deem and Ramdas Pophale) SiO2 
 PCOD9404533
Probable space group: P M M A
;
_chemical_formula_sum "Si O2"
_cell_formula_units_Z 56
_cell_length_a 19.762926
_cell_length_b 8.956986
_cell_length_c 17.877388
_cell_angle_alpha 90.000000
_cell_angle_beta 90.000000
_cell_angle_gamma 90.000000
_cell_volume 3164.588210
_symmetry_space_group_name_H-M "P M M A"
_symmetry_group_IT_number 51
_symmetry_cell_setting 'orthorhombic'
loop_
_space_group_symop_operation_xyz
x,y,z
1/2-x,-y,z
1/2+x,-y,-z
-x,y,-z
-x,-y,-z
1/2+x,y,-z
1/2-x,y,z
x,-y,z
loop_
_atom_site_type_symbol
_atom_site_label
_atom_site_fract_x
_atom_site_fract_y
_atom_site_fract_z
Si Si1 0.669661 0.177118 0.083593
Si Si2 0.428600 0.321539 0.797255
Si Si3 0.573966 0.178486 0.802244
Si Si4 0.935682 0.321148 0.377053
Si Si5 0.669554 0.322888 0.924685
Si Si6 0.171920 0.680222 0.497077
Si Si7 0.919429 0.822135 0.627268
O O1 0.750000 0.201321 0.094059
O O2 0.628058 0.251122 0.150281
O O3 0.657251 0.000000 0.080831
O O4 0.650479 0.251075 0.004394
O O5 0.430363 0.500000 0.806154
O O6 0.501077 0.251461 0.817651
O O7 0.417428 0.288235 0.709225
O O8 0.628384 0.246475 0.858341
O O9 0.590627 0.211586 0.715290
O O10 0.570095 0.000000 0.810665
O O11 0.945754 0.500000 0.383437
O O12 0.876028 0.276789 0.433253
O O13 0.006870 0.242425 0.394441
O O14 0.750000 0.299122 0.914527
O O15 0.656841 0.500000 0.926062
O O16 0.250000 0.726108 0.506319
O O17 0.170412 0.500000 0.491917
O O18 0.137754 0.748751 0.423646
O O19 0.919423 0.000000 0.617746
#
# Coordination Sequence:
#
# PCOD9404533 Si02
#       7
#     8   8   8   8   8   8   8
#     4  10  21  37  56  79 110 146 180 215 263 322
#     4  10  20  35  57  83 109 138 178 226 269 312
#     4  10  21  37  56  79 109 142 177 219 268 322
#     4   9  19  36  57  79 105 140 179 219 265 316
#     4  10  21  37  57  81 108 139 179 224 267 314
#     4  10  21  36  54  78 108 141 178 219 263 313
#     4  10  21  36  55  79 107 140 177 218 265 317
#
# _framework density 17.695824000000002
#
# number of rings (size 3 to 8) (size 9 to 14) (size 15 to 20)
#    0.000    2.143    0.000    2.571    0.000    8.286 
#    0.000    7.143    0.000    0.000    0.000    0.000 
#    0.000    0.000    0.000    0.000    0.000    0.000 
#
# Total GULP energy -312727.346101 kJ/mol
# GULP energy per Si atom -5584.416895 kJ/mol
# Density = 1.765555 g / cm^3
# Si number density = 17.695824 Si / 1000 Ang^3
#
#
#
# Elastic Constant Matrix: (Units=GPa)
#
#
# Indices 1 2 3 4 5 6 
#
# 1 78.3835 43.0485 55.8229 0.0000 0.0000 0.0000
# 2 43.0485 53.8231 43.7207 0.0000 0.0000 0.0000
# 3 55.8229 43.7207 75.1464 0.0000 0.0000 0.0000
# 4 0.0000 0.0000 0.0000 31.5552 0.0000 0.0000
# 5 0.0000 0.0000 0.0000 0.0000 55.3937 0.0000
# 6 0.0000 0.0000 0.0000 0.0000 0.0000 27.4887
#
#
#
# Elastic Compliance Matrix: (Units=1/GPa)
#
#
# Indices 1 2 3 4 5 6 
#
# 1 0.030322 -0.011291 -0.015956 0.000000 0.000000 0.000000
# 2 -0.011291 0.039433 -0.014555 0.000000 0.000000 0.000000
# 3 -0.015956 -0.014555 0.033628 0.000000 0.000000 0.000000
# 4 0.000000 0.000000 0.000000 0.031690 0.000000 0.000000
# 5 0.000000 0.000000 0.000000 0.000000 0.018053 0.000000
# 6 0.000000 0.000000 0.000000 0.000000 0.000000 0.036379
#
#
# Mechanical properties :
#
#
# Convention : Reuss Voigt Hill
#
# Bulk Modulus (GPa) = 50.55562 54.72635 52.64099
# Shear Modulus (GPa) = 17.87617 27.20493 22.54055
#
# Velocity S-wave (km/s) = 3.18180 3.92518 3.57287
# Velocity P-wave (km/s) = 6.49074 7.17886 6.84345
#
# Compressibility (1/GPa) = 0.01978019
#
# Stress axis : x y z
#
# Youngs Moduli (GPa) = 32.97906 25.35934 29.73703
#
# Poissons Ratio (x) = 0.28634 0.47447
# Poissons Ratio (y) = 0.37238 0.43281
# Poissons Ratio (z) = 0.52620 0.36910
#
# Static dielectric constant tensor:
#      x y z
#    x 1.573980 0.000000 0.000000 
#    y 0.000000 1.587170 0.000000 
#    z 0.000000 0.000000 1.588240 
# 
# From -- ./inp_files/25701.got.cif
#   From: 2010.05.17/outbox.cif.g08.bks.cpg/sg51_13_cif.got.tgz:25701.got - 2010.06.03 11:52:47.
