data_PCOD9404004
_publ_section_title
;
Structure prediction by ZEFSAII (Michael W. Deem and Ramdas Pophale) SiO2 
 PCOD9404004
Probable space group: P M M A
;
_chemical_formula_sum "Si O2"
_cell_formula_units_Z 56
_cell_length_a 8.121397
_cell_length_b 20.488922
_cell_length_c 16.277214
_cell_angle_alpha 90.000000
_cell_angle_beta 90.000000
_cell_angle_gamma 90.000000
_cell_volume 2708.506755
_symmetry_space_group_name_H-M "P M M A"
_symmetry_group_IT_number 51
_symmetry_cell_setting 'orthorhombic'
loop_
_space_group_symop_operation_xyz
x,y,z
1/2-x,-y,z
1/2+x,-y,-z
-x,y,-z
-x,-y,-z
1/2+x,y,-z
1/2-x,y,z
x,-y,z
loop_
_atom_site_type_symbol
_atom_site_label
_atom_site_fract_x
_atom_site_fract_y
_atom_site_fract_z
Si Si1 0.561208 0.071965 0.257648
Si Si2 0.432291 0.922119 0.083801
Si Si3 0.050794 0.571080 0.651989
Si Si4 0.554435 0.712982 0.091965
Si Si5 0.052244 0.704105 0.586987
Si Si6 0.052786 0.426615 0.157873
Si Si7 0.952659 0.787144 0.256426
O O1 0.750000 0.069149 0.285866
O O2 0.555636 0.082361 0.159168
O O3 0.486000 0.140799 0.282989
O O4 0.485755 0.000000 0.273933
O O5 0.250000 0.897239 0.104621
O O6 0.415253 0.000000 0.070954
O O7 0.500000 0.892828 0.000000
O O8 0.250000 0.571293 0.650017
O O9 0.990343 0.500000 0.625884
O O10 0.989346 0.630224 0.597003
O O11 0.001277 0.580875 0.747103
O O12 0.750000 0.718144 0.094670
O O13 0.509414 0.637143 0.110012
O O14 0.491924 0.758339 0.168022
O O15 0.500000 0.730819 0.000000
O O16 0.250000 0.703889 0.588565
O O17 0.998221 0.740170 0.669580
O O18 0.000000 0.732842 0.500000
O O19 0.250000 0.426281 0.153583
O O20 0.996041 0.500000 0.131197
O O21 0.750000 0.790085 0.253621
#
# Coordination Sequence:
#
# PCOD9404004 Si02
#       7
#     8   8   8   8   8   8   8
#     4   9  17  31  53  77  99 130 172 216 266 324
#     4   9  16  26  41  64  96 130 164 205 251 303
#     4   9  17  32  55  80 109 147 182 216 269 326
#     4  11  22  38  57  78 107 147 189 231 274 322
#     4  10  20  36  56  81 110 144 182 222 267 322
#     4  10  20  34  54  81 111 143 184 232 275 317
#     4   9  19  37  57  78 110 144 177 222 275 327
#
# _framework density 20.675598000000001
#
# number of rings (size 3 to 8) (size 9 to 14) (size 15 to 20)
#    0.000    2.429    1.429    1.286    0.000    4.286 
#    0.000    3.571    0.000    0.429    0.000    0.000 
#    0.000    0.000    0.000    0.000    0.000    0.000 
#
# Total GULP energy -312045.557137 kJ/mol
# GULP energy per Si atom -5572.242092 kJ/mol
# Density = 2.062854 g / cm^3
# Si number density = 20.675598 Si / 1000 Ang^3
#
#
#
# Elastic Constant Matrix: (Units=GPa)
#
#
# Indices 1 2 3 4 5 6 
#
# 1 22.4976 6.5992 -1.7242 0.0000 0.0000 0.0000
# 2 6.5992 143.2296 51.1357 0.0000 0.0000 0.0000
# 3 -1.7242 51.1357 86.4216 0.0000 0.0000 0.0000
# 4 0.0000 0.0000 0.0000 0.6379 0.0000 0.0000
# 5 0.0000 0.0000 0.0000 0.0000 18.1329 0.0000
# 6 0.0000 0.0000 0.0000 0.0000 0.0000 5.1248
#
#
#
# Elastic Compliance Matrix: (Units=1/GPa)
#
#
# Indices 1 2 3 4 5 6 
#
# 1 0.045560 -0.003073 0.002727 0.000000 0.000000 0.000000
# 2 -0.003073 0.009059 -0.005421 0.000000 0.000000 0.000000
# 3 0.002727 -0.005421 0.014833 0.000000 0.000000 0.000000
# 4 0.000000 0.000000 0.000000 1.567763 0.000000 0.000000
# 5 0.000000 0.000000 0.000000 0.000000 0.055148 0.000000
# 6 0.000000 0.000000 0.000000 0.000000 0.000000 0.195131
#
#
# Mechanical properties :
#
#
# Convention : Reuss Voigt Hill
#
# Bulk Modulus (GPa) = 17.26588 40.46336 28.86462
# Shear Modulus (GPa) = 2.60643 17.85498 10.23071
#
# Velocity S-wave (km/s) = 1.12400 2.94186 2.22687
# Velocity P-wave (km/s) = 3.17072 5.58144 4.53905
#
# Compressibility (1/GPa) = 0.05791768
#
# Stress axis : x y z
#
# Youngs Moduli (GPa) = 21.94932 110.38814 67.41504
#
# Poissons Ratio (x) = 0.33919 -0.18385
# Poissons Ratio (y) = 0.06744 0.36549
# Poissons Ratio (z) = -0.05986 0.59847
#
# Static dielectric constant tensor:
#      x y z
#    x 1.749420 0.000000 0.000000 
#    y 0.000000 1.824480 0.000000 
#    z 0.000000 0.000000 1.720180 
# 
# From -- ./inp_files/21770.got.cif
#   From: 2010.05.17/outbox.cif.g08.bks.cpg/sg51_11_cif.got.tgz:21770.got - 2010.06.03 11:52:47.
