data_PCOD9404762
_publ_section_title
;
Structure prediction by ZEFSAII (Michael W. Deem and Ramdas Pophale) SiO2 
 PCOD9404762
Probable space group: P M M A
;
_chemical_formula_sum "Si O2"
_cell_formula_units_Z 48
_cell_length_a 8.319624
_cell_length_b 32.027467
_cell_length_c 9.518379
_cell_angle_alpha 90.000000
_cell_angle_beta 90.000000
_cell_angle_gamma 90.000000
_cell_volume 2536.233793
_symmetry_space_group_name_H-M "P M M A"
_symmetry_group_IT_number 51
_symmetry_cell_setting 'orthorhombic'
loop_
_space_group_symop_operation_xyz
x,y,z
1/2-x,-y,z
1/2+x,-y,-z
-x,y,-z
-x,-y,-z
1/2+x,y,-z
1/2-x,y,z
x,-y,z
loop_
_atom_site_type_symbol
_atom_site_label
_atom_site_fract_x
_atom_site_fract_y
_atom_site_fract_z
Si Si1 0.556244 0.500000 0.338418
Si Si2 0.944383 0.000000 0.658898
Si Si3 0.942000 0.249375 0.340413
Si Si4 0.555426 0.591218 0.338372
Si Si5 0.055452 0.329041 0.839640
Si Si6 0.942553 0.172471 0.841573
Si Si7 0.555935 0.077962 0.842185
O O1 0.750000 0.500000 0.333019
O O2 0.500000 0.500000 0.500000
O O3 0.501889 0.545303 0.283412
O O4 0.001096 0.041692 0.738871
O O5 0.000000 0.000000 0.500000
O O6 0.750000 0.000000 0.663291
O O7 0.750000 0.250702 0.340795
O O8 0.000893 0.288483 0.247053
O O9 0.000000 0.252400 0.500000
O O10 0.995937 0.206690 0.266659
O O11 0.500000 0.596315 0.500000
O O12 0.750000 0.591645 0.339683
O O13 0.499906 0.629212 0.241254
O O14 0.250000 0.329001 0.838475
O O15 0.000000 0.327815 0.000000
O O16 0.750000 0.172938 0.840877
O O17 0.998115 0.125163 0.807195
O O18 0.000000 0.182141 0.000000
O O19 0.750000 0.078076 0.840317
O O20 0.500000 0.068714 0.000000
#
# Coordination Sequence:
#
# PCOD9404762 Si02
#       7
#     4   4   8   8   8   8   8
#     4   8  14  26  47  72 100 130 162 202 249 298
#     4  10  21  36  52  76 108 140 175 216 260 306
#     4  11  23  38  56  79 105 137 174 215 262 312
#     4   9  17  31  51  76 102 131 167 208 252 301
#     4  10  22  37  53  74 102 135 172 211 256 305
#     4  10  20  36  57  82 110 140 174 215 260 310
#     4   9  19  35  56  80 106 137 175 214 255 305
#
# _framework density 18.925699999999999
#
# number of rings (size 3 to 8) (size 9 to 14) (size 15 to 20)
#    0.000    2.333    0.000    2.250    0.000    5.333 
#    0.000    2.083    0.000    0.000    0.000    0.000 
#    0.000    0.000    0.000    0.000    0.000    0.000 
#
# Total GULP energy -267837.022584 kJ/mol
# GULP energy per Si atom -5579.937971 kJ/mol
# Density = 1.888262 g / cm^3
# Si number density = 18.925700 Si / 1000 Ang^3
#
#
#
# Elastic Constant Matrix: (Units=GPa)
#
#
# Indices 1 2 3 4 5 6 
#
# 1 14.8619 23.5313 16.2709 0.0000 0.0000 0.0000
# 2 23.5313 190.0042 132.1496 0.0000 0.0000 0.0000
# 3 16.2709 132.1496 151.9795 0.0000 0.0000 0.0000
# 4 0.0000 0.0000 0.0000 46.5132 0.0000 0.0000
# 5 0.0000 0.0000 0.0000 0.0000 33.6415 0.0000
# 6 0.0000 0.0000 0.0000 0.0000 0.0000 21.7844
#
#
#
# Elastic Compliance Matrix: (Units=1/GPa)
#
#
# Indices 1 2 3 4 5 6 
#
# 1 0.083700 -0.010458 0.000133 0.000000 0.000000 0.000000
# 2 -0.010458 0.014623 -0.011595 0.000000 0.000000 0.000000
# 3 0.000133 -0.011595 0.016648 0.000000 0.000000 0.000000
# 4 0.000000 0.000000 0.000000 0.021499 0.000000 0.000000
# 5 0.000000 0.000000 0.000000 0.000000 0.029725 0.000000
# 6 0.000000 0.000000 0.000000 0.000000 0.000000 0.045904
#
#
# Mechanical properties :
#
#
# Convention : Reuss Voigt Hill
#
# Bulk Modulus (GPa) = 14.05897 77.86103 45.96000
# Shear Modulus (GPa) = 17.87948 32.71407 25.29677
#
# Velocity S-wave (km/s) = 3.07696 4.16210 3.65997
# Velocity P-wave (km/s) = 4.47976 8.02042 6.49597
#
# Compressibility (1/GPa) = 0.07112899
#
# Stress axis : x y z
#
# Youngs Moduli (GPa) = 11.94750 68.38619 60.06748
#
# Poissons Ratio (x) = 0.71520 -0.00797
# Poissons Ratio (y) = 0.12495 0.69650
# Poissons Ratio (z) = -0.00159 0.79295
#
# Static dielectric constant tensor:
#      x y z
#    x 1.665440 0.000000 0.000000 
#    y 0.000000 1.696940 0.000000 
#    z 0.000000 0.000000 1.596200 
# 
# From -- ./inp_files/6214.got.cif
#   From: 2010.05.17/outbox.cif.g08.bks.cpg/sg51_4_cif.got.tgz:6214.got - 2010.06.03 11:52:47.
