data_PCOD9404858
_publ_section_title
;
Structure prediction by ZEFSAII (Michael W. Deem and Ramdas Pophale) SiO2 
 PCOD9404858
Probable space group: P M M A
;
_chemical_formula_sum "Si O2"
_cell_formula_units_Z 64
_cell_length_a 14.924464
_cell_length_b 8.700531
_cell_length_c 26.954888
_cell_angle_alpha 90.000000
_cell_angle_beta 90.000000
_cell_angle_gamma 90.000000
_cell_volume 3500.112738
_symmetry_space_group_name_H-M "P M M A"
_symmetry_group_IT_number 51
_symmetry_cell_setting 'orthorhombic'
loop_
_space_group_symop_operation_xyz
x,y,z
1/2-x,-y,z
1/2+x,-y,-z
-x,y,-z
-x,-y,-z
1/2+x,y,-z
1/2-x,y,z
x,-y,z
loop_
_atom_site_type_symbol
_atom_site_label
_atom_site_fract_x
_atom_site_fract_y
_atom_site_fract_z
Si Si1 0.994943 0.814311 0.557128
Si Si2 0.353672 0.814378 0.635054
Si Si3 0.892708 0.677180 0.000101
Si Si4 0.646358 0.685641 0.632672
Si Si5 0.353217 0.319105 0.108966
Si Si6 0.146790 0.318966 0.890769
Si Si7 0.999731 0.180910 0.819822
Si Si8 0.494964 0.683736 0.710425
O O1 0.908528 0.748097 0.585472
O O2 0.000000 0.765404 0.500000
O O3 0.084185 0.768938 0.588016
O O4 0.989487 0.000000 0.558493
O O5 0.250000 0.762734 0.632584
O O6 0.408649 0.752863 0.682326
O O7 0.352973 0.000000 0.636925
O O8 0.859422 0.500000 0.000110
O O9 0.862741 0.743187 0.947369
O O10 0.862901 0.743106 0.052867
O O11 0.000000 0.676224 0.000000
O O12 0.750000 0.737306 0.635222
O O13 0.646924 0.500000 0.630796
O O14 0.584253 0.731472 0.679666
O O15 0.250000 0.311933 0.123533
O O16 0.380808 0.500000 0.107744
O O17 0.415207 0.231973 0.147297
O O18 0.250000 0.311033 0.876220
O O19 0.119552 0.500000 0.891945
O O20 0.084572 0.231922 0.852524
O O21 0.000004 0.262906 0.766818
O O22 0.999903 0.000000 0.812042
O O23 0.489203 0.500000 0.708169
#
# Coordination Sequence:
#
# PCOD9404858 Si02
#       8
#     8   8   8   8   8   8   8   8
#     4   9  18  32  52  82 118 153 188 222 257 306
#     4   9  18  34  55  79 110 147 184 224 273 322
#     4   9  15  29  57  85 109 135 172 221 266 312
#     4   9  19  36  57  81 108 140 180 226 275 322
#     4  10  20  36  59  84 109 140 179 221 266 317
#     4  10  20  36  59  84 108 138 180 224 265 317
#     4  12  25  39  55  78 112 145 177 220 274 331
#     4  10  21  38  59  79 102 135 181 232 278 324
#
# _framework density 18.285125000000001
#
# number of rings (size 3 to 8) (size 9 to 14) (size 15 to 20)
#    0.000    2.250    1.250    1.875    0.000    4.750 
#    0.000    3.750    0.000    1.500    0.000    0.000 
#    0.000    0.000    0.000    0.000    0.000    0.000 
#
# Total GULP energy -357046.842866 kJ/mol
# GULP energy per Si atom -5578.856920 kJ/mol
# Density = 1.824351 g / cm^3
# Si number density = 18.285125 Si / 1000 Ang^3
#
#
#
# Elastic Constant Matrix: (Units=GPa)
#
#
# Indices 1 2 3 4 5 6 
#
# 1 149.0753 23.0552 65.3878 0.0000 0.0000 0.0000
# 2 23.0552 15.7709 15.2279 0.0000 0.0000 0.0000
# 3 65.3878 15.2279 148.8606 0.0000 0.0000 0.0000
# 4 0.0000 0.0000 0.0000 18.3476 0.0000 0.0000
# 5 0.0000 0.0000 0.0000 0.0000 25.8442 0.0000
# 6 0.0000 0.0000 0.0000 0.0000 0.0000 18.7993
#
#
#
# Elastic Compliance Matrix: (Units=1/GPa)
#
#
# Indices 1 2 3 4 5 6 
#
# 1 0.009851 -0.011344 -0.003167 0.000000 0.000000 0.000000
# 2 -0.011344 0.083420 -0.003551 0.000000 0.000000 0.000000
# 3 -0.003167 -0.003551 0.008472 0.000000 0.000000 0.000000
# 4 0.000000 0.000000 0.000000 0.054503 0.000000 0.000000
# 5 0.000000 0.000000 0.000000 0.000000 0.038693 0.000000
# 6 0.000000 0.000000 0.000000 0.000000 0.000000 0.053193
#
#
# Mechanical properties :
#
#
# Convention : Reuss Voigt Hill
#
# Bulk Modulus (GPa) = 15.23919 57.89428 36.56673
# Shear Modulus (GPa) = 16.33298 26.60063 21.46681
#
# Velocity S-wave (km/s) = 2.99195 3.81828 3.43009
# Velocity P-wave (km/s) = 4.50422 7.15330 5.97736
#
# Compressibility (1/GPa) = 0.06562029
#
# Stress axis : x y z
#
# Youngs Moduli (GPa) = 101.50782 11.98759 118.03621
#
# Poissons Ratio (x) = 0.13599 0.37381
# Poissons Ratio (y) = 1.15149 0.41911
# Poissons Ratio (z) = 0.32146 0.04256
#
# Static dielectric constant tensor:
#      x y z
#    x 1.621270 0.000000 0.000000 
#    y 0.000000 1.630630 0.000000 
#    z 0.000000 0.000000 1.617230 
# 
# From -- ./inp_files/35831.got.cif
#   From: 2010.05.17/outbox.cif.g08.bks.cpg/sg51_18_cif.got.tgz:35831.got - 2010.06.03 11:52:47.
