data_PCOD9404720
_publ_section_title
;
Structure prediction by ZEFSAII (Michael W. Deem and Ramdas Pophale) SiO2 
 PCOD9404720
Probable space group: P M M A
;
_chemical_formula_sum "Si O2"
_cell_formula_units_Z 48
_cell_length_a 8.618286
_cell_length_b 31.772168
_cell_length_c 9.523958
_cell_angle_alpha 90.000000
_cell_angle_beta 90.000000
_cell_angle_gamma 90.000000
_cell_volume 2607.865710
_symmetry_space_group_name_H-M "P M M A"
_symmetry_group_IT_number 51
_symmetry_cell_setting 'orthorhombic'
loop_
_space_group_symop_operation_xyz
x,y,z
1/2-x,-y,z
1/2+x,-y,-z
-x,y,-z
-x,-y,-z
1/2+x,y,-z
1/2-x,y,z
x,-y,z
loop_
_atom_site_type_symbol
_atom_site_label
_atom_site_fract_x
_atom_site_fract_y
_atom_site_fract_z
Si Si1 0.436903 0.078736 0.156884
Si Si2 0.562710 0.580719 0.842105
Si Si3 0.937826 0.000000 0.656724
Si Si4 0.937626 0.500000 0.658460
Si Si5 0.936451 0.173472 0.842561
Si Si6 0.436572 0.339047 0.342159
Si Si7 0.564977 0.751153 0.343151
O O1 0.250000 0.077382 0.149906
O O2 0.489500 0.041651 0.259245
O O3 0.480450 0.125983 0.204468
O O4 0.500000 0.072220 0.000000
O O5 0.750000 0.580021 0.848725
O O6 0.513155 0.541145 0.746462
O O7 0.516147 0.623467 0.761824
O O8 0.500000 0.578281 0.000000
O O9 0.000000 0.000000 0.500000
O O10 0.750000 0.000000 0.653883
O O11 0.750000 0.500000 0.651400
O O12 0.000000 0.500000 0.500000
O O13 0.750000 0.176632 0.842096
O O14 0.007434 0.210046 0.748881
O O15 0.000000 0.177917 0.000000
O O16 0.500000 0.346404 0.500000
O O17 0.250000 0.337492 0.349308
O O18 0.499779 0.293878 0.292574
O O19 0.500000 0.756499 0.500000
O O20 0.750000 0.749433 0.346282
#
# Coordination Sequence:
#
# PCOD9404720 Si02
#       7
#     8   8   4   4   8   8   8
#     4   9  19  35  56  79 106 139 178 219 263 316
#     4  10  22  37  56  82 113 144 180 223 269 318
#     4  10  21  36  52  78 110 140 175 218 264 314
#     4  10  21  38  58  84 112 144 183 222 264 318
#     4  10  20  36  56  81 110 142 180 224 270 323
#     4  10  20  36  56  80 108 142 183 226 268 322
#     4  11  22  37  57  81 109 145 183 226 275 325
#
# _framework density 18.405856
#
# number of rings (size 3 to 8) (size 9 to 14) (size 15 to 20)
#    0.000    2.000    0.000    4.500    0.000    4.667 
#    0.000    3.333    0.000    0.000    0.000    0.000 
#    0.000    0.000    0.000    0.000    0.000    0.000 
#
# Total GULP energy -268063.091897 kJ/mol
# GULP energy per Si atom -5584.647748 kJ/mol
# Density = 1.836396 g / cm^3
# Si number density = 18.405856 Si / 1000 Ang^3
#
#
#
# Elastic Constant Matrix: (Units=GPa)
#
#
# Indices 1 2 3 4 5 6 
#
# 1 57.5636 54.6025 34.8611 0.0000 0.0000 0.0000
# 2 54.6025 218.0143 127.4166 0.0000 0.0000 0.0000
# 3 34.8611 127.4166 126.8936 0.0000 0.0000 0.0000
# 4 0.0000 0.0000 0.0000 41.5768 0.0000 0.0000
# 5 0.0000 0.0000 0.0000 0.0000 37.3865 0.0000
# 6 0.0000 0.0000 0.0000 0.0000 0.0000 -742.0901
#
#
#
# Elastic Compliance Matrix: (Units=1/GPa)
#
#
# Indices 1 2 3 4 5 6 
#
# 1 0.022872 -0.004976 -0.001287 0.000000 0.000000 0.000000
# 2 -0.004976 0.012185 -0.010868 0.000000 0.000000 0.000000
# 3 -0.001287 -0.010868 0.019147 0.000000 0.000000 0.000000
# 4 0.000000 0.000000 0.000000 0.024052 0.000000 0.000000
# 5 0.000000 0.000000 0.000000 0.000000 0.026748 0.000000
# 6 0.000000 0.000000 0.000000 0.000000 0.000000 -0.001348
#
#
# Mechanical properties :
#
#
# Convention : Reuss Voigt Hill
#
# Bulk Modulus (GPa) = 50.14661 92.91467 71.53064
# Shear Modulus (GPa) = 34.58667 -120.25259 -42.83296
#
# Velocity S-wave (km/s) = 4.33958 -8.09171 -4.82928
# Velocity P-wave (km/s) = 7.23970 6.05890 2.80205
#
# Compressibility (1/GPa) = 0.01994153
#
# Stress axis : x y z
#
# Youngs Moduli (GPa) = 43.72232 82.06871 52.22786
#
# Poissons Ratio (x) = 0.40840 0.06720
# Poissons Ratio (y) = 0.21758 0.56761
# Poissons Ratio (z) = 0.05625 0.89192
#
# Static dielectric constant tensor:
#      x y z
#    x 1.621100 0.000000 0.000000 
#    y 0.000000 1.645130 0.000000 
#    z 0.000000 0.000000 1.584350 
# 
# From -- ./inp_files/6187.got.cif
#   From: 2010.05.17/outbox.cif.g08.bks.cpg/sg51_4_cif.got.tgz:6187.got - 2010.06.03 11:52:47.
