data_PCOD9404767
_publ_section_title
;
Structure prediction by ZEFSAII (Michael W. Deem and Ramdas Pophale) SiO2 
 PCOD9404767
Probable space group: P M M A
;
_chemical_formula_sum "Si O2"
_cell_formula_units_Z 44
_cell_length_a 8.702547
_cell_length_b 29.132605
_cell_length_c 9.369422
_cell_angle_alpha 90.000000
_cell_angle_beta 90.000000
_cell_angle_gamma 90.000000
_cell_volume 2375.409549
_symmetry_space_group_name_H-M "P M M A"
_symmetry_group_IT_number 51
_symmetry_cell_setting 'orthorhombic'
loop_
_space_group_symop_operation_xyz
x,y,z
1/2-x,-y,z
1/2+x,-y,-z
-x,y,-z
-x,-y,-z
1/2+x,y,-z
1/2-x,y,z
x,-y,z
loop_
_atom_site_type_symbol
_atom_site_label
_atom_site_fract_x
_atom_site_fract_y
_atom_site_fract_z
Si Si1 0.066068 0.050897 0.340750
Si Si2 0.435202 0.590190 0.160153
Si Si3 0.065070 0.763026 0.841125
Si Si4 0.434184 0.133819 0.841449
Si Si5 0.564828 0.324975 0.340531
Si Si6 0.434865 0.500000 0.340218
O O1 0.250000 0.054054 0.345067
O O2 0.000000 0.053099 0.500000
O O3 0.999225 0.092971 0.252890
O O4 0.025323 0.000000 0.282123
O O5 0.250000 0.592526 0.154669
O O6 0.500626 0.634301 0.242188
O O7 0.480368 0.545147 0.251132
O O8 0.500000 0.587759 0.000000
O O9 0.250000 0.761865 0.851481
O O10 0.020628 0.814537 0.793346
O O11 0.017754 0.723203 0.732676
O O12 0.000000 0.755073 0.000000
O O13 0.250000 0.131415 0.843891
O O14 0.500000 0.128761 0.000000
O O15 0.500000 0.328842 0.500000
O O16 0.750000 0.327338 0.344433
O O17 0.250000 0.500000 0.350370
O O18 0.500000 0.500000 0.500000
#
# Coordination Sequence:
#
# PCOD9404767 Si02
#       6
#     8   8   8   8   8   4
#     4  10  21  37  56  79 108 143 182 225 275 330
#     4  11  23  40  61  87 116 151 192 234 281 334
#     4   9  20  37  57  81 110 144 183 226 275 329
#     4  10  20  36  57  82 111 144 183 227 274 326
#     4  11  23  39  58  84 116 150 188 232 280 331
#     4  10  23  40  60  86 118 152 189 234 283 332
#
# _framework density 18.523122000000001
#
# number of rings (size 3 to 8) (size 9 to 14) (size 15 to 20)
#    0.000    1.818    0.000    3.545    0.000    8.727 
#    0.000    1.818    0.000    0.000    0.000    0.000 
#    0.000    0.000    0.000    0.000    0.000    0.000 
#
# Total GULP energy -245786.145198 kJ/mol
# GULP energy per Si atom -5586.048754 kJ/mol
# Density = 1.848096 g / cm^3
# Si number density = 18.523122 Si / 1000 Ang^3
#
#
#
# Elastic Constant Matrix: (Units=GPa)
#
#
# Indices 1 2 3 4 5 6 
#
# 1 57.1584 61.9772 45.5541 0.0000 0.0000 0.0000
# 2 61.9772 202.9219 120.1318 0.0000 0.0000 0.0000
# 3 45.5541 120.1318 147.2367 0.0000 0.0000 0.0000
# 4 0.0000 0.0000 0.0000 54.6896 0.0000 0.0000
# 5 0.0000 0.0000 0.0000 0.0000 38.7688 0.0000
# 6 0.0000 0.0000 0.0000 0.0000 0.0000 29.6172
#
#
#
# Elastic Compliance Matrix: (Units=1/GPa)
#
#
# Indices 1 2 3 4 5 6 
#
# 1 0.026884 -0.006358 -0.003130 0.000000 0.000000 0.000000
# 2 -0.006358 0.011036 -0.007037 0.000000 0.000000 0.000000
# 3 -0.003130 -0.007037 0.013502 0.000000 0.000000 0.000000
# 4 0.000000 0.000000 0.000000 0.018285 0.000000 0.000000
# 5 0.000000 0.000000 0.000000 0.000000 0.025794 0.000000
# 6 0.000000 0.000000 0.000000 0.000000 0.000000 0.033764
#
#
# Mechanical properties :
#
#
# Convention : Reuss Voigt Hill
#
# Bulk Modulus (GPa) = 54.43334 95.84926 75.14130
# Shear Modulus (GPa) = 29.68424 36.59203 33.13813
#
# Velocity S-wave (km/s) = 4.00753 4.44946 4.23426
# Velocity P-wave (km/s) = 7.13192 8.84618 8.03490
#
# Compressibility (1/GPa) = 0.01837109
#
# Stress axis : x y z
#
# Youngs Moduli (GPa) = 37.19709 90.61266 74.06267
#
# Poissons Ratio (x) = 0.57610 0.23184
# Poissons Ratio (y) = 0.23649 0.52120
# Poissons Ratio (z) = 0.11644 0.63767
#
# Static dielectric constant tensor:
#      x y z
#    x 1.624170 0.000000 0.000000 
#    y 0.000000 1.651140 0.000000 
#    z 0.000000 0.000000 1.585950 
# 
# From -- ./inp_files/5817.got.cif
#   From: 2010.05.17/outbox.cif.g08.bks.cpg/sg51_3_cif.got.tgz:5817.got - 2010.06.03 11:52:47.
