data_PCOD9404478
_publ_section_title
;
Structure prediction by ZEFSAII (Michael W. Deem and Ramdas Pophale) SiO2 
 PCOD9404478
Probable space group: P M M A
;
_chemical_formula_sum "Si O2"
_cell_formula_units_Z 56
_cell_length_a 21.854530
_cell_length_b 8.437361
_cell_length_c 15.278725
_cell_angle_alpha 90.000000
_cell_angle_beta 90.000000
_cell_angle_gamma 90.000000
_cell_volume 2817.313760
_symmetry_space_group_name_H-M "P M M A"
_symmetry_group_IT_number 51
_symmetry_cell_setting 'orthorhombic'
loop_
_space_group_symop_operation_xyz
x,y,z
1/2-x,-y,z
1/2+x,-y,-z
-x,y,-z
-x,-y,-z
1/2+x,y,-z
1/2-x,y,z
x,-y,z
loop_
_atom_site_type_symbol
_atom_site_label
_atom_site_fract_x
_atom_site_fract_y
_atom_site_fract_z
Si Si1 0.028645 0.314536 0.237527
Si Si2 0.937154 0.500000 0.437775
Si Si3 0.324528 0.500000 0.437117
Si Si4 0.951043 0.307105 0.074667
Si Si5 0.684176 0.690684 0.024047
Si Si6 0.520721 0.827127 0.398263
Si Si7 0.319963 0.830229 0.353672
Si Si8 0.353321 0.181378 0.156214
O O1 0.025935 0.500000 0.261363
O O2 0.087266 0.284587 0.177344
O O3 0.973704 0.268567 0.172392
O O4 0.030465 0.205632 0.323957
O O5 0.871541 0.500000 0.483438
O O6 0.940418 0.332979 0.387887
O O7 0.000000 0.500000 0.500000
O O8 0.250000 0.500000 0.451284
O O9 0.342691 0.661005 0.386570
O O10 0.951368 0.500000 0.069191
O O11 0.881485 0.251345 0.059846
O O12 0.000000 0.252670 0.000000
O O13 0.750000 0.745550 0.061579
O O14 0.683163 0.500000 0.030665
O O15 0.682410 0.741454 0.922835
O O16 0.500000 0.829139 0.500000
O O17 0.548416 0.000000 0.381395
O O18 0.250000 0.836268 0.385082
O O19 0.319506 0.824279 0.248898
O O20 0.349210 0.000000 0.380481
O O21 0.369850 0.000000 0.133699
#
# Coordination Sequence:
#
# PCOD9404478 Si02
#       8
#     8   4   4   8   8   8   8   8
#     4  11  21  35  59  84 117 159 199 249 303 356
#     4  10  22  38  58  86 114 149 192 246 300 353
#     4  10  22  38  60  84 113 152 200 243 297 367
#     4   9  17  34  56  83 116 151 188 236 293 349
#     4  10  20  35  56  81 110 150 199 244 290 353
#     4  10  22  38  57  86 122 157 195 248 309 362
#     4   9  20  35  50  76 116 157 193 233 284 353
#     4  11  22  32  49  78 117 157 193 235 292 354
#
# _framework density 19.877091
#
# number of rings (size 3 to 8) (size 9 to 14) (size 15 to 20)
#    0.000    2.000    2.143    1.286    6.000    1.429 
#    0.000    2.143    0.000    0.857    0.000    0.000 
#    0.000    0.000    0.000    0.000    0.000    0.000 
#
# Total GULP energy -311831.584342 kJ/mol
# GULP energy per Si atom -5568.421149 kJ/mol
# Density = 1.983185 g / cm^3
# Si number density = 19.877091 Si / 1000 Ang^3
#
#
#
# Elastic Constant Matrix: (Units=GPa)
#
#
# Indices 1 2 3 4 5 6 
#
# 1 107.1247 32.2698 30.7372 0.0000 0.0000 0.0000
# 2 32.2698 116.8171 14.7194 0.0000 0.0000 0.0000
# 3 30.7372 14.7194 45.8645 0.0000 0.0000 0.0000
# 4 0.0000 0.0000 0.0000 -6.7540 0.0000 0.0000
# 5 0.0000 0.0000 0.0000 0.0000 29.4377 0.0000
# 6 0.0000 0.0000 0.0000 0.0000 0.0000 19.8624
#
#
#
# Elastic Compliance Matrix: (Units=1/GPa)
#
#
# Indices 1 2 3 4 5 6 
#
# 1 0.012188 -0.002436 -0.007386 0.000000 0.000000 0.000000
# 2 -0.002436 0.009408 -0.001387 0.000000 0.000000 0.000000
# 3 -0.007386 -0.001387 0.027199 0.000000 0.000000 0.000000
# 4 0.000000 0.000000 0.000000 -0.148060 0.000000 0.000000
# 5 0.000000 0.000000 0.000000 0.000000 0.033970 0.000000
# 6 0.000000 0.000000 0.000000 0.000000 0.000000 0.050346
#
#
# Mechanical properties :
#
#
# Convention : Reuss Voigt Hill
#
# Bulk Modulus (GPa) = 37.91274 47.25100 42.58187
# Shear Modulus (GPa) = 307.47465 21.31455 164.39460
#
# Velocity S-wave (km/s) = 12.45085 3.27818 9.10413
# Velocity P-wave (km/s) = 15.02709 6.17671 11.48837
#
# Compressibility (1/GPa) = 0.02637636
#
# Stress axis : x y z
#
# Youngs Moduli (GPa) = 82.04710 106.29153 36.76669
#
# Poissons Ratio (x) = 0.25894 0.27157
# Poissons Ratio (y) = 0.19988 0.05098
# Poissons Ratio (z) = 0.60603 0.14740
#
# Static dielectric constant tensor:
#      x y z
#    x 1.785770 0.000000 0.000000 
#    y 0.000000 1.736730 0.000000 
#    z 0.000000 0.000000 1.696560 
# 
# From -- ./inp_files/25805.got.cif
#   From: 2010.05.17/outbox.cif.g08.bks.cpg/sg51_13_cif.got.tgz:25805.got - 2010.06.03 11:52:47.
