data_PCOD9404781
_publ_section_title
;
Structure prediction by ZEFSAII (Michael W. Deem and Ramdas Pophale) SiO2 
 PCOD9404781
Probable space group: P M M A
;
_chemical_formula_sum "Si O2"
_cell_formula_units_Z 48
_cell_length_a 8.693807
_cell_length_b 31.522986
_cell_length_c 9.515637
_cell_angle_alpha 90.000000
_cell_angle_beta 90.000000
_cell_angle_gamma 90.000000
_cell_volume 2607.805580
_symmetry_space_group_name_H-M "P M M A"
_symmetry_group_IT_number 51
_symmetry_cell_setting 'orthorhombic'
loop_
_space_group_symop_operation_xyz
x,y,z
1/2-x,-y,z
1/2+x,-y,-z
-x,y,-z
-x,-y,-z
1/2+x,y,-z
1/2-x,y,z
x,-y,z
loop_
_atom_site_type_symbol
_atom_site_label
_atom_site_fract_x
_atom_site_fract_y
_atom_site_fract_z
Si Si1 0.065101 0.000000 0.341323
Si Si2 0.065318 0.424268 0.157589
Si Si3 0.065717 0.746516 0.655597
Si Si4 0.564224 0.922376 0.157911
Si Si5 0.433669 0.671942 0.155878
Si Si6 0.934976 0.842225 0.343913
Si Si7 0.433652 0.500000 0.656645
O O1 0.000000 0.000000 0.500000
O O2 0.003892 0.040627 0.255567
O O3 0.250000 0.000000 0.345627
O O4 0.250000 0.428861 0.153684
O O5 0.027844 0.376042 0.204262
O O6 0.993540 0.458930 0.259534
O O7 0.000000 0.429910 0.000000
O O8 0.250000 0.744690 0.653419
O O9 0.019262 0.794429 0.699871
O O10 0.000000 0.740806 0.500000
O O11 0.001824 0.709236 0.751114
O O12 0.750000 0.925710 0.154741
O O13 0.519990 0.877919 0.232111
O O14 0.500000 0.925366 0.000000
O O15 0.250000 0.675355 0.152481
O O16 0.500000 0.676021 0.000000
O O17 0.750000 0.843103 0.354899
O O18 0.000000 0.850753 0.500000
O O19 0.250000 0.500000 0.652912
O O20 0.500000 0.500000 0.500000
#
# Coordination Sequence:
#
# PCOD9404781 Si02
#       7
#     4   8   8   8   8   8   4
#     4  12  25  42  63  88 116 150 190 232 281 338
#     4  10  21  39  61  84 112 147 188 229 276 333
#     4  10  20  36  57  83 115 151 190 234 282 334
#     4  11  23  40  60  86 118 152 190 234 284 335
#     4  10  21  37  58  84 113 148 188 232 279 332
#     4   9  20  37  58  83 112 148 191 234 280 335
#     4  12  25  40  59  84 114 146 184 230 281 332
#
# _framework density 18.406279999999999
#
# number of rings (size 3 to 8) (size 9 to 14) (size 15 to 20)
#    0.000    1.667    0.000    4.500    0.000    6.667 
#    0.000    1.667    0.000    0.000    0.000    0.000 
#    0.000    0.000    0.000    0.000    0.000    0.000 
#
# Total GULP energy -268198.752268 kJ/mol
# GULP energy per Si atom -5587.474006 kJ/mol
# Density = 1.836439 g / cm^3
# Si number density = 18.406280 Si / 1000 Ang^3
#
#
#
# Elastic Constant Matrix: (Units=GPa)
#
#
# Indices 1 2 3 4 5 6 
#
# 1 93.9514 81.1131 62.1654 0.0000 0.0000 0.0000
# 2 81.1131 198.9821 129.6713 0.0000 0.0000 0.0000
# 3 62.1654 129.6713 141.5135 0.0000 0.0000 0.0000
# 4 0.0000 0.0000 0.0000 39.9190 0.0000 0.0000
# 5 0.0000 0.0000 0.0000 0.0000 38.5027 0.0000
# 6 0.0000 0.0000 0.0000 0.0000 0.0000 29.7462
#
#
#
# Elastic Compliance Matrix: (Units=1/GPa)
#
#
# Indices 1 2 3 4 5 6 
#
# 1 0.016844 -0.005075 -0.002750 0.000000 0.000000 0.000000
# 2 -0.005075 0.014004 -0.010602 0.000000 0.000000 0.000000
# 3 -0.002750 -0.010602 0.017990 0.000000 0.000000 0.000000
# 4 0.000000 0.000000 0.000000 0.025051 0.000000 0.000000
# 5 0.000000 0.000000 0.000000 0.000000 0.025972 0.000000
# 6 0.000000 0.000000 0.000000 0.000000 0.000000 0.033618
#
#
# Mechanical properties :
#
#
# Convention : Reuss Voigt Hill
#
# Bulk Modulus (GPa) = 83.44392 108.92738 96.18565
# Shear Modulus (GPa) = 28.68190 32.40006 30.54098
#
# Velocity S-wave (km/s) = 3.95177 4.20011 4.07783
# Velocity P-wave (km/s) = 8.13971 9.10105 8.63377
#
# Compressibility (1/GPa) = 0.01198410
#
# Stress axis : x y z
#
# Youngs Moduli (GPa) = 59.36732 71.41069 55.58779
#
# Poissons Ratio (x) = 0.36238 0.15284
# Poissons Ratio (y) = 0.30126 0.58937
# Poissons Ratio (z) = 0.16324 0.75713
#
# Static dielectric constant tensor:
#      x y z
#    x 1.618170 0.000000 0.000000 
#    y 0.000000 1.645560 0.000000 
#    z 0.000000 0.000000 1.582690 
# 
# From -- ./inp_files/6272.got.cif
#   From: 2010.05.17/outbox.cif.g08.bks.cpg/sg51_4_cif.got.tgz:6272.got - 2010.06.03 11:52:47.
