data_PCOD9404916
_publ_section_title
;
Structure prediction by ZEFSAII (Michael W. Deem and Ramdas Pophale) SiO2 
 PCOD9404916
Probable space group: P M M A
;
_chemical_formula_sum "Si O2"
_cell_formula_units_Z 48
_cell_length_a 10.310663
_cell_length_b 18.258586
_cell_length_c 14.165741
_cell_angle_alpha 90.000000
_cell_angle_beta 90.000000
_cell_angle_gamma 90.000000
_cell_volume 2666.815870
_symmetry_space_group_name_H-M "P M M A"
_symmetry_group_IT_number 51
_symmetry_cell_setting 'orthorhombic'
loop_
_space_group_symop_operation_xyz
x,y,z
1/2-x,-y,z
1/2+x,-y,-z
-x,y,-z
-x,-y,-z
1/2+x,y,-z
1/2-x,y,z
x,-y,z
loop_
_atom_site_type_symbol
_atom_site_label
_atom_site_fract_x
_atom_site_fract_y
_atom_site_fract_z
Si Si1 0.502796 0.299662 0.889281
Si Si2 0.008955 0.859255 0.612928
Si Si3 0.750000 0.201958 0.112632
Si Si4 0.750000 0.082088 0.274701
Si Si5 0.900692 0.414998 0.244068
Si Si6 0.750000 0.088456 0.718815
Si Si7 0.901882 0.303151 0.415107
Si Si8 0.750000 0.197423 0.889502
O O1 0.375576 0.251452 0.869194
O O2 0.492419 0.372961 0.828864
O O3 0.625540 0.248294 0.869904
O O4 0.500000 0.317647 0.000000
O O5 0.876040 0.882817 0.662492
O O6 0.000000 0.870591 0.500000
O O7 0.124968 0.903773 0.660528
O O8 0.046372 0.773717 0.627097
O O9 0.750000 0.136336 0.186181
O O10 0.750000 0.179415 0.001816
O O11 0.750000 0.000000 0.238825
O O12 0.750000 0.411280 0.210866
O O13 0.933062 0.500000 0.257554
O O14 0.906705 0.368033 0.339697
O O15 0.750000 0.127340 0.821461
O O16 0.750000 0.000000 0.724324
O O17 0.750000 0.292741 0.443570
O O18 0.000000 0.319712 0.500000
#
# Coordination Sequence:
#
# PCOD9404916 Si02
#       8
#     8   8   4   4   8   4   8   4
#     4  10  20  37  61  85 113 149 193 235 280 335
#     4  11  24  40  59  84 114 151 196 243 281 340
#     4  10  20  38  62  86 111 149 199 240 276 344
#     4  12  23  37  60  86 115 153 190 235 294 347
#     4  10  20  36  60  87 118 155 189 229 283 341
#     4  12  25  39  58  84 119 155 186 235 304 353
#     4  10  21  38  62  87 112 149 196 239 278 333
#     4  10  22  38  60  88 115 149 191 244 292 334
#
# _framework density 17.998992999999999
#
# number of rings (size 3 to 8) (size 9 to 14) (size 15 to 20)
#    0.000    1.500    1.667    4.000    3.500    3.000 
#    1.500    0.417    0.000    5.000    0.000    0.000 
#    0.000    0.000    0.000    0.000    0.000    0.000 
#
# Total GULP energy -268103.495328 kJ/mol
# GULP energy per Si atom -5585.489486 kJ/mol
# Density = 1.795803 g / cm^3
# Si number density = 17.998993 Si / 1000 Ang^3
#
#
#
# Elastic Constant Matrix: (Units=GPa)
#
#
# Indices 1 2 3 4 5 6 
#
# 1 147.6962 56.3476 46.4573 0.0000 0.0000 0.0000
# 2 56.3476 132.0432 61.5792 0.0000 0.0000 0.0000
# 3 46.4573 61.5792 75.2963 0.0000 0.0000 0.0000
# 4 0.0000 0.0000 0.0000 -8.1868 0.0000 0.0000
# 5 0.0000 0.0000 0.0000 0.0000 0.0384 0.0000
# 6 0.0000 0.0000 0.0000 0.0000 0.0000 -6.8689
#
#
#
# Elastic Compliance Matrix: (Units=1/GPa)
#
#
# Indices 1 2 3 4 5 6 
#
# 1 0.008703 -0.001955 -0.003770 0.000000 0.000000 0.000000
# 2 -0.001955 0.012682 -0.009165 0.000000 0.000000 0.000000
# 3 -0.003770 -0.009165 0.023103 0.000000 0.000000 0.000000
# 4 0.000000 0.000000 0.000000 -0.122148 0.000000 0.000000
# 5 0.000000 0.000000 0.000000 0.000000 26.050468 0.000000
# 6 0.000000 0.000000 0.000000 0.000000 0.000000 -0.145583
#
#
# Mechanical properties :
#
#
# Convention : Reuss Voigt Hill
#
# Bulk Modulus (GPa) = 68.00182 75.97822 71.99002
# Shear Modulus (GPa) = 0.19333 9.70664 4.94999
#
# Velocity S-wave (km/s) = 0.32810 2.32478 1.66016
# Velocity P-wave (km/s) = 6.16494 7.03635 6.61501
#
# Compressibility (1/GPa) = 0.01470549
#
# Stress axis : x y z
#
# Youngs Moduli (GPa) = 114.90841 78.85220 43.28527
#
# Poissons Ratio (x) = 0.15419 0.16320
# Poissons Ratio (y) = 0.22470 0.39672
# Poissons Ratio (z) = 0.43323 0.72269
#
# Static dielectric constant tensor:
#      x y z
#    x 1.611510 0.000000 0.000000 
#    y 0.000000 1.589540 0.000000 
#    z 0.000000 0.000000 1.620160 
# 
# From -- ./inp_files/21266.got.cif
#   From: 2010.05.17/outbox.cif.g08.bks.cpg/sg51_11_cif.got.tgz:21266.got - 2010.06.03 11:52:47.
