data_PCOD9404925
_publ_section_title
;
Structure prediction by ZEFSAII (Michael W. Deem and Ramdas Pophale) SiO2 
 PCOD9404925
Probable space group: P M M A
;
_chemical_formula_sum "Si O2"
_cell_formula_units_Z 40
_cell_length_a 8.525162
_cell_length_b 15.659470
_cell_length_c 14.859310
_cell_angle_alpha 90.000000
_cell_angle_beta 90.000000
_cell_angle_gamma 90.000000
_cell_volume 1983.710731
_symmetry_space_group_name_H-M "P M M A"
_symmetry_group_IT_number 51
_symmetry_cell_setting 'orthorhombic'
loop_
_space_group_symop_operation_xyz
x,y,z
1/2-x,-y,z
1/2+x,-y,-z
-x,y,-z
-x,-y,-z
1/2+x,y,-z
1/2-x,y,z
x,-y,z
loop_
_atom_site_type_symbol
_atom_site_label
_atom_site_fract_x
_atom_site_fract_y
_atom_site_fract_z
Si Si1 0.439604 0.591522 0.897082
Si Si2 0.563630 0.771373 0.398240
Si Si3 0.562058 0.901721 0.746362
Si Si4 0.061686 0.407282 0.397024
Si Si5 0.061193 0.221069 0.898022
O O1 0.250000 0.591274 0.896795
O O2 0.492900 0.500000 0.857268
O O3 0.489307 0.684514 0.862009
O O4 0.500000 0.591179 0.000000
O O5 0.500000 0.778353 0.500000
O O6 0.750000 0.771567 0.400448
O O7 0.501747 0.848101 0.337741
O O8 0.507925 0.679872 0.358665
O O9 0.750000 0.900435 0.744104
O O10 0.504270 0.852601 0.834935
O O11 0.508977 0.000000 0.744779
O O12 0.250000 0.401666 0.397457
O O13 0.015707 0.500000 0.357887
O O14 0.000000 0.408476 0.500000
O O15 0.250000 0.218072 0.898042
O O16 0.000000 0.212776 0.000000
#
# Coordination Sequence:
#
# PCOD9404925 Si02
#       5
#     8   8   8   8   8
#     4   8  14  26  47  77 112 148 184 221 265 321
#     4  11  22  38  62  89 119 154 191 235 287 346
#     4  11  25  44  63  83 110 146 192 247 300 350
#     4   9  16  28  50  81 117 155 193 232 275 328
#     4  10  20  36  60  88 118 153 191 234 285 342
#
# _framework density 20.164231000000001
#
# number of rings (size 3 to 8) (size 9 to 14) (size 15 to 20)
#    0.000    2.200    0.000    4.800    0.000    4.400 
#    0.000    1.000    0.000    3.600    0.000    0.000 
#    0.000    0.000    0.000    0.000    0.000    0.000 
#
# Total GULP energy -223210.097016 kJ/mol
# GULP energy per Si atom -5580.252425 kJ/mol
# Density = 2.011834 g / cm^3
# Si number density = 20.164231 Si / 1000 Ang^3
#
#
#
# Elastic Constant Matrix: (Units=GPa)
#
#
# Indices 1 2 3 4 5 6 
#
# 1 75.1188 62.9832 24.8186 0.0000 0.0000 0.0000
# 2 62.9832 252.6943 79.6055 0.0000 0.0000 0.0000
# 3 24.8186 79.6055 99.3412 0.0000 0.0000 0.0000
# 4 0.0000 0.0000 0.0000 45.7224 0.0000 0.0000
# 5 0.0000 0.0000 0.0000 0.0000 22.2118 0.0000
# 6 0.0000 0.0000 0.0000 0.0000 0.0000 37.4244
#
#
#
# Elastic Compliance Matrix: (Units=1/GPa)
#
#
# Indices 1 2 3 4 5 6 
#
# 1 0.016924 -0.003861 -0.001134 0.000000 0.000000 0.000000
# 2 -0.003861 0.006175 -0.003983 0.000000 0.000000 0.000000
# 3 -0.001134 -0.003983 0.013542 0.000000 0.000000 0.000000
# 4 0.000000 0.000000 0.000000 0.021871 0.000000 0.000000
# 5 0.000000 0.000000 0.000000 0.000000 0.045021 0.000000
# 6 0.000000 0.000000 0.000000 0.000000 0.000000 0.026721
#
#
# Mechanical properties :
#
#
# Convention : Reuss Voigt Hill
#
# Bulk Modulus (GPa) = 53.52361 84.66318 69.09339
# Shear Modulus (GPa) = 32.37545 38.38819 35.38182
#
# Velocity S-wave (km/s) = 4.01133 4.36796 4.19344
# Velocity P-wave (km/s) = 6.93223 8.21686 7.60173
#
# Compressibility (1/GPa) = 0.01868334
#
# Stress axis : x y z
#
# Youngs Moduli (GPa) = 59.08690 161.95595 73.84642
#
# Poissons Ratio (x) = 0.62531 0.08376
# Poissons Ratio (y) = 0.22813 0.29415
# Poissons Ratio (z) = 0.06702 0.64511
#
# Static dielectric constant tensor:
#      x y z
#    x 1.681930 0.000000 0.000000 
#    y 0.000000 1.756740 0.000000 
#    z 0.000000 0.000000 1.755720 
# 
# From -- ./inp_files/20508.got.cif
#   From: 2010.05.17/outbox.cif.g08.bks.cpg/sg51_11_cif.got.tgz:20508.got - 2010.06.03 11:52:47.
