data_PCOD9404765
_publ_section_title
;
Structure prediction by ZEFSAII (Michael W. Deem and Ramdas Pophale) SiO2 
 PCOD9404765
Probable space group: P M M A
;
_chemical_formula_sum "Si O2"
_cell_formula_units_Z 48
_cell_length_a 8.702780
_cell_length_b 31.342729
_cell_length_c 9.616419
_cell_angle_alpha 90.000000
_cell_angle_beta 90.000000
_cell_angle_gamma 90.000000
_cell_volume 2623.059793
_symmetry_space_group_name_H-M "P M M A"
_symmetry_group_IT_number 51
_symmetry_cell_setting 'orthorhombic'
loop_
_space_group_symop_operation_xyz
x,y,z
1/2-x,-y,z
1/2+x,-y,-z
-x,y,-z
-x,-y,-z
1/2+x,y,-z
1/2-x,y,z
x,-y,z
loop_
_atom_site_type_symbol
_atom_site_label
_atom_site_fract_x
_atom_site_fract_y
_atom_site_fract_z
Si Si1 0.435051 0.451142 0.650664
Si Si2 0.933920 0.047706 0.344957
Si Si3 0.935007 0.626442 0.155313
Si Si4 0.434221 0.878432 0.153521
Si Si5 0.564869 0.297441 0.655625
Si Si6 0.434849 0.218501 0.153580
O O1 0.500000 0.438182 0.500000
O O2 0.250000 0.450774 0.641929
O O3 0.484959 0.500000 0.677804
O O4 0.480168 0.417996 0.769862
O O5 0.750000 0.050819 0.349177
O O6 0.000000 0.050900 0.500000
O O7 0.001315 0.085558 0.253812
O O8 0.974283 0.000000 0.291542
O O9 0.750000 0.629073 0.151251
O O10 0.000324 0.664107 0.251272
O O11 0.000000 0.629314 0.000000
O O12 0.250000 0.880412 0.151126
O O13 0.480206 0.829874 0.193107
O O14 0.500000 0.885714 0.000000
O O15 0.500000 0.299335 0.500000
O O16 0.750000 0.299723 0.651304
O O17 0.518545 0.253645 0.733877
O O18 0.250000 0.219570 0.143434
O O19 0.500000 0.227988 0.000000
#
# Coordination Sequence:
#
# PCOD9404765 Si02
#       6
#     8   8   8   8   8   8
#     4   9  19  36  57  81 110 144 182 225 273 324
#     4  10  21  37  56  79 108 143 182 224 272 324
#     4  11  23  38  57  82 112 146 185 228 275 326
#     4  10  20  36  57  82 111 143 181 223 269 320
#     4  11  23  39  58  82 112 145 183 225 272 324
#     4   9  20  37  57  81 109 142 179 221 269 322
#
# _framework density 18.299240000000001
#
# number of rings (size 3 to 8) (size 9 to 14) (size 15 to 20)
#    0.000    2.000    0.000    3.000    0.000    8.333 
#    0.000    1.667    0.000    0.000    0.000    0.000 
#    0.000    0.000    0.000    0.000    0.000    0.000 
#
# Total GULP energy -268056.432266 kJ/mol
# GULP energy per Si atom -5584.509006 kJ/mol
# Density = 1.825759 g / cm^3
# Si number density = 18.299240 Si / 1000 Ang^3
#
#
#
# Elastic Constant Matrix: (Units=GPa)
#
#
# Indices 1 2 3 4 5 6 
#
# 1 50.2818 51.7972 47.6576 0.0000 0.0000 0.0000
# 2 51.7972 148.9125 121.5527 0.0000 0.0000 0.0000
# 3 47.6576 121.5527 158.7220 0.0000 0.0000 0.0000
# 4 0.0000 0.0000 0.0000 42.6171 0.0000 0.0000
# 5 0.0000 0.0000 0.0000 0.0000 38.2107 0.0000
# 6 0.0000 0.0000 0.0000 0.0000 0.0000 26.6394
#
#
#
# Elastic Compliance Matrix: (Units=1/GPa)
#
#
# Indices 1 2 3 4 5 6 
#
# 1 0.031467 -0.008624 -0.002844 0.000000 0.000000 0.000000
# 2 -0.008624 0.020277 -0.012939 0.000000 0.000000 0.000000
# 3 -0.002844 -0.012939 0.017063 0.000000 0.000000 0.000000
# 4 0.000000 0.000000 0.000000 0.023465 0.000000 0.000000
# 5 0.000000 0.000000 0.000000 0.000000 0.026171 0.000000
# 6 0.000000 0.000000 0.000000 0.000000 0.000000 0.037538
#
#
# Mechanical properties :
#
#
# Convention : Reuss Voigt Hill
#
# Bulk Modulus (GPa) = 50.01626 88.88124 69.44875
# Shear Modulus (GPa) = 23.64520 30.62068 27.13294
#
# Velocity S-wave (km/s) = 3.59854 4.09507 3.85481
# Velocity P-wave (km/s) = 6.68264 8.42828 7.60571
#
# Compressibility (1/GPa) = 0.01999350
#
# Stress axis : x y z
#
# Youngs Moduli (GPa) = 31.77896 49.31736 58.60619
#
# Poissons Ratio (x) = 0.42533 0.16666
# Poissons Ratio (y) = 0.27407 0.75830
# Poissons Ratio (z) = 0.09037 0.63811
#
# Static dielectric constant tensor:
#      x y z
#    x 1.616760 0.000000 0.000000 
#    y 0.000000 1.644570 0.000000 
#    z 0.000000 0.000000 1.576800 
# 
# From -- ./inp_files/5948.got.cif
#   From: 2010.05.17/outbox.cif.g08.bks.cpg/sg51_3_cif.got.tgz:5948.got - 2010.06.03 11:52:47.
