data_PCOD9404257
_publ_section_title
;
Structure prediction by ZEFSAII (Michael W. Deem and Ramdas Pophale) SiO2 
 PCOD9404257
Probable space group: P M M A
;
_chemical_formula_sum "Si O2"
_cell_formula_units_Z 52
_cell_length_a 8.735299
_cell_length_b 23.512507
_cell_length_c 15.156773
_cell_angle_alpha 90.000000
_cell_angle_beta 90.000000
_cell_angle_gamma 90.000000
_cell_volume 3113.031098
_symmetry_space_group_name_H-M "P M M A"
_symmetry_group_IT_number 51
_symmetry_cell_setting 'orthorhombic'
loop_
_space_group_symop_operation_xyz
x,y,z
1/2-x,-y,z
1/2+x,-y,-z
-x,y,-z
-x,-y,-z
1/2+x,y,-z
1/2-x,y,z
x,-y,z
loop_
_atom_site_type_symbol
_atom_site_label
_atom_site_fract_x
_atom_site_fract_y
_atom_site_fract_z
Si Si1 0.065261 0.105368 0.211999
Si Si2 0.423188 0.568932 0.410811
Si Si3 0.565892 0.000000 0.099623
Si Si4 0.565652 0.793323 0.098582
Si Si5 0.065924 0.933362 0.406189
Si Si6 0.565633 0.336786 0.096605
Si Si7 0.566222 0.564537 0.225172
O O1 0.250000 0.101945 0.207205
O O2 0.020365 0.097558 0.315084
O O3 0.994491 0.054556 0.153598
O O4 0.006034 0.163155 0.167888
O O5 0.500000 0.590505 0.500000
O O6 0.250000 0.589371 0.401896
O O7 0.418037 0.500000 0.417325
O O8 0.519275 0.580859 0.323883
O O9 0.750000 0.000000 0.096011
O O10 0.500000 0.000000 0.000000
O O11 0.750000 0.799295 0.096158
O O12 0.526122 0.727945 0.122581
O O13 0.500000 0.804195 0.000000
O O14 0.250000 0.931196 0.411543
O O15 0.000000 0.912535 0.500000
O O16 0.020737 0.000000 0.396979
O O17 0.750000 0.339389 0.093648
O O18 0.508989 0.386789 0.159959
O O19 0.500000 0.346310 0.000000
O O20 0.750000 0.562749 0.219593
O O21 0.509513 0.500000 0.206885
#
# Coordination Sequence:
#
# PCOD9404257 Si02
#       7
#     8   8   4   8   8   8   8
#     4  11  21  36  54  76 105 134 167 208 252 294
#     4   9  16  26  42  66  95 126 158 194 238 291
#     4  12  24  36  51  74 105 138 167 202 250 300
#     4  10  20  35  53  74  98 131 172 209 249 299
#     4   9  18  33  52  75 103 133 164 202 245 290
#     4   9  19  34  51  71  98 130 167 209 249 296
#     4   9  17  30  48  71  99 130 163 203 253 303
#
# _framework density 16.703977999999999
#
# number of rings (size 3 to 8) (size 9 to 14) (size 15 to 20)
#    0.000    2.308    0.769    2.538    0.000    4.615 
#    0.000    0.000    0.000    0.923    0.000    2.154 
#    0.000    0.000    0.000    0.000    0.000    0.000 
#
# Total GULP energy -289893.358314 kJ/mol
# GULP energy per Si atom -5574.872275 kJ/mol
# Density = 1.666596 g / cm^3
# Si number density = 16.703978 Si / 1000 Ang^3
#
#
#
# Elastic Constant Matrix: (Units=GPa)
#
#
# Indices 1 2 3 4 5 6 
#
# 1 41.4567 31.6401 38.4410 0.0000 0.0000 0.0000
# 2 31.6401 102.1154 96.0305 0.0000 0.0000 0.0000
# 3 38.4410 96.0305 156.3973 0.0000 0.0000 0.0000
# 4 0.0000 0.0000 0.0000 -6.8303 0.0000 0.0000
# 5 0.0000 0.0000 0.0000 0.0000 29.9340 0.0000
# 6 0.0000 0.0000 0.0000 0.0000 0.0000 9.9421
#
#
#
# Elastic Compliance Matrix: (Units=1/GPa)
#
#
# Indices 1 2 3 4 5 6 
#
# 1 0.032775 -0.006104 -0.004308 0.000000 0.000000 0.000000
# 2 -0.006104 0.024311 -0.013427 0.000000 0.000000 0.000000
# 3 -0.004308 -0.013427 0.015697 0.000000 0.000000 0.000000
# 4 0.000000 0.000000 0.000000 -0.146406 0.000000 0.000000
# 5 0.000000 0.000000 0.000000 0.000000 0.033407 0.000000
# 6 0.000000 0.000000 0.000000 0.000000 0.000000 0.100582
#
#
# Mechanical properties :
#
#
# Convention : Reuss Voigt Hill
#
# Bulk Modulus (GPa) = 39.83238 70.24361 55.03800
# Shear Modulus (GPa) = 42.95075 15.53302 29.24189
#
# Velocity S-wave (km/s) = 5.07629 3.05273 4.18855
# Velocity P-wave (km/s) = 7.63257 7.38708 7.51083
#
# Compressibility (1/GPa) = 0.02510520
#
# Stress axis : x y z
#
# Youngs Moduli (GPa) = 30.51143 41.13331 63.70556
#
# Poissons Ratio (x) = 0.25108 0.27442
# Poissons Ratio (y) = 0.18625 0.85538
# Poissons Ratio (z) = 0.13143 0.55230
#
# Static dielectric constant tensor:
#      x y z
#    x 1.565640 0.000000 0.000000 
#    y 0.000000 1.563270 0.000000 
#    z 0.000000 0.000000 1.546780 
# 
# From -- ./inp_files/21519.got.cif
#   From: 2010.05.17/outbox.cif.g08.bks.cpg/sg51_11_cif.got.tgz:21519.got - 2010.06.03 11:52:47.
