data_PCOD9404069
_publ_section_title
;
Structure prediction by ZEFSAII (Michael W. Deem and Ramdas Pophale) SiO2 
 PCOD9404069
Probable space group: P M M A
;
_chemical_formula_sum "Si O2"
_cell_formula_units_Z 56
_cell_length_a 18.023584
_cell_length_b 14.473341
_cell_length_c 12.671145
_cell_angle_alpha 90.000000
_cell_angle_beta 90.000000
_cell_angle_gamma 90.000000
_cell_volume 3305.413603
_symmetry_space_group_name_H-M "P M M A"
_symmetry_group_IT_number 51
_symmetry_cell_setting 'orthorhombic'
loop_
_space_group_symop_operation_xyz
x,y,z
1/2-x,-y,z
1/2+x,-y,-z
-x,y,-z
-x,-y,-z
1/2+x,y,-z
1/2-x,y,z
x,-y,z
loop_
_atom_site_type_symbol
_atom_site_label
_atom_site_fract_x
_atom_site_fract_y
_atom_site_fract_z
Si Si1 0.837883 0.795876 0.348182
Si Si2 0.837640 0.395461 0.242908
Si Si3 0.163907 0.213509 0.036987
Si Si4 0.419757 0.110437 0.847281
Si Si5 0.912138 0.889747 0.784549
Si Si6 0.087373 0.606082 0.983631
Si Si7 0.085178 0.891953 0.462198
O O1 0.750000 0.809794 0.339827
O O2 0.853609 0.688322 0.321955
O O3 0.878399 0.856212 0.258390
O O4 0.866686 0.828881 0.461077
O O5 0.750000 0.387849 0.212824
O O6 0.848726 0.500000 0.283957
O O7 0.887396 0.384339 0.138453
O O8 0.250000 0.211402 0.007566
O O9 0.148339 0.161569 0.145909
O O10 0.116421 0.162502 0.946007
O O11 0.134414 0.317743 0.044526
O O12 0.506606 0.132779 0.832121
O O13 0.412706 0.000000 0.860213
O O14 0.910195 0.866678 0.660807
O O15 0.902910 0.000000 0.793667
O O16 0.102746 0.500000 0.014600
O O17 0.000000 0.623028 0.000000
O O18 0.000000 0.885585 0.500000
O O19 0.107363 0.000000 0.473578
#
# Coordination Sequence:
#
# PCOD9404069 Si02
#       7
#     8   8   8   8   8   8   8
#     4  11  21  33  56  87 110 137 181 236 287 326
#     4   9  18  34  55  81 113 143 175 223 284 341
#     4  12  24  36  53  81 117 152 184 223 278 338
#     4  11  21  35  55  81 112 145 184 232 279 324
#     4  10  22  39  58  77 107 154 196 225 269 334
#     4  10  20  34  55  81 108 142 185 230 276 331
#     4  10  20  37  57  78 106 145 189 230 275 329
#
# _framework density 16.941904000000001
#
# number of rings (size 3 to 8) (size 9 to 14) (size 15 to 20)
#    0.000    1.571    2.857    3.000    0.000    5.429 
#    0.000    1.429    0.000    1.286    0.000    2.000 
#    0.000    0.000    0.000    0.000    0.000    0.000 
#
# Total GULP energy -312692.891404 kJ/mol
# GULP energy per Si atom -5583.801632 kJ/mol
# Density = 1.690334 g / cm^3
# Si number density = 16.941904 Si / 1000 Ang^3
#
#
#
# Elastic Constant Matrix: (Units=GPa)
#
#
# Indices 1 2 3 4 5 6 
#
# 1 51.8999 37.2548 19.1309 0.0000 0.0000 0.0000
# 2 37.2548 64.6338 33.8141 0.0000 0.0000 0.0000
# 3 19.1309 33.8141 79.6114 0.0000 0.0000 0.0000
# 4 0.0000 0.0000 0.0000 13.9559 0.0000 0.0000
# 5 0.0000 0.0000 0.0000 0.0000 27.6306 0.0000
# 6 0.0000 0.0000 0.0000 0.0000 0.0000 25.3253
#
#
#
# Elastic Compliance Matrix: (Units=1/GPa)
#
#
# Indices 1 2 3 4 5 6 
#
# 1 0.032869 -0.019045 0.000191 0.000000 0.000000 0.000000
# 2 -0.019045 0.030927 -0.008559 0.000000 0.000000 0.000000
# 3 0.000191 -0.008559 0.016151 0.000000 0.000000 0.000000
# 4 0.000000 0.000000 0.000000 0.071654 0.000000 0.000000
# 5 0.000000 0.000000 0.000000 0.000000 0.036192 0.000000
# 6 0.000000 0.000000 0.000000 0.000000 0.000000 0.039486
#
#
# Mechanical properties :
#
#
# Convention : Reuss Voigt Hill
#
# Bulk Modulus (GPa) = 39.81056 41.83831 40.82444
# Shear Modulus (GPa) = 17.21292 20.44538 18.82915
#
# Velocity S-wave (km/s) = 3.19093 3.47766 3.33738
# Velocity P-wave (km/s) = 6.09306 6.39330 6.24498
#
# Compressibility (1/GPa) = 0.02511896
#
# Stress axis : x y z
#
# Youngs Moduli (GPa) = 30.42423 32.33381 61.91682
#
# Poissons Ratio (x) = 0.61580 -0.01181
# Poissons Ratio (y) = 0.57944 0.52997
# Poissons Ratio (z) = -0.00580 0.27676
#
# Static dielectric constant tensor:
#      x y z
#    x 1.567700 0.000000 0.000000 
#    y 0.000000 1.582610 0.000000 
#    z 0.000000 0.000000 1.550820 
# 
# From -- ./inp_files/16574.got.cif
#   From: 2010.05.17/outbox.cif.g08.bks.cpg/sg51_9_cif.got.tgz:16574.got - 2010.06.03 11:52:47.
