data_PCOD9404624
_publ_section_title
;
Structure prediction by ZEFSAII (Michael W. Deem and Ramdas Pophale) SiO2 
 PCOD9404624
Probable space group: P M M A
;
_chemical_formula_sum "Si O2"
_cell_formula_units_Z 64
_cell_length_a 15.685838
_cell_length_b 23.661222
_cell_length_c 8.126031
_cell_angle_alpha 90.000000
_cell_angle_beta 90.000000
_cell_angle_gamma 90.000000
_cell_volume 3015.944675
_symmetry_space_group_name_H-M "P M M A"
_symmetry_group_IT_number 51
_symmetry_cell_setting 'orthorhombic'
loop_
_space_group_symop_operation_xyz
x,y,z
1/2-x,-y,z
1/2+x,-y,-z
-x,y,-z
-x,-y,-z
1/2+x,y,-z
1/2-x,y,z
x,-y,z
loop_
_atom_site_type_symbol
_atom_site_label
_atom_site_fract_x
_atom_site_fract_y
_atom_site_fract_z
Si Si1 0.852247 0.140230 0.918411
Si Si2 0.647035 0.862507 0.540642
Si Si3 0.065237 0.246334 0.625100
Si Si4 0.845362 0.362565 0.710098
Si Si5 0.854332 0.064984 0.226328
Si Si6 0.344270 0.354821 0.684136
Si Si7 0.567905 0.743579 0.879935
Si Si8 0.505406 0.563991 0.196217
O O1 0.750000 0.135978 0.919779
O O2 0.878553 0.125166 0.729852
O O3 0.876982 0.205426 0.950434
O O4 0.884053 0.101172 0.068034
O O5 0.750000 0.859251 0.540003
O O6 0.611913 0.802537 0.474401
O O7 0.620161 0.907170 0.400643
O O8 0.128145 0.290024 0.711198
O O9 0.000000 0.278372 0.500000
O O10 0.998605 0.224879 0.758695
O O11 0.750000 0.376394 0.770348
O O12 0.841225 0.357828 0.513525
O O13 0.875716 0.303340 0.790325
O O14 0.917065 0.408499 0.746652
O O15 0.750000 0.066016 0.224476
O O16 0.881226 0.000000 0.214498
O O17 0.250000 0.366708 0.751044
O O18 0.416147 0.396663 0.749580
O O19 0.500000 0.713575 0.000000
O O20 0.516125 0.500000 0.258996
O O21 0.500000 0.562363 0.000000
#
# Coordination Sequence:
#
# PCOD9404624 Si02
#       8
#     8   8   8   8   8   8   8   8
#     4  10  20  36  58  87 120 160 212 267 326 393
#     4  10  20  35  58  88 119 159 210 264 327 393
#     4  12  20  36  60  88 128 163 204 256 321 393
#     4  11  23  41  65  95 130 168 216 267 322 384
#     4   9  19  36  57  85 121 158 208 271 326 386
#     4  11  23  41  67  97 129 167 213 266 321 384
#     4  12  23  37  59  91 129 167 208 259 326 393
#     4  11  25  46  67  93 132 173 218 268 319 380
#
# _framework density 21.220548000000001
#
# number of rings (size 3 to 8) (size 9 to 14) (size 15 to 20)
#    0.000    1.250    3.750    2.250    0.000    4.500 
#    0.000    6.250    0.000    3.750    0.000    0.000 
#    0.000    0.000    0.000    0.000    0.000    0.000 
#
# Total GULP energy -357345.413546 kJ/mol
# GULP energy per Si atom -5583.522087 kJ/mol
# Density = 2.117225 g / cm^3
# Si number density = 21.220548 Si / 1000 Ang^3
#
#
#
# Elastic Constant Matrix: (Units=GPa)
#
#
# Indices 1 2 3 4 5 6 
#
# 1 100.3527 43.4732 40.6496 0.0000 0.0000 0.0000
# 2 43.4732 135.4450 48.3116 0.0000 0.0000 0.0000
# 3 40.6496 48.3116 78.8515 0.0000 0.0000 0.0000
# 4 0.0000 0.0000 0.0000 36.3911 0.0000 0.0000
# 5 0.0000 0.0000 0.0000 0.0000 19.5236 0.0000
# 6 0.0000 0.0000 0.0000 0.0000 0.0000 24.1577
#
#
#
# Elastic Compliance Matrix: (Units=1/GPa)
#
#
# Indices 1 2 3 4 5 6 
#
# 1 0.013134 -0.002304 -0.005359 0.000000 0.000000 0.000000
# 2 -0.002304 0.009852 -0.004848 0.000000 0.000000 0.000000
# 3 -0.005359 -0.004848 0.018415 0.000000 0.000000 0.000000
# 4 0.000000 0.000000 0.000000 0.027479 0.000000 0.000000
# 5 0.000000 0.000000 0.000000 0.000000 0.051220 0.000000
# 6 0.000000 0.000000 0.000000 0.000000 0.000000 0.041395
#
#
# Mechanical properties :
#
#
# Convention : Reuss Voigt Hill
#
# Bulk Modulus (GPa) = 61.05735 64.39089 62.72412
# Shear Modulus (GPa) = 26.04472 28.16213 27.10342
#
# Velocity S-wave (km/s) = 3.50713 3.64691 3.57771
# Velocity P-wave (km/s) = 6.72571 6.93850 6.83294
#
# Compressibility (1/GPa) = 0.01637804
#
# Stress axis : x y z
#
# Youngs Moduli (GPa) = 76.13977 101.50278 54.30236
#
# Poissons Ratio (x) = 0.23386 0.29101
# Poissons Ratio (y) = 0.17542 0.26328
# Poissons Ratio (z) = 0.40804 0.49213
#
# Static dielectric constant tensor:
#      x y z
#    x 1.764560 0.000000 0.000000 
#    y 0.000000 1.736680 0.000000 
#    z 0.000000 0.000000 1.904280 
# 
# From -- ./inp_files/8707.got.cif
#   From: 2010.05.17/outbox.cif.g08.bks.cpg/sg51_5_cif.got.tgz:8707.got - 2010.06.03 11:52:47.
