data_PCOD9404488
_publ_section_title
;
Structure prediction by ZEFSAII (Michael W. Deem and Ramdas Pophale) SiO2 
 PCOD9404488
Probable space group: P M M A
;
_chemical_formula_sum "Si O2"
_cell_formula_units_Z 48
_cell_length_a 8.833919
_cell_length_b 14.526353
_cell_length_c 21.008780
_cell_angle_alpha 90.000000
_cell_angle_beta 90.000000
_cell_angle_gamma 90.000000
_cell_volume 2695.943831
_symmetry_space_group_name_H-M "P M M A"
_symmetry_group_IT_number 51
_symmetry_cell_setting 'orthorhombic'
loop_
_space_group_symop_operation_xyz
x,y,z
1/2-x,-y,z
1/2+x,-y,-z
-x,y,-z
-x,-y,-z
1/2+x,y,-z
1/2-x,y,z
x,-y,z
loop_
_atom_site_type_symbol
_atom_site_label
_atom_site_fract_x
_atom_site_fract_y
_atom_site_fract_z
Si Si1 0.931482 0.391421 0.804440
Si Si2 0.430688 0.712048 0.065091
Si Si3 0.430330 0.281570 0.686216
Si Si4 0.569250 0.391785 0.569183
Si Si5 0.429318 0.894192 0.257103
Si Si6 0.431342 0.104452 0.883939
O O1 0.750000 0.379161 0.795450
O O2 0.963451 0.500000 0.803833
O O3 0.971833 0.346682 0.872341
O O4 0.015978 0.339930 0.747608
O O5 0.250000 0.714357 0.060378
O O6 0.493410 0.814922 0.075828
O O7 0.500000 0.674024 0.000000
O O8 0.250000 0.277873 0.683856
O O9 0.495841 0.330415 0.623816
O O10 0.499153 0.180209 0.696262
O O11 0.500000 0.371229 0.500000
O O12 0.750000 0.379267 0.568132
O O13 0.538786 0.500000 0.582732
O O14 0.250000 0.876893 0.249331
O O15 0.508377 0.884659 0.188251
O O16 0.449801 0.000000 0.277831
O O17 0.250000 0.113864 0.884854
O O18 0.470268 0.000000 0.904457
#
# Coordination Sequence:
#
# PCOD9404488 Si02
#       6
#     8   8   8   8   8   8
#     4  10  22  40  59  80 108 145 190 238 286 337
#     4  11  23  38  57  78 107 146 187 234 288 344
#     4  12  23  35  58  89 120 153 191 234 281 334
#     4  10  21  38  60  87 122 160 197 238 283 334
#     4  10  20  35  57  84 114 149 188 231 282 337
#     4  10  20  35  56  82 111 141 178 228 284 342
#
# _framework density 17.804525000000002
#
# number of rings (size 3 to 8) (size 9 to 14) (size 15 to 20)
#    0.000    1.500    1.667    4.000    0.000    6.667 
#    0.000    0.000    0.000    0.500    0.000    0.000 
#    0.000    0.000    0.000    0.000    0.000    0.000 
#
# Total GULP energy -268296.528339 kJ/mol
# GULP energy per Si atom -5589.511007 kJ/mol
# Density = 1.776400 g / cm^3
# Si number density = 17.804525 Si / 1000 Ang^3
#
#
#
# Elastic Constant Matrix: (Units=GPa)
#
#
# Indices 1 2 3 4 5 6 
#
# 1 70.9902 46.3279 48.2374 0.0000 0.0000 0.0000
# 2 46.3279 92.9280 56.5764 0.0000 0.0000 0.0000
# 3 48.2374 56.5764 107.5084 0.0000 0.0000 0.0000
# 4 0.0000 0.0000 0.0000 14.0300 0.0000 0.0000
# 5 0.0000 0.0000 0.0000 0.0000 34.3180 0.0000
# 6 0.0000 0.0000 0.0000 0.0000 0.0000 21.5104
#
#
#
# Elastic Compliance Matrix: (Units=1/GPa)
#
#
# Indices 1 2 3 4 5 6 
#
# 1 0.023584 -0.007821 -0.006466 0.000000 0.000000 0.000000
# 2 -0.007821 0.018428 -0.006188 0.000000 0.000000 0.000000
# 3 -0.006466 -0.006188 0.015460 0.000000 0.000000 0.000000
# 4 0.000000 0.000000 0.000000 0.071276 0.000000 0.000000
# 5 0.000000 0.000000 0.000000 0.000000 0.029139 0.000000
# 6 0.000000 0.000000 0.000000 0.000000 0.000000 0.046489
#
#
# Mechanical properties :
#
#
# Convention : Reuss Voigt Hill
#
# Bulk Modulus (GPa) = 60.53117 63.74557 62.13837
# Shear Modulus (GPa) = 19.93360 21.99067 20.96214
#
# Velocity S-wave (km/s) = 3.34964 3.51824 3.43497
# Velocity P-wave (km/s) = 7.00226 7.23773 7.12097
#
# Compressibility (1/GPa) = 0.01652041
#
# Stress axis : x y z
#
# Youngs Moduli (GPa) = 42.40183 54.26639 64.68503
#
# Poissons Ratio (x) = 0.42440 0.41826
# Poissons Ratio (y) = 0.33161 0.40030
# Poissons Ratio (z) = 0.27417 0.33583
#
# Static dielectric constant tensor:
#      x y z
#    x 1.590740 0.000000 0.000000 
#    y 0.000000 1.607930 0.000000 
#    z 0.000000 0.000000 1.584110 
# 
# From -- ./inp_files/27534.got.cif
#   From: 2010.05.17/outbox.cif.g08.bks.cpg/sg51_14_cif.got.tgz:27534.got - 2010.06.03 11:52:47.
