data_PCOD9404835
_publ_section_title
;
Structure prediction by ZEFSAII (Michael W. Deem and Ramdas Pophale) SiO2 
 PCOD9404835
Probable space group: P M M A
;
_chemical_formula_sum "Si O2"
_cell_formula_units_Z 48
_cell_length_a 9.897295
_cell_length_b 19.275472
_cell_length_c 13.924193
_cell_angle_alpha 90.000000
_cell_angle_beta 90.000000
_cell_angle_gamma 90.000000
_cell_volume 2656.388374
_symmetry_space_group_name_H-M "P M M A"
_symmetry_group_IT_number 51
_symmetry_cell_setting 'orthorhombic'
loop_
_space_group_symop_operation_xyz
x,y,z
1/2-x,-y,z
1/2+x,-y,-z
-x,y,-z
-x,-y,-z
1/2+x,y,-z
1/2-x,y,z
x,-y,z
loop_
_atom_site_type_symbol
_atom_site_label
_atom_site_fract_x
_atom_site_fract_y
_atom_site_fract_z
Si Si1 0.750000 0.918003 0.142840
Si Si2 0.096579 0.420703 0.762142
Si Si3 0.987545 0.157797 0.797530
Si Si4 0.904771 0.205907 0.588354
Si Si5 0.409152 0.373177 0.408061
Si Si6 0.909299 0.706226 0.094334
Si Si7 0.250000 0.915634 0.084134
O O1 0.620087 0.888367 0.195121
O O2 0.750000 0.000000 0.145009
O O3 0.750000 0.898330 0.029366
O O4 0.250000 0.410879 0.721488
O O5 0.087113 0.500000 0.795785
O O6 0.082116 0.365114 0.846551
O O7 0.982675 0.406331 0.683249
O O8 0.939302 0.169810 0.689039
O O9 0.877330 0.119508 0.863659
O O10 0.029517 0.231952 0.841663
O O11 0.750000 0.191480 0.562899
O O12 0.917802 0.289348 0.601909
O O13 0.000000 0.185626 0.500000
O O14 0.500000 0.392728 0.500000
O O15 0.250000 0.391200 0.417165
O O16 0.750000 0.719832 0.074277
O O17 0.000000 0.702290 0.000000
O O18 0.250000 0.000000 0.093854
#
# Coordination Sequence:
#
# PCOD9404835 Si02
#       7
#     4   8   8   8   8   8   4
#     4  11  24  40  61  95 130 166 202 241 305 373
#     4  10  22  40  59  83 120 161 201 251 308 362
#     4  12  22  39  64  94 125 163 204 257 304 359
#     4  10  22  38  62  93 123 157 203 257 308 361
#     4  10  20  36  58  87 119 154 198 249 305 364
#     4  11  24  39  61  90 120 160 207 255 300 358
#     4  11  24  42  65  93 132 168 204 247 305 369
#
# _framework density 18.069648000000001
#
# number of rings (size 3 to 8) (size 9 to 14) (size 15 to 20)
#    0.000    1.333    3.333    2.500    2.333    3.667 
#    0.000    0.000    0.000    3.000    0.000    0.000 
#    0.000    0.000    0.000    0.000    0.000    0.000 
#
# Total GULP energy -268111.102058 kJ/mol
# GULP energy per Si atom -5585.647960 kJ/mol
# Density = 1.802852 g / cm^3
# Si number density = 18.069648 Si / 1000 Ang^3
#
#
#
# Elastic Constant Matrix: (Units=GPa)
#
#
# Indices 1 2 3 4 5 6 
#
# 1 139.9333 45.3741 53.1075 0.0000 0.0000 0.0000
# 2 45.3741 79.7234 41.3558 0.0000 0.0000 0.0000
# 3 53.1075 41.3558 84.5064 0.0000 0.0000 0.0000
# 4 0.0000 0.0000 0.0000 -24.7227 0.0000 0.0000
# 5 0.0000 0.0000 0.0000 0.0000 37.4609 0.0000
# 6 0.0000 0.0000 0.0000 0.0000 0.0000 34.7502
#
#
#
# Elastic Compliance Matrix: (Units=1/GPa)
#
#
# Indices 1 2 3 4 5 6 
#
# 1 0.009976 -0.003251 -0.004678 0.000000 0.000000 0.000000
# 2 -0.003251 0.017870 -0.006702 0.000000 0.000000 0.000000
# 3 -0.004678 -0.006702 0.018054 0.000000 0.000000 0.000000
# 4 0.000000 0.000000 0.000000 -0.040449 0.000000 0.000000
# 5 0.000000 0.000000 0.000000 0.000000 0.026694 0.000000
# 6 0.000000 0.000000 0.000000 0.000000 0.000000 0.028777
#
#
# Mechanical properties :
#
#
# Convention : Reuss Voigt Hill
#
# Bulk Modulus (GPa) = 60.10880 64.87087 62.48984
# Shear Modulus (GPa) = 52.22942 20.45272 36.34107
#
# Velocity S-wave (km/s) = 5.38212 3.36800 4.48947
# Velocity P-wave (km/s) = 8.48294 7.14863 7.84421
#
# Compressibility (1/GPa) = 0.01663650
#
# Stress axis : x y z
#
# Youngs Moduli (GPa) = 100.24142 55.95846 55.39073
#
# Poissons Ratio (x) = 0.18191 0.25914
# Poissons Ratio (y) = 0.32587 0.37125
# Poissons Ratio (z) = 0.46897 0.37506
#
# Static dielectric constant tensor:
#      x y z
#    x 1.672140 0.000000 0.000000 
#    y 0.000000 1.611780 0.000000 
#    z 0.000000 0.000000 1.581480 
# 
# From -- ./inp_files/21143.got.cif
#   From: 2010.05.17/outbox.cif.g08.bks.cpg/sg51_11_cif.got.tgz:21143.got - 2010.06.03 11:52:47.
