data_PCOD9404738
_publ_section_title
;
Structure prediction by ZEFSAII (Michael W. Deem and Ramdas Pophale) SiO2 
 PCOD9404738
Probable space group: P M M A
;
_chemical_formula_sum "Si O2"
_cell_formula_units_Z 48
_cell_length_a 8.532753
_cell_length_b 32.202618
_cell_length_c 9.344037
_cell_angle_alpha 90.000000
_cell_angle_beta 90.000000
_cell_angle_gamma 90.000000
_cell_volume 2567.526318
_symmetry_space_group_name_H-M "P M M A"
_symmetry_group_IT_number 51
_symmetry_cell_setting 'orthorhombic'
loop_
_space_group_symop_operation_xyz
x,y,z
1/2-x,-y,z
1/2+x,-y,-z
-x,y,-z
-x,-y,-z
1/2+x,y,-z
1/2-x,y,z
x,-y,z
loop_
_atom_site_type_symbol
_atom_site_label
_atom_site_fract_x
_atom_site_fract_y
_atom_site_fract_z
Si Si1 0.560271 0.090067 0.338159
Si Si2 0.561503 0.421120 0.837928
Si Si3 0.439074 0.000000 0.663324
Si Si4 0.939165 0.830837 0.160366
Si Si5 0.437686 0.660493 0.339214
Si Si6 0.062774 0.500000 0.662172
Si Si7 0.938133 0.262288 0.161871
O O1 0.500000 0.092087 0.500000
O O2 0.750000 0.090938 0.339527
O O3 0.503823 0.130469 0.253681
O O4 0.511202 0.044843 0.275374
O O5 0.750000 0.423080 0.840242
O O6 0.513006 0.378616 0.758498
O O7 0.497332 0.459705 0.747211
O O8 0.500000 0.422237 0.000000
O O9 0.500000 0.000000 0.500000
O O10 0.250000 0.000000 0.661468
O O11 0.750000 0.831727 0.159517
O O12 0.986029 0.784419 0.208804
O O13 0.000000 0.835712 0.000000
O O14 0.500000 0.656080 0.500000
O O15 0.250000 0.661128 0.343188
O O16 0.497647 0.702513 0.265760
O O17 0.250000 0.500000 0.659208
O O18 0.000000 0.500000 0.500000
O O19 0.750000 0.264332 0.158912
O O20 0.000000 0.268607 0.000000
#
# Coordination Sequence:
#
# PCOD9404738 Si02
#       7
#     8   8   4   8   8   4   8
#     4   9  17  30  48  71  97 127 167 211 258 310
#     4  11  24  42  64  90 120 155 194 233 277 329
#     4   8  14  26  45  66  92 126 162 206 255 306
#     4   9  19  34  51  73 102 136 172 212 260 315
#     4  11  24  40  60  86 116 149 185 229 278 326
#     4  12  25  42  65  92 124 158 194 238 285 330
#     4  10  20  36  57  79 106 141 181 223 269 324
#
# _framework density 18.695036000000002
#
# number of rings (size 3 to 8) (size 9 to 14) (size 15 to 20)
#    0.000    2.000    0.000    3.500    0.000    7.333 
#    0.000    2.083    0.000    0.000    0.000    0.000 
#    0.000    0.000    0.000    0.000    0.000    0.000 
#
# Total GULP energy -267917.377582 kJ/mol
# GULP energy per Si atom -5581.612033 kJ/mol
# Density = 1.865249 g / cm^3
# Si number density = 18.695036 Si / 1000 Ang^3
#
#
#
# Elastic Constant Matrix: (Units=GPa)
#
#
# Indices 1 2 3 4 5 6 
#
# 1 37.1794 45.2437 32.0411 0.0000 0.0000 0.0000
# 2 45.2437 216.7299 112.2666 0.0000 0.0000 0.0000
# 3 32.0411 112.2666 127.6516 0.0000 0.0000 0.0000
# 4 0.0000 0.0000 0.0000 41.1850 0.0000 0.0000
# 5 0.0000 0.0000 0.0000 0.0000 33.0708 0.0000
# 6 0.0000 0.0000 0.0000 0.0000 0.0000 29.2559
#
#
#
# Elastic Compliance Matrix: (Units=1/GPa)
#
#
# Indices 1 2 3 4 5 6 
#
# 1 0.037497 -0.005423 -0.004643 0.000000 0.000000 0.000000
# 2 -0.005423 0.009259 -0.006782 0.000000 0.000000 0.000000
# 3 -0.004643 -0.006782 0.014964 0.000000 0.000000 0.000000
# 4 0.000000 0.000000 0.000000 0.024281 0.000000 0.000000
# 5 0.000000 0.000000 0.000000 0.000000 0.030238 0.000000
# 6 0.000000 0.000000 0.000000 0.000000 0.000000 0.034181
#
#
# Mechanical properties :
#
#
# Convention : Reuss Voigt Hill
#
# Bulk Modulus (GPa) = 35.68286 84.51818 60.10052
# Shear Modulus (GPa) = 25.84563 33.50297 29.67430
#
# Velocity S-wave (km/s) = 3.72221 4.23789 3.98839
# Velocity P-wave (km/s) = 6.13200 8.32186 7.30940
#
# Compressibility (1/GPa) = 0.02802466
#
# Stress axis : x y z
#
# Youngs Moduli (GPa) = 26.66911 108.00008 66.82749
#
# Poissons Ratio (x) = 0.58566 0.31025
# Poissons Ratio (y) = 0.14462 0.45324
# Poissons Ratio (z) = 0.12381 0.73247
#
# Static dielectric constant tensor:
#      x y z
#    x 1.634870 0.000000 0.000000 
#    y 0.000000 1.681680 0.000000 
#    z 0.000000 0.000000 1.606870 
# 
# From -- ./inp_files/6134.got.cif
#   From: 2010.05.17/outbox.cif.g08.bks.cpg/sg51_4_cif.got.tgz:6134.got - 2010.06.03 11:52:47.
