data_PCOD9404489
_publ_section_title
;
Structure prediction by ZEFSAII (Michael W. Deem and Ramdas Pophale) SiO2 
 PCOD9404489
Probable space group: P M M A
;
_chemical_formula_sum "Si O2"
_cell_formula_units_Z 64
_cell_length_a 29.800212
_cell_length_b 7.563477
_cell_length_c 12.891362
_cell_angle_alpha 90.000000
_cell_angle_beta 90.000000
_cell_angle_gamma 90.000000
_cell_volume 2905.625566
_symmetry_space_group_name_H-M "P M M A"
_symmetry_group_IT_number 51
_symmetry_cell_setting 'orthorhombic'
loop_
_space_group_symop_operation_xyz
x,y,z
1/2-x,-y,z
1/2+x,-y,-z
-x,y,-z
-x,-y,-z
1/2+x,y,-z
1/2-x,y,z
x,-y,z
loop_
_atom_site_type_symbol
_atom_site_label
_atom_site_fract_x
_atom_site_fract_y
_atom_site_fract_z
Si Si1 0.633031 0.212038 0.398940
Si Si2 0.301043 0.288123 0.416407
Si Si3 0.972337 0.796861 0.095797
Si Si4 0.052821 0.703890 0.227522
Si Si5 0.549523 0.214480 0.534602
Si Si6 0.125219 0.782645 0.836396
Si Si7 0.850244 0.711656 0.790207
Si Si8 0.800317 0.212372 0.000209
O O1 0.674055 0.252713 0.475531
O O2 0.587781 0.275893 0.455626
O O3 0.635694 0.275762 0.280940
O O4 0.629710 0.000000 0.393512
O O5 0.250000 0.220728 0.414341
O O6 0.298933 0.500000 0.404225
O O7 0.330089 0.220003 0.318484
O O8 0.924258 0.721678 0.127710
O O9 0.007432 0.795309 0.190418
O O10 0.962845 0.000000 0.065577
O O11 0.000000 0.715425 0.000000
O O12 0.048104 0.500000 0.196112
O O13 0.058357 0.716388 0.350652
O O14 0.099678 0.779749 0.184031
O O15 0.500000 0.268245 0.500000
O O16 0.550738 0.000000 0.538762
O O17 0.124761 0.000000 0.835658
O O18 0.163086 0.723723 0.917072
O O19 0.855486 0.500000 0.779125
O O20 0.817043 0.746575 0.884584
O O21 0.750000 0.280002 0.017551
O O22 0.798994 0.000000 0.009876
#
# Coordination Sequence:
#
# PCOD9404489 Si02
#       8
#     8   8   8   8   8   8   8   8
#     4  10  20  35  57  83 112 147 187 234 278 332
#     4  10  21  38  58  79 110 151 190 233 287 344
#     4  10  20  36  59  84 113 154 196 234 283 344
#     4  11  22  35  55  83 115 150 189 237 286 337
#     4  10  20  35  56  82 112 148 189 231 277 335
#     4   9  19  37  58  83 117 151 185 228 288 347
#     4  10  21  38  58  81 114 152 187 231 291 350
#     4  10  21  37  60  88 113 142 187 242 291 341
#
# _framework density 22.026237999999999
#
# number of rings (size 3 to 8) (size 9 to 14) (size 15 to 20)
#    0.000    2.000    1.250    2.250    0.000    6.500 
#    0.000    4.375    0.000    0.000    0.000    0.000 
#    0.000    0.000    0.000    0.000    0.000    0.000 
#
# Total GULP energy -357667.376429 kJ/mol
# GULP energy per Si atom -5588.552757 kJ/mol
# Density = 2.197610 g / cm^3
# Si number density = 22.026238 Si / 1000 Ang^3
#
#
#
# Elastic Constant Matrix: (Units=GPa)
#
#
# Indices 1 2 3 4 5 6 
#
# 1 190.1360 5.1052 72.4518 0.0000 0.0000 0.0000
# 2 5.1052 52.2505 -2.9038 0.0000 0.0000 0.0000
# 3 72.4518 -2.9038 143.1914 0.0000 0.0000 0.0000
# 4 0.0000 0.0000 0.0000 36.6495 0.0000 0.0000
# 5 0.0000 0.0000 0.0000 0.0000 37.3191 0.0000
# 6 0.0000 0.0000 0.0000 0.0000 0.0000 7.0118
#
#
#
# Elastic Compliance Matrix: (Units=1/GPa)
#
#
# Indices 1 2 3 4 5 6 
#
# 1 0.006551 -0.000825 -0.003331 0.000000 0.000000 0.000000
# 2 -0.000825 0.019264 0.000808 0.000000 0.000000 0.000000
# 3 -0.003331 0.000808 0.008686 0.000000 0.000000 0.000000
# 4 0.000000 0.000000 0.000000 0.027285 0.000000 0.000000
# 5 0.000000 0.000000 0.000000 0.000000 0.026796 0.000000
# 6 0.000000 0.000000 0.000000 0.000000 0.000000 0.142617
#
#
# Mechanical properties :
#
#
# Convention : Reuss Voigt Hill
#
# Bulk Modulus (GPa) = 35.96609 59.43158 47.69884
# Shear Modulus (GPa) = 20.22948 36.92439 28.57694
#
# Velocity S-wave (km/s) = 3.03384 4.09881 3.60586
# Velocity P-wave (km/s) = 5.35131 7.03143 6.24810
#
# Compressibility (1/GPa) = 0.02780396
#
# Stress axis : x y z
#
# Youngs Moduli (GPa) = 152.64871 51.90996 115.13223
#
# Poissons Ratio (x) = 0.04284 0.38355
# Poissons Ratio (y) = 0.12597 -0.09305
# Poissons Ratio (z) = 0.50853 -0.04195
#
# Static dielectric constant tensor:
#      x y z
#    x 1.808000 0.000000 0.000000 
#    y 0.000000 1.853240 0.000000 
#    z 0.000000 0.000000 1.776520 
# 
# From -- ./inp_files/19448.got.cif
#   From: 2010.05.17/outbox.cif.g08.bks.cpg/sg51_10_cif.got.tgz:19448.got - 2010.06.03 11:52:47.
