data_PCOD9404694
_publ_section_title
;
Structure prediction by ZEFSAII (Michael W. Deem and Ramdas Pophale) SiO2 
 PCOD9404694
Probable space group: P M M A
;
_chemical_formula_sum "Si O2"
_cell_formula_units_Z 56
_cell_length_a 24.301854
_cell_length_b 7.881461
_cell_length_c 15.884952
_cell_angle_alpha 90.000000
_cell_angle_beta 90.000000
_cell_angle_gamma 90.000000
_cell_volume 3042.510216
_symmetry_space_group_name_H-M "P M M A"
_symmetry_group_IT_number 51
_symmetry_cell_setting 'orthorhombic'
loop_
_space_group_symop_operation_xyz
x,y,z
1/2-x,-y,z
1/2+x,-y,-z
-x,y,-z
-x,-y,-z
1/2+x,y,-z
1/2-x,y,z
x,-y,z
loop_
_atom_site_type_symbol
_atom_site_label
_atom_site_fract_x
_atom_site_fract_y
_atom_site_fract_z
Si Si1 0.685395 0.297866 0.274702
Si Si2 0.535731 0.196734 0.803287
Si Si3 0.183031 0.000000 0.403757
Si Si4 0.418794 0.805810 0.020701
Si Si5 0.312046 0.702228 0.107065
Si Si6 0.580686 0.304992 0.168137
Si Si7 0.316049 0.000000 0.597470
Si Si8 0.639141 0.693922 0.708052
O O1 0.750000 0.267706 0.252567
O O2 0.681000 0.500000 0.294941
O O3 0.641300 0.257986 0.201443
O O4 0.669992 0.170407 0.350495
O O5 0.548903 0.265155 0.897785
O O6 0.470700 0.208435 0.790634
O O7 0.575336 0.285776 0.736226
O O8 0.553093 0.000000 0.804256
O O9 0.158943 0.166110 0.357606
O O10 0.250000 0.000000 0.398085
O O11 0.164997 0.000000 0.501315
O O12 0.355866 0.796586 0.050219
O O13 0.436206 0.000000 0.007238
O O14 0.423572 0.715344 0.932039
O O15 0.250000 0.756035 0.092031
O O16 0.316875 0.500000 0.090370
O O17 0.328005 0.725929 0.204663
O O18 0.572173 0.500000 0.190619
O O19 0.250000 0.000000 0.592811
O O20 0.649540 0.500000 0.681195
#
# Coordination Sequence:
#
# PCOD9404694 Si02
#       8
#     8   8   4   8   8   8   4   8
#     4   9  20  39  60  84 114 144 180 229 282 336
#     4  10  20  36  55  78 113 152 190 235 277 321
#     4  11  22  36  59  92 119 142 180 223 269 335
#     4  10  21  33  47  74 108 145 188 235 279 317
#     4   9  18  32  49  70 103 148 187 222 272 327
#     4  11  22  34  55  82 105 143 193 235 277 329
#     4   9  20  38  61  86 113 146 177 215 279 341
#     4  10  20  36  56  82 116 152 187 227 272 323
#
# _framework density 18.405854999999999
#
# number of rings (size 3 to 8) (size 9 to 14) (size 15 to 20)
#    0.000    2.143    0.714    2.143    3.000    5.714 
#    0.000    2.857    0.000    1.714    0.000    3.000 
#    0.000    0.000    0.000    0.000    0.000    0.000 
#
# Total GULP energy -312329.439542 kJ/mol
# GULP energy per Si atom -5577.311420 kJ/mol
# Density = 1.836396 g / cm^3
# Si number density = 18.405855 Si / 1000 Ang^3
#
#
#
# Elastic Constant Matrix: (Units=GPa)
#
#
# Indices 1 2 3 4 5 6 
#
# 1 110.3447 25.1648 24.8521 0.0000 0.0000 0.0000
# 2 25.1648 59.3308 26.1273 0.0000 0.0000 0.0000
# 3 24.8521 26.1273 50.5238 0.0000 0.0000 0.0000
# 4 0.0000 0.0000 0.0000 2.6935 0.0000 0.0000
# 5 0.0000 0.0000 0.0000 0.0000 8.6748 0.0000
# 6 0.0000 0.0000 0.0000 0.0000 0.0000 25.0101
#
#
#
# Elastic Compliance Matrix: (Units=1/GPa)
#
#
# Indices 1 2 3 4 5 6 
#
# 1 0.010547 -0.002834 -0.003722 0.000000 0.000000 0.000000
# 2 -0.002834 0.022586 -0.010286 0.000000 0.000000 0.000000
# 3 -0.003722 -0.010286 0.026943 0.000000 0.000000 0.000000
# 4 0.000000 0.000000 0.000000 0.371264 0.000000 0.000000
# 5 0.000000 0.000000 0.000000 0.000000 0.115277 0.000000
# 6 0.000000 0.000000 0.000000 0.000000 0.000000 0.039984
#
#
# Mechanical properties :
#
#
# Convention : Reuss Voigt Hill
#
# Bulk Modulus (GPa) = 37.89139 41.38754 39.63946
# Shear Modulus (GPa) = 7.94806 16.87935 12.41371
#
# Velocity S-wave (km/s) = 2.08029 3.03159 2.59982
# Velocity P-wave (km/s) = 5.13823 5.89822 5.53129
#
# Compressibility (1/GPa) = 0.02639122
#
# Stress axis : x y z
#
# Youngs Moduli (GPa) = 94.81135 44.27440 37.11572
#
# Poissons Ratio (x) = 0.12549 0.13816
# Poissons Ratio (y) = 0.26873 0.38177
# Poissons Ratio (z) = 0.35292 0.45540
#
# Static dielectric constant tensor:
#      x y z
#    x 1.654650 0.000000 0.000000 
#    y 0.000000 1.663050 0.000000 
#    z 0.000000 0.000000 1.605890 
# 
# From -- ./inp_files/25843.got.cif
#   From: 2010.05.17/outbox.cif.g08.bks.cpg/sg51_13_cif.got.tgz:25843.got - 2010.06.03 11:52:47.
