data_PCOD9404572
_publ_section_title
;
Structure prediction by ZEFSAII (Michael W. Deem and Ramdas Pophale) SiO2 
 PCOD9404572
Probable space group: P M M A
;
_chemical_formula_sum "Si O2"
_cell_formula_units_Z 56
_cell_length_a 9.140221
_cell_length_b 16.643565
_cell_length_c 19.812299
_cell_angle_alpha 90.000000
_cell_angle_beta 90.000000
_cell_angle_gamma 90.000000
_cell_volume 3013.963070
_symmetry_space_group_name_H-M "P M M A"
_symmetry_group_IT_number 51
_symmetry_cell_setting 'orthorhombic'
loop_
_space_group_symop_operation_xyz
x,y,z
1/2-x,-y,z
1/2+x,-y,-z
-x,y,-z
-x,-y,-z
1/2+x,y,-z
1/2-x,y,z
x,-y,z
loop_
_atom_site_type_symbol
_atom_site_label
_atom_site_fract_x
_atom_site_fract_y
_atom_site_fract_z
Si Si1 0.920411 0.500000 0.901067
Si Si2 0.577991 0.325178 0.301311
Si Si3 0.084526 0.660135 0.941061
Si Si4 0.918613 0.213513 0.177619
Si Si5 0.083026 0.500000 0.766644
Si Si6 0.423187 0.904127 0.073127
Si Si7 0.074980 0.737704 0.426760
Si Si8 0.925374 0.084865 0.573230
O O1 0.750000 0.500000 0.914818
O O2 0.997373 0.578991 0.928821
O O3 0.958340 0.500000 0.822358
O O4 0.750000 0.309393 0.314267
O O5 0.528801 0.256602 0.246953
O O6 0.569528 0.415879 0.272628
O O7 0.487832 0.320155 0.370058
O O8 0.250000 0.643599 0.961350
O O9 0.085668 0.711644 0.873842
O O10 0.000000 0.706056 0.000000
O O11 0.750000 0.185759 0.187297
O O12 0.008575 0.146377 0.135816
O O13 0.250000 0.500000 0.796991
O O14 0.250000 0.885788 0.067293
O O15 0.439435 0.000000 0.086163
O O16 0.500000 0.889267 0.000000
O O17 0.250000 0.731243 0.433912
O O18 0.036778 0.827782 0.399160
O O19 0.000000 0.727985 0.500000
O O20 0.750000 0.084801 0.565078
O O21 0.000000 0.083253 0.500000
O O22 0.965797 0.000000 0.608013
#
# Coordination Sequence:
#
# PCOD9404572 Si02
#       8
#     4   8   8   8   4   8   8   8
#     4  12  23  35  54  81 110 145 184 227 274 331
#     4  10  21  39  62  85 110 144 184 230 289 347
#     4  11  22  37  54  78 112 148 185 228 279 330
#     4  10  21  37  59  83 110 146 188 235 286 341
#     4  10  20  41  64  81 108 147 186 231 286 349
#     4  10  21  37  58  84 116 155 198 244 291 337
#     4  10  20  35  57  85 116 149 186 234 283 338
#     4   8  14  26  46  73 105 140 174 208 252 307
#
# _framework density 18.580189000000001
#
# number of rings (size 3 to 8) (size 9 to 14) (size 15 to 20)
#    0.000    2.000    1.429    2.571    0.000    4.857 
#    0.000    1.071    0.000    2.571    0.000    0.000 
#    0.000    0.000    0.000    0.000    0.000    0.000 
#
# Total GULP energy -311998.454931 kJ/mol
# GULP energy per Si atom -5571.400981 kJ/mol
# Density = 1.853790 g / cm^3
# Si number density = 18.580189 Si / 1000 Ang^3
#
#
#
# Elastic Constant Matrix: (Units=GPa)
#
#
# Indices 1 2 3 4 5 6 
#
# 1 93.1311 44.4590 46.6454 0.0000 0.0000 0.0000
# 2 44.4590 81.2372 28.6736 0.0000 0.0000 0.0000
# 3 46.6454 28.6736 94.1579 0.0000 0.0000 0.0000
# 4 0.0000 0.0000 0.0000 -767.8787 0.0000 0.0000
# 5 0.0000 0.0000 0.0000 0.0000 27.6875 0.0000
# 6 0.0000 0.0000 0.0000 0.0000 0.0000 20.5923
#
#
#
# Elastic Compliance Matrix: (Units=1/GPa)
#
#
# Indices 1 2 3 4 5 6 
#
# 1 0.017422 -0.007270 -0.006417 0.000000 0.000000 0.000000
# 2 -0.007270 0.016825 -0.001522 0.000000 0.000000 0.000000
# 3 -0.006417 -0.001522 0.014263 0.000000 0.000000 0.000000
# 4 0.000000 0.000000 0.000000 -0.001302 0.000000 0.000000
# 5 0.000000 0.000000 0.000000 0.000000 0.036117 0.000000
# 6 0.000000 0.000000 0.000000 0.000000 0.000000 0.048562
#
#
# Mechanical properties :
#
#
# Convention : Reuss Voigt Hill
#
# Bulk Modulus (GPa) = 55.27203 56.45358 55.86281
# Shear Modulus (GPa) = 29.70248 -134.00323 -52.15037
#
# Velocity S-wave (km/s) = 4.00260 -8.50165 -5.30365
# Velocity P-wave (km/s) = 7.15356 8.11918 2.71548
#
# Compressibility (1/GPa) = 0.01809233
#
# Stress axis : x y z
#
# Youngs Moduli (GPa) = 57.39909 59.43362 70.11146
#
# Poissons Ratio (x) = 0.43206 0.44990
# Poissons Ratio (y) = 0.41727 0.10674
# Poissons Ratio (z) = 0.36833 0.09049
#
# Static dielectric constant tensor:
#      x y z
#    x 1.623240 0.000000 0.000000 
#    y 0.000000 1.691390 0.000000 
#    z 0.000000 0.000000 1.649620 
# 
# From -- ./inp_files/32110.got.cif
#   From: 2010.05.17/outbox.cif.g08.bks.cpg/sg51_17_cif.got.tgz:32110.got - 2010.06.03 11:52:47.
