data_PCOD9404651
_publ_section_title
;
Structure prediction by ZEFSAII (Michael W. Deem and Ramdas Pophale) SiO2 
 PCOD9404651
Probable space group: P M M A
;
_chemical_formula_sum "Si O2"
_cell_formula_units_Z 64
_cell_length_a 19.099885
_cell_length_b 8.737077
_cell_length_c 20.362441
_cell_angle_alpha 90.000000
_cell_angle_beta 90.000000
_cell_angle_gamma 90.000000
_cell_volume 3398.026446
_symmetry_space_group_name_H-M "P M M A"
_symmetry_group_IT_number 51
_symmetry_cell_setting 'orthorhombic'
loop_
_space_group_symop_operation_xyz
x,y,z
1/2-x,-y,z
1/2+x,-y,-z
-x,y,-z
-x,-y,-z
1/2+x,y,-z
1/2-x,y,z
x,-y,z
loop_
_atom_site_type_symbol
_atom_site_label
_atom_site_fract_x
_atom_site_fract_y
_atom_site_fract_z
Si Si1 0.417988 0.816037 0.838410
Si Si2 0.169203 0.684701 0.469742
Si Si3 0.076510 0.683048 0.595391
Si Si4 0.830264 0.315338 0.893213
Si Si5 0.918909 0.815783 0.012537
Si Si6 0.830899 0.183884 0.288216
Si Si7 0.438452 0.316467 0.218637
Si Si8 0.930330 0.182018 0.635434
O O1 0.400474 0.771053 0.912855
O O2 0.358539 0.781810 0.784904
O O3 0.489384 0.738295 0.814388
O O4 0.429183 0.000000 0.838306
O O5 0.250000 0.729472 0.479574
O O6 0.166580 0.500000 0.464906
O O7 0.121351 0.729878 0.531780
O O8 0.135746 0.755886 0.404839
O O9 0.068178 0.500000 0.594431
O O10 0.119943 0.733355 0.659403
O O11 0.000431 0.758123 0.599456
O O12 0.750000 0.262453 0.890268
O O13 0.830373 0.500000 0.894723
O O14 0.875383 0.268793 0.829583
O O15 0.869399 0.256028 0.957878
O O16 0.914418 0.000000 0.007199
O O17 0.000000 0.772609 0.000000
O O18 0.750000 0.227215 0.296680
O O19 0.837010 0.000000 0.297658
O O20 0.438829 0.500000 0.224388
O O21 0.431845 0.245317 0.290622
O O22 0.930824 0.000000 0.636689
#
# Coordination Sequence:
#
# PCOD9404651 Si02
#       8
#     8   8   8   8   8   8   8   8
#     4  10  20  36  58  85 120 156 195 244 296 355
#     4  10  23  43  64  88 122 161 200 247 301 357
#     4  11  22  39  64  92 120 157 204 248 296 354
#     4  10  23  41  60  87 122 158 201 252 305 360
#     4  10  20  35  59  89 119 155 200 245 294 354
#     4  10  21  36  56  85 121 160 197 240 299 357
#     4  11  22  38  62  88 116 157 204 250 303 360
#     4  12  25  40  62  92 124 157 201 253 303 360
#
# _framework density 18.834463
#
# number of rings (size 3 to 8) (size 9 to 14) (size 15 to 20)
#    0.000    1.500    2.500    2.625    0.000    6.000 
#    0.000    2.500    0.000    0.000    0.000    0.000 
#    0.000    0.000    0.000    0.000    0.000    0.000 
#
# Total GULP energy -357726.014933 kJ/mol
# GULP energy per Si atom -5589.468983 kJ/mol
# Density = 1.879159 g / cm^3
# Si number density = 18.834463 Si / 1000 Ang^3
#
#
#
# Elastic Constant Matrix: (Units=GPa)
#
#
# Indices 1 2 3 4 5 6 
#
# 1 90.2993 20.7548 47.8033 0.0000 0.0000 0.0000
# 2 20.7548 22.7889 31.1887 0.0000 0.0000 0.0000
# 3 47.8033 31.1887 118.2565 0.0000 0.0000 0.0000
# 4 0.0000 0.0000 0.0000 62.6165 0.0000 0.0000
# 5 0.0000 0.0000 0.0000 0.0000 30.8175 0.0000
# 6 0.0000 0.0000 0.0000 0.0000 0.0000 133.2921
#
#
#
# Elastic Compliance Matrix: (Units=1/GPa)
#
#
# Indices 1 2 3 4 5 6 
#
# 1 0.015056 -0.008423 -0.003865 0.000000 0.000000 0.000000
# 2 -0.008423 0.073378 -0.015948 0.000000 0.000000 0.000000
# 3 -0.003865 -0.015948 0.014224 0.000000 0.000000 0.000000
# 4 0.000000 0.000000 0.000000 0.015970 0.000000 0.000000
# 5 0.000000 0.000000 0.000000 0.000000 0.032449 0.000000
# 6 0.000000 0.000000 0.000000 0.000000 0.000000 0.007502
#
#
# Mechanical properties :
#
#
# Convention : Reuss Voigt Hill
#
# Bulk Modulus (GPa) = 21.65072 47.87092 34.76082
# Shear Modulus (GPa) = 21.69691 54.11842 37.90767
#
# Velocity S-wave (km/s) = 3.39776 5.36620 4.49115
# Velocity P-wave (km/s) = 5.18780 7.99166 6.73721
#
# Compressibility (1/GPa) = 0.04618785
#
# Stress axis : x y z
#
# Youngs Moduli (GPa) = 66.41774 13.62803 70.30133
#
# Poissons Ratio (x) = 0.11479 0.27170
# Poissons Ratio (y) = 0.55944 1.12115
# Poissons Ratio (z) = 0.25669 0.21734
#
# Static dielectric constant tensor:
#      x y z
#    x 1.627660 0.000000 0.000000 
#    y 0.000000 1.636000 0.000000 
#    z 0.000000 0.000000 1.635090 
# 
# From -- ./inp_files/33978.got.cif
#   From: 2010.05.17/outbox.cif.g08.bks.cpg/sg51_17_cif.got.tgz:33978.got - 2010.06.03 11:52:47.
