data_PCOD9404084
_publ_section_title
;
Structure prediction by ZEFSAII (Michael W. Deem and Ramdas Pophale) SiO2 
 PCOD9404084
Probable space group: P M M A
;
_chemical_formula_sum "Si O2"
_cell_formula_units_Z 40
_cell_length_a 9.924311
_cell_length_b 19.680442
_cell_length_c 11.087612
_cell_angle_alpha 90.000000
_cell_angle_beta 90.000000
_cell_angle_gamma 90.000000
_cell_volume 2165.575020
_symmetry_space_group_name_H-M "P M M A"
_symmetry_group_IT_number 51
_symmetry_cell_setting 'orthorhombic'
loop_
_space_group_symop_operation_xyz
x,y,z
1/2-x,-y,z
1/2+x,-y,-z
-x,y,-z
-x,-y,-z
1/2+x,y,-z
1/2-x,y,z
x,-y,z
loop_
_atom_site_type_symbol
_atom_site_label
_atom_site_fract_x
_atom_site_fract_y
_atom_site_fract_z
Si Si1 0.399209 0.150094 0.203652
Si Si2 0.895538 0.000000 0.895573
Si Si3 0.597916 0.786556 0.387331
Si Si4 0.601521 0.342522 0.216803
Si Si5 0.093418 0.418223 0.383584
Si Si6 0.500000 0.749843 0.000000
O O1 0.250000 0.165416 0.254872
O O2 0.521549 0.166330 0.291644
O O3 0.416175 0.198442 0.085725
O O4 0.405432 0.070363 0.175357
O O5 0.750000 0.000000 0.955634
O O6 0.000000 0.000000 0.000000
O O7 0.500000 0.781570 0.500000
O O8 0.750000 0.808585 0.416538
O O9 0.606002 0.714638 0.320274
O O10 0.750000 0.375865 0.211261
O O11 0.481071 0.390412 0.263540
O O12 0.574929 0.300598 0.093626
O O13 0.250000 0.394160 0.394726
O O14 0.096924 0.500000 0.378887
O O15 0.000000 0.400337 0.500000
#
# Coordination Sequence:
#
# PCOD9404084 Si02
#       6
#     8   4   8   8   8   4
#     4  10  20  35  56  81 110 142 180 224 272 322
#     4  10  20  34  55  82 109 142 181 225 271 323
#     4  10  21  36  55  80 110 142 180 223 272 326
#     4  10  21  35  55  83 111 143 181 222 270 321
#     4  10  21  37  58  83 110 142 180 223 269 318
#     4  10  20  35  57  80 112 144 182 222 270 316
#
# _framework density 18.470845000000001
#
# number of rings (size 3 to 8) (size 9 to 14) (size 15 to 20)
#    0.000    2.000    1.000    2.400    0.000    9.200 
#    0.000    1.000    0.000    0.000    0.000    0.000 
#    0.000    0.000    0.000    0.000    0.000    0.000 
#
# Total GULP energy -222830.804101 kJ/mol
# GULP energy per Si atom -5570.770103 kJ/mol
# Density = 1.842880 g / cm^3
# Si number density = 18.470845 Si / 1000 Ang^3
#
#
#
# Elastic Constant Matrix: (Units=GPa)
#
#
# Indices 1 2 3 4 5 6 
#
# 1 169.2172 34.7682 60.7742 0.0000 0.0000 0.0000
# 2 34.7682 44.1298 22.9419 0.0000 0.0000 0.0000
# 3 60.7742 22.9419 94.6228 0.0000 0.0000 0.0000
# 4 0.0000 0.0000 0.0000 7.5605 0.0000 0.0000
# 5 0.0000 0.0000 0.0000 0.0000 -0.2315 0.0000
# 6 0.0000 0.0000 0.0000 0.0000 0.0000 21.2106
#
#
#
# Elastic Compliance Matrix: (Units=1/GPa)
#
#
# Indices 1 2 3 4 5 6 
#
# 1 0.008349 -0.004337 -0.004311 0.000000 0.000000 0.000000
# 2 -0.004337 0.028181 -0.004047 0.000000 0.000000 0.000000
# 3 -0.004311 -0.004047 0.014318 0.000000 0.000000 0.000000
# 4 0.000000 0.000000 0.000000 0.132266 0.000000 0.000000
# 5 0.000000 0.000000 0.000000 0.000000 -4.320008 0.000000
# 6 0.000000 0.000000 0.000000 0.000000 0.000000 0.047146
#
#
# Mechanical properties :
#
#
# Convention : Reuss Voigt Hill
#
# Bulk Modulus (GPa) = 39.27933 60.54872 49.91402
# Shear Modulus (GPa) = -1.23278 18.34031 8.55376
#
# Velocity S-wave (km/s) = -0.81784 3.15450 2.15430
# Velocity P-wave (km/s) = 4.51884 6.79115 5.76800
#
# Compressibility (1/GPa) = 0.02545869
#
# Stress axis : x y z
#
# Youngs Moduli (GPa) = 119.77743 35.48460 69.84051
#
# Poissons Ratio (x) = 0.15388 0.30107
# Poissons Ratio (y) = 0.51943 0.28267
# Poissons Ratio (z) = 0.51634 0.14362
#
# Static dielectric constant tensor:
#      x y z
#    x 1.675430 0.000000 0.000000 
#    y 0.000000 1.511610 0.000000 
#    z 0.000000 0.000000 1.639380 
# 
# From -- ./inp_files/14251.got.cif
#   From: 2010.05.17/outbox.cif.g08.bks.cpg/sg51_8_cif.got.tgz:14251.got - 2010.06.03 11:52:47.
