data_PCOD9404017
_publ_section_title
;
Structure prediction by ZEFSAII (Michael W. Deem and Ramdas Pophale) SiO2 
 PCOD9404017
Probable space group: P M M A
;
_chemical_formula_sum "Si O2"
_cell_formula_units_Z 64
_cell_length_a 23.601241
_cell_length_b 13.520089
_cell_length_c 9.693639
_cell_angle_alpha 90.000000
_cell_angle_beta 90.000000
_cell_angle_gamma 90.000000
_cell_volume 3093.151788
_symmetry_space_group_name_H-M "P M M A"
_symmetry_group_IT_number 51
_symmetry_cell_setting 'orthorhombic'
loop_
_space_group_symop_operation_xyz
x,y,z
1/2-x,-y,z
1/2+x,-y,-z
-x,y,-z
-x,-y,-z
1/2+x,y,-z
1/2-x,y,z
x,-y,z
loop_
_atom_site_type_symbol
_atom_site_label
_atom_site_fract_x
_atom_site_fract_y
_atom_site_fract_z
Si Si1 0.599591 0.114493 0.628917
Si Si2 0.688342 0.201920 0.822547
Si Si3 0.816563 0.882966 0.368763
Si Si4 0.523923 0.692746 0.647361
Si Si5 0.450009 0.383467 0.889360
Si Si6 0.814124 0.389009 0.368490
Si Si7 0.356211 0.385684 0.340161
Si Si8 0.655821 0.748157 0.123407
O O1 0.638218 0.134276 0.763698
O O2 0.643111 0.134397 0.501420
O O3 0.549210 0.195476 0.635301
O O4 0.581050 0.000000 0.621115
O O5 0.750000 0.163513 0.779742
O O6 0.678358 0.309416 0.752753
O O7 0.686061 0.214623 0.986522
O O8 0.750000 0.846940 0.382727
O O9 0.846932 0.837236 0.234022
O O10 0.812823 0.000000 0.352835
O O11 0.500000 0.662887 0.500000
O O12 0.474188 0.669264 0.753080
O O13 0.577781 0.627610 0.693636
O O14 0.435267 0.500000 0.869512
O O15 0.398646 0.312043 0.931026
O O16 0.500000 0.380553 0.000000
O O17 0.750000 0.389474 0.421027
O O18 0.832395 0.500000 0.339346
O O19 0.850319 0.354434 0.498957
O O20 0.816074 0.331018 0.226615
O O21 0.338700 0.500000 0.326993
#
# Coordination Sequence:
#
# PCOD9404017 Si02
#       8
#     8   8   8   8   8   8   8   8
#     4  10  22  41  64  89 117 151 194 240 290 352
#     4  11  23  37  58  88 120 156 194 238 295 352
#     4  10  21  39  64  91 120 156 193 233 288 352
#     4  11  22  37  60  88 115 147 193 248 295 337
#     4  11  24  42  61  81 113 158 201 241 290 346
#     4  10  20  34  54  81 114 152 189 230 287 350
#     4  10  21  37  56  82 118 157 199 242 285 342
#     4  12  23  38  59  85 118 151 194 246 292 345
#
# _framework density 20.69087
#
# number of rings (size 3 to 8) (size 9 to 14) (size 15 to 20)
#    0.000    1.375    0.000    7.125    0.000    6.250 
#    0.000    0.625    0.000    1.500    0.000    0.000 
#    0.000    0.000    0.000    0.000    0.000    0.000 
#
# Total GULP energy -357122.359718 kJ/mol
# GULP energy per Si atom -5580.036871 kJ/mol
# Density = 2.064378 g / cm^3
# Si number density = 20.690870 Si / 1000 Ang^3
#
#
#
# Elastic Constant Matrix: (Units=GPa)
#
#
# Indices 1 2 3 4 5 6 
#
# 1 33.1966 -10.8233 -17.4426 0.0000 0.0000 0.0000
# 2 -10.8233 101.7351 15.7659 0.0000 0.0000 0.0000
# 3 -17.4426 15.7659 82.3960 0.0000 0.0000 0.0000
# 4 0.0000 0.0000 0.0000 15.2837 0.0000 0.0000
# 5 0.0000 0.0000 0.0000 0.0000 32.9286 0.0000
# 6 0.0000 0.0000 0.0000 0.0000 0.0000 18.9038
#
#
#
# Elastic Compliance Matrix: (Units=1/GPa)
#
#
# Indices 1 2 3 4 5 6 
#
# 1 0.034558 0.002621 0.006814 0.000000 0.000000 0.000000
# 2 0.002621 0.010329 -0.001422 0.000000 0.000000 0.000000
# 3 0.006814 -0.001422 0.013851 0.000000 0.000000 0.000000
# 4 0.000000 0.000000 0.000000 0.065429 0.000000 0.000000
# 5 0.000000 0.000000 0.000000 0.000000 0.030369 0.000000
# 6 0.000000 0.000000 0.000000 0.000000 0.000000 0.052899
#
#
# Mechanical properties :
#
#
# Convention : Reuss Voigt Hill
#
# Bulk Modulus (GPa) = 13.37528 21.36974 17.37251
# Shear Modulus (GPa) = 23.11281 28.74507 25.92894
#
# Velocity S-wave (km/s) = 3.34586 3.73133 3.54384
# Velocity P-wave (km/s) = 4.62653 5.37720 5.01593
#
# Compressibility (1/GPa) = 0.07476478
#
# Stress axis : x y z
#
# Youngs Moduli (GPa) = 28.93646 96.81913 72.19665
#
# Poissons Ratio (x) = -0.25372 -0.49197
# Poissons Ratio (y) = -0.07583 0.10263
# Poissons Ratio (z) = -0.19718 0.13763
#
# Static dielectric constant tensor:
#      x y z
#    x 1.588470 0.000000 0.000000 
#    y 0.000000 2.356920 0.000000 
#    z 0.000000 0.000000 1.720710 
# 
# From -- ./inp_files/11847.got.cif
#   From: 2010.05.17/outbox.cif.g08.bks.cpg/sg51_6_cif.got.tgz:11847.got - 2010.06.03 11:52:47.
