data_PCOD9404139
_publ_section_title
;
Structure prediction by ZEFSAII (Michael W. Deem and Ramdas Pophale) SiO2 
 PCOD9404139
Probable space group: P M M A
;
_chemical_formula_sum "Si O2"
_cell_formula_units_Z 48
_cell_length_a 8.818680
_cell_length_b 14.526146
_cell_length_c 21.026230
_cell_angle_alpha 90.000000
_cell_angle_beta 90.000000
_cell_angle_gamma 90.000000
_cell_volume 2693.490198
_symmetry_space_group_name_H-M "P M M A"
_symmetry_group_IT_number 51
_symmetry_cell_setting 'orthorhombic'
loop_
_space_group_symop_operation_xyz
x,y,z
1/2-x,-y,z
1/2+x,-y,-z
-x,y,-z
-x,-y,-z
1/2+x,y,-z
1/2-x,y,z
x,-y,z
loop_
_atom_site_type_symbol
_atom_site_label
_atom_site_fract_x
_atom_site_fract_y
_atom_site_fract_z
Si Si1 0.929963 0.711218 0.565509
Si Si2 0.570345 0.894232 0.755282
Si Si3 0.068159 0.719470 0.814252
Si Si4 0.068725 0.895045 0.614623
Si Si5 0.431826 0.392106 0.686115
Si Si6 0.068650 0.392022 0.068974
O O1 0.750000 0.709501 0.562299
O O2 0.000000 0.674507 0.500000
O O3 0.987879 0.815698 0.575212
O O4 0.987754 0.654480 0.626253
O O5 0.750000 0.878685 0.745791
O O6 0.502569 0.819766 0.802953
O O7 0.486092 0.884016 0.687550
O O8 0.549151 0.000000 0.776129
O O9 0.250000 0.724790 0.817917
O O10 0.027901 0.659979 0.751334
O O11 0.002759 0.669588 0.875972
O O12 0.250000 0.883201 0.611548
O O13 0.031377 0.000000 0.595126
O O14 0.250000 0.382921 0.677691
O O15 0.468517 0.500000 0.690736
O O16 0.250000 0.381598 0.067665
O O17 0.033767 0.500000 0.081519
O O18 0.000000 0.369329 0.000000
#
# Coordination Sequence:
#
# PCOD9404139 Si02
#       6
#     8   8   8   8   8   8
#     4  12  25  40  59  80 109 147 188 235 289 346
#     4  10  20  34  55  85 118 151 189 233 281 333
#     4  11  21  35  60  89 119 154 192 234 283 336
#     4  10  20  36  58  83 112 145 183 229 283 342
#     4  10  22  40  60  83 112 146 188 236 284 337
#     4  10  21  37  58  86 122 160 198 239 284 337
#
# _framework density 17.820744000000001
#
# number of rings (size 3 to 8) (size 9 to 14) (size 15 to 20)
#    0.000    1.500    1.667    4.000    0.000    5.333 
#    0.000    0.000    0.000    0.500    0.000    0.000 
#    0.000    0.000    0.000    0.000    0.000    0.000 
#
# Total GULP energy -268307.779619 kJ/mol
# GULP energy per Si atom -5589.745409 kJ/mol
# Density = 1.778018 g / cm^3
# Si number density = 17.820744 Si / 1000 Ang^3
#
#
#
# Elastic Constant Matrix: (Units=GPa)
#
#
# Indices 1 2 3 4 5 6 
#
# 1 73.4234 52.3219 50.2426 0.0000 0.0000 0.0000
# 2 52.3219 94.8490 60.5201 0.0000 0.0000 0.0000
# 3 50.2426 60.5201 117.4581 0.0000 0.0000 0.0000
# 4 0.0000 0.0000 0.0000 12.4308 0.0000 0.0000
# 5 0.0000 0.0000 0.0000 0.0000 32.5395 0.0000
# 6 0.0000 0.0000 0.0000 0.0000 0.0000 29.4930
#
#
#
# Elastic Compliance Matrix: (Units=1/GPa)
#
#
# Indices 1 2 3 4 5 6 
#
# 1 0.024416 -0.010138 -0.005221 0.000000 0.000000 0.000000
# 2 -0.010138 0.019916 -0.005925 0.000000 0.000000 0.000000
# 3 -0.005221 -0.005925 0.013800 0.000000 0.000000 0.000000
# 4 0.000000 0.000000 0.000000 0.080445 0.000000 0.000000
# 5 0.000000 0.000000 0.000000 0.000000 0.030732 0.000000
# 6 0.000000 0.000000 0.000000 0.000000 0.000000 0.033906
#
#
# Mechanical properties :
#
#
# Convention : Reuss Voigt Hill
#
# Bulk Modulus (GPa) = 64.24728 67.98884 66.11806
# Shear Modulus (GPa) = 19.92261 23.06905 21.49583
#
# Velocity S-wave (km/s) = 3.34720 3.60183 3.47684
# Velocity P-wave (km/s) = 7.14622 7.45197 7.30070
#
# Compressibility (1/GPa) = 0.01556486
#
# Stress axis : x y z
#
# Youngs Moduli (GPa) = 40.95640 50.21048 72.46471
#
# Poissons Ratio (x) = 0.50902 0.37831
# Poissons Ratio (y) = 0.41520 0.42938
# Poissons Ratio (z) = 0.21382 0.29752
#
# Static dielectric constant tensor:
#      x y z
#    x 1.591590 0.000000 0.000000 
#    y 0.000000 1.609960 0.000000 
#    z 0.000000 0.000000 1.579850 
# 
# From -- ./inp_files/27513.got.cif
#   From: 2010.05.17/outbox.cif.g08.bks.cpg/sg51_14_cif.got.tgz:27513.got - 2010.06.03 11:52:47.
