data_PCOD9404062
_publ_section_title
;
Structure prediction by ZEFSAII (Michael W. Deem and Ramdas Pophale) SiO2 
 PCOD9404062
Probable space group: P M M A
;
_chemical_formula_sum "Si O2"
_cell_formula_units_Z 44
_cell_length_a 8.589557
_cell_length_b 29.800880
_cell_length_c 9.320935
_cell_angle_alpha 90.000000
_cell_angle_beta 90.000000
_cell_angle_gamma 90.000000
_cell_volume 2385.938989
_symmetry_space_group_name_H-M "P M M A"
_symmetry_group_IT_number 51
_symmetry_cell_setting 'orthorhombic'
loop_
_space_group_symop_operation_xyz
x,y,z
1/2-x,-y,z
1/2+x,-y,-z
-x,y,-z
-x,-y,-z
1/2+x,y,-z
1/2-x,y,z
x,-y,z
loop_
_atom_site_type_symbol
_atom_site_label
_atom_site_fract_x
_atom_site_fract_y
_atom_site_fract_z
Si Si1 0.936143 0.673276 0.162418
Si Si2 0.062664 0.415241 0.661694
Si Si3 0.436582 0.766695 0.163151
Si Si4 0.561906 0.950531 0.661248
Si Si5 0.436116 0.500000 0.161864
Si Si6 0.438078 0.864711 0.161526
O O1 0.750000 0.674888 0.153473
O O2 0.982577 0.631165 0.259721
O O3 0.995901 0.720691 0.225116
O O4 0.000000 0.667978 0.000000
O O5 0.250000 0.418090 0.659727
O O6 0.000000 0.416815 0.500000
O O7 0.996299 0.456416 0.753472
O O8 0.250000 0.763567 0.160904
O O9 0.481859 0.815589 0.224359
O O10 0.500000 0.767467 0.000000
O O11 0.500000 0.947328 0.500000
O O12 0.750000 0.949225 0.658451
O O13 0.505937 0.907842 0.751008
O O14 0.515835 0.000000 0.718505
O O15 0.250000 0.500000 0.158477
O O16 0.500000 0.500000 0.000000
O O17 0.250000 0.865800 0.157147
O O18 0.500000 0.867292 0.000000
#
# Coordination Sequence:
#
# PCOD9404062 Si02
#       6
#     8   8   8   8   4   8
#     4  10  20  34  55  81 107 138 178 219 259 307
#     4  11  24  41  60  84 115 149 183 222 270 318
#     4   9  16  28  48  72 101 134 168 209 256 305
#     4   9  18  33  50  68  94 128 166 207 251 303
#     4  12  25  42  65  90 116 146 184 226 265 314
#     4   9  18  31  48  73 101 129 164 208 257 306
#
# _framework density 18.441376999999999
#
# number of rings (size 3 to 8) (size 9 to 14) (size 15 to 20)
#    0.000    2.182    0.000    4.364    0.000    6.182 
#    0.000    0.909    0.000    4.364    0.000    0.000 
#    0.000    0.000    0.000    0.000    0.000    0.000 
#
# Total GULP energy -245427.205000 kJ/mol
# GULP energy per Si atom -5577.891023 kJ/mol
# Density = 1.839940 g / cm^3
# Si number density = 18.441377 Si / 1000 Ang^3
#
#
#
# Elastic Constant Matrix: (Units=GPa)
#
#
# Indices 1 2 3 4 5 6 
#
# 1 42.7865 52.0242 25.7688 0.0000 0.0000 0.0000
# 2 52.0242 238.6641 90.9236 0.0000 0.0000 0.0000
# 3 25.7688 90.9236 89.3667 0.0000 0.0000 0.0000
# 4 0.0000 0.0000 0.0000 -31.4273 0.0000 0.0000
# 5 0.0000 0.0000 0.0000 0.0000 25.1309 0.0000
# 6 0.0000 0.0000 0.0000 0.0000 0.0000 -23.4399
#
#
#
# Elastic Compliance Matrix: (Units=1/GPa)
#
#
# Indices 1 2 3 4 5 6 
#
# 1 0.032468 -0.005733 -0.003529 0.000000 0.000000 0.000000
# 2 -0.005733 0.007854 -0.006338 0.000000 0.000000 0.000000
# 3 -0.003529 -0.006338 0.018656 0.000000 0.000000 0.000000
# 4 0.000000 0.000000 0.000000 -0.031819 0.000000 0.000000
# 5 0.000000 0.000000 0.000000 0.000000 0.039792 0.000000
# 6 0.000000 0.000000 0.000000 0.000000 0.000000 -0.042662
#
#
# Mechanical properties :
#
#
# Convention : Reuss Voigt Hill
#
# Bulk Modulus (GPa) = 36.00006 78.69452 57.34729
# Shear Modulus (GPa) = 77.22258 7.52611 42.37435
#
# Velocity S-wave (km/s) = 6.47808 2.02237 4.79872
# Velocity P-wave (km/s) = 8.69010 6.94397 7.86564
#
# Compressibility (1/GPa) = 0.02777774
#
# Stress axis : x y z
#
# Youngs Moduli (GPa) = 30.79951 127.32017 53.60212
#
# Poissons Ratio (x) = 0.72990 0.18919
# Poissons Ratio (y) = 0.17657 0.33973
# Poissons Ratio (z) = 0.10871 0.80696
#
# Static dielectric constant tensor:
#      x y z
#    x 1.626540 0.000000 0.000000 
#    y 0.000000 1.688030 0.000000 
#    z 0.000000 0.000000 1.573040 
# 
# From -- ./inp_files/5745.got.cif
#   From: 2010.05.17/outbox.cif.g08.bks.cpg/sg51_3_cif.got.tgz:5745.got - 2010.06.03 11:52:47.
