data_PCOD9404287
_publ_section_title
;
Structure prediction by ZEFSAII (Michael W. Deem and Ramdas Pophale) SiO2 
 PCOD9404287
Probable space group: P M M A
;
_chemical_formula_sum "Si O2"
_cell_formula_units_Z 56
_cell_length_a 22.070751
_cell_length_b 15.176075
_cell_length_c 9.937976
_cell_angle_alpha 90.000000
_cell_angle_beta 90.000000
_cell_angle_gamma 90.000000
_cell_volume 3328.698949
_symmetry_space_group_name_H-M "P M M A"
_symmetry_group_IT_number 51
_symmetry_cell_setting 'orthorhombic'
loop_
_space_group_symop_operation_xyz
x,y,z
1/2-x,-y,z
1/2+x,-y,-z
-x,y,-z
-x,-y,-z
1/2+x,y,-z
1/2-x,y,z
x,-y,z
loop_
_atom_site_type_symbol
_atom_site_label
_atom_site_fract_x
_atom_site_fract_y
_atom_site_fract_z
Si Si1 0.592754 0.400713 0.905189
Si Si2 0.180438 0.894427 0.000864
Si Si3 0.131256 0.897663 0.709409
Si Si4 0.390576 0.218074 0.213152
Si Si5 0.453421 0.401459 0.801879
Si Si6 0.679658 0.099928 0.583871
Si Si7 0.520340 0.770086 0.344728
O O1 0.617678 0.500000 0.886300
O O2 0.623036 0.319411 0.827428
O O3 0.523173 0.403627 0.853015
O O4 0.586692 0.382259 0.065210
O O5 0.250000 0.870251 0.034772
O O6 0.166915 0.874597 0.844866
O O7 0.174863 0.000000 0.020833
O O8 0.132193 0.842623 0.090837
O O9 0.171445 0.889400 0.575590
O O10 0.071512 0.840710 0.688047
O O11 0.113794 0.000000 0.721424
O O12 0.356149 0.176066 0.339935
O O13 0.461639 0.214449 0.250261
O O14 0.438408 0.500000 0.753421
O O15 0.451825 0.325266 0.692146
O O16 0.750000 0.103707 0.620574
O O17 0.657484 0.000000 0.618325
O O18 0.500000 0.774257 0.500000
#
# Coordination Sequence:
#
# PCOD9404287 Si02
#       7
#     8   8   8   8   8   8   8
#     4   8  15  29  49  74 102 135 171 208 255 310
#     4  10  21  37  56  78 101 130 180 233 262 292
#     4  10  21  36  53  73 104 144 175 209 261 315
#     4  11  20  32  53  80 107 137 167 213 268 311
#     4   8  15  29  49  71 101 139 175 209 247 299
#     4  10  20  35  54  73  97 137 184 219 252 301
#     4  11  21  33  48  78 115 142 171 207 261 326
#
# _framework density 16.82339
#
# number of rings (size 3 to 8) (size 9 to 14) (size 15 to 20)
#    0.000    2.286    1.429    3.000    0.000    6.286 
#    0.000    1.429    0.000    1.714    0.000    0.000 
#    0.000    3.429    0.000    0.000    0.000    0.000 
#
# Total GULP energy -312043.218547 kJ/mol
# GULP energy per Si atom -5572.200331 kJ/mol
# Density = 1.678510 g / cm^3
# Si number density = 16.823390 Si / 1000 Ang^3
#
#
#
# Elastic Constant Matrix: (Units=GPa)
#
#
# Indices 1 2 3 4 5 6 
#
# 1 47.0286 40.1735 18.6635 0.0000 0.0000 0.0000
# 2 40.1735 81.2368 42.7113 0.0000 0.0000 0.0000
# 3 18.6635 42.7113 76.3978 0.0000 0.0000 0.0000
# 4 0.0000 0.0000 0.0000 24.6204 0.0000 0.0000
# 5 0.0000 0.0000 0.0000 0.0000 -1.1278 0.0000
# 6 0.0000 0.0000 0.0000 0.0000 0.0000 -0.4096
#
#
#
# Elastic Compliance Matrix: (Units=1/GPa)
#
#
# Indices 1 2 3 4 5 6 
#
# 1 0.036969 -0.019168 0.001685 0.000000 0.000000 0.000000
# 2 -0.019168 0.027372 -0.010620 0.000000 0.000000 0.000000
# 3 0.001685 -0.010620 0.018615 0.000000 0.000000 0.000000
# 4 0.000000 0.000000 0.000000 0.040617 0.000000 0.000000
# 5 0.000000 0.000000 0.000000 0.000000 -0.886648 0.000000
# 6 0.000000 0.000000 0.000000 0.000000 0.000000 -2.441421
#
#
# Mechanical properties :
#
#
# Convention : Reuss Voigt Hill
#
# Bulk Modulus (GPa) = 37.38350 45.30666 41.34508
# Shear Modulus (GPa) = -1.59267 11.49091 4.94912
#
# Velocity S-wave (km/s) = -0.97404 2.61632 1.71703
# Velocity P-wave (km/s) = 4.58305 6.00967 5.34418
#
# Compressibility (1/GPa) = 0.02674977
#
# Stress axis : x y z
#
# Youngs Moduli (GPa) = 27.04984 36.53319 53.71927
#
# Poissons Ratio (x) = 0.70026 -0.09050
# Poissons Ratio (y) = 0.51848 0.57052
# Poissons Ratio (z) = -0.04557 0.38800
#
# Static dielectric constant tensor:
#      x y z
#    x 1.234870 0.000000 0.000000 
#    y 0.000000 1.579390 0.000000 
#    z 0.000000 0.000000 1.590200 
# 
# From -- ./inp_files/11005.got.cif
#   From: 2010.05.17/outbox.cif.g08.bks.cpg/sg51_6_cif.got.tgz:11005.got - 2010.06.03 11:52:47.
