data_PCOD9404397
_publ_section_title
;
Structure prediction by ZEFSAII (Michael W. Deem and Ramdas Pophale) SiO2 
 PCOD9404397
Probable space group: P M M A
;
_chemical_formula_sum "Si O2"
_cell_formula_units_Z 48
_cell_length_a 14.618702
_cell_length_b 9.717525
_cell_length_c 17.398182
_cell_angle_alpha 90.000000
_cell_angle_beta 90.000000
_cell_angle_gamma 90.000000
_cell_volume 2471.544017
_symmetry_space_group_name_H-M "P M M A"
_symmetry_group_IT_number 51
_symmetry_cell_setting 'orthorhombic'
loop_
_space_group_symop_operation_xyz
x,y,z
1/2-x,-y,z
1/2+x,-y,-z
-x,y,-z
-x,-y,-z
1/2+x,y,-z
1/2-x,y,z
x,-y,z
loop_
_atom_site_type_symbol
_atom_site_label
_atom_site_fract_x
_atom_site_fract_y
_atom_site_fract_z
Si Si1 0.609669 0.159664 0.999144
Si Si2 0.750000 0.834912 0.868063
Si Si3 0.642768 0.346654 0.144389
Si Si4 0.750000 0.167038 0.689905
Si Si5 0.106617 0.343271 0.587238
Si Si6 0.143453 0.847392 0.725877
Si Si7 0.386381 0.342227 0.409144
O O1 0.660908 0.200244 0.920032
O O2 0.636127 0.000000 0.015905
O O3 0.500000 0.163814 0.000000
O O4 0.638947 0.262959 0.065685
O O5 0.750000 0.787962 0.779741
O O6 0.750000 0.000000 0.862466
O O7 0.750000 0.362692 0.163540
O O8 0.602852 0.500000 0.139115
O O9 0.599293 0.252738 0.210924
O O10 0.663596 0.234092 0.645462
O O11 0.750000 0.000000 0.685080
O O12 0.133591 0.500000 0.608948
O O13 0.141880 0.229357 0.644988
O O14 0.136058 0.320141 0.499304
O O15 0.996379 0.335729 0.593209
O O16 0.250000 0.863153 0.747357
O O17 0.102148 0.000000 0.723782
O O18 0.360352 0.500000 0.389541
#
# Coordination Sequence:
#
# PCOD9404397 Si02
#       7
#     8   4   8   4   8   8   8
#     4  10  20  36  61  86 110 149 193 236 296 357
#     4   9  20  39  57  80 119 152 187 241 292 351
#     4  10  20  35  55  80 112 147 184 229 282 335
#     4  11  23  37  57  84 117 158 197 237 290 351
#     4   9  19  37  59  81 111 149 192 240 290 341
#     4  10  21  34  52  82 116 148 184 226 280 342
#     4   9  20  39  59  81 110 150 194 238 291 345
#
# _framework density 19.421057999999999
#
# number of rings (size 3 to 8) (size 9 to 14) (size 15 to 20)
#    0.000    2.333    0.833    2.250    1.167    4.667 
#    0.000    5.000    0.000    0.000    0.000    0.000 
#    0.000    0.000    0.000    0.000    0.000    0.000 
#
# Total GULP energy -267583.814866 kJ/mol
# GULP energy per Si atom -5574.662810 kJ/mol
# Density = 1.937685 g / cm^3
# Si number density = 19.421058 Si / 1000 Ang^3
#
#
#
# Elastic Constant Matrix: (Units=GPa)
#
#
# Indices 1 2 3 4 5 6 
#
# 1 68.5623 21.6385 22.9831 0.0000 0.0000 0.0000
# 2 21.6385 154.7409 90.7167 0.0000 0.0000 0.0000
# 3 22.9831 90.7167 127.0046 0.0000 0.0000 0.0000
# 4 0.0000 0.0000 0.0000 40.9088 0.0000 0.0000
# 5 0.0000 0.0000 0.0000 0.0000 84.5295 0.0000
# 6 0.0000 0.0000 0.0000 0.0000 0.0000 21.9174
#
#
#
# Elastic Compliance Matrix: (Units=1/GPa)
#
#
# Indices 1 2 3 4 5 6 
#
# 1 0.015601 -0.000906 -0.002176 0.000000 0.000000 0.000000
# 2 -0.000906 0.011171 -0.007815 0.000000 0.000000 0.000000
# 3 -0.002176 -0.007815 0.013850 0.000000 0.000000 0.000000
# 4 0.000000 0.000000 0.000000 0.024445 0.000000 0.000000
# 5 0.000000 0.000000 0.000000 0.000000 0.011830 0.000000
# 6 0.000000 0.000000 0.000000 0.000000 0.000000 0.045626
#
#
# Mechanical properties :
#
#
# Convention : Reuss Voigt Hill
#
# Bulk Modulus (GPa) = 53.11529 68.99827 61.05678
# Shear Modulus (GPa) = 33.20248 43.80244 38.50246
#
# Velocity S-wave (km/s) = 4.13923 4.75427 4.45737
# Velocity P-wave (km/s) = 7.08894 8.10815 7.61561
#
# Compressibility (1/GPa) = 0.01882697
#
# Stress axis : x y z
#
# Youngs Moduli (GPa) = 64.10002 89.52054 72.20408
#
# Poissons Ratio (x) = 0.08109 0.15713
# Poissons Ratio (y) = 0.05806 0.56428
# Poissons Ratio (z) = 0.13949 0.69961
#
# Static dielectric constant tensor:
#      x y z
#    x 1.744720 0.000000 0.000000 
#    y 0.000000 1.694740 0.000000 
#    z 0.000000 0.000000 1.667610 
# 
# From -- ./inp_files/29515.got.cif
#   From: 2010.05.17/outbox.cif.g08.bks.cpg/sg51_15_cif.got.tgz:29515.got - 2010.06.03 11:52:47.
