data_PCOD9404628
_publ_section_title
;
Structure prediction by ZEFSAII (Michael W. Deem and Ramdas Pophale) SiO2 
 PCOD9404628
Probable space group: P M M A
;
_chemical_formula_sum "Si O2"
_cell_formula_units_Z 24
_cell_length_a 13.761414
_cell_length_b 11.193854
_cell_length_c 7.099852
_cell_angle_alpha 90.000000
_cell_angle_beta 90.000000
_cell_angle_gamma 90.000000
_cell_volume 1093.684342
_symmetry_space_group_name_H-M "P M M A"
_symmetry_group_IT_number 51
_symmetry_cell_setting 'orthorhombic'
loop_
_space_group_symop_operation_xyz
x,y,z
1/2-x,-y,z
1/2+x,-y,-z
-x,y,-z
-x,-y,-z
1/2+x,y,-z
1/2-x,y,z
x,-y,z
loop_
_atom_site_type_symbol
_atom_site_label
_atom_site_fract_x
_atom_site_fract_y
_atom_site_fract_z
Si Si1 0.465685 0.000000 0.715541
Si Si2 0.750000 0.500000 0.862935
Si Si3 0.250000 0.000000 0.860160
Si Si4 0.750000 0.264715 0.129657
Si Si5 0.536172 0.256234 0.283458
Si Si6 0.956676 0.500000 0.710930
O O1 0.500000 0.000000 0.500000
O O2 0.498099 0.127913 0.795268
O O3 0.348556 0.000000 0.736718
O O4 0.842366 0.500000 0.728237
O O5 0.750000 0.379574 0.991894
O O6 0.250000 0.869939 0.962480
O O7 0.651963 0.267854 0.254713
O O8 0.500000 0.254036 0.500000
O O9 0.491949 0.376414 0.200703
O O10 0.000000 0.500000 0.500000
#
# Coordination Sequence:
#
# PCOD9404628 Si02
#       6
#     4   2   2   4   8   4
#     4   8  14  28  51  82 115 153 196 237 271 312
#     4  12  26  42  60  82 112 148 188 240 302 362
#     4   8  16  32  52  80 120 160 192 226 276 334
#     4  10  20  35  58  88 123 159 194 234 281 333
#     4   9  18  33  57  86 120 158 197 234 274 325
#     4  10  23  40  59  81 108 143 191 244 300 358
#
# _framework density 21.944175000000001
#
# number of rings (size 3 to 8) (size 9 to 14) (size 15 to 20)
#    0.000    2.667    0.000    1.000    0.000    8.000 
#    0.000    3.333    0.000    6.000    0.000    0.000 
#    0.000    0.000    0.000    0.000    0.000    0.000 
#
# Total GULP energy -133611.091991 kJ/mol
# GULP energy per Si atom -5567.128833 kJ/mol
# Density = 2.189423 g / cm^3
# Si number density = 21.944175 Si / 1000 Ang^3
#
#
#
# Elastic Constant Matrix: (Units=GPa)
#
#
# Indices 1 2 3 4 5 6 
#
# 1 113.1019 63.5841 27.4410 0.0000 0.0000 0.0000
# 2 63.5841 277.6754 33.6440 0.0000 0.0000 0.0000
# 3 27.4410 33.6440 124.0648 0.0000 0.0000 0.0000
# 4 0.0000 0.0000 0.0000 -36.4618 0.0000 0.0000
# 5 0.0000 0.0000 0.0000 0.0000 186.3843 0.0000
# 6 0.0000 0.0000 0.0000 0.0000 0.0000 26.8847
#
#
#
# Elastic Compliance Matrix: (Units=1/GPa)
#
#
# Indices 1 2 3 4 5 6 
#
# 1 0.010494 -0.002194 -0.001726 0.000000 0.000000 0.000000
# 2 -0.002194 0.004182 -0.000649 0.000000 0.000000 0.000000
# 3 -0.001726 -0.000649 0.008618 0.000000 0.000000 0.000000
# 4 0.000000 0.000000 0.000000 -0.027426 0.000000 0.000000
# 5 0.000000 0.000000 0.000000 0.000000 0.005365 0.000000
# 6 0.000000 0.000000 0.000000 0.000000 0.000000 0.037196
#
#
# Mechanical properties :
#
#
# Convention : Reuss Voigt Hill
#
# Bulk Modulus (GPa) = 70.63937 84.90889 77.77413
# Shear Modulus (GPa) = 95.62833 61.37296 78.50064
#
# Velocity S-wave (km/s) = 6.60853 5.29419 5.98753
# Velocity P-wave (km/s) = 9.51265 8.72631 9.12795
#
# Compressibility (1/GPa) = 0.01415641
#
# Stress axis : x y z
#
# Youngs Moduli (GPa) = 95.29543 239.10282 116.03527
#
# Poissons Ratio (x) = 0.52454 0.20029
# Poissons Ratio (y) = 0.20906 0.07530
# Poissons Ratio (z) = 0.16449 0.15516
#
# Static dielectric constant tensor:
#      x y z
#    x 1.758250 0.000000 0.000000 
#    y 0.000000 1.924610 0.000000 
#    z 0.000000 0.000000 1.692390 
# 
# From -- ./inp_files/6581.got.cif
#   From: 2010.05.17/outbox.cif.g08.bks.cpg/sg51_4_cif.got.tgz:6581.got - 2010.06.03 11:52:47.
