data_PCOD9404423
_publ_section_title
;
Structure prediction by ZEFSAII (Michael W. Deem and Ramdas Pophale) SiO2 
 PCOD9404423
Probable space group: P M M A
;
_chemical_formula_sum "Si O2"
_cell_formula_units_Z 64
_cell_length_a 21.793222
_cell_length_b 7.551707
_cell_length_c 17.503812
_cell_angle_alpha 90.000000
_cell_angle_beta 90.000000
_cell_angle_gamma 90.000000
_cell_volume 2880.707839
_symmetry_space_group_name_H-M "P M M A"
_symmetry_group_IT_number 51
_symmetry_cell_setting 'orthorhombic'
loop_
_space_group_symop_operation_xyz
x,y,z
1/2-x,-y,z
1/2+x,-y,-z
-x,y,-z
-x,-y,-z
1/2+x,y,-z
1/2-x,y,z
x,-y,z
loop_
_atom_site_type_symbol
_atom_site_label
_atom_site_fract_x
_atom_site_fract_y
_atom_site_fract_z
Si Si1 0.369556 0.209493 0.737599
Si Si2 0.002435 0.285482 0.329004
Si Si3 0.316669 0.787448 0.585128
Si Si4 0.889161 0.711490 0.784777
Si Si5 0.578194 0.711313 0.532594
Si Si6 0.819694 0.211656 0.934076
Si Si7 0.684765 0.715301 0.647657
Si Si8 0.321944 0.214157 0.895493
O O1 0.437358 0.231792 0.704061
O O2 0.324864 0.279441 0.671649
O O3 0.359686 0.281782 0.822689
O O4 0.356732 0.000000 0.742748
O O5 0.004963 0.500000 0.331368
O O6 0.052466 0.224405 0.265027
O O7 0.017893 0.226833 0.417608
O O8 0.250000 0.721979 0.554368
O O9 0.381066 0.749279 0.542405
O O10 0.313375 0.000000 0.585196
O O11 0.893860 0.500000 0.781354
O O12 0.871676 0.754460 0.871044
O O13 0.830917 0.767211 0.733599
O O14 0.570234 0.500000 0.529176
O O15 0.629648 0.768847 0.594290
O O16 0.750000 0.277019 0.914640
O O17 0.814719 0.000000 0.939201
O O18 0.836417 0.279154 0.018978
O O19 0.750000 0.784255 0.622832
O O20 0.685525 0.500000 0.644199
O O21 0.250000 0.249771 0.881688
O O22 0.329204 0.000000 0.898307
#
# Coordination Sequence:
#
# PCOD9404423 Si02
#       8
#     8   8   8   8   8   8   8   8
#     4  10  20  35  56  76  95 129 173 209 247 298
#     4   9  20  37  53  72 101 136 172 208 243 284
#     4  10  21  35  52  78 107 128 155 205 261 303
#     4   9  17  30  48  69  96 132 169 202 242 294
#     4   9  18  33  52  72  97 133 171 201 237 292
#     4   9  17  29  48  76 105 129 159 205 255 298
#     4   8  13  23  42  66  90 120 160 199 231 275
#     4   8  15  31  54  76  99 129 165 205 250 300
#
# _framework density 22.216760000000001
#
# number of rings (size 3 to 8) (size 9 to 14) (size 15 to 20)
#    0.000    3.000    0.000    3.375    0.000    5.000 
#    0.000    5.625    0.000   12.375    0.000    0.000 
#    0.000    0.000    0.000    0.000    0.000    0.000 
#
# Total GULP energy -356294.958559 kJ/mol
# GULP energy per Si atom -5567.108727 kJ/mol
# Density = 2.216619 g / cm^3
# Si number density = 22.216760 Si / 1000 Ang^3
#
#
#
# Elastic Constant Matrix: (Units=GPa)
#
#
# Indices 1 2 3 4 5 6 
#
# 1 58.9523 -13.2204 25.6617 0.0000 0.0000 0.0000
# 2 -13.2204 45.5650 -1.6611 0.0000 0.0000 0.0000
# 3 25.6617 -1.6611 152.7161 0.0000 0.0000 0.0000
# 4 0.0000 0.0000 0.0000 14.2082 0.0000 0.0000
# 5 0.0000 0.0000 0.0000 0.0000 -143.6135 0.0000
# 6 0.0000 0.0000 0.0000 0.0000 0.0000 33.3679
#
#
#
# Elastic Compliance Matrix: (Units=1/GPa)
#
#
# Indices 1 2 3 4 5 6 
#
# 1 0.019622 0.005575 -0.003237 0.000000 0.000000 0.000000
# 2 0.005575 0.023539 -0.000681 0.000000 0.000000 0.000000
# 3 -0.003237 -0.000681 0.007085 0.000000 0.000000 0.000000
# 4 0.000000 0.000000 0.000000 0.070382 0.000000 0.000000
# 5 0.000000 0.000000 0.000000 0.000000 -0.006963 0.000000
# 6 0.000000 0.000000 0.000000 0.000000 0.000000 0.029969
#
#
# Mechanical properties :
#
#
# Convention : Reuss Voigt Hill
#
# Bulk Modulus (GPa) = 18.67005 30.97708 24.82357
# Shear Modulus (GPa) = 31.61116 -2.77727 14.41695
#
# Velocity S-wave (km/s) = 3.77616 -1.11928 2.55016
# Velocity P-wave (km/s) = 5.23778 3.50756 4.45743
#
# Compressibility (1/GPa) = 0.05356173
#
# Stress axis : x y z
#
# Youngs Moduli (GPa) = 50.96321 42.48188 141.15227
#
# Poissons Ratio (x) = -0.23684 0.45685
# Poissons Ratio (y) = -0.28413 0.09609
# Poissons Ratio (z) = 0.16494 0.02892
#
# Static dielectric constant tensor:
#      x y z
#    x 1.851980 0.000000 0.000000 
#    y 0.000000 1.856560 0.000000 
#    z 0.000000 0.000000 1.872140 
# 
# From -- ./inp_files/26342.got.cif
#   From: 2010.05.17/outbox.cif.g08.bks.cpg/sg51_14_cif.got.tgz:26342.got - 2010.06.03 11:52:47.
