data_PCOD9404557
_publ_section_title
;
Structure prediction by ZEFSAII (Michael W. Deem and Ramdas Pophale) SiO2 
 PCOD9404557
Probable space group: P M M A
;
_chemical_formula_sum "Si O2"
_cell_formula_units_Z 64
_cell_length_a 27.469832
_cell_length_b 7.935649
_cell_length_c 12.829564
_cell_angle_alpha 90.000000
_cell_angle_beta 90.000000
_cell_angle_gamma 90.000000
_cell_volume 2796.728778
_symmetry_space_group_name_H-M "P M M A"
_symmetry_group_IT_number 51
_symmetry_cell_setting 'orthorhombic'
loop_
_space_group_symop_operation_xyz
x,y,z
1/2-x,-y,z
1/2+x,-y,-z
-x,y,-z
-x,-y,-z
1/2+x,y,-z
1/2-x,y,z
x,-y,z
loop_
_atom_site_type_symbol
_atom_site_label
_atom_site_fract_x
_atom_site_fract_y
_atom_site_fract_z
Si Si1 0.592800 0.206809 0.275153
Si Si2 0.022106 0.193950 0.892598
Si Si3 0.304531 0.704640 0.427702
Si Si4 0.697157 0.800203 0.991864
Si Si5 0.086196 0.201027 0.500302
Si Si6 0.343096 0.692690 0.212955
Si Si7 0.454282 0.690604 0.286435
Si Si8 0.802801 0.205926 0.228254
O O1 0.569120 0.268273 0.167155
O O2 0.569594 0.259946 0.384728
O O3 0.648757 0.260053 0.284612
O O4 0.590923 0.000000 0.270983
O O5 0.984265 0.199204 0.795924
O O6 0.034368 0.000000 0.919225
O O7 0.000000 0.268806 0.000000
O O8 0.250000 0.757869 0.465351
O O9 0.304979 0.500000 0.428048
O O10 0.356131 0.756360 0.480598
O O11 0.311275 0.766375 0.307502
O O12 0.750000 0.739821 0.953225
O O13 0.659752 0.767152 0.901419
O O14 0.699261 0.000000 0.004787
O O15 0.690742 0.736172 0.108555
O O16 0.051845 0.264522 0.407508
O O17 0.083396 0.000000 0.498694
O O18 0.327346 0.500000 0.202179
O O19 0.398379 0.697947 0.249735
O O20 0.472439 0.500000 0.274311
O O21 0.750000 0.263688 0.266361
O O22 0.802146 0.000000 0.231073
#
# Coordination Sequence:
#
# PCOD9404557 Si02
#       8
#     8   8   8   8   8   8   8   8
#     4   9  19  35  55  83 117 147 181 231 287 342
#     4  10  22  39  62  91 116 144 184 232 290 349
#     4   9  18  33  51  74 111 155 193 234 287 343
#     4   9  17  27  44  73 104 137 181 229 272 321
#     4  10  20  35  57  84 113 147 193 244 288 335
#     4   9  18  31  48  70 100 143 184 220 271 329
#     4  10  22  40  58  79 113 151 189 231 284 346
#     4   8  15  29  49  75 110 148 180 216 271 334
#
# _framework density 22.883879
#
# number of rings (size 3 to 8) (size 9 to 14) (size 15 to 20)
#    0.000    2.750    0.000    2.625    1.750    4.750 
#    0.000    5.000    0.000    1.500    0.000    0.000 
#    0.000    0.000    0.000    0.000    0.000    0.000 
#
# Total GULP energy -356597.827893 kJ/mol
# GULP energy per Si atom -5571.841061 kJ/mol
# Density = 2.283179 g / cm^3
# Si number density = 22.883879 Si / 1000 Ang^3
#
#
#
# Elastic Constant Matrix: (Units=GPa)
#
#
# Indices 1 2 3 4 5 6 
#
# 1 76.4618 1.2114 38.9566 0.0000 0.0000 0.0000
# 2 1.2114 17.1089 -8.8743 0.0000 0.0000 0.0000
# 3 38.9566 -8.8743 108.7973 0.0000 0.0000 0.0000
# 4 0.0000 0.0000 0.0000 26.3793 0.0000 0.0000
# 5 0.0000 0.0000 0.0000 0.0000 11.8034 0.0000
# 6 0.0000 0.0000 0.0000 0.0000 0.0000 13.3336
#
#
#
# Elastic Compliance Matrix: (Units=1/GPa)
#
#
# Indices 1 2 3 4 5 6 
#
# 1 0.016303 -0.004367 -0.006194 0.000000 0.000000 0.000000
# 2 -0.004367 0.062201 0.006637 0.000000 0.000000 0.000000
# 3 -0.006194 0.006637 0.011951 0.000000 0.000000 0.000000
# 4 0.000000 0.000000 0.000000 0.037908 0.000000 0.000000
# 5 0.000000 0.000000 0.000000 0.000000 0.084721 0.000000
# 6 0.000000 0.000000 0.000000 0.000000 0.000000 0.074998
#
#
# Mechanical properties :
#
#
# Convention : Reuss Voigt Hill
#
# Bulk Modulus (GPa) = 12.10542 29.43949 20.77246
# Shear Modulus (GPa) = 15.45755 21.70823 18.58289
#
# Velocity S-wave (km/s) = 2.60181 3.08332 2.85274
# Velocity P-wave (km/s) = 3.78515 5.05653 4.46631
#
# Compressibility (1/GPa) = 0.08260765
#
# Stress axis : x y z
#
# Youngs Moduli (GPa) = 61.33715 16.07688 83.67773
#
# Poissons Ratio (x) = 0.07021 0.51829
# Poissons Ratio (y) = 0.26787 -0.55540
# Poissons Ratio (z) = 0.37992 -0.10671
#
# Static dielectric constant tensor:
#      x y z
#    x 1.927200 0.000000 0.000000 
#    y 0.000000 1.841330 0.000000 
#    z 0.000000 0.000000 1.885260 
# 
# From -- ./inp_files/19650.got.cif
#   From: 2010.05.17/outbox.cif.g08.bks.cpg/sg51_10_cif.got.tgz:19650.got - 2010.06.03 11:52:47.
