data_PCOD9404078
_publ_section_title
;
Structure prediction by ZEFSAII (Michael W. Deem and Ramdas Pophale) SiO2 
 PCOD9404078
Probable space group: P M M A
;
_chemical_formula_sum "Si O2"
_cell_formula_units_Z 64
_cell_length_a 15.567804
_cell_length_b 9.438434
_cell_length_c 21.051275
_cell_angle_alpha 90.000000
_cell_angle_beta 90.000000
_cell_angle_gamma 90.000000
_cell_volume 3093.183630
_symmetry_space_group_name_H-M "P M M A"
_symmetry_group_IT_number 51
_symmetry_cell_setting 'orthorhombic'
loop_
_space_group_symop_operation_xyz
x,y,z
1/2-x,-y,z
1/2+x,-y,-z
-x,y,-z
-x,-y,-z
1/2+x,y,-z
1/2-x,y,z
x,-y,z
loop_
_atom_site_type_symbol
_atom_site_label
_atom_site_fract_x
_atom_site_fract_y
_atom_site_fract_z
Si Si1 0.109076 0.338409 0.557042
Si Si2 0.648710 0.156705 0.322340
Si Si3 0.855050 0.164389 0.184506
Si Si4 0.854205 0.668997 0.835929
Si Si5 0.912286 0.165911 0.958478
Si Si6 0.095307 0.663694 0.417729
Si Si7 0.146221 0.835963 0.293126
Si Si8 0.650533 0.343942 0.068666
O O1 0.139355 0.500000 0.561374
O O2 0.140595 0.247912 0.615422
O O3 0.132343 0.287122 0.486090
O O4 0.006347 0.339983 0.567990
O O5 0.750000 0.141575 0.311718
O O6 0.615832 0.213438 0.254581
O O7 0.611151 0.000000 0.332376
O O8 0.750000 0.165274 0.181531
O O9 0.889245 0.261476 0.128246
O O10 0.880488 0.000000 0.176022
O O11 0.750000 0.685930 0.844986
O O12 0.871586 0.500000 0.835291
O O13 0.903171 0.749598 0.892748
O O14 0.877039 0.743790 0.768969
O O15 0.893033 0.000000 0.948517
O O16 0.850480 0.246590 0.007071
O O17 0.000000 0.174484 0.000000
O O18 0.122825 0.500000 0.405817
O O19 0.114232 0.761352 0.357693
O O20 0.250000 0.836770 0.296001
O O21 0.117345 0.000000 0.288073
O O22 0.750000 0.362791 0.085288
O O23 0.612307 0.500000 0.057248
#
# Coordination Sequence:
#
# PCOD9404078 Si02
#       8
#     8   8   8   8   8   8   8   8
#     4   9  19  35  54  76 105 144 188 231 276 330
#     4   9  18  32  50  75 107 141 178 221 270 323
#     4   8  15  30  50  71  99 135 172 211 256 308
#     4  10  21  39  64  90 115 147 187 231 282 338
#     4  11  24  40  57  81 114 149 185 226 272 326
#     4   9  19  37  56  76 107 145 186 230 277 332
#     4  10  21  37  59  88 117 145 184 234 284 337
#     4  10  20  34  55  82 107 137 181 226 269 321
#
# _framework density 20.690657000000002
#
# number of rings (size 3 to 8) (size 9 to 14) (size 15 to 20)
#    0.000    2.500    0.000    3.375    0.000    7.000 
#    2.250    5.000    0.000    0.000    0.000    0.000 
#    0.000    0.000    0.000    0.000    0.000    0.000 
#
# Total GULP energy -356820.011714 kJ/mol
# GULP energy per Si atom -5575.312683 kJ/mol
# Density = 2.064356 g / cm^3
# Si number density = 20.690657 Si / 1000 Ang^3
#
#
#
# Elastic Constant Matrix: (Units=GPa)
#
#
# Indices 1 2 3 4 5 6 
#
# 1 24.4103 27.6983 24.7611 0.0000 0.0000 0.0000
# 2 27.6983 148.7444 119.4987 0.0000 0.0000 0.0000
# 3 24.7611 119.4987 216.6445 0.0000 0.0000 0.0000
# 4 0.0000 0.0000 0.0000 -75.5535 0.0000 0.0000
# 5 0.0000 0.0000 0.0000 0.0000 -48.0699 0.0000
# 6 0.0000 0.0000 0.0000 0.0000 0.0000 12.3766
#
#
#
# Elastic Compliance Matrix: (Units=1/GPa)
#
#
# Indices 1 2 3 4 5 6 
#
# 1 0.052082 -0.008828 -0.001083 0.000000 0.000000 0.000000
# 2 -0.008828 0.013569 -0.006476 0.000000 0.000000 0.000000
# 3 -0.001083 -0.006476 0.008312 0.000000 0.000000 0.000000
# 4 0.000000 0.000000 0.000000 -0.013236 0.000000 0.000000
# 5 0.000000 0.000000 0.000000 0.000000 -0.020803 0.000000
# 6 0.000000 0.000000 0.000000 0.000000 0.000000 0.080797
#
#
# Mechanical properties :
#
#
# Convention : Reuss Voigt Hill
#
# Bulk Modulus (GPa) = 24.27824 81.52393 52.90109
# Shear Modulus (GPa) = 29.89966 -7.72660 11.08653
#
# Velocity S-wave (km/s) = 3.80555 -1.93454 2.31730
# Velocity P-wave (km/s) = 5.57395 5.87341 5.72564
#
# Compressibility (1/GPa) = 0.04118915
#
# Stress axis : x y z
#
# Youngs Moduli (GPa) = 19.20032 73.69548 120.31447
#
# Poissons Ratio (x) = 0.65061 0.13031
# Poissons Ratio (y) = 0.16951 0.77912
# Poissons Ratio (z) = 0.02080 0.47723
#
# Static dielectric constant tensor:
#      x y z
#    x 1.838480 0.000000 0.000000 
#    y 0.000000 1.735970 0.000000 
#    z 0.000000 0.000000 1.735300 
# 
# From -- ./inp_files/33813.got.cif
#   From: 2010.05.17/outbox.cif.g08.bks.cpg/sg51_17_cif.got.tgz:33813.got - 2010.06.03 11:52:47.
