data_PCOD9404847
_publ_section_title
;
Structure prediction by ZEFSAII (Michael W. Deem and Ramdas Pophale) SiO2 
 PCOD9404847
Probable space group: P M M A
;
_chemical_formula_sum "Si O2"
_cell_formula_units_Z 56
_cell_length_a 13.028029
_cell_length_b 20.627529
_cell_length_c 9.464241
_cell_angle_alpha 90.000000
_cell_angle_beta 90.000000
_cell_angle_gamma 90.000000
_cell_volume 2543.382705
_symmetry_space_group_name_H-M "P M M A"
_symmetry_group_IT_number 51
_symmetry_cell_setting 'orthorhombic'
loop_
_space_group_symop_operation_xyz
x,y,z
1/2-x,-y,z
1/2+x,-y,-z
-x,y,-z
-x,-y,-z
1/2+x,y,-z
1/2-x,y,z
x,-y,z
loop_
_atom_site_type_symbol
_atom_site_label
_atom_site_fract_x
_atom_site_fract_y
_atom_site_fract_z
Si Si1 0.132177 0.302440 0.568055
Si Si2 0.868891 0.819920 0.638506
Si Si3 0.055158 0.569838 0.850197
Si Si4 0.131666 0.426005 0.372360
Si Si5 0.580037 0.292588 0.130924
Si Si6 0.457253 0.844883 0.854121
Si Si7 0.627328 0.926138 0.402732
O O1 0.250000 0.298481 0.621757
O O2 0.121671 0.243508 0.459340
O O3 0.119671 0.371139 0.491041
O O4 0.058259 0.292606 0.700292
O O5 0.750000 0.824971 0.681248
O O6 0.895953 0.881096 0.538465
O O7 0.942130 0.818315 0.772412
O O8 0.104304 0.500000 0.815017
O O9 0.125195 0.633875 0.868150
O O10 0.959427 0.580483 0.741775
O O11 0.000000 0.563539 0.000000
O O12 0.250000 0.417984 0.315911
O O13 0.125248 0.500000 0.427529
O O14 0.615660 0.217758 0.115216
O O15 0.500000 0.296206 0.000000
O O16 0.408371 0.893380 0.742745
O O17 0.500000 0.873181 0.000000
O O18 0.750000 0.926979 0.398358
O O19 0.591515 0.000000 0.413835
#
# Coordination Sequence:
#
# PCOD9404847 Si02
#       7
#     8   8   8   8   8   8   8
#     4  10  20  36  59  82 110 149 193 241 292 345
#     4  10  21  38  60  88 117 153 200 245 291 346
#     4   9  18  33  51  74 110 153 193 235 289 348
#     4   9  18  32  52  79 108 142 189 244 295 342
#     4  10  21  36  53  82 115 147 192 236 288 348
#     4  11  23  37  59  90 124 161 195 238 296 354
#     4  10  22  41  65  91 119 154 198 244 291 348
#
# _framework density 22.017921000000001
#
# number of rings (size 3 to 8) (size 9 to 14) (size 15 to 20)
#    0.000    2.143    1.429    1.286    0.000    4.286 
#    0.000    6.429    0.000    2.571    0.000    0.000 
#    0.000    0.000    0.000    0.000    0.000    0.000 
#
# Total GULP energy -311841.797959 kJ/mol
# GULP energy per Si atom -5568.603535 kJ/mol
# Density = 2.196781 g / cm^3
# Si number density = 22.017921 Si / 1000 Ang^3
#
#
#
# Elastic Constant Matrix: (Units=GPa)
#
#
# Indices 1 2 3 4 5 6 
#
# 1 82.9988 31.6156 31.1993 0.0000 0.0000 0.0000
# 2 31.6156 128.0270 32.4126 0.0000 0.0000 0.0000
# 3 31.1993 32.4126 118.7369 0.0000 0.0000 0.0000
# 4 0.0000 0.0000 0.0000 33.6366 0.0000 0.0000
# 5 0.0000 0.0000 0.0000 0.0000 10.6948 0.0000
# 6 0.0000 0.0000 0.0000 0.0000 0.0000 32.4872
#
#
#
# Elastic Compliance Matrix: (Units=1/GPa)
#
#
# Indices 1 2 3 4 5 6 
#
# 1 0.014220 -0.002756 -0.002984 0.000000 0.000000 0.000000
# 2 -0.002756 0.008925 -0.001712 0.000000 0.000000 0.000000
# 3 -0.002984 -0.001712 0.009673 0.000000 0.000000 0.000000
# 4 0.000000 0.000000 0.000000 0.029730 0.000000 0.000000
# 5 0.000000 0.000000 0.000000 0.000000 0.093503 0.000000
# 6 0.000000 0.000000 0.000000 0.000000 0.000000 0.030781
#
#
# Mechanical properties :
#
#
# Convention : Reuss Voigt Hill
#
# Bulk Modulus (GPa) = 55.82304 57.80197 56.81250
# Shear Modulus (GPa) = 24.07224 30.99940 27.53582
#
# Velocity S-wave (km/s) = 3.31010 3.75629 3.54023
# Velocity P-wave (km/s) = 6.32594 6.71731 6.52456
#
# Compressibility (1/GPa) = 0.01791375
#
# Stress axis : x y z
#
# Youngs Moduli (GPa) = 70.32400 112.04605 103.37570
#
# Poissons Ratio (x) = 0.30880 0.30848
# Poissons Ratio (y) = 0.19382 0.17699
# Poissons Ratio (z) = 0.20985 0.19184
#
# Static dielectric constant tensor:
#      x y z
#    x 1.887950 0.000000 0.000000 
#    y 0.000000 1.876530 0.000000 
#    z 0.000000 0.000000 1.769740 
# 
# From -- ./inp_files/8495.got.cif
#   From: 2010.05.17/outbox.cif.g08.bks.cpg/sg51_5_cif.got.tgz:8495.got - 2010.06.03 11:52:47.
