data_PCOD9404943
_publ_section_title
;
Structure prediction by ZEFSAII (Michael W. Deem and Ramdas Pophale) SiO2 
 PCOD9404943
Probable space group: P M M A
;
_chemical_formula_sum "Si O2"
_cell_formula_units_Z 64
_cell_length_a 23.538438
_cell_length_b 8.897023
_cell_length_c 16.146179
_cell_angle_alpha 90.000000
_cell_angle_beta 90.000000
_cell_angle_gamma 90.000000
_cell_volume 3381.365490
_symmetry_space_group_name_H-M "P M M A"
_symmetry_group_IT_number 51
_symmetry_cell_setting 'orthorhombic'
loop_
_space_group_symop_operation_xyz
x,y,z
1/2-x,-y,z
1/2+x,-y,-z
-x,y,-z
-x,-y,-z
1/2+x,y,-z
1/2-x,y,z
x,-y,z
loop_
_atom_site_type_symbol
_atom_site_label
_atom_site_fract_x
_atom_site_fract_y
_atom_site_fract_z
Si Si1 0.316339 0.826190 0.664521
Si Si2 0.971786 0.678227 0.109942
Si Si3 0.317233 0.170375 0.468488
Si Si4 0.494452 0.177696 0.404642
Si Si5 0.586096 0.180456 0.955396
Si Si6 0.683200 0.818554 0.827400
Si Si7 0.883731 0.323916 0.671973
Si Si8 0.578896 0.327409 0.290175
O O1 0.250000 0.806551 0.681136
O O2 0.324889 0.802970 0.565894
O O3 0.355213 0.712680 0.714007
O O4 0.331046 0.000000 0.682738
O O5 0.979171 0.500000 0.094995
O O6 0.950177 0.699099 0.202422
O O7 0.031831 0.761352 0.097103
O O8 0.926652 0.744427 0.044158
O O9 0.250000 0.172078 0.452012
O O10 0.347592 0.288599 0.410429
O O11 0.338213 0.000000 0.449771
O O12 0.500000 0.230043 0.500000
O O13 0.444832 0.254767 0.351013
O O14 0.552109 0.218346 0.358073
O O15 0.484357 0.000000 0.406081
O O16 0.644555 0.220151 0.907915
O O17 0.583479 0.000000 0.962960
O O18 0.750000 0.772145 0.831005
O O19 0.649914 0.751497 0.748288
O O20 0.682668 0.000000 0.819930
O O21 0.889526 0.500000 0.688138
O O22 0.569653 0.500000 0.314627
#
# Coordination Sequence:
#
# PCOD9404943 Si02
#       8
#     8   8   8   8   8   8   8   8
#     4   9  19  36  57  79 104 140 184 225 267 317
#     4  10  21  37  58  84 115 147 177 218 278 341
#     4   9  18  34  54  74 101 141 187 230 271 318
#     4  11  24  40  58  80 110 152 196 237 286 339
#     4  10  20  36  61  88 109 137 183 231 274 325
#     4  10  22  40  60  83 115 154 193 235 285 342
#     4  12  24  35  52  81 114 147 187 233 282 337
#     4  11  23  37  56  84 114 144 180 223 273 328
#
# _framework density 18.927265999999999
#
# number of rings (size 3 to 8) (size 9 to 14) (size 15 to 20)
#    0.000    1.750    0.000    6.000    0.000   11.750 
#    0.000    1.875    0.000    2.250    0.000    0.000 
#    0.000    0.000    0.000    0.000    0.000    0.000 
#
# Total GULP energy -357400.458259 kJ/mol
# GULP energy per Si atom -5584.382160 kJ/mol
# Density = 1.888419 g / cm^3
# Si number density = 18.927266 Si / 1000 Ang^3
#
#
#
# Elastic Constant Matrix: (Units=GPa)
#
#
# Indices 1 2 3 4 5 6 
#
# 1 97.8657 31.7231 33.0383 0.0000 0.0000 0.0000
# 2 31.7231 44.0251 26.5524 0.0000 0.0000 0.0000
# 3 33.0383 26.5524 46.6935 0.0000 0.0000 0.0000
# 4 0.0000 0.0000 0.0000 24.6659 0.0000 0.0000
# 5 0.0000 0.0000 0.0000 0.0000 28.5189 0.0000
# 6 0.0000 0.0000 0.0000 0.0000 0.0000 -3.6994
#
#
#
# Elastic Compliance Matrix: (Units=1/GPa)
#
#
# Indices 1 2 3 4 5 6 
#
# 1 0.014555 -0.006509 -0.006597 0.000000 0.000000 0.000000
# 2 -0.006509 0.037482 -0.016709 0.000000 0.000000 0.000000
# 3 -0.006597 -0.016709 0.035586 0.000000 0.000000 0.000000
# 4 0.000000 0.000000 0.000000 0.040542 0.000000 0.000000
# 5 0.000000 0.000000 0.000000 0.000000 0.035064 0.000000
# 6 0.000000 0.000000 0.000000 0.000000 0.000000 -0.270314
#
#
# Mechanical properties :
#
#
# Convention : Reuss Voigt Hill
#
# Bulk Modulus (GPa) = 35.72353 41.24576 38.48464
# Shear Modulus (GPa) = -131.14852 16.38178 -57.38337
#
# Velocity S-wave (km/s) = -8.33314 2.94515 -5.51214
# Velocity P-wave (km/s) = 8.58331 5.77964 4.48715
#
# Compressibility (1/GPa) = 0.02799276
#
# Stress axis : x y z
#
# Youngs Moduli (GPa) = 68.70437 26.67952 28.10128
#
# Poissons Ratio (x) = 0.17366 0.18539
# Poissons Ratio (y) = 0.44720 0.46954
# Poissons Ratio (z) = 0.45325 0.44578
#
# Static dielectric constant tensor:
#      x y z
#    x 1.714280 0.000000 0.000000 
#    y 0.000000 1.647460 0.000000 
#    z 0.000000 0.000000 1.645960 
# 
# From -- ./inp_files/26204.got.cif
#   From: 2010.05.17/outbox.cif.g08.bks.cpg/sg51_14_cif.got.tgz:26204.got - 2010.06.03 11:52:47.
