data_PCOD9404838
_publ_section_title
;
Structure prediction by ZEFSAII (Michael W. Deem and Ramdas Pophale) SiO2 
 PCOD9404838
Probable space group: P M M A
;
_chemical_formula_sum "Si O2"
_cell_formula_units_Z 56
_cell_length_a 9.332030
_cell_length_b 15.282903
_cell_length_c 20.602780
_cell_angle_alpha 90.000000
_cell_angle_beta 90.000000
_cell_angle_gamma 90.000000
_cell_volume 2938.378976
_symmetry_space_group_name_H-M "P M M A"
_symmetry_group_IT_number 51
_symmetry_cell_setting 'orthorhombic'
loop_
_space_group_symop_operation_xyz
x,y,z
1/2-x,-y,z
1/2+x,-y,-z
-x,y,-z
-x,-y,-z
1/2+x,y,-z
1/2-x,y,z
x,-y,z
loop_
_atom_site_type_symbol
_atom_site_label
_atom_site_fract_x
_atom_site_fract_y
_atom_site_fract_z
Si Si1 0.915522 0.000000 0.434273
Si Si2 0.418874 0.247006 0.807799
Si Si3 0.419966 0.642983 0.432932
Si Si4 0.078469 0.600179 0.702391
Si Si5 0.421402 0.691332 0.069865
Si Si6 0.594227 0.842364 0.605561
Si Si7 0.917197 0.500000 0.933062
Si Si8 0.407555 0.896223 0.251344
O O1 0.000000 0.000000 0.500000
O O2 0.968045 0.089494 0.403041
O O3 0.750000 0.000000 0.441450
O O4 0.250000 0.256746 0.819080
O O5 0.459225 0.323773 0.755070
O O6 0.506361 0.252594 0.874589
O O7 0.460969 0.150908 0.782500
O O8 0.500000 0.616602 0.500000
O O9 0.250000 0.620096 0.434749
O O10 0.494883 0.610165 0.366329
O O11 0.429216 0.748750 0.426210
O O12 0.250000 0.609217 0.690103
O O13 0.053394 0.500000 0.726353
O O14 0.250000 0.704076 0.062773
O O15 0.448199 0.592742 0.097733
O O16 0.500000 0.699271 0.000000
O O17 0.750000 0.876831 0.581665
O O18 0.605515 0.840588 0.682730
O O19 0.750000 0.500000 0.948722
O O20 0.000000 0.500000 0.000000
O O21 0.250000 0.887707 0.218283
O O22 0.426841 0.000000 0.264336
#
# Coordination Sequence:
#
# PCOD9404838 Si02
#       8
#     4   8   8   8   8   8   4   8
#     4  12  24  34  50  76 108 144 183 226 283 352
#     4  11  23  38  61  91 124 160 199 246 298 352
#     4  11  23  39  61  84 111 150 197 249 304 359
#     4  10  23  42  61  85 119 158 202 251 300 352
#     4  10  20  36  58  87 124 164 206 247 295 351
#     4  10  20  37  57  80 110 144 184 235 295 356
#     4   8  16  30  50  80 116 156 197 238 279 334
#     4  10  20  38  63  87 116 153 193 241 298 358
#
# _framework density 19.058126000000001
#
# number of rings (size 3 to 8) (size 9 to 14) (size 15 to 20)
#    0.000    1.714    2.143    2.357    1.000    4.857 
#    0.000    0.000    0.000    0.429    0.000    0.000 
#    0.000    0.000    0.000    0.000    0.000    0.000 
#
# Total GULP energy -311815.279957 kJ/mol
# GULP energy per Si atom -5568.129999 kJ/mol
# Density = 1.901475 g / cm^3
# Si number density = 19.058126 Si / 1000 Ang^3
#
#
#
# Elastic Constant Matrix: (Units=GPa)
#
#
# Indices 1 2 3 4 5 6 
#
# 1 87.1750 27.1189 39.7042 0.0000 0.0000 0.0000
# 2 27.1189 56.7571 15.8146 0.0000 0.0000 0.0000
# 3 39.7042 15.8146 83.1059 0.0000 0.0000 0.0000
# 4 0.0000 0.0000 0.0000 27.5475 0.0000 0.0000
# 5 0.0000 0.0000 0.0000 0.0000 27.7525 0.0000
# 6 0.0000 0.0000 0.0000 0.0000 0.0000 22.7315
#
#
#
# Elastic Compliance Matrix: (Units=1/GPa)
#
#
# Indices 1 2 3 4 5 6 
#
# 1 0.016371 -0.005959 -0.006687 0.000000 0.000000 0.000000
# 2 -0.005959 0.020774 -0.001106 0.000000 0.000000 0.000000
# 3 -0.006687 -0.001106 0.015438 0.000000 0.000000 0.000000
# 4 0.000000 0.000000 0.000000 0.036301 0.000000 0.000000
# 5 0.000000 0.000000 0.000000 0.000000 0.036033 0.000000
# 6 0.000000 0.000000 0.000000 0.000000 0.000000 0.043992
#
#
# Mechanical properties :
#
#
# Convention : Reuss Voigt Hill
#
# Bulk Modulus (GPa) = 39.87486 43.59039 41.73263
# Shear Modulus (GPa) = 24.41731 25.23299 24.82515
#
# Velocity S-wave (km/s) = 3.58327 3.64263 3.61307
# Velocity P-wave (km/s) = 6.17154 6.37289 6.27302
#
# Compressibility (1/GPa) = 0.02507846
#
# Stress axis : x y z
#
# Youngs Moduli (GPa) = 61.08536 48.13631 64.77429
#
# Poissons Ratio (x) = 0.28683 0.43316
# Poissons Ratio (y) = 0.36399 0.07167
# Poissons Ratio (z) = 0.40849 0.05326
#
# Static dielectric constant tensor:
#      x y z
#    x 1.660050 0.000000 0.000000 
#    y 0.000000 1.681500 0.000000 
#    z 0.000000 0.000000 1.537210 
# 
# From -- ./inp_files/32106.got.cif
#   From: 2010.05.17/outbox.cif.g08.bks.cpg/sg51_17_cif.got.tgz:32106.got - 2010.06.03 11:52:47.
