data_PCOD9404934
_publ_section_title
;
Structure prediction by ZEFSAII (Michael W. Deem and Ramdas Pophale) SiO2 
 PCOD9404934
Probable space group: P M M A
;
_chemical_formula_sum "Si O2"
_cell_formula_units_Z 64
_cell_length_a 22.041242
_cell_length_b 15.703108
_cell_length_c 9.438054
_cell_angle_alpha 90.000000
_cell_angle_beta 90.000000
_cell_angle_gamma 90.000000
_cell_volume 3266.661532
_symmetry_space_group_name_H-M "P M M A"
_symmetry_group_IT_number 51
_symmetry_cell_setting 'orthorhombic'
loop_
_space_group_symop_operation_xyz
x,y,z
1/2-x,-y,z
1/2+x,-y,-z
-x,y,-z
-x,-y,-z
1/2+x,y,-z
1/2-x,y,z
x,-y,z
loop_
_atom_site_type_symbol
_atom_site_label
_atom_site_fract_x
_atom_site_fract_y
_atom_site_fract_z
Si Si1 0.094804 0.100905 0.738804
Si Si2 0.184051 0.902440 0.480137
Si Si3 0.844795 0.590297 0.783008
Si Si4 0.010139 0.404182 0.167315
Si Si5 0.180610 0.407252 0.885890
Si Si6 0.147048 0.770932 0.254209
Si Si7 0.676895 0.779885 0.078029
Si Si8 0.494638 0.236148 0.329853
O O1 0.130100 0.111263 0.589965
O O2 0.140229 0.143628 0.851171
O O3 0.034691 0.158209 0.728776
O O4 0.084372 0.000000 0.762771
O O5 0.250000 0.889745 0.551002
O O6 0.178383 0.841473 0.347729
O O7 0.180875 0.000000 0.432742
O O8 0.828171 0.500000 0.716089
O O9 0.917510 0.593317 0.805581
O O10 0.829363 0.676720 0.704114
O O11 0.818862 0.591865 0.942169
O O12 0.987447 0.500000 0.199508
O O13 0.985497 0.326405 0.260372
O O14 0.000000 0.388381 0.000000
O O15 0.250000 0.407826 0.835420
O O16 0.153050 0.500000 0.844931
O O17 0.156316 0.312193 0.855609
O O18 0.075275 0.776206 0.284696
O O19 0.160671 0.779310 0.088189
O O20 0.750000 0.786250 0.093349
O O21 0.500000 0.239809 0.500000
#
# Coordination Sequence:
#
# PCOD9404934 Si02
#       8
#     8   8   8   8   8   8   8   8
#     4  11  25  42  61  83 114 157 200 247 307 367
#     4  10  21  39  62  84 108 147 199 247 295 355
#     4   8  15  28  48  77 115 149 181 223 273 334
#     4   9  19  34  58  89 119 156 199 242 288 346
#     4   8  14  26  47  77 111 145 179 218 275 344
#     4  10  20  36  60  90 119 152 192 247 295 353
#     4  10  21  37  60  89 119 151 193 250 305 353
#     4  11  23  39  60  88 124 163 202 245 294 355
#
# _framework density 19.591867000000001
#
# number of rings (size 3 to 8) (size 9 to 14) (size 15 to 20)
#    0.000    2.375    1.250    0.750    5.250    2.750 
#    0.000    0.625    0.000    0.750    0.000    0.000 
#    0.000    0.000    0.000    0.000    0.000    0.000 
#
# Total GULP energy -356705.582061 kJ/mol
# GULP energy per Si atom -5573.524720 kJ/mol
# Density = 1.954727 g / cm^3
# Si number density = 19.591867 Si / 1000 Ang^3
#
#
#
# Elastic Constant Matrix: (Units=GPa)
#
#
# Indices 1 2 3 4 5 6 
#
# 1 84.9965 45.2830 16.8666 0.0000 0.0000 0.0000
# 2 45.2830 145.2619 55.3635 0.0000 0.0000 0.0000
# 3 16.8666 55.3635 48.1165 0.0000 0.0000 0.0000
# 4 0.0000 0.0000 0.0000 23.8113 0.0000 0.0000
# 5 0.0000 0.0000 0.0000 0.0000 19.1162 0.0000
# 6 0.0000 0.0000 0.0000 0.0000 0.0000 70.7972
#
#
#
# Elastic Compliance Matrix: (Units=1/GPa)
#
#
# Indices 1 2 3 4 5 6 
#
# 1 0.014109 -0.004476 0.000205 0.000000 0.000000 0.000000
# 2 -0.004476 0.013681 -0.014173 0.000000 0.000000 0.000000
# 3 0.000205 -0.014173 0.037018 0.000000 0.000000 0.000000
# 4 0.000000 0.000000 0.000000 0.041997 0.000000 0.000000
# 5 0.000000 0.000000 0.000000 0.000000 0.052312 0.000000
# 6 0.000000 0.000000 0.000000 0.000000 0.000000 0.014125
#
#
# Mechanical properties :
#
#
# Convention : Reuss Voigt Hill
#
# Bulk Modulus (GPa) = 35.81612 57.04456 46.43034
# Shear Modulus (GPa) = 22.78555 33.46907 28.12731
#
# Velocity S-wave (km/s) = 3.41399 4.13766 3.79312
# Velocity P-wave (km/s) = 5.81904 7.21156 6.55240
#
# Compressibility (1/GPa) = 0.02792039
#
# Stress axis : x y z
#
# Youngs Moduli (GPa) = 70.87457 73.09332 27.01371
#
# Poissons Ratio (x) = 0.32720 -0.00553
# Poissons Ratio (y) = 0.31726 0.38285
# Poissons Ratio (z) = -0.01451 1.03592
#
# Static dielectric constant tensor:
#      x y z
#    x 1.725450 0.000000 0.000000 
#    y 0.000000 1.733760 0.000000 
#    z 0.000000 0.000000 1.637750 
# 
# From -- ./inp_files/11853.got.cif
#   From: 2010.05.17/outbox.cif.g08.bks.cpg/sg51_6_cif.got.tgz:11853.got - 2010.06.03 11:52:47.
