data_PCOD9404430
_publ_section_title
;
Structure prediction by ZEFSAII (Michael W. Deem and Ramdas Pophale) SiO2 
 PCOD9404430
Probable space group: P M M A
;
_chemical_formula_sum "Si O2"
_cell_formula_units_Z 48
_cell_length_a 18.869666
_cell_length_b 8.738873
_cell_length_c 16.787955
_cell_angle_alpha 90.000000
_cell_angle_beta 90.000000
_cell_angle_gamma 90.000000
_cell_volume 2768.327312
_symmetry_space_group_name_H-M "P M M A"
_symmetry_group_IT_number 51
_symmetry_cell_setting 'orthorhombic'
loop_
_space_group_symop_operation_xyz
x,y,z
1/2-x,-y,z
1/2+x,-y,-z
-x,y,-z
-x,-y,-z
1/2+x,y,-z
1/2-x,y,z
x,-y,z
loop_
_atom_site_type_symbol
_atom_site_label
_atom_site_fract_x
_atom_site_fract_y
_atom_site_fract_z
Si Si1 0.530115 0.683501 0.086073
Si Si2 0.830543 0.185184 0.160906
Si Si3 0.400576 0.814465 0.673728
Si Si4 0.334278 0.817686 0.509518
Si Si5 0.456887 0.816717 0.240189
Si Si6 0.667814 0.682597 0.661270
O O1 0.531796 0.500000 0.090372
O O2 0.608651 0.747061 0.104607
O O3 0.479846 0.747691 0.155777
O O4 0.500000 0.729085 0.000000
O O5 0.750000 0.230797 0.142305
O O6 0.851010 0.230899 0.251714
O O7 0.834785 0.000000 0.157420
O O8 0.374782 0.759922 0.587866
O O9 0.480144 0.771720 0.698373
O O10 0.397282 0.000000 0.670546
O O11 0.250000 0.796956 0.522530
O O12 0.353865 0.736821 0.427209
O O13 0.347000 0.000000 0.500370
O O14 0.383344 0.756922 0.274116
O O15 0.456766 0.000000 0.234403
O O16 0.750000 0.729090 0.672099
O O17 0.663649 0.500000 0.666149
#
# Coordination Sequence:
#
# PCOD9404430 Si02
#       6
#     8   8   8   8   8   8
#     4  10  21  37  56  78 106 138 168 202 252 312
#     4   9  17  31  53  80 108 137 171 211 253 298
#     4   8  15  28  48  75 103 131 164 205 251 296
#     4   9  16  28  48  71  97 133 174 209 242 288
#     4  10  20  35  56  78  99 127 167 212 256 304
#     4  10  21  36  51  69  99 136 172 213 258 300
#
# _framework density 17.338989000000002
#
# number of rings (size 3 to 8) (size 9 to 14) (size 15 to 20)
#    0.000    2.667    0.000    3.000    0.000    5.333 
#    0.000    8.333    0.000    5.000    0.000    0.000 
#    0.000    0.000    0.000    0.000    0.000    0.000 
#
# Total GULP energy -267681.551858 kJ/mol
# GULP energy per Si atom -5576.698997 kJ/mol
# Density = 1.729953 g / cm^3
# Si number density = 17.338989 Si / 1000 Ang^3
#
#
#
# Elastic Constant Matrix: (Units=GPa)
#
#
# Indices 1 2 3 4 5 6 
#
# 1 119.1958 38.5977 95.3677 0.0000 0.0000 0.0000
# 2 38.5977 30.6660 39.4394 0.0000 0.0000 0.0000
# 3 95.3677 39.4394 125.7458 0.0000 0.0000 0.0000
# 4 0.0000 0.0000 0.0000 32.5445 0.0000 0.0000
# 5 0.0000 0.0000 0.0000 0.0000 22.2365 0.0000
# 6 0.0000 0.0000 0.0000 0.0000 0.0000 20.9931
#
#
#
# Elastic Compliance Matrix: (Units=1/GPa)
#
#
# Indices 1 2 3 4 5 6 
#
# 1 0.023395 -0.011107 -0.014260 0.000000 0.000000 0.000000
# 2 -0.011107 0.059930 -0.010373 0.000000 0.000000 0.000000
# 3 -0.014260 -0.010373 0.022021 0.000000 0.000000 0.000000
# 4 0.000000 0.000000 0.000000 0.030727 0.000000 0.000000
# 5 0.000000 0.000000 0.000000 0.000000 0.044971 0.000000
# 6 0.000000 0.000000 0.000000 0.000000 0.000000 0.047635
#
#
# Mechanical properties :
#
#
# Convention : Reuss Voigt Hill
#
# Bulk Modulus (GPa) = 29.52766 69.15744 49.34255
# Shear Modulus (GPa) = 16.05413 21.96838 19.01125
#
# Velocity S-wave (km/s) = 3.04616 3.56335 3.31485
# Velocity P-wave (km/s) = 5.42574 7.54334 6.57042
#
# Compressibility (1/GPa) = 0.03386655
#
# Stress axis : x y z
#
# Youngs Moduli (GPa) = 42.74359 16.68623 45.41184
#
# Poissons Ratio (x) = 0.18534 0.64756
# Poissons Ratio (y) = 0.47476 0.47104
# Poissons Ratio (z) = 0.60951 0.17308
#
# Static dielectric constant tensor:
#      x y z
#    x 1.586090 0.000000 0.000000 
#    y 0.000000 1.586020 0.000000 
#    z 0.000000 0.000000 1.568540 
# 
# From -- ./inp_files/24812.got.cif
#   From: 2010.05.17/outbox.cif.g08.bks.cpg/sg51_13_cif.got.tgz:24812.got - 2010.06.03 11:52:47.
