data_PCOD9404133
_publ_section_title
;
Structure prediction by ZEFSAII (Michael W. Deem and Ramdas Pophale) SiO2 
 PCOD9404133
Probable space group: P M M A
;
_chemical_formula_sum "Si O2"
_cell_formula_units_Z 34
_cell_length_a 9.019979
_cell_length_b 7.596403
_cell_length_c 23.094927
_cell_angle_alpha 90.000000
_cell_angle_beta 90.000000
_cell_angle_gamma 90.000000
_cell_volume 1582.450438
_symmetry_space_group_name_H-M "P M M A"
_symmetry_group_IT_number 51
_symmetry_cell_setting 'orthorhombic'
loop_
_space_group_symop_operation_xyz
x,y,z
1/2-x,-y,z
1/2+x,-y,-z
-x,y,-z
-x,-y,-z
1/2+x,y,-z
1/2-x,y,z
x,-y,z
loop_
_atom_site_type_symbol
_atom_site_label
_atom_site_fract_x
_atom_site_fract_y
_atom_site_fract_z
Si Si1 0.579164 0.215294 0.559102
Si Si2 0.580998 0.708487 0.795628
Si Si3 0.081075 0.212509 0.676259
Si Si4 0.925678 0.799979 0.088096
Si Si5 0.500000 0.500000 0.000000
O O1 0.500000 0.271791 0.500000
O O2 0.750000 0.270286 0.560387
O O3 0.493911 0.273942 0.616701
O O4 0.577362 0.000000 0.559199
O O5 0.750000 0.774997 0.798612
O O6 0.583254 0.500000 0.805882
O O7 0.513151 0.739314 0.732476
O O8 0.480588 0.789643 0.845920
O O9 0.250000 0.275927 0.681462
O O10 0.085191 0.000000 0.673742
O O11 0.750000 0.758080 0.084362
O O12 0.948110 0.000000 0.067770
O O13 0.008052 0.655075 0.049972
#
# Coordination Sequence:
#
# PCOD9404133 Si02
#       5
#     8   8   8   8   2
#     4   9  16  27  46  75 113 155 200 253 313 375
#     4  11  24  41  62  89 123 162 208 261 318 379
#     4  10  20  34  55  84 117 155 203 256 313 379
#     4  11  25  45  71 101 133 172 218 266 318 379
#     4  12  24  44  72 100 138 176 212 262 314 382
#
# _framework density 21.485662999999999
#
# number of rings (size 3 to 8) (size 9 to 14) (size 15 to 20)
#    0.000    1.647    1.176    3.529    0.000   10.824 
#    0.000    0.000    0.000    0.706    0.000    0.000 
#    0.000    0.000    0.000    0.000    0.000    0.000 
#
# Total GULP energy -189619.457002 kJ/mol
# GULP energy per Si atom -5577.042853 kJ/mol
# Density = 2.143676 g / cm^3
# Si number density = 21.485663 Si / 1000 Ang^3
#
#
#
# Elastic Constant Matrix: (Units=GPa)
#
#
# Indices 1 2 3 4 5 6 
#
# 1 44.4339 4.4380 0.3898 0.0000 0.0000 0.0000
# 2 4.4380 78.7869 8.6673 0.0000 0.0000 0.0000
# 3 0.3898 8.6673 133.4901 0.0000 0.0000 0.0000
# 4 0.0000 0.0000 0.0000 38.0920 0.0000 0.0000
# 5 0.0000 0.0000 0.0000 0.0000 -276.2259 0.0000
# 6 0.0000 0.0000 0.0000 0.0000 0.0000 7.3078
#
#
#
# Elastic Compliance Matrix: (Units=1/GPa)
#
#
# Indices 1 2 3 4 5 6 
#
# 1 0.022633 -0.001277 0.000017 0.000000 0.000000 0.000000
# 2 -0.001277 0.012856 -0.000831 0.000000 0.000000 0.000000
# 3 0.000017 -0.000831 0.007545 0.000000 0.000000 0.000000
# 4 0.000000 0.000000 0.000000 0.026252 0.000000 0.000000
# 5 0.000000 0.000000 0.000000 0.000000 -0.003620 0.000000
# 6 0.000000 0.000000 0.000000 0.000000 0.000000 0.136840
#
#
# Mechanical properties :
#
#
# Convention : Reuss Voigt Hill
#
# Bulk Modulus (GPa) = 25.73885 31.52236 28.63060
# Shear Modulus (GPa) = 22.76477 -29.95081 -3.59302
#
# Velocity S-wave (km/s) = 3.25858 -3.73767 -1.29457
# Velocity P-wave (km/s) = 5.11501 1.98083 3.33464
#
# Compressibility (1/GPa) = 0.03885177
#
# Stress axis : x y z
#
# Youngs Moduli (GPa) = 44.18389 77.78597 132.53644
#
# Poissons Ratio (x) = 0.09931 -0.00223
# Poissons Ratio (y) = 0.05641 0.11013
# Poissons Ratio (z) = -0.00074 0.06464
#
# Static dielectric constant tensor:
#      x y z
#    x 1.764900 0.000000 0.000000 
#    y 0.000000 1.776370 0.000000 
#    z 0.000000 0.000000 1.724270 
# 
# From -- ./inp_files/31176.got.cif
#   From: 2010.05.17/outbox.cif.g08.bks.cpg/sg51_16_cif.got.tgz:31176.got - 2010.06.03 11:52:47.
