data_PCOD9404108
_publ_section_title
;
Structure prediction by ZEFSAII (Michael W. Deem and Ramdas Pophale) SiO2 
 PCOD9404108
Probable space group: P M M A
;
_chemical_formula_sum "Si O2"
_cell_formula_units_Z 48
_cell_length_a 10.137770
_cell_length_b 7.875566
_cell_length_c 29.595874
_cell_angle_alpha 90.000000
_cell_angle_beta 90.000000
_cell_angle_gamma 90.000000
_cell_volume 2362.954609
_symmetry_space_group_name_H-M "P M M A"
_symmetry_group_IT_number 51
_symmetry_cell_setting 'orthorhombic'
loop_
_space_group_symop_operation_xyz
x,y,z
1/2-x,-y,z
1/2+x,-y,-z
-x,y,-z
-x,-y,-z
1/2+x,y,-z
1/2-x,y,z
x,-y,z
loop_
_atom_site_type_symbol
_atom_site_label
_atom_site_fract_x
_atom_site_fract_y
_atom_site_fract_z
Si Si1 0.101641 0.792440 0.778808
Si Si2 0.473238 0.302315 0.394284
Si Si3 0.597942 0.702843 0.960932
Si Si4 0.899937 0.794774 0.117205
Si Si5 0.250000 0.706535 0.462990
Si Si6 0.250000 0.198509 0.567153
Si Si7 0.102764 0.201232 0.294941
O O1 0.250000 0.740370 0.766268
O O2 0.077821 0.741906 0.830759
O O3 0.996380 0.728736 0.742665
O O4 0.100086 0.000000 0.778488
O O5 0.441705 0.500000 0.388471
O O6 0.375748 0.238046 0.433501
O O7 0.620408 0.279428 0.411520
O O8 0.449323 0.220750 0.345763
O O9 0.750000 0.768104 0.961335
O O10 0.607569 0.500000 0.967566
O O11 0.516708 0.733785 0.914993
O O12 0.500000 0.772000 0.000000
O O13 0.750000 0.739317 0.103744
O O14 0.899370 0.000000 0.115958
O O15 0.250000 0.500000 0.467056
O O16 0.250000 0.776417 0.513312
O O17 0.250000 0.000000 0.577838
O O18 0.250000 0.273972 0.292142
O O19 0.111583 0.000000 0.286221
#
# Coordination Sequence:
#
# PCOD9404108 Si02
#       7
#     8   8   8   8   4   4   8
#     4   8  16  32  54  80 111 146 184 228 278 328
#     4  11  23  41  61  84 116 153 188 226 278 339
#     4  10  21  36  54  77 107 146 190 235 285 339
#     4   9  18  34  56  82 112 146 185 230 279 333
#     4  10  22  42  64  84 114 154 188 222 277 340
#     4  12  26  40  60  90 116 144 186 238 283 326
#     4  10  20  34  55  83 113 145 185 231 277 327
#
# _framework density 20.313548999999998
#
# number of rings (size 3 to 8) (size 9 to 14) (size 15 to 20)
#    0.000    2.167    0.833    3.250    1.167    5.667 
#    0.000    2.500    0.000    1.000    0.000    0.000 
#    0.000    0.000    0.000    0.000    0.000    0.000 
#
# Total GULP energy -267971.615000 kJ/mol
# GULP energy per Si atom -5582.741979 kJ/mol
# Density = 2.026731 g / cm^3
# Si number density = 20.313549 Si / 1000 Ang^3
#
#
#
# Elastic Constant Matrix: (Units=GPa)
#
#
# Indices 1 2 3 4 5 6 
#
# 1 203.9724 -4.0116 109.0954 0.0000 0.0000 0.0000
# 2 -4.0116 21.2578 -6.6799 0.0000 0.0000 0.0000
# 3 109.0954 -6.6799 125.9966 0.0000 0.0000 0.0000
# 4 0.0000 0.0000 0.0000 35.0817 0.0000 0.0000
# 5 0.0000 0.0000 0.0000 0.0000 51.3639 0.0000
# 6 0.0000 0.0000 0.0000 0.0000 0.0000 12.8961
#
#
#
# Elastic Compliance Matrix: (Units=1/GPa)
#
#
# Indices 1 2 3 4 5 6 
#
# 1 0.009144 -0.000775 -0.007959 0.000000 0.000000 0.000000
# 2 -0.000775 0.047904 0.003211 0.000000 0.000000 0.000000
# 3 -0.007959 0.003211 0.014998 0.000000 0.000000 0.000000
# 4 0.000000 0.000000 0.000000 0.028505 0.000000 0.000000
# 5 0.000000 0.000000 0.000000 0.000000 0.019469 0.000000
# 6 0.000000 0.000000 0.000000 0.000000 0.000000 0.077543
#
#
# Mechanical properties :
#
#
# Convention : Reuss Voigt Hill
#
# Bulk Modulus (GPa) = 16.39330 60.89274 38.64302
# Shear Modulus (GPa) = 21.83961 36.72320 29.28140
#
# Velocity S-wave (km/s) = 3.28247 4.25646 3.80079
# Velocity P-wave (km/s) = 4.73854 7.36193 6.19079
#
# Compressibility (1/GPa) = 0.06100054
#
# Stress axis : x y z
#
# Youngs Moduli (GPa) = 109.36083 20.87498 66.67578
#
# Poissons Ratio (x) = 0.01618 0.53064
# Poissons Ratio (y) = 0.08478 -0.21409
# Poissons Ratio (z) = 0.87035 -0.06703
#
# Static dielectric constant tensor:
#      x y z
#    x 1.719000 0.000000 0.000000 
#    y 0.000000 1.761530 0.000000 
#    z 0.000000 0.000000 1.688030 
# 
# From -- ./inp_files/37234.got.cif
#   From: 2010.05.17/outbox.cif.g08.bks.cpg/sg51_19_cif.got.tgz:37234.got - 2010.06.03 11:52:47.
