data_PCOD9404656
_publ_section_title
;
Structure prediction by ZEFSAII (Michael W. Deem and Ramdas Pophale) SiO2 
 PCOD9404656
Probable space group: P M M A
;
_chemical_formula_sum "Si O2"
_cell_formula_units_Z 56
_cell_length_a 8.591494
_cell_length_b 20.142070
_cell_length_c 15.876120
_cell_angle_alpha 90.000000
_cell_angle_beta 90.000000
_cell_angle_gamma 90.000000
_cell_volume 2747.370084
_symmetry_space_group_name_H-M "P M M A"
_symmetry_group_IT_number 51
_symmetry_cell_setting 'orthorhombic'
loop_
_space_group_symop_operation_xyz
x,y,z
1/2-x,-y,z
1/2+x,-y,-z
-x,y,-z
-x,-y,-z
1/2+x,y,-z
1/2-x,y,z
x,-y,z
loop_
_atom_site_type_symbol
_atom_site_label
_atom_site_fract_x
_atom_site_fract_y
_atom_site_fract_z
Si Si1 0.566608 0.072837 0.261907
Si Si2 0.076315 0.921059 0.083181
Si Si3 0.068630 0.576101 0.640560
Si Si4 0.436053 0.714753 0.092223
Si Si5 0.930284 0.705202 0.587494
Si Si6 0.062899 0.425572 0.171023
Si Si7 0.563824 0.784032 0.258796
O O1 0.750000 0.069851 0.280057
O O2 0.537564 0.081817 0.162164
O O3 0.505113 0.143776 0.292362
O O4 0.498955 0.000000 0.285247
O O5 0.250000 0.894562 0.100876
O O6 0.094946 0.000000 0.068276
O O7 0.000000 0.891307 0.000000
O O8 0.250000 0.594766 0.629468
O O9 0.048181 0.500000 0.614428
O O10 0.958321 0.626468 0.592211
O O11 0.023484 0.579656 0.739475
O O12 0.250000 0.718531 0.090770
O O13 0.480810 0.638211 0.115348
O O14 0.495764 0.760835 0.168988
O O15 0.500000 0.731477 0.000000
O O16 0.750000 0.721301 0.593538
O O17 0.000000 0.730759 0.500000
O O18 0.017499 0.732787 0.669195
O O19 0.250000 0.421643 0.185777
O O20 0.030448 0.500000 0.136387
O O21 0.750000 0.787348 0.249986
#
# Coordination Sequence:
#
# PCOD9404656 Si02
#       7
#     8   8   8   8   8   8   8
#     4   9  19  36  58  83 110 144 185 231 291 358
#     4   9  16  26  43  69 102 139 179 225 275 330
#     4  10  20  35  59  91 125 161 201 246 298 354
#     4  11  23  38  58  85 119 163 210 257 304 358
#     4  12  25  42  65  92 123 161 202 246 296 357
#     4   9  18  34  56  82 115 158 205 253 304 353
#     4  11  23  41  64  89 121 156 195 248 302 361
#
# _framework density 20.383129
#
# number of rings (size 3 to 8) (size 9 to 14) (size 15 to 20)
#    0.000    1.857    1.429    3.000    0.000    5.429 
#    0.000    0.000    0.000    0.429    0.000    0.000 
#    0.000    0.000    0.000    0.000    0.000    0.000 
#
# Total GULP energy -312459.683293 kJ/mol
# GULP energy per Si atom -5579.637202 kJ/mol
# Density = 2.033674 g / cm^3
# Si number density = 20.383129 Si / 1000 Ang^3
#
#
#
# Elastic Constant Matrix: (Units=GPa)
#
#
# Indices 1 2 3 4 5 6 
#
# 1 36.8890 18.9029 11.4948 0.0000 0.0000 0.0000
# 2 18.9029 115.5285 18.0301 0.0000 0.0000 0.0000
# 3 11.4948 18.0301 68.6344 0.0000 0.0000 0.0000
# 4 0.0000 0.0000 0.0000 -7.5985 0.0000 0.0000
# 5 0.0000 0.0000 0.0000 0.0000 24.2979 0.0000
# 6 0.0000 0.0000 0.0000 0.0000 0.0000 13.4878
#
#
#
# Elastic Compliance Matrix: (Units=1/GPa)
#
#
# Indices 1 2 3 4 5 6 
#
# 1 0.030593 -0.004386 -0.003972 0.000000 0.000000 0.000000
# 2 -0.004386 0.009655 -0.001802 0.000000 0.000000 0.000000
# 3 -0.003972 -0.001802 0.015708 0.000000 0.000000 0.000000
# 4 0.000000 0.000000 0.000000 -0.131605 0.000000 0.000000
# 5 0.000000 0.000000 0.000000 0.000000 0.041156 0.000000
# 6 0.000000 0.000000 0.000000 0.000000 0.000000 0.074141
#
#
# Mechanical properties :
#
#
# Convention : Reuss Voigt Hill
#
# Bulk Modulus (GPa) = 28.05986 35.32305 31.69145
# Shear Modulus (GPa) = 69.59310 17.54572 43.56941
#
# Velocity S-wave (km/s) = 5.84950 2.93712 4.62835
# Velocity P-wave (km/s) = 7.70832 5.37302 6.64408
#
# Compressibility (1/GPa) = 0.03563809
#
# Stress axis : x y z
#
# Youngs Moduli (GPa) = 32.68684 103.57666 63.66019
#
# Poissons Ratio (x) = 0.45428 0.25283
# Poissons Ratio (y) = 0.14336 0.11470
# Poissons Ratio (z) = 0.12982 0.18662
#
# Static dielectric constant tensor:
#      x y z
#    x 1.703480 0.000000 0.000000 
#    y 0.000000 1.818920 0.000000 
#    z 0.000000 0.000000 1.686760 
# 
# From -- ./inp_files/21768.got.cif
#   From: 2010.05.17/outbox.cif.g08.bks.cpg/sg51_11_cif.got.tgz:21768.got - 2010.06.03 11:52:47.
