data_PCOD9404132
_publ_section_title
;
Structure prediction by ZEFSAII (Michael W. Deem and Ramdas Pophale) SiO2 
 PCOD9404132
Probable space group: P M M A
;
_chemical_formula_sum "Si O2"
_cell_formula_units_Z 56
_cell_length_a 22.688243
_cell_length_b 13.316097
_cell_length_c 9.480767
_cell_angle_alpha 90.000000
_cell_angle_beta 90.000000
_cell_angle_gamma 90.000000
_cell_volume 2864.318371
_symmetry_space_group_name_H-M "P M M A"
_symmetry_group_IT_number 51
_symmetry_cell_setting 'orthorhombic'
loop_
_space_group_symop_operation_xyz
x,y,z
1/2-x,-y,z
1/2+x,-y,-z
-x,y,-z
-x,-y,-z
1/2+x,y,-z
1/2-x,y,z
x,-y,z
loop_
_atom_site_type_symbol
_atom_site_label
_atom_site_fract_x
_atom_site_fract_y
_atom_site_fract_z
Si Si1 0.491948 0.387104 0.653105
Si Si2 0.411373 0.382665 0.903537
Si Si3 0.818039 0.327392 0.304243
Si Si4 0.440725 0.115322 0.403092
Si Si5 0.181580 0.884968 0.582474
Si Si6 0.319556 0.616239 0.385902
Si Si7 0.409377 0.293069 0.205225
O O1 0.500000 0.340126 0.500000
O O2 0.469223 0.500000 0.631525
O O3 0.452304 0.341962 0.776333
O O4 0.556027 0.384388 0.720064
O O5 0.426668 0.500000 0.934973
O O6 0.348491 0.376397 0.829218
O O7 0.414605 0.313827 0.040606
O O8 0.750000 0.355933 0.304123
O O9 0.822892 0.206279 0.307051
O O10 0.844206 0.362264 0.456124
O O11 0.500000 0.127410 0.500000
O O12 0.377395 0.126973 0.485489
O O13 0.437666 0.193941 0.274116
O O14 0.442430 0.000000 0.353260
O O15 0.250000 0.873840 0.522408
O O16 0.178910 0.000000 0.635593
O O17 0.250000 0.632726 0.395814
O O18 0.328900 0.500000 0.349987
O O19 0.344900 0.690782 0.268837
#
# Coordination Sequence:
#
# PCOD9404132 Si02
#       7
#     8   8   8   8   8   8   8
#     4  10  21  37  58  81 106 147 203 250 289 347
#     4  11  24  38  54  83 123 161 198 244 302 366
#     4  10  20  36  57  83 114 155 205 251 302 358
#     4  10  22  39  62  94 127 159 204 262 318 374
#     4   9  18  36  63  90 115 149 203 265 313 358
#     4  10  20  34  55  84 117 153 201 254 298 356
#     4  12  22  36  58  83 117 156 195 238 308 377
#
# _framework density 19.550899000000001
#
# number of rings (size 3 to 8) (size 9 to 14) (size 15 to 20)
#    0.000    1.714    1.429    3.429    2.000    3.714 
#    0.000    0.714    0.000    1.714    0.000    0.000 
#    0.000    0.000    0.000    0.000    0.000    0.000 
#
# Total GULP energy -311864.571915 kJ/mol
# GULP energy per Si atom -5569.010213 kJ/mol
# Density = 1.950640 g / cm^3
# Si number density = 19.550899 Si / 1000 Ang^3
#
#
#
# Elastic Constant Matrix: (Units=GPa)
#
#
# Indices 1 2 3 4 5 6 
#
# 1 90.2819 24.8489 44.5233 0.0000 0.0000 0.0000
# 2 24.8489 109.3604 43.3846 0.0000 0.0000 0.0000
# 3 44.5233 43.3846 142.0208 0.0000 0.0000 0.0000
# 4 0.0000 0.0000 0.0000 11.9692 0.0000 0.0000
# 5 0.0000 0.0000 0.0000 0.0000 18.0573 0.0000
# 6 0.0000 0.0000 0.0000 0.0000 0.0000 22.0385
#
#
#
# Elastic Compliance Matrix: (Units=1/GPa)
#
#
# Indices 1 2 3 4 5 6 
#
# 1 0.013332 -0.001560 -0.003703 0.000000 0.000000 0.000000
# 2 -0.001560 0.010588 -0.002745 0.000000 0.000000 0.000000
# 3 -0.003703 -0.002745 0.009041 0.000000 0.000000 0.000000
# 4 0.000000 0.000000 0.000000 0.083548 0.000000 0.000000
# 5 0.000000 0.000000 0.000000 0.000000 0.055379 0.000000
# 6 0.000000 0.000000 0.000000 0.000000 0.000000 0.045375
#
#
# Mechanical properties :
#
#
# Convention : Reuss Voigt Hill
#
# Bulk Modulus (GPa) = 59.01953 63.01962 61.01957
# Shear Modulus (GPa) = 20.92685 25.67340 23.30012
#
# Velocity S-wave (km/s) = 3.27521 3.62768 3.45594
# Velocity P-wave (km/s) = 6.67502 7.06048 6.87045
#
# Compressibility (1/GPa) = 0.01694354
#
# Stress axis : x y z
#
# Youngs Moduli (GPa) = 75.00750 94.44960 110.61115
#
# Poissons Ratio (x) = 0.14737 0.40958
# Poissons Ratio (y) = 0.11703 0.30365
# Poissons Ratio (z) = 0.27775 0.25928
#
# Static dielectric constant tensor:
#      x y z
#    x 1.843010 0.000000 0.000000 
#    y 0.000000 1.713450 0.000000 
#    z 0.000000 0.000000 1.679670 
# 
# From -- ./inp_files/10981.got.cif
#   From: 2010.05.17/outbox.cif.g08.bks.cpg/sg51_6_cif.got.tgz:10981.got - 2010.06.03 11:52:47.
