data_PCOD9404965
_publ_section_title
;
Structure prediction by ZEFSAII (Michael W. Deem and Ramdas Pophale) SiO2 
 PCOD9404965
Probable space group: P M M A
;
_chemical_formula_sum "Si O2"
_cell_formula_units_Z 48
_cell_length_a 14.855722
_cell_length_b 8.980300
_cell_length_c 20.099856
_cell_angle_alpha 90.000000
_cell_angle_beta 90.000000
_cell_angle_gamma 90.000000
_cell_volume 2681.498479
_symmetry_space_group_name_H-M "P M M A"
_symmetry_group_IT_number 51
_symmetry_cell_setting 'orthorhombic'
loop_
_space_group_symop_operation_xyz
x,y,z
1/2-x,-y,z
1/2+x,-y,-z
-x,y,-z
-x,-y,-z
1/2+x,y,-z
1/2-x,y,z
x,-y,z
loop_
_atom_site_type_symbol
_atom_site_label
_atom_site_fract_x
_atom_site_fract_y
_atom_site_fract_z
Si Si1 0.854466 0.677748 0.577902
Si Si2 0.750000 0.179138 0.127952
Si Si3 0.445717 0.321439 0.067993
Si Si4 0.017080 0.677861 0.671569
Si Si5 0.750000 0.679252 0.981832
Si Si6 0.556979 0.178491 0.186799
Si Si7 0.642239 0.825230 0.437663
O O1 0.750000 0.712241 0.592389
O O2 0.861363 0.500000 0.565586
O O3 0.881358 0.762010 0.510473
O O4 0.920933 0.714839 0.637977
O O5 0.659100 0.221900 0.166560
O O6 0.750000 0.000000 0.121014
O O7 0.750000 0.250174 0.054942
O O8 0.450954 0.500000 0.078668
O O9 0.341705 0.279806 0.056066
O O10 0.491828 0.238964 0.129173
O O11 0.500000 0.288287 0.000000
O O12 0.023352 0.500000 0.678158
O O13 0.031019 0.753233 0.742508
O O14 0.090829 0.736643 0.619411
O O15 0.750000 0.500000 0.989535
O O16 0.552784 0.000000 0.189773
O O17 0.750000 0.807938 0.430093
O O18 0.620495 0.000000 0.433472
#
# Coordination Sequence:
#
# PCOD9404965 Si02
#       7
#     8   4   8   8   4   8   8
#     4   9  19  38  61  83 110 146 190 237 283 333
#     4  10  22  38  58  84 114 149 184 227 286 342
#     4  10  20  37  61  88 116 147 190 235 279 335
#     4  11  23  38  58  84 114 151 193 235 282 337
#     4  10  20  36  62  90 114 145 186 237 284 330
#     4  11  24  40  58  83 118 154 188 232 285 341
#     4  10  21  36  57  86 118 150 186 231 283 339
#
# _framework density 17.90044
#
# number of rings (size 3 to 8) (size 9 to 14) (size 15 to 20)
#    0.000    1.833    1.667    2.000    1.167    6.000 
#    1.500    0.000    0.000    0.000    0.000    0.000 
#    0.000    0.000    0.000    0.000    0.000    0.000 
#
# Total GULP energy -268158.223558 kJ/mol
# GULP energy per Si atom -5586.629657 kJ/mol
# Density = 1.785970 g / cm^3
# Si number density = 17.900440 Si / 1000 Ang^3
#
#
#
# Elastic Constant Matrix: (Units=GPa)
#
#
# Indices 1 2 3 4 5 6 
#
# 1 137.1887 60.1719 101.6091 0.0000 0.0000 0.0000
# 2 60.1719 52.2994 73.5511 0.0000 0.0000 0.0000
# 3 101.6091 73.5511 178.5028 0.0000 0.0000 0.0000
# 4 0.0000 0.0000 0.0000 143.5631 0.0000 0.0000
# 5 0.0000 0.0000 0.0000 0.0000 -10.6710 0.0000
# 6 0.0000 0.0000 0.0000 0.0000 0.0000 25.5539
#
#
#
# Elastic Compliance Matrix: (Units=1/GPa)
#
#
# Indices 1 2 3 4 5 6 
#
# 1 0.015597 -0.012981 -0.003529 0.000000 0.000000 0.000000
# 2 -0.012981 0.056273 -0.015798 0.000000 0.000000 0.000000
# 3 -0.003529 -0.015798 0.014121 0.000000 0.000000 0.000000
# 4 0.000000 0.000000 0.000000 0.006966 0.000000 0.000000
# 5 0.000000 0.000000 0.000000 0.000000 -0.093712 0.000000
# 6 0.000000 0.000000 0.000000 0.000000 0.000000 0.039133
#
#
# Mechanical properties :
#
#
# Convention : Reuss Voigt Hill
#
# Bulk Modulus (GPa) = 46.78606 93.18391 69.98499
# Shear Modulus (GPa) = 45.40576 40.53311 42.96944
#
# Velocity S-wave (km/s) = 5.04190 4.76370 4.90477
# Velocity P-wave (km/s) = 7.75164 9.07892 8.44141
#
# Compressibility (1/GPa) = 0.02137389
#
# Stress axis : x y z
#
# Youngs Moduli (GPa) = 64.11534 17.77059 70.81865
#
# Poissons Ratio (x) = 0.23068 0.24995
# Poissons Ratio (y) = 0.83228 1.11877
# Poissons Ratio (z) = 0.22629 0.28073
#
# Static dielectric constant tensor:
#      x y z
#    x 1.622490 0.000000 0.000000 
#    y 0.000000 1.596640 0.000000 
#    z 0.000000 0.000000 1.559560 
# 
# From -- ./inp_files/29652.got.cif
#   From: 2010.05.17/outbox.cif.g08.bks.cpg/sg51_15_cif.got.tgz:29652.got - 2010.06.03 11:52:47.
