data_PCOD9404684
_publ_section_title
;
Structure prediction by ZEFSAII (Michael W. Deem and Ramdas Pophale) SiO2 
 PCOD9404684
Probable space group: P M M A
;
_chemical_formula_sum "Si O2"
_cell_formula_units_Z 48
_cell_length_a 9.833090
_cell_length_b 19.179586
_cell_length_c 14.746601
_cell_angle_alpha 90.000000
_cell_angle_beta 90.000000
_cell_angle_gamma 90.000000
_cell_volume 2781.129248
_symmetry_space_group_name_H-M "P M M A"
_symmetry_group_IT_number 51
_symmetry_cell_setting 'orthorhombic'
loop_
_space_group_symop_operation_xyz
x,y,z
1/2-x,-y,z
1/2+x,-y,-z
-x,y,-z
-x,-y,-z
1/2+x,y,-z
1/2-x,y,z
x,-y,z
loop_
_atom_site_type_symbol
_atom_site_label
_atom_site_fract_x
_atom_site_fract_y
_atom_site_fract_z
Si Si1 0.587498 0.421676 0.827825
Si Si2 0.408557 0.793025 0.277705
Si Si3 0.591121 0.919078 0.588499
Si Si4 0.597211 0.423620 0.348106
Si Si5 0.405882 0.723279 0.580842
Si Si6 0.089923 0.273253 0.085261
O O1 0.750000 0.418496 0.814049
O O2 0.556027 0.500000 0.865119
O O3 0.511147 0.416530 0.731935
O O4 0.551319 0.352654 0.884767
O O5 0.250000 0.772849 0.297736
O O6 0.429859 0.868221 0.325378
O O7 0.519390 0.745971 0.327868
O O8 0.426546 0.778692 0.171129
O O9 0.500000 0.903431 0.500000
O O10 0.750000 0.912179 0.562755
O O11 0.565784 0.000000 0.612884
O O12 0.750000 0.420295 0.307060
O O13 0.581372 0.500000 0.390109
O O14 0.591746 0.360346 0.417106
O O15 0.500000 0.749250 0.500000
O O16 0.250000 0.747003 0.574239
O O17 0.250000 0.274236 0.062272
O O18 0.000000 0.252524 0.000000
#
# Coordination Sequence:
#
# PCOD9404684 Si02
#       6
#     8   8   8   8   8   8
#     4   9  17  31  51  72  95 126 166 214 267 315
#     4  10  20  36  55  76 105 137 170 210 256 305
#     4   9  18  33  55  83 112 140 170 204 245 296
#     4   9  18  32  48  67  93 127 168 212 256 302
#     4  11  22  33  49  73 101 134 172 211 254 305
#     4  10  21  35  52  75 102 133 172 216 262 312
#
# _framework density 17.259177000000001
#
# number of rings (size 3 to 8) (size 9 to 14) (size 15 to 20)
#    0.000    2.333    1.667    1.000    0.000    4.667 
#    0.000    0.000    0.000    0.500    0.000    0.000 
#    0.000    0.000    0.000    0.000    0.000    0.000 
#
# Total GULP energy -267340.122069 kJ/mol
# GULP energy per Si atom -5569.585876 kJ/mol
# Density = 1.721989 g / cm^3
# Si number density = 17.259177 Si / 1000 Ang^3
#
#
#
# Elastic Constant Matrix: (Units=GPa)
#
#
# Indices 1 2 3 4 5 6 
#
# 1 75.4138 37.5583 58.8503 0.0000 0.0000 0.0000
# 2 37.5583 105.0036 36.9196 0.0000 0.0000 0.0000
# 3 58.8503 36.9196 84.2217 0.0000 0.0000 0.0000
# 4 0.0000 0.0000 0.0000 15.0882 0.0000 0.0000
# 5 0.0000 0.0000 0.0000 0.0000 30.5982 0.0000
# 6 0.0000 0.0000 0.0000 0.0000 0.0000 10.3647
#
#
#
# Elastic Compliance Matrix: (Units=1/GPa)
#
#
# Indices 1 2 3 4 5 6 
#
# 1 0.030549 -0.004045 -0.019573 0.000000 0.000000 0.000000
# 2 -0.004045 0.011794 -0.002344 0.000000 0.000000 0.000000
# 3 -0.019573 -0.002344 0.026577 0.000000 0.000000 0.000000
# 4 0.000000 0.000000 0.000000 0.066277 0.000000 0.000000
# 5 0.000000 0.000000 0.000000 0.000000 0.032682 0.000000
# 6 0.000000 0.000000 0.000000 0.000000 0.000000 0.096482
#
#
# Mechanical properties :
#
#
# Convention : Reuss Voigt Hill
#
# Bulk Modulus (GPa) = 58.83277 59.03284 58.93281
# Shear Modulus (GPa) = 15.53037 19.96428 17.74733
#
# Velocity S-wave (km/s) = 3.00298 3.40477 3.21016
# Velocity P-wave (km/s) = 6.79600 7.05228 6.92532
#
# Compressibility (1/GPa) = 0.01699733
#
# Stress axis : x y z
#
# Youngs Moduli (GPa) = 32.73462 84.78611 37.62582
#
# Poissons Ratio (x) = 0.34296 0.73645
# Poissons Ratio (y) = 0.13241 0.08819
# Poissons Ratio (z) = 0.64071 0.19872
#
# Static dielectric constant tensor:
#      x y z
#    x 1.593630 0.000000 0.000000 
#    y 0.000000 1.640560 0.000000 
#    z 0.000000 0.000000 1.561340 
# 
# From -- ./inp_files/21408.got.cif
#   From: 2010.05.17/outbox.cif.g08.bks.cpg/sg51_11_cif.got.tgz:21408.got - 2010.06.03 11:52:47.
