data_PCOD9404900
_publ_section_title
;
Structure prediction by ZEFSAII (Michael W. Deem and Ramdas Pophale) SiO2 
 PCOD9404900
Probable space group: P M M A
;
_chemical_formula_sum "Si O2"
_cell_formula_units_Z 48
_cell_length_a 16.137426
_cell_length_b 9.433830
_cell_length_c 16.917172
_cell_angle_alpha 90.000000
_cell_angle_beta 90.000000
_cell_angle_gamma 90.000000
_cell_volume 2575.431923
_symmetry_space_group_name_H-M "P M M A"
_symmetry_group_IT_number 51
_symmetry_cell_setting 'orthorhombic'
loop_
_space_group_symop_operation_xyz
x,y,z
1/2-x,-y,z
1/2+x,-y,-z
-x,y,-z
-x,-y,-z
1/2+x,y,-z
1/2-x,y,z
x,-y,z
loop_
_atom_site_type_symbol
_atom_site_label
_atom_site_fract_x
_atom_site_fract_y
_atom_site_fract_z
Si Si1 0.919506 0.328088 0.951139
Si Si2 0.349698 0.160867 0.371095
Si Si3 0.650303 0.665240 0.476119
Si Si4 0.750000 0.329163 0.042822
Si Si5 0.750000 0.169267 0.209212
Si Si6 0.390047 0.663825 0.700670
Si Si7 0.074056 0.335086 0.230123
O O1 0.925313 0.500000 0.948946
O O2 0.919548 0.281985 0.859888
O O3 0.833323 0.294397 0.994239
O O4 0.000000 0.277361 0.000000
O O5 0.250000 0.158764 0.374715
O O6 0.377980 0.240524 0.450572
O O7 0.375724 0.244645 0.293167
O O8 0.380522 0.000000 0.368830
O O9 0.750000 0.683808 0.464417
O O10 0.636406 0.500000 0.495601
O O11 0.607340 0.696432 0.392636
O O12 0.750000 0.500000 0.057892
O O13 0.750000 0.243342 0.123862
O O14 0.828870 0.229026 0.256500
O O15 0.750000 0.000000 0.204017
O O16 0.359123 0.500000 0.707245
O O17 0.478993 0.669035 0.741588
O O18 0.101486 0.500000 0.232332
#
# Coordination Sequence:
#
# PCOD9404900 Si02
#       7
#     8   8   8   4   4   8   8
#     4   9  18  34  57  87 114 140 185 242 296 345
#     4  10  22  38  55  78 115 160 197 233 285 342
#     4   9  17  33  57  82 109 146 193 237 279 334
#     4  10  20  36  60  81 108 151 190 235 292 349
#     4  12  24  36  56  87 118 149 190 233 282 349
#     4  10  20  37  60  86 116 150 188 236 294 343
#     4  10  21  36  60  89 114 145 190 245 292 339
#
# _framework density 18.637651000000002
#
# number of rings (size 3 to 8) (size 9 to 14) (size 15 to 20)
#    0.000    2.167    0.833    2.250    1.167    5.667 
#    0.000    4.167    0.000    2.000    0.000    0.000 
#    0.000    0.000    0.000    0.000    0.000    0.000 
#
# Total GULP energy -267988.311005 kJ/mol
# GULP energy per Si atom -5583.089813 kJ/mol
# Density = 1.859523 g / cm^3
# Si number density = 18.637651 Si / 1000 Ang^3
#
#
#
# Elastic Constant Matrix: (Units=GPa)
#
#
# Indices 1 2 3 4 5 6 
#
# 1 57.2166 35.9672 48.5698 0.0000 0.0000 0.0000
# 2 35.9672 85.6581 84.9798 0.0000 0.0000 0.0000
# 3 48.5698 84.9798 185.0064 0.0000 0.0000 0.0000
# 4 0.0000 0.0000 0.0000 -0.4271 0.0000 0.0000
# 5 0.0000 0.0000 0.0000 0.0000 28.1502 0.0000
# 6 0.0000 0.0000 0.0000 0.0000 0.0000 12.8539
#
#
#
# Elastic Compliance Matrix: (Units=1/GPa)
#
#
# Indices 1 2 3 4 5 6 
#
# 1 0.024713 -0.007239 -0.003163 0.000000 0.000000 0.000000
# 2 -0.007239 0.023569 -0.008925 0.000000 0.000000 0.000000
# 3 -0.003163 -0.008925 0.010335 0.000000 0.000000 0.000000
# 4 0.000000 0.000000 0.000000 -2.341114 0.000000 0.000000
# 5 0.000000 0.000000 0.000000 0.000000 0.035524 0.000000
# 6 0.000000 0.000000 0.000000 0.000000 0.000000 0.077797
#
#
# Mechanical properties :
#
#
# Convention : Reuss Voigt Hill
#
# Bulk Modulus (GPa) = 50.09430 74.10163 62.09797
# Shear Modulus (GPa) = -2.35420 18.67301 8.15941
#
# Velocity S-wave (km/s) = -1.12511 3.16871 2.09462
# Velocity P-wave (km/s) = 5.02479 7.29610 6.26425
#
# Compressibility (1/GPa) = 0.01996235
#
# Stress axis : x y z
#
# Youngs Moduli (GPa) = 40.46492 42.42918 96.75596
#
# Poissons Ratio (x) = 0.30715 0.30601
# Poissons Ratio (y) = 0.29293 0.86359
# Poissons Ratio (z) = 0.12798 0.37870
#
# Static dielectric constant tensor:
#      x y z
#    x 1.712160 0.000000 0.000000 
#    y 0.000000 1.624920 0.000000 
#    z 0.000000 0.000000 1.623610 
# 
# From -- ./inp_files/24932.got.cif
#   From: 2010.05.17/outbox.cif.g08.bks.cpg/sg51_13_cif.got.tgz:24932.got - 2010.06.03 11:52:47.
