data_PCOD9404845
_publ_section_title
;
Structure prediction by ZEFSAII (Michael W. Deem and Ramdas Pophale) SiO2 
 PCOD9404845
Probable space group: P M M A
;
_chemical_formula_sum "Si O2"
_cell_formula_units_Z 64
_cell_length_a 14.451207
_cell_length_b 9.226206
_cell_length_c 26.323024
_cell_angle_alpha 90.000000
_cell_angle_beta 90.000000
_cell_angle_gamma 90.000000
_cell_volume 3509.643860
_symmetry_space_group_name_H-M "P M M A"
_symmetry_group_IT_number 51
_symmetry_cell_setting 'orthorhombic'
loop_
_space_group_symop_operation_xyz
x,y,z
1/2-x,-y,z
1/2+x,-y,-z
-x,y,-z
-x,-y,-z
1/2+x,y,-z
1/2-x,y,z
x,-y,z
loop_
_atom_site_type_symbol
_atom_site_label
_atom_site_fract_x
_atom_site_fract_y
_atom_site_fract_z
Si Si1 0.396736 0.338964 0.479064
Si Si2 0.144669 0.824585 0.972150
Si Si3 0.356088 0.176789 0.684980
Si Si4 0.044008 0.174433 0.269046
Si Si5 0.544873 0.824667 0.921513
Si Si6 0.143113 0.159018 0.576111
Si Si7 0.860360 0.829994 0.623380
Si Si8 0.359788 0.326307 0.174142
O O1 0.500000 0.350784 0.500000
O O2 0.357155 0.500000 0.475016
O O3 0.354466 0.245197 0.524211
O O4 0.392983 0.260828 0.425121
O O5 0.250000 0.771558 0.963720
O O6 0.061563 0.781156 0.934098
O O7 0.147801 0.000000 0.969497
O O8 0.106624 0.790289 0.028566
O O9 0.250000 0.223428 0.695702
O O10 0.435471 0.214725 0.725113
O O11 0.391884 0.227099 0.628884
O O12 0.355948 0.000000 0.681972
O O13 0.092044 0.206089 0.323260
O O14 0.095638 0.258474 0.224694
O O15 0.050542 0.000000 0.260842
O O16 0.588067 0.745321 0.873506
O O17 0.547083 0.000000 0.914803
O O18 0.250000 0.140094 0.590057
O O19 0.099977 0.000000 0.567717
O O20 0.750000 0.810595 0.628086
O O21 0.878396 0.000000 0.613262
O O22 0.250000 0.293040 0.172030
O O23 0.370268 0.500000 0.173678
#
# Coordination Sequence:
#
# PCOD9404845 Si02
#       8
#     8   8   8   8   8   8   8   8
#     4  11  23  34  45  67  99 132 164 198 242 302
#     4   8  14  27  51  85 120 148 179 223 269 307
#     4   8  15  30  54  82 105 125 158 207 260 311
#     4  10  20  36  59  81 100 129 172 219 262 307
#     4   9  17  31  55  84 111 145 187 225 261 305
#     4   9  17  31  52  74  94 119 153 194 242 298
#     4  10  21  36  54  76  99 126 166 213 259 308
#     4  11  24  39  54  75 106 142 178 220 269 314
#
# _framework density 18.235468999999998
#
# number of rings (size 3 to 8) (size 9 to 14) (size 15 to 20)
#    0.000    2.500    0.000    4.125    0.000    6.500 
#    0.000    2.500    0.000    6.000    0.000    0.000 
#    0.000    0.000    0.000    0.000    0.000    0.000 
#
# Total GULP energy -356560.012228 kJ/mol
# GULP energy per Si atom -5571.250191 kJ/mol
# Density = 1.819396 g / cm^3
# Si number density = 18.235469 Si / 1000 Ang^3
#
#
#
# Elastic Constant Matrix: (Units=GPa)
#
#
# Indices 1 2 3 4 5 6 
#
# 1 151.4274 49.8000 90.2356 0.0000 0.0000 0.0000
# 2 49.8000 46.8047 57.7119 0.0000 0.0000 0.0000
# 3 90.2356 57.7119 132.8454 0.0000 0.0000 0.0000
# 4 0.0000 0.0000 0.0000 -24.7053 0.0000 0.0000
# 5 0.0000 0.0000 0.0000 0.0000 29.7716 0.0000
# 6 0.0000 0.0000 0.0000 0.0000 0.0000 22.0444
#
#
#
# Elastic Compliance Matrix: (Units=1/GPa)
#
#
# Indices 1 2 3 4 5 6 
#
# 1 0.011769 -0.005740 -0.005501 0.000000 0.000000 0.000000
# 2 -0.005740 0.048812 -0.017307 0.000000 0.000000 0.000000
# 3 -0.005501 -0.017307 0.018783 0.000000 0.000000 0.000000
# 4 0.000000 0.000000 0.000000 -0.040477 0.000000 0.000000
# 5 0.000000 0.000000 0.000000 0.000000 0.033589 0.000000
# 6 0.000000 0.000000 0.000000 0.000000 0.000000 0.045363
#
#
# Mechanical properties :
#
#
# Convention : Reuss Voigt Hill
#
# Bulk Modulus (GPa) = 44.90451 80.73026 62.81738
# Shear Modulus (GPa) = 27.41875 14.31082 20.86479
#
# Velocity S-wave (km/s) = 3.88183 2.80443 3.38625
# Velocity P-wave (km/s) = 6.69102 7.40632 7.05774
#
# Compressibility (1/GPa) = 0.02226948
#
# Stress axis : x y z
#
# Youngs Moduli (GPa) = 84.96558 20.48669 53.24098
#
# Poissons Ratio (x) = 0.11759 0.29287
# Poissons Ratio (y) = 0.48769 0.92142
# Poissons Ratio (z) = 0.46739 0.35455
#
# Static dielectric constant tensor:
#      x y z
#    x 1.667160 0.000000 0.000000 
#    y 0.000000 1.624540 0.000000 
#    z 0.000000 0.000000 1.621610 
# 
# From -- ./inp_files/35611.got.cif
#   From: 2010.05.17/outbox.cif.g08.bks.cpg/sg51_18_cif.got.tgz:35611.got - 2010.06.03 11:52:47.
