data_PCOD9404023
_publ_section_title
;
Structure prediction by ZEFSAII (Michael W. Deem and Ramdas Pophale) SiO2 
 PCOD9404023
Probable space group: P M M A
;
_chemical_formula_sum "Si O2"
_cell_formula_units_Z 64
_cell_length_a 16.908116
_cell_length_b 15.317584
_cell_length_c 12.589281
_cell_angle_alpha 90.000000
_cell_angle_beta 90.000000
_cell_angle_gamma 90.000000
_cell_volume 3260.516608
_symmetry_space_group_name_H-M "P M M A"
_symmetry_group_IT_number 51
_symmetry_cell_setting 'orthorhombic'
loop_
_space_group_symop_operation_xyz
x,y,z
1/2-x,-y,z
1/2+x,-y,-z
-x,y,-z
-x,-y,-z
1/2+x,y,-z
1/2-x,y,z
x,-y,z
loop_
_atom_site_type_symbol
_atom_site_label
_atom_site_fract_x
_atom_site_fract_y
_atom_site_fract_z
Si Si1 0.338695 0.604191 0.778363
Si Si2 0.558114 0.663406 0.417198
Si Si3 0.655250 0.239908 0.856846
Si Si4 0.160363 0.189194 0.520344
Si Si5 0.905199 0.602995 0.992384
Si Si6 0.104304 0.100249 0.730973
Si Si7 0.551890 0.176892 0.662065
Si Si8 0.154702 0.899020 0.962668
O O1 0.250000 0.639524 0.755584
O O2 0.332673 0.500000 0.785149
O O3 0.402102 0.621919 0.685970
O O4 0.368096 0.632708 0.894737
O O5 0.500000 0.614046 0.500000
O O6 0.630797 0.710527 0.477773
O O7 0.502727 0.742574 0.376488
O O8 0.750000 0.239575 0.845243
O O9 0.627105 0.333339 0.901552
O O10 0.612273 0.212998 0.748856
O O11 0.632047 0.166685 0.944103
O O12 0.250000 0.180565 0.486167
O O13 0.148984 0.152579 0.638802
O O14 0.100677 0.142682 0.438932
O O15 0.886097 0.500000 0.975113
O O16 0.000000 0.610023 0.000000
O O17 0.122488 0.132474 0.849190
O O18 0.011114 0.109636 0.708762
O O19 0.129955 0.000000 0.726393
O O20 0.250000 0.899337 0.956452
O O21 0.129144 0.000000 0.980769
#
# Coordination Sequence:
#
# PCOD9404023 Si02
#       8
#     8   8   8   8   8   8   8   8
#     4  10  20  34  54  82 112 140 181 239 292 344
#     4   9  19  35  54  79 107 144 185 227 280 342
#     4  11  23  37  59  84 115 159 196 235 293 352
#     4  10  20  35  57  80 108 144 183 233 286 336
#     4  10  22  38  58  86 119 152 192 245 301 358
#     4  10  21  37  57  82 111 144 188 241 288 339
#     4  10  22  37  53  79 113 145 190 234 274 345
#     4   9  20  37  55  82 116 148 189 237 286 344
#
# _framework density 19.628791
#
# number of rings (size 3 to 8) (size 9 to 14) (size 15 to 20)
#    0.000    2.125    0.000    3.375    5.250    3.250 
#    0.000    1.250    0.000    3.000    0.000    0.000 
#    0.000    0.000    0.000    0.000    0.000    0.000 
#
# Total GULP energy -357077.965552 kJ/mol
# GULP energy per Si atom -5579.343212 kJ/mol
# Density = 1.958411 g / cm^3
# Si number density = 19.628791 Si / 1000 Ang^3
#
#
#
# Elastic Constant Matrix: (Units=GPa)
#
#
# Indices 1 2 3 4 5 6 
#
# 1 79.4812 12.0982 24.7670 0.0000 0.0000 0.0000
# 2 12.0982 38.0040 12.9445 0.0000 0.0000 0.0000
# 3 24.7670 12.9445 74.6704 0.0000 0.0000 0.0000
# 4 0.0000 0.0000 0.0000 2.2612 0.0000 0.0000
# 5 0.0000 0.0000 0.0000 0.0000 37.2059 0.0000
# 6 0.0000 0.0000 0.0000 0.0000 0.0000 13.8140
#
#
#
# Elastic Compliance Matrix: (Units=1/GPa)
#
#
# Indices 1 2 3 4 5 6 
#
# 1 0.014375 -0.003137 -0.004224 0.000000 0.000000 0.000000
# 2 -0.003137 0.028649 -0.003926 0.000000 0.000000 0.000000
# 3 -0.004224 -0.003926 0.015474 0.000000 0.000000 0.000000
# 4 0.000000 0.000000 0.000000 0.442235 0.000000 0.000000
# 5 0.000000 0.000000 0.000000 0.000000 0.026877 0.000000
# 6 0.000000 0.000000 0.000000 0.000000 0.000000 0.072391
#
#
# Mechanical properties :
#
#
# Convention : Reuss Voigt Hill
#
# Bulk Modulus (GPa) = 27.83709 32.41944 30.12826
# Shear Modulus (GPa) = 7.87959 20.14595 14.01277
#
# Velocity S-wave (km/s) = 2.00575 3.20714 2.67477
# Velocity P-wave (km/s) = 4.42454 5.50150 4.99215
#
# Compressibility (1/GPa) = 0.03592330
#
# Stress axis : x y z
#
# Youngs Moduli (GPa) = 69.56299 34.90528 64.62517
#
# Poissons Ratio (x) = 0.10952 0.27299
# Poissons Ratio (y) = 0.21825 0.25370
# Poissons Ratio (z) = 0.29385 0.13703
#
# Static dielectric constant tensor:
#      x y z
#    x 1.702100 0.000000 0.000000 
#    y 0.000000 1.701110 0.000000 
#    z 0.000000 0.000000 1.694520 
# 
# From -- ./inp_files/16860.got.cif
#   From: 2010.05.17/outbox.cif.g08.bks.cpg/sg51_9_cif.got.tgz:16860.got - 2010.06.03 11:52:47.
