data_PCOD9404174
_publ_section_title
;
Structure prediction by ZEFSAII (Michael W. Deem and Ramdas Pophale) SiO2 
 PCOD9404174
Probable space group: P M M A
;
_chemical_formula_sum "Si O2"
_cell_formula_units_Z 56
_cell_length_a 14.469734
_cell_length_b 8.214735
_cell_length_c 22.670335
_cell_angle_alpha 90.000000
_cell_angle_beta 90.000000
_cell_angle_gamma 90.000000
_cell_volume 2694.710057
_symmetry_space_group_name_H-M "P M M A"
_symmetry_group_IT_number 51
_symmetry_cell_setting 'orthorhombic'
loop_
_space_group_symop_operation_xyz
x,y,z
1/2-x,-y,z
1/2+x,-y,-z
-x,y,-z
-x,-y,-z
1/2+x,y,-z
1/2-x,y,z
x,-y,z
loop_
_atom_site_type_symbol
_atom_site_label
_atom_site_fract_x
_atom_site_fract_y
_atom_site_fract_z
Si Si1 0.353884 0.310244 0.364937
Si Si2 0.348460 0.803583 0.229775
Si Si3 0.450150 0.194193 0.790730
Si Si4 0.020046 0.187452 0.564267
Si Si5 0.854303 0.306316 0.330115
Si Si6 0.644955 0.698407 0.962649
Si Si7 0.947524 0.304558 0.085291
O O1 0.250000 0.301797 0.388853
O O2 0.383484 0.500000 0.365216
O O3 0.351004 0.246843 0.298238
O O4 0.423877 0.203065 0.401390
O O5 0.250000 0.743690 0.204805
O O6 0.444620 0.739592 0.205414
O O7 0.348688 0.000000 0.225608
O O8 0.406013 0.247589 0.728986
O O9 0.406733 0.249636 0.852214
O O10 0.452606 0.000000 0.789726
O O11 0.093523 0.262587 0.609416
O O12 0.000000 0.263203 0.500000
O O13 0.047077 0.000000 0.555359
O O14 0.750000 0.240334 0.330625
O O15 0.851109 0.500000 0.326405
O O16 0.750000 0.754639 0.948310
O O17 0.646500 0.500000 0.959103
O O18 0.554139 0.754423 0.925685
O O19 0.615834 0.743294 0.029673
O O20 0.951495 0.500000 0.084632
#
# Coordination Sequence:
#
# PCOD9404174 Si02
#       7
#     8   8   8   8   8   8   8
#     4  10  20  34  56  85 113 143 183 231 281 334
#     4   9  18  33  53  77 108 147 186 225 279 346
#     4  11  22  36  57  85 120 158 193 236 292 354
#     4  11  24  41  62  88 118 154 193 235 289 351
#     4  11  25  44  65  88 116 153 198 248 296 342
#     4   8  15  31  54  78 107 146 192 242 293 341
#     4   9  18  32  53  81 110 145 193 243 287 340
#
# _framework density 20.781458000000001
#
# number of rings (size 3 to 8) (size 9 to 14) (size 15 to 20)
#    0.000    2.143    1.429    2.571    0.000    5.429 
#    0.000    5.714    0.000    0.857    0.000    0.000 
#    0.000    0.000    0.000    0.000    0.000    0.000 
#
# Total GULP energy -312293.336905 kJ/mol
# GULP energy per Si atom -5576.666730 kJ/mol
# Density = 2.073416 g / cm^3
# Si number density = 20.781458 Si / 1000 Ang^3
#
#
#
# Elastic Constant Matrix: (Units=GPa)
#
#
# Indices 1 2 3 4 5 6 
#
# 1 82.3478 10.5722 37.4168 0.0000 0.0000 0.0000
# 2 10.5722 6.7621 2.1803 0.0000 0.0000 0.0000
# 3 37.4168 2.1803 128.3272 0.0000 0.0000 0.0000
# 4 0.0000 0.0000 0.0000 21.5745 0.0000 0.0000
# 5 0.0000 0.0000 0.0000 0.0000 2.1809 0.0000
# 6 0.0000 0.0000 0.0000 0.0000 0.0000 -14.4156
#
#
#
# Elastic Compliance Matrix: (Units=1/GPa)
#
#
# Indices 1 2 3 4 5 6 
#
# 1 0.017619 -0.026033 -0.004695 0.000000 0.000000 0.000000
# 2 -0.026033 0.187163 0.004411 0.000000 0.000000 0.000000
# 3 -0.004695 0.004411 0.009087 0.000000 0.000000 0.000000
# 4 0.000000 0.000000 0.000000 0.046351 0.000000 0.000000
# 5 0.000000 0.000000 0.000000 0.000000 0.458532 0.000000
# 6 0.000000 0.000000 0.000000 0.000000 0.000000 -0.069369
#
#
# Mechanical properties :
#
#
# Convention : Reuss Voigt Hill
#
# Bulk Modulus (GPa) = 6.20217 35.30841 20.75529
# Shear Modulus (GPa) = 6.61585 13.01914 9.81749
#
# Velocity S-wave (km/s) = 1.78618 2.50567 2.17587
# Velocity P-wave (km/s) = 2.69163 5.03968 4.04001
#
# Compressibility (1/GPa) = 0.16123396
#
# Stress axis : x y z
#
# Youngs Moduli (GPa) = 56.75651 5.34294 110.05251
#
# Poissons Ratio (x) = 0.13909 0.51669
# Poissons Ratio (y) = 1.47754 -0.48540
# Poissons Ratio (z) = 0.26647 -0.02357
#
# Static dielectric constant tensor:
#      x y z
#    x 1.785410 0.000000 0.000000 
#    y 0.000000 1.724960 0.000000 
#    z 0.000000 0.000000 1.749260 
# 
# From -- ./inp_files/33463.got.cif
#   From: 2010.05.17/outbox.cif.g08.bks.cpg/sg51_17_cif.got.tgz:33463.got - 2010.06.03 11:52:47.
