data_PCOD9404163
_publ_section_title
;
Structure prediction by ZEFSAII (Michael W. Deem and Ramdas Pophale) SiO2 
 PCOD9404163
Probable space group: P M M A
;
_chemical_formula_sum "Si O2"
_cell_formula_units_Z 64
_cell_length_a 8.691618
_cell_length_b 14.817964
_cell_length_c 25.407354
_cell_angle_alpha 90.000000
_cell_angle_beta 90.000000
_cell_angle_gamma 90.000000
_cell_volume 3272.266036
_symmetry_space_group_name_H-M "P M M A"
_symmetry_group_IT_number 51
_symmetry_cell_setting 'orthorhombic'
loop_
_space_group_symop_operation_xyz
x,y,z
1/2-x,-y,z
1/2+x,-y,-z
-x,y,-z
-x,-y,-z
1/2+x,y,-z
1/2-x,y,z
x,-y,z
loop_
_atom_site_type_symbol
_atom_site_label
_atom_site_fract_x
_atom_site_fract_y
_atom_site_fract_z
Si Si1 0.432811 0.647568 0.945426
Si Si2 0.435968 0.394277 0.721169
Si Si3 0.921492 0.894911 0.160525
Si Si4 0.573863 0.891085 0.733788
Si Si5 0.436471 0.102239 0.558833
Si Si6 0.921820 0.606953 0.832626
Si Si7 0.568537 0.768008 0.350689
Si Si8 0.567037 0.848934 0.947830
O O1 0.250000 0.640497 0.947824
O O2 0.491287 0.616312 0.888260
O O3 0.490190 0.750457 0.946531
O O4 0.500000 0.606321 0.000000
O O5 0.250000 0.390760 0.723041
O O6 0.478786 0.500000 0.712327
O O7 0.496627 0.362750 0.778622
O O8 0.490760 0.325470 0.675349
O O9 0.750000 0.853396 0.156672
O O10 0.022907 0.859191 0.208264
O O11 0.011233 0.890903 0.106183
O O12 0.901660 0.000000 0.172693
O O13 0.750000 0.864721 0.723023
O O14 0.460588 0.843887 0.693314
O O15 0.565873 0.000000 0.730244
O O16 0.500000 0.112310 0.500000
O O17 0.250000 0.104557 0.557899
O O18 0.492924 0.183319 0.596540
O O19 0.480197 0.000000 0.577392
O O20 0.750000 0.646879 0.837661
O O21 0.908067 0.500000 0.825144
O O22 0.750000 0.754149 0.359003
O O23 0.750000 0.843230 0.951085
O O24 0.500000 0.894848 0.000000
#
# Coordination Sequence:
#
# PCOD9404163 Si02
#       8
#     8   8   8   8   8   8   8   8
#     4  11  22  37  56  77 103 133 170 217 272 336
#     4   9  19  36  56  80 110 145 188 237 285 336
#     4  10  21  37  55  74  99 133 172 215 265 321
#     4  10  21  35  51  77 112 145 179 223 274 331
#     4   9  18  33  54  82 117 155 193 234 279 328
#     4  10  21  37  56  78 105 137 174 219 275 337
#     4  10  20  34  56  83 111 149 192 232 279 333
#     4  11  22  37  55  74  98 128 167 215 265 322
#
# _framework density 19.558311
#
# number of rings (size 3 to 8) (size 9 to 14) (size 15 to 20)
#    0.000    2.000    0.000    4.500    1.750    4.250 
#    0.000    1.250    0.000    0.375    0.000    0.000 
#    0.000    0.000    0.000    0.000    0.000    0.000 
#
# Total GULP energy -356831.695773 kJ/mol
# GULP energy per Si atom -5575.495246 kJ/mol
# Density = 1.951380 g / cm^3
# Si number density = 19.558311 Si / 1000 Ang^3
#
#
#
# Elastic Constant Matrix: (Units=GPa)
#
#
# Indices 1 2 3 4 5 6 
#
# 1 59.9269 17.7066 13.3261 0.0000 0.0000 0.0000
# 2 17.7066 82.4484 56.6517 0.0000 0.0000 0.0000
# 3 13.3261 56.6517 149.1993 0.0000 0.0000 0.0000
# 4 0.0000 0.0000 0.0000 24.6028 0.0000 0.0000
# 5 0.0000 0.0000 0.0000 0.0000 11.6040 0.0000
# 6 0.0000 0.0000 0.0000 0.0000 0.0000 18.6826
#
#
#
# Elastic Compliance Matrix: (Units=1/GPa)
#
#
# Indices 1 2 3 4 5 6 
#
# 1 0.017821 -0.003699 -0.000187 0.000000 0.000000 0.000000
# 2 -0.003699 0.017178 -0.006192 0.000000 0.000000 0.000000
# 3 -0.000187 -0.006192 0.009070 0.000000 0.000000 0.000000
# 4 0.000000 0.000000 0.000000 0.040646 0.000000 0.000000
# 5 0.000000 0.000000 0.000000 0.000000 0.086177 0.000000
# 6 0.000000 0.000000 0.000000 0.000000 0.000000 0.053526
#
#
# Mechanical properties :
#
#
# Convention : Reuss Voigt Hill
#
# Bulk Modulus (GPa) = 41.81752 51.88260 46.85006
# Shear Modulus (GPa) = 19.79837 24.57055 22.18446
#
# Velocity S-wave (km/s) = 3.18508 3.54824 3.37155
# Velocity P-wave (km/s) = 5.91216 6.58570 6.25800
#
# Compressibility (1/GPa) = 0.02391342
#
# Stress axis : x y z
#
# Youngs Moduli (GPa) = 56.11207 58.21451 110.24899
#
# Poissons Ratio (x) = 0.21531 0.02066
# Poissons Ratio (y) = 0.20753 0.68268
# Poissons Ratio (z) = 0.01052 0.36047
#
# Static dielectric constant tensor:
#      x y z
#    x 1.695290 0.000000 0.000000 
#    y 0.000000 1.690640 0.000000 
#    z 0.000000 0.000000 1.711910 
# 
# From -- ./inp_files/34855.got.cif
#   From: 2010.05.17/outbox.cif.g08.bks.cpg/sg51_18_cif.got.tgz:34855.got - 2010.06.03 11:52:47.
