data_PCOD9404591
_publ_section_title
;
Structure prediction by ZEFSAII (Michael W. Deem and Ramdas Pophale) SiO2 
 PCOD9404591
Probable space group: P M M A
;
_chemical_formula_sum "Si O2"
_cell_formula_units_Z 48
_cell_length_a 16.545280
_cell_length_b 8.633331
_cell_length_c 18.449739
_cell_angle_alpha 90.000000
_cell_angle_beta 90.000000
_cell_angle_gamma 90.000000
_cell_volume 2635.376931
_symmetry_space_group_name_H-M "P M M A"
_symmetry_group_IT_number 51
_symmetry_cell_setting 'orthorhombic'
loop_
_space_group_symop_operation_xyz
x,y,z
1/2-x,-y,z
1/2+x,-y,-z
-x,y,-z
-x,-y,-z
1/2+x,y,-z
1/2-x,y,z
x,-y,z
loop_
_atom_site_type_symbol
_atom_site_label
_atom_site_fract_x
_atom_site_fract_y
_atom_site_fract_z
Si Si1 0.158570 0.185734 0.333532
Si Si2 0.411131 0.685347 0.029207
Si Si3 0.750000 0.814150 0.218425
Si Si4 0.010347 0.314105 0.418494
Si Si5 0.750000 0.814180 0.048550
Si Si6 0.917194 0.686427 0.276124
Si Si7 0.566480 0.184987 0.812567
O O1 0.250000 0.235130 0.345094
O O2 0.096909 0.266467 0.387459
O O3 0.129961 0.218673 0.251598
O O4 0.152873 0.000000 0.342884
O O5 0.407865 0.500000 0.022462
O O6 0.409172 0.735734 0.112861
O O7 0.500000 0.736910 0.000000
O O8 0.332821 0.753260 0.988169
O O9 0.750000 0.769846 0.133400
O O10 0.829533 0.747845 0.256310
O O11 0.750000 0.000000 0.222480
O O12 0.004487 0.500000 0.421170
O O13 0.000000 0.253404 0.500000
O O14 0.946995 0.262446 0.356372
O O15 0.750000 0.000000 0.043149
O O16 0.919237 0.500000 0.273087
O O17 0.981460 0.752590 0.218247
O O18 0.561680 0.000000 0.822645
#
# Coordination Sequence:
#
# PCOD9404591 Si02
#       7
#     8   8   4   8   4   8   8
#     4   9  19  35  55  82 113 145 182 224 274 328
#     4  11  24  40  58  84 117 152 193 242 295 347
#     4  11  23  39  59  83 112 145 192 239 281 340
#     4   9  19  37  58  82 113 147 185 227 273 328
#     4  11  25  41  59  83 114 153 196 243 295 348
#     4  10  20  36  59  84 112 150 191 233 284 334
#     4  10  20  35  58  82 112 150 190 234 281 336
#
# _framework density 18.213712000000001
#
# number of rings (size 3 to 8) (size 9 to 14) (size 15 to 20)
#    0.000    2.000    0.000    3.000    1.167    7.333 
#    1.500    0.000    0.000    0.000    0.000    0.000 
#    0.000    0.000    0.000    0.000    0.000    0.000 
#
# Total GULP energy -268001.340641 kJ/mol
# GULP energy per Si atom -5583.361263 kJ/mol
# Density = 1.817226 g / cm^3
# Si number density = 18.213712 Si / 1000 Ang^3
#
#
#
# Elastic Constant Matrix: (Units=GPa)
#
#
# Indices 1 2 3 4 5 6 
#
# 1 158.4900 30.9755 88.8447 0.0000 0.0000 0.0000
# 2 30.9755 24.3789 27.0498 0.0000 0.0000 0.0000
# 3 88.8447 27.0498 135.0787 0.0000 0.0000 0.0000
# 4 0.0000 0.0000 0.0000 22.0855 0.0000 0.0000
# 5 0.0000 0.0000 0.0000 0.0000 6.8402 0.0000
# 6 0.0000 0.0000 0.0000 0.0000 0.0000 33.0602
#
#
#
# Elastic Compliance Matrix: (Units=1/GPa)
#
#
# Indices 1 2 3 4 5 6 
#
# 1 0.011003 -0.007650 -0.005705 0.000000 0.000000 0.000000
# 2 -0.007650 0.058056 -0.006594 0.000000 0.000000 0.000000
# 3 -0.005705 -0.006594 0.012476 0.000000 0.000000 0.000000
# 4 0.000000 0.000000 0.000000 0.045279 0.000000 0.000000
# 5 0.000000 0.000000 0.000000 0.000000 0.146195 0.000000
# 6 0.000000 0.000000 0.000000 0.000000 0.000000 0.030248
#
#
# Mechanical properties :
#
#
# Convention : Reuss Voigt Hill
#
# Bulk Modulus (GPa) = 24.01755 67.96531 45.99143
# Shear Modulus (GPa) = 14.00435 23.80235 18.90335
#
# Velocity S-wave (km/s) = 2.77590 3.61894 3.22508
# Velocity P-wave (km/s) = 4.84657 7.40667 6.25892
#
# Compressibility (1/GPa) = 0.04163622
#
# Stress axis : x y z
#
# Youngs Moduli (GPa) = 90.88776 17.22481 80.15544
#
# Poissons Ratio (x) = 0.13177 0.45727
# Poissons Ratio (y) = 0.69529 0.52856
# Poissons Ratio (z) = 0.51849 0.11358
#
# Static dielectric constant tensor:
#      x y z
#    x 1.604310 0.000000 0.000000 
#    y 0.000000 1.618620 0.000000 
#    z 0.000000 0.000000 1.613280 
# 
# From -- ./inp_files/29585.got.cif
#   From: 2010.05.17/outbox.cif.g08.bks.cpg/sg51_15_cif.got.tgz:29585.got - 2010.06.03 11:52:47.
