data_PCOD9404734
_publ_section_title
;
Structure prediction by ZEFSAII (Michael W. Deem and Ramdas Pophale) SiO2 
 PCOD9404734
Probable space group: P M M A
;
_chemical_formula_sum "Si O2"
_cell_formula_units_Z 64
_cell_length_a 8.355189
_cell_length_b 24.672740
_cell_length_c 15.497315
_cell_angle_alpha 90.000000
_cell_angle_beta 90.000000
_cell_angle_gamma 90.000000
_cell_volume 3194.700290
_symmetry_space_group_name_H-M "P M M A"
_symmetry_group_IT_number 51
_symmetry_cell_setting 'orthorhombic'
loop_
_space_group_symop_operation_xyz
x,y,z
1/2-x,-y,z
1/2+x,-y,-z
-x,y,-z
-x,-y,-z
1/2+x,y,-z
1/2-x,y,z
x,-y,z
loop_
_atom_site_type_symbol
_atom_site_label
_atom_site_fract_x
_atom_site_fract_y
_atom_site_fract_z
Si Si1 0.941513 0.061144 0.086332
Si Si2 0.441915 0.604411 0.595023
Si Si3 0.059076 0.440242 0.227545
Si Si4 0.557088 0.729221 0.405078
Si Si5 0.056480 0.938639 0.714664
Si Si6 0.943309 0.225674 0.096435
Si Si7 0.553619 0.176849 0.276614
Si Si8 0.940896 0.350064 0.095606
O O1 0.750000 0.060998 0.081730
O O2 0.979341 0.073783 0.184668
O O3 0.007205 0.000000 0.081083
O O4 0.000000 0.090435 0.000000
O O5 0.500000 0.587660 0.500000
O O6 0.250000 0.602976 0.596646
O O7 0.507790 0.570037 0.674045
O O8 0.495822 0.667104 0.609194
O O9 0.250000 0.439546 0.222720
O O10 0.001205 0.500000 0.199825
O O11 0.995544 0.392533 0.166922
O O12 0.500000 0.745522 0.500000
O O13 0.750000 0.728781 0.403332
O O14 0.502575 0.772005 0.333839
O O15 0.250000 0.941900 0.705252
O O16 0.002780 0.880234 0.678535
O O17 0.997106 0.000000 0.692697
O O18 0.750000 0.223427 0.095574
O O19 0.996948 0.189225 0.177502
O O20 0.994884 0.288095 0.113098
O O21 0.000000 0.211833 0.000000
O O22 0.750000 0.175587 0.274725
O O23 0.750000 0.348925 0.095135
O O24 0.000000 0.365179 0.000000
#
# Coordination Sequence:
#
# PCOD9404734 Si02
#       8
#     8   8   8   8   8   8   8   8
#     4   8  13  21  33  50  73 103 142 185 223 260
#     4  10  20  36  58  82 108 138 172 211 260 316
#     4  11  24  39  55  79 110 143 180 218 256 304
#     4   9  18  33  54  79 102 126 160 205 257 308
#     4   8  14  24  39  61  88 121 162 201 236 282
#     4   9  18  32  50  74 102 132 167 208 255 305
#     4   9  16  28  47  69  97 131 164 203 250 299
#     4  10  20  36  57  78 103 138 180 225 272 317
#
# _framework density 20.033176999999998
#
# number of rings (size 3 to 8) (size 9 to 14) (size 15 to 20)
#    0.000    2.750    0.000    2.625    0.000    5.000 
#    0.000    0.625    0.000    1.125    0.000    0.000 
#    0.000    0.000    0.000    0.000    0.000    0.000 
#
# Total GULP energy -356457.360544 kJ/mol
# GULP energy per Si atom -5569.646259 kJ/mol
# Density = 1.998758 g / cm^3
# Si number density = 20.033177 Si / 1000 Ang^3
#
#
#
# Elastic Constant Matrix: (Units=GPa)
#
#
# Indices 1 2 3 4 5 6 
#
# 1 6.4034 12.3471 3.7327 0.0000 0.0000 0.0000
# 2 12.3471 116.1843 43.0413 0.0000 0.0000 0.0000
# 3 3.7327 43.0413 52.2100 0.0000 0.0000 0.0000
# 4 0.0000 0.0000 0.0000 -13.8107 0.0000 0.0000
# 5 0.0000 0.0000 0.0000 0.0000 27.8177 0.0000
# 6 0.0000 0.0000 0.0000 0.0000 0.0000 -2.4980
#
#
#
# Elastic Compliance Matrix: (Units=1/GPa)
#
#
# Indices 1 2 3 4 5 6 
#
# 1 0.197172 -0.022649 0.004575 0.000000 0.000000 0.000000
# 2 -0.022649 0.014993 -0.010741 0.000000 0.000000 0.000000
# 3 0.004575 -0.010741 0.027681 0.000000 0.000000 0.000000
# 4 0.000000 0.000000 0.000000 -0.072407 0.000000 0.000000
# 5 0.000000 0.000000 0.000000 0.000000 0.035948 0.000000
# 6 0.000000 0.000000 0.000000 0.000000 0.000000 -0.400328
#
#
# Mechanical properties :
#
#
# Convention : Reuss Voigt Hill
#
# Bulk Modulus (GPa) = 5.48797 32.55998 19.02398
# Shear Modulus (GPa) = -63.63498 10.01358 -26.81070
#
# Velocity S-wave (km/s) = -5.64214 2.23816 -3.66227
# Velocity P-wave (km/s) = 6.30076 4.79244 2.89242
#
# Compressibility (1/GPa) = 0.18221673
#
# Stress axis : x y z
#
# Youngs Moduli (GPa) = 5.07171 66.69819 36.12600
#
# Poissons Ratio (x) = 1.51062 -0.16527
# Poissons Ratio (y) = 0.11487 0.38802
# Poissons Ratio (z) = -0.02320 0.71639
#
# Static dielectric constant tensor:
#      x y z
#    x 1.680870 0.000000 0.000000 
#    y 0.000000 1.779190 0.000000 
#    z 0.000000 0.000000 1.772750 
# 
# From -- ./inp_files/22385.got.cif
#   From: 2010.05.17/outbox.cif.g08.bks.cpg/sg51_12_cif.got.tgz:22385.got - 2010.06.03 11:52:47.
