data_PCOD9404227
_publ_section_title
;
Structure prediction by ZEFSAII (Michael W. Deem and Ramdas Pophale) SiO2 
 PCOD9404227
Probable space group: P M M A
;
_chemical_formula_sum "Si O2"
_cell_formula_units_Z 64
_cell_length_a 28.888235
_cell_length_b 19.016257
_cell_length_c 6.292455
_cell_angle_alpha 90.000000
_cell_angle_beta 90.000000
_cell_angle_gamma 90.000000
_cell_volume 3456.735620
_symmetry_space_group_name_H-M "P M M A"
_symmetry_group_IT_number 51
_symmetry_cell_setting 'orthorhombic'
loop_
_space_group_symop_operation_xyz
x,y,z
1/2-x,-y,z
1/2+x,-y,-z
-x,y,-z
-x,-y,-z
1/2+x,y,-z
1/2-x,y,z
x,-y,z
loop_
_atom_site_type_symbol
_atom_site_label
_atom_site_fract_x
_atom_site_fract_y
_atom_site_fract_z
Si Si1 0.677947 0.304466 0.137947
Si Si2 0.299589 0.182882 0.169290
Si Si3 0.450777 0.576801 0.883382
Si Si4 0.696566 0.083057 0.211812
Si Si5 0.053674 0.293184 0.551676
Si Si6 0.198880 0.417288 0.527909
Si Si7 0.383803 0.371330 0.212574
Si Si8 0.635309 0.804844 0.447815
O O1 0.696936 0.374146 0.251066
O O2 0.661287 0.260377 0.339139
O O3 0.703927 0.247259 0.995900
O O4 0.638841 0.326276 0.973882
O O5 0.250000 0.181342 0.287973
O O6 0.344375 0.191444 0.315462
O O7 0.304372 0.113097 0.027743
O O8 0.449107 0.500000 0.769572
O O9 0.443817 0.644910 0.731711
O O10 0.500000 0.583634 0.000000
O O11 0.413408 0.575067 0.072538
O O12 0.750000 0.096814 0.285958
O O13 0.656820 0.126242 0.335568
O O14 0.688993 0.000000 0.222533
O O15 0.080307 0.327415 0.352682
O O16 0.082303 0.220169 0.587183
O O17 0.000000 0.280662 0.500000
O O18 0.250000 0.402390 0.431124
O O19 0.195598 0.500000 0.572115
O O20 0.157211 0.397849 0.367550
#
# Coordination Sequence:
#
# PCOD9404227 Si02
#       8
#     8   8   8   8   8   8   8   8
#     4  11  21  37  58  82 116 154 203 250 301 363
#     4  10  20  34  58  89 123 157 195 241 295 357
#     4  11  24  40  62  89 117 157 207 268 337 387
#     4   9  20  38  63  96 131 165 199 238 291 360
#     4  12  24  41  62  88 123 159 209 265 320 382
#     4  11  25  41  57  80 114 160 210 257 311 377
#     4  12  22  41  61  86 116 156 205 266 322 375
#     4  11  21  38  60  90 122 158 200 245 299 361
#
# _framework density 18.514576000000002
#
# number of rings (size 3 to 8) (size 9 to 14) (size 15 to 20)
#    0.000    1.125    5.000    1.125    0.000    7.250 
#    0.000    2.500    0.000    0.375    0.000    0.875 
#    0.000    0.000    0.000    0.000    0.000    0.000 
#
# Total GULP energy -356386.384616 kJ/mol
# GULP energy per Si atom -5568.537260 kJ/mol
# Density = 1.847244 g / cm^3
# Si number density = 18.514576 Si / 1000 Ang^3
#
#
#
# Elastic Constant Matrix: (Units=GPa)
#
#
# Indices 1 2 3 4 5 6 
#
# 1 138.0853 64.5146 42.7483 0.0000 0.0000 0.0000
# 2 64.5146 118.9135 43.8413 0.0000 0.0000 0.0000
# 3 42.7483 43.8413 70.0173 0.0000 0.0000 0.0000
# 4 0.0000 0.0000 0.0000 19.9763 0.0000 0.0000
# 5 0.0000 0.0000 0.0000 0.0000 21.7686 0.0000
# 6 0.0000 0.0000 0.0000 0.0000 0.0000 43.5118
#
#
#
# Elastic Compliance Matrix: (Units=1/GPa)
#
#
# Indices 1 2 3 4 5 6 
#
# 1 0.010373 -0.004281 -0.003652 0.000000 0.000000 0.000000
# 2 -0.004281 0.012700 -0.005339 0.000000 0.000000 0.000000
# 3 -0.003652 -0.005339 0.019855 0.000000 0.000000 0.000000
# 4 0.000000 0.000000 0.000000 0.050059 0.000000 0.000000
# 5 0.000000 0.000000 0.000000 0.000000 0.045938 0.000000
# 6 0.000000 0.000000 0.000000 0.000000 0.000000 0.022982
#
#
# Mechanical properties :
#
#
# Convention : Reuss Voigt Hill
#
# Bulk Modulus (GPa) = 61.03537 69.91384 65.47460
# Shear Modulus (GPa) = 25.78484 28.77880 27.28182
#
# Velocity S-wave (km/s) = 3.73591 3.94685 3.84283
# Velocity P-wave (km/s) = 7.18659 7.65595 7.42498
#
# Compressibility (1/GPa) = 0.01638394
#
# Stress axis : x y z
#
# Youngs Moduli (GPa) = 96.40669 78.73834 50.36538
#
# Poissons Ratio (x) = 0.33708 0.18396
# Poissons Ratio (y) = 0.41271 0.26888
# Poissons Ratio (z) = 0.35212 0.42035
#
# Static dielectric constant tensor:
#      x y z
#    x 1.688110 0.000000 0.000000 
#    y 0.000000 1.647280 0.000000 
#    z 0.000000 0.000000 1.652730 
# 
# From -- ./inp_files/4112.got.cif
#   From: 2010.05.17/outbox.cif.g08.bks.cpg/sg51_3_cif.got.tgz:4112.got - 2010.06.03 11:52:47.
