data_PCOD9404096
_publ_section_title
;
Structure prediction by ZEFSAII (Michael W. Deem and Ramdas Pophale) SiO2 
 PCOD9404096
Probable space group: P M M A
;
_chemical_formula_sum "Si O2"
_cell_formula_units_Z 48
_cell_length_a 8.701252
_cell_length_b 31.576169
_cell_length_c 9.595422
_cell_angle_alpha 90.000000
_cell_angle_beta 90.000000
_cell_angle_gamma 90.000000
_cell_volume 2636.363340
_symmetry_space_group_name_H-M "P M M A"
_symmetry_group_IT_number 51
_symmetry_cell_setting 'orthorhombic'
loop_
_space_group_symop_operation_xyz
x,y,z
1/2-x,-y,z
1/2+x,-y,-z
-x,y,-z
-x,-y,-z
1/2+x,y,-z
1/2-x,y,z
x,-y,z
loop_
_atom_site_type_symbol
_atom_site_label
_atom_site_fract_x
_atom_site_fract_y
_atom_site_fract_z
Si Si1 0.567139 0.449849 0.152055
Si Si2 0.433885 0.121957 0.156116
Si Si3 0.433798 0.303205 0.842490
Si Si4 0.434404 0.215507 0.157130
Si Si5 0.066452 0.378763 0.344611
Si Si6 0.066013 0.047792 0.655180
O O1 0.750000 0.442050 0.153104
O O2 0.541080 0.500000 0.173290
O O3 0.486407 0.421798 0.268664
O O4 0.500000 0.438604 0.000000
O O5 0.250000 0.119059 0.149090
O O6 0.471493 0.168946 0.216395
O O7 0.500016 0.084144 0.247203
O O8 0.500000 0.119336 0.000000
O O9 0.250000 0.304448 0.849112
O O10 0.489688 0.257767 0.782571
O O11 0.498237 0.340679 0.747860
O O12 0.500000 0.307243 0.000000
O O13 0.250000 0.220552 0.153840
O O14 0.500000 0.213865 0.000000
O O15 0.250000 0.376036 0.347693
O O16 0.000000 0.376943 0.500000
O O17 0.250000 0.050686 0.650778
O O18 0.000000 0.052757 0.500000
O O19 0.024730 0.000000 0.703241
#
# Coordination Sequence:
#
# PCOD9404096 Si02
#       6
#     8   8   8   8   8   8
#     4  10  21  39  63  90 118 149 188 232 276 325
#     4  10  20  34  55  82 112 143 178 223 272 324
#     4  11  21  36  59  85 112 146 187 228 272 323
#     4   9  17  31  52  80 110 141 179 223 272 322
#     4  12  25  41  59  82 115 151 188 231 280 332
#     4  10  21  37  56  77 104 140 181 224 271 325
#
# _framework density 18.206899
#
# number of rings (size 3 to 8) (size 9 to 14) (size 15 to 20)
#    0.000    1.667    0.000    6.500    0.000    4.667 
#    0.000    0.833    0.000    4.000    0.000    0.000 
#    0.000    0.000    0.000    0.000    0.000    0.000 
#
# Total GULP energy -268059.812415 kJ/mol
# GULP energy per Si atom -5584.579425 kJ/mol
# Density = 1.816546 g / cm^3
# Si number density = 18.206899 Si / 1000 Ang^3
#
#
#
# Elastic Constant Matrix: (Units=GPa)
#
#
# Indices 1 2 3 4 5 6 
#
# 1 140.9292 80.4452 55.9993 0.0000 0.0000 0.0000
# 2 80.4452 128.4846 78.0139 0.0000 0.0000 0.0000
# 3 55.9993 78.0139 91.6587 0.0000 0.0000 0.0000
# 4 0.0000 0.0000 0.0000 -29.8820 0.0000 0.0000
# 5 0.0000 0.0000 0.0000 0.0000 32.6827 0.0000
# 6 0.0000 0.0000 0.0000 0.0000 0.0000 34.6758
#
#
#
# Elastic Compliance Matrix: (Units=1/GPa)
#
#
# Indices 1 2 3 4 5 6 
#
# 1 0.011185 -0.005906 -0.001807 0.000000 0.000000 0.000000
# 2 -0.005906 0.019226 -0.012755 0.000000 0.000000 0.000000
# 3 -0.001807 -0.012755 0.022870 0.000000 0.000000 0.000000
# 4 0.000000 0.000000 0.000000 -0.033465 0.000000 0.000000
# 5 0.000000 0.000000 0.000000 0.000000 0.030597 0.000000
# 6 0.000000 0.000000 0.000000 0.000000 0.000000 0.028839
#
#
# Mechanical properties :
#
#
# Convention : Reuss Voigt Hill
#
# Bulk Modulus (GPa) = 81.00503 87.77658 84.39081
# Shear Modulus (GPa) = 40.22439 17.26958 28.74698
#
# Velocity S-wave (km/s) = 4.70541 3.08314 3.97786
# Velocity P-wave (km/s) = 8.60867 7.80959 8.21884
#
# Compressibility (1/GPa) = 0.01234491
#
# Stress axis : x y z
#
# Youngs Moduli (GPa) = 89.40611 52.01383 43.72473
#
# Poissons Ratio (x) = 0.30719 0.07900
# Poissons Ratio (y) = 0.52803 0.55772
# Poissons Ratio (z) = 0.16153 0.66345
#
# Static dielectric constant tensor:
#      x y z
#    x 1.605420 0.000000 0.000000 
#    y 0.000000 1.657370 0.000000 
#    z 0.000000 0.000000 1.583830 
# 
# From -- ./inp_files/5963.got.cif
#   From: 2010.05.17/outbox.cif.g08.bks.cpg/sg51_3_cif.got.tgz:5963.got - 2010.06.03 11:52:47.
