data_PCOD9404342
_publ_section_title
;
Structure prediction by ZEFSAII (Michael W. Deem and Ramdas Pophale) SiO2 
 PCOD9404342
Probable space group: P M M A
;
_chemical_formula_sum "Si O2"
_cell_formula_units_Z 40
_cell_length_a 11.725663
_cell_length_b 7.928086
_cell_length_c 18.631592
_cell_angle_alpha 90.000000
_cell_angle_beta 90.000000
_cell_angle_gamma 90.000000
_cell_volume 1732.031260
_symmetry_space_group_name_H-M "P M M A"
_symmetry_group_IT_number 51
_symmetry_cell_setting 'orthorhombic'
loop_
_space_group_symop_operation_xyz
x,y,z
1/2-x,-y,z
1/2+x,-y,-z
-x,y,-z
-x,-y,-z
1/2+x,y,-z
1/2-x,y,z
x,-y,z
loop_
_atom_site_type_symbol
_atom_site_label
_atom_site_fract_x
_atom_site_fract_y
_atom_site_fract_z
Si Si1 0.873630 0.195394 0.758447
Si Si2 0.876250 0.800379 0.200158
Si Si3 0.875052 0.808622 0.441400
Si Si4 0.903864 0.690516 0.603490
Si Si5 0.622722 0.704708 0.034065
O O1 0.750000 0.268192 0.783852
O O2 0.869316 0.205014 0.672136
O O3 0.998737 0.270680 0.776876
O O4 0.875589 0.000000 0.781889
O O5 0.750000 0.734838 0.224653
O O6 0.876254 0.776731 0.114440
O O7 0.877718 0.000000 0.219322
O O8 0.750000 0.796257 0.411808
O O9 0.872198 0.765348 0.525914
O O10 0.960139 0.690234 0.400870
O O11 0.916037 0.000000 0.432976
O O12 0.864759 0.500000 0.609804
O O13 0.750000 0.750214 0.002170
O O14 0.620553 0.500000 0.036704
O O15 0.500000 0.757337 0.000000
#
# Coordination Sequence:
#
# PCOD9404342 Si02
#       5
#     8   8   8   8   8
#     4  10  21  37  55  75 103 140 180 220 265 319
#     4   9  19  36  56  78 105 138 177 220 263 307
#     4  10  20  35  55  75  98 133 175 217 265 324
#     4  11  22  34  51  76 105 134 168 217 272 322
#     4   9  18  33  53  78 109 143 175 209 254 307
#
# _framework density 23.094272
#
# number of rings (size 3 to 8) (size 9 to 14) (size 15 to 20)
#    0.000    2.200    0.000    4.200    0.000    7.200 
#    0.000    2.000    0.000    0.000    0.000    0.000 
#    0.000    0.000    0.000    0.000    0.000    0.000 
#
# Total GULP energy -222804.755290 kJ/mol
# GULP energy per Si atom -5570.118882 kJ/mol
# Density = 2.304171 g / cm^3
# Si number density = 23.094272 Si / 1000 Ang^3
#
#
#
# Elastic Constant Matrix: (Units=GPa)
#
#
# Indices 1 2 3 4 5 6 
#
# 1 271.2823 21.5908 37.0294 0.0000 0.0000 0.0000
# 2 21.5908 50.9185 -11.4275 0.0000 0.0000 0.0000
# 3 37.0294 -11.4275 36.6645 0.0000 0.0000 0.0000
# 4 0.0000 0.0000 0.0000 29.6536 0.0000 0.0000
# 5 0.0000 0.0000 0.0000 0.0000 7.0459 0.0000
# 6 0.0000 0.0000 0.0000 0.0000 0.0000 -46.6433
#
#
#
# Elastic Compliance Matrix: (Units=1/GPa)
#
#
# Indices 1 2 3 4 5 6 
#
# 1 0.004746 -0.003320 -0.005828 0.000000 0.000000 0.000000
# 2 -0.003320 0.023439 0.010659 0.000000 0.000000 0.000000
# 3 -0.005828 0.010659 0.036483 0.000000 0.000000 0.000000
# 4 0.000000 0.000000 0.000000 0.033723 0.000000 0.000000
# 5 0.000000 0.000000 0.000000 0.000000 0.141927 0.000000
# 6 0.000000 0.000000 0.000000 0.000000 0.000000 -0.021439
#
#
# Mechanical properties :
#
#
# Convention : Reuss Voigt Hill
#
# Bulk Modulus (GPa) = 14.77352 50.36121 32.56736
# Shear Modulus (GPa) = 20.97138 18.78941 19.88039
#
# Velocity S-wave (km/s) = 3.01670 2.85546 2.93718
# Velocity P-wave (km/s) = 4.30638 5.72063 5.06313
#
# Compressibility (1/GPa) = 0.06768868
#
# Stress axis : x y z
#
# Youngs Moduli (GPa) = 210.70449 42.66337 27.41036
#
# Poissons Ratio (x) = 0.14166 0.15975
# Poissons Ratio (y) = 0.69962 -0.29216
# Poissons Ratio (z) = 1.22801 -0.45475
#
# Static dielectric constant tensor:
#      x y z
#    x 2.021710 0.000000 0.000000 
#    y 0.000000 1.823110 0.000000 
#    z 0.000000 0.000000 1.807970 
# 
# From -- ./inp_files/28816.got.cif
#   From: 2010.05.17/outbox.cif.g08.bks.cpg/sg51_15_cif.got.tgz:28816.got - 2010.06.03 11:52:47.
