data_PCOD9404375
_publ_section_title
;
Structure prediction by ZEFSAII (Michael W. Deem and Ramdas Pophale) SiO2 
 PCOD9404375
Probable space group: P M M A
;
_chemical_formula_sum "Si O2"
_cell_formula_units_Z 48
_cell_length_a 8.736884
_cell_length_b 31.400847
_cell_length_c 9.663001
_cell_angle_alpha 90.000000
_cell_angle_beta 90.000000
_cell_angle_gamma 90.000000
_cell_volume 2651.001399
_symmetry_space_group_name_H-M "P M M A"
_symmetry_group_IT_number 51
_symmetry_cell_setting 'orthorhombic'
loop_
_space_group_symop_operation_xyz
x,y,z
1/2-x,-y,z
1/2+x,-y,-z
-x,y,-z
-x,-y,-z
1/2+x,y,-z
1/2-x,y,z
x,-y,z
loop_
_atom_site_type_symbol
_atom_site_label
_atom_site_fract_x
_atom_site_fract_y
_atom_site_fract_z
Si Si1 0.934895 0.795057 0.154062
Si Si2 0.565344 0.048918 0.150312
Si Si3 0.934414 0.282419 0.347300
Si Si4 0.566559 0.620511 0.347532
Si Si5 0.934763 0.874758 0.346268
Si Si6 0.066831 0.452199 0.153918
O O1 0.750000 0.795044 0.145501
O O2 0.984045 0.752304 0.235016
O O3 0.980709 0.835204 0.248928
O O4 0.000000 0.797643 0.000000
O O5 0.750000 0.050166 0.142330
O O6 0.516706 0.081961 0.268089
O O7 0.518846 0.000000 0.178656
O O8 0.500000 0.061067 0.000000
O O9 0.750000 0.280544 0.356840
O O10 0.977174 0.330881 0.308215
O O11 0.000000 0.273260 0.500000
O O12 0.500000 0.613239 0.500000
O O13 0.750000 0.618094 0.350623
O O14 0.501150 0.585033 0.246546
O O15 0.750000 0.874577 0.354926
O O16 0.000000 0.871330 0.500000
O O17 0.250000 0.448780 0.149123
O O18 0.027890 0.500000 0.205979
O O19 0.000000 0.448708 0.000000
#
# Coordination Sequence:
#
# PCOD9404375 Si02
#       6
#     8   8   8   8   8   8
#     4  10  21  36  53  76 104 133 170 212 254 303
#     4   9  18  33  52  75 103 134 170 212 256 303
#     4   9  19  35  54  77 104 134 169 209 253 303
#     4  10  20  35  55  79 107 138 173 213 257 306
#     4  10  21  35  52  75 103 135 171 212 256 304
#     4  10  21  37  56  78 105 138 175 215 260 308
#
# _framework density 18.106366999999999
#
# number of rings (size 3 to 8) (size 9 to 14) (size 15 to 20)
#    0.000    2.333    0.000    2.000    0.000    5.000 
#    0.000    1.667    0.000    0.000    0.000    0.000 
#    0.000    0.000    0.000    0.000    0.000    0.000 
#
# Total GULP energy -267905.431995 kJ/mol
# GULP energy per Si atom -5581.363167 kJ/mol
# Density = 1.806516 g / cm^3
# Si number density = 18.106367 Si / 1000 Ang^3
#
#
#
# Elastic Constant Matrix: (Units=GPa)
#
#
# Indices 1 2 3 4 5 6 
#
# 1 23.4280 41.5044 36.6137 0.0000 0.0000 0.0000
# 2 41.5044 152.8872 125.5508 0.0000 0.0000 0.0000
# 3 36.6137 125.5508 160.3332 0.0000 0.0000 0.0000
# 4 0.0000 0.0000 0.0000 42.5017 0.0000 0.0000
# 5 0.0000 0.0000 0.0000 0.0000 38.1151 0.0000
# 6 0.0000 0.0000 0.0000 0.0000 0.0000 66.3618
#
#
#
# Elastic Compliance Matrix: (Units=1/GPa)
#
#
# Indices 1 2 3 4 5 6 
#
# 1 0.082995 -0.019517 -0.003669 0.000000 0.000000 0.000000
# 2 -0.019517 0.022914 -0.013486 0.000000 0.000000 0.000000
# 3 -0.003669 -0.013486 0.017635 0.000000 0.000000 0.000000
# 4 0.000000 0.000000 0.000000 0.023528 0.000000 0.000000
# 5 0.000000 0.000000 0.000000 0.000000 0.026236 0.000000
# 6 0.000000 0.000000 0.000000 0.000000 0.000000 0.015069
#
#
# Mechanical properties :
#
#
# Convention : Reuss Voigt Hill
#
# Bulk Modulus (GPa) = 19.92091 82.66513 51.29302
# Shear Modulus (GPa) = 17.95617 38.26102 28.10859
#
# Velocity S-wave (km/s) = 3.15255 4.60186 3.94434
# Velocity P-wave (km/s) = 4.92722 8.60178 7.00957
#
# Compressibility (1/GPa) = 0.05019852
#
# Stress axis : x y z
#
# Youngs Moduli (GPa) = 12.04895 43.64176 56.70447
#
# Poissons Ratio (x) = 0.85177 0.20807
# Poissons Ratio (y) = 0.23516 0.76471
# Poissons Ratio (z) = 0.04421 0.58855
#
# Static dielectric constant tensor:
#      x y z
#    x 1.610580 0.000000 0.000000 
#    y 0.000000 1.638710 0.000000 
#    z 0.000000 0.000000 1.565870 
# 
# From -- ./inp_files/5949.got.cif
#   From: 2010.05.17/outbox.cif.g08.bks.cpg/sg51_3_cif.got.tgz:5949.got - 2010.06.03 11:52:47.
