data_PCOD9404052
_publ_section_title
;
Structure prediction by ZEFSAII (Michael W. Deem and Ramdas Pophale) SiO2 
 PCOD9404052
Probable space group: P M M A
;
_chemical_formula_sum "Si O2"
_cell_formula_units_Z 64
_cell_length_a 16.030022
_cell_length_b 9.138954
_cell_length_c 24.123102
_cell_angle_alpha 90.000000
_cell_angle_beta 90.000000
_cell_angle_gamma 90.000000
_cell_volume 3533.977360
_symmetry_space_group_name_H-M "P M M A"
_symmetry_group_IT_number 51
_symmetry_cell_setting 'orthorhombic'
loop_
_space_group_symop_operation_xyz
x,y,z
1/2-x,-y,z
1/2+x,-y,-z
-x,y,-z
-x,-y,-z
1/2+x,y,-z
1/2-x,y,z
x,-y,z
loop_
_atom_site_type_symbol
_atom_site_label
_atom_site_fract_x
_atom_site_fract_y
_atom_site_fract_z
Si Si1 0.896766 0.826359 0.441838
Si Si2 0.158302 0.324543 0.668191
Si Si3 0.343834 0.676086 0.322693
Si Si4 0.911350 0.332479 0.032717
Si Si5 0.841118 0.173899 0.930444
Si Si6 0.009792 0.824639 0.866405
Si Si7 0.994257 0.677152 0.252393
Si Si8 0.403025 0.826119 0.434230
O O1 0.852476 0.742864 0.392513
O O2 0.873734 0.779650 0.504332
O O3 0.996609 0.805479 0.434279
O O4 0.880735 0.000000 0.437801
O O5 0.250000 0.284848 0.690579
O O6 0.154110 0.500000 0.663805
O O7 0.081468 0.279040 0.706947
O O8 0.250000 0.718102 0.305087
O O9 0.347119 0.500000 0.326753
O O10 0.417838 0.720165 0.280851
O O11 0.363109 0.742650 0.382972
O O12 0.888045 0.500000 0.044187
O O13 0.926325 0.242684 0.088820
O O14 0.851185 0.255778 0.988764
O O15 0.000000 0.332938 0.000000
O O16 0.750000 0.205729 0.906247
O O17 0.917516 0.212489 0.890383
O O18 0.847509 0.000000 0.940776
O O19 0.017803 0.752323 0.806631
O O20 0.017839 0.000000 0.864071
O O21 0.993314 0.500000 0.246448
O O22 0.387464 0.000000 0.428799
#
# Coordination Sequence:
#
# PCOD9404052 Si02
#       8
#     8   8   8   8   8   8   8   8
#     4   9  18  33  54  79 106 135 170 215 269 327
#     4  10  21  37  57  79 101 132 177 224 273 328
#     4  10  21  36  54  77 105 140 181 221 267 325
#     4   9  17  31  52  78 106 137 173 210 250 301
#     4   9  18  33  53  80 114 144 172 214 263 310
#     4  10  20  34  55  79 104 141 184 220 261 315
#     4  10  21  38  55  74 105 142 178 227 277 314
#     4   9  18  33  53  78 107 138 172 213 265 327
#
# _framework density 18.109908000000001
#
# number of rings (size 3 to 8) (size 9 to 14) (size 15 to 20)
#    0.000    2.500    1.250    1.500    0.000    5.250 
#    0.000    4.375    0.000    2.250    0.000    0.000 
#    0.000    0.000    0.000    0.000    0.000    0.000 
#
# Total GULP energy -356937.415849 kJ/mol
# GULP energy per Si atom -5577.147123 kJ/mol
# Density = 1.806869 g / cm^3
# Si number density = 18.109908 Si / 1000 Ang^3
#
#
#
# Elastic Constant Matrix: (Units=GPa)
#
#
# Indices 1 2 3 4 5 6 
#
# 1 61.8855 16.5636 29.2702 0.0000 0.0000 0.0000
# 2 16.5636 16.3817 28.7580 0.0000 0.0000 0.0000
# 3 29.2702 28.7580 113.8501 0.0000 0.0000 0.0000
# 4 0.0000 0.0000 0.0000 37.1806 0.0000 0.0000
# 5 0.0000 0.0000 0.0000 0.0000 6.1642 0.0000
# 6 0.0000 0.0000 0.0000 0.0000 0.0000 15.9221
#
#
#
# Elastic Compliance Matrix: (Units=1/GPa)
#
#
# Indices 1 2 3 4 5 6 
#
# 1 0.022155 -0.022282 -0.000067 0.000000 0.000000 0.000000
# 2 -0.022282 0.132088 -0.027636 0.000000 0.000000 0.000000
# 3 -0.000067 -0.027636 0.015782 0.000000 0.000000 0.000000
# 4 0.000000 0.000000 0.000000 0.026896 0.000000 0.000000
# 5 0.000000 0.000000 0.000000 0.000000 0.162228 0.000000
# 6 0.000000 0.000000 0.000000 0.000000 0.000000 0.062806
#
#
# Mechanical properties :
#
#
# Convention : Reuss Voigt Hill
#
# Bulk Modulus (GPa) = 14.27496 37.92232 26.09864
# Shear Modulus (GPa) = 9.16966 19.68843 14.42904
#
# Velocity S-wave (km/s) = 2.25263 3.30079 2.82574
# Velocity P-wave (km/s) = 3.82953 5.95924 5.00888
#
# Compressibility (1/GPa) = 0.07005275
#
# Stress axis : x y z
#
# Youngs Moduli (GPa) = 45.13737 7.57069 63.36494
#
# Poissons Ratio (x) = 0.16869 0.00427
# Poissons Ratio (y) = 1.00576 1.75117
# Poissons Ratio (z) = 0.00304 0.20923
#
# Static dielectric constant tensor:
#      x y z
#    x 1.655360 0.000000 0.000000 
#    y 0.000000 1.601450 0.000000 
#    z 0.000000 0.000000 1.584070 
# 
# From -- ./inp_files/35712.got.cif
#   From: 2010.05.17/outbox.cif.g08.bks.cpg/sg51_18_cif.got.tgz:35712.got - 2010.06.03 11:52:47.
