data_PCOD9404538
_publ_section_title
;
Structure prediction by ZEFSAII (Michael W. Deem and Ramdas Pophale) SiO2 
 PCOD9404538
Probable space group: P M M A
;
_chemical_formula_sum "Si O2"
_cell_formula_units_Z 52
_cell_length_a 10.705584
_cell_length_b 8.544859
_cell_length_c 30.993220
_cell_angle_alpha 90.000000
_cell_angle_beta 90.000000
_cell_angle_gamma 90.000000
_cell_volume 2835.188661
_symmetry_space_group_name_H-M "P M M A"
_symmetry_group_IT_number 51
_symmetry_cell_setting 'orthorhombic'
loop_
_space_group_symop_operation_xyz
x,y,z
1/2-x,-y,z
1/2+x,-y,-z
-x,y,-z
-x,-y,-z
1/2+x,y,-z
1/2-x,y,z
x,-y,z
loop_
_atom_site_type_symbol
_atom_site_label
_atom_site_fract_x
_atom_site_fract_y
_atom_site_fract_z
Si Si1 0.875379 0.500000 0.527289
Si Si2 0.604041 0.187405 0.285542
Si Si3 0.103955 0.686506 0.220069
Si Si4 0.601540 0.678531 0.379397
Si Si5 0.104795 0.688833 0.034274
Si Si6 0.400743 0.177806 0.127325
Si Si7 0.448561 0.828712 0.450996
O O1 0.750000 0.500000 0.498585
O O2 0.875317 0.335089 0.551782
O O3 0.000000 0.500000 0.500000
O O4 0.750000 0.231321 0.275175
O O5 0.499877 0.238459 0.251064
O O6 0.569475 0.265797 0.331265
O O7 0.601773 0.000000 0.290039
O O8 0.250000 0.738360 0.227379
O O9 0.101891 0.500000 0.225583
O O10 0.068553 0.729495 0.170811
O O11 0.750000 0.675998 0.381765
O O12 0.557014 0.500000 0.387118
O O13 0.553382 0.798348 0.415242
O O14 0.250000 0.740414 0.026070
O O15 0.106820 0.500000 0.033674
O O16 0.064999 0.744304 0.081969
O O17 0.000000 0.742012 0.000000
O O18 0.250000 0.172529 0.126565
O O19 0.447941 0.000000 0.129996
O O20 0.500000 0.832493 0.500000
O O21 0.390950 0.000000 0.443493
#
# Coordination Sequence:
#
# PCOD9404538 Si02
#       7
#     4   8   8   8   8   8   8
#     4  10  22  40  60  86 118 152 190 234 282 336
#     4  10  21  37  58  86 118 149 185 232 284 339
#     4  10  20  35  57  83 110 144 187 232 280 336
#     4  10  20  36  61  89 117 153 195 236 282 341
#     4   9  17  30  48  70  98 133 174 220 269 323
#     4   9  17  30  50  75 102 136 180 226 271 325
#     4  10  21  37  58  86 118 152 191 238 286 332
#
# _framework density 18.340931999999999
#
# number of rings (size 3 to 8) (size 9 to 14) (size 15 to 20)
#    0.000    2.308    0.769    1.846    0.000    7.692 
#    0.000    4.615    0.000    4.615    0.000    0.000 
#    0.000    0.000    0.000    0.000    0.000    0.000 
#
# Total GULP energy -289485.828295 kJ/mol
# GULP energy per Si atom -5567.035160 kJ/mol
# Density = 1.829919 g / cm^3
# Si number density = 18.340932 Si / 1000 Ang^3
#
#
#
# Elastic Constant Matrix: (Units=GPa)
#
#
# Indices 1 2 3 4 5 6 
#
# 1 82.1603 31.9071 62.2838 0.0000 0.0000 0.0000
# 2 31.9071 106.4244 32.6708 0.0000 0.0000 0.0000
# 3 62.2838 32.6708 130.4848 0.0000 0.0000 0.0000
# 4 0.0000 0.0000 0.0000 51.0813 0.0000 0.0000
# 5 0.0000 0.0000 0.0000 0.0000 23.8904 0.0000
# 6 0.0000 0.0000 0.0000 0.0000 0.0000 10.7991
#
#
#
# Elastic Compliance Matrix: (Units=1/GPa)
#
#
# Indices 1 2 3 4 5 6 
#
# 1 0.020112 -0.003339 -0.008764 0.000000 0.000000 0.000000
# 2 -0.003339 0.010733 -0.001093 0.000000 0.000000 0.000000
# 3 -0.008764 -0.001093 0.012121 0.000000 0.000000 0.000000
# 4 0.000000 0.000000 0.000000 0.019577 0.000000 0.000000
# 5 0.000000 0.000000 0.000000 0.000000 0.041858 0.000000
# 6 0.000000 0.000000 0.000000 0.000000 0.000000 0.092601
#
#
# Mechanical properties :
#
#
# Convention : Reuss Voigt Hill
#
# Bulk Modulus (GPa) = 60.34075 63.64366 61.99221
# Shear Modulus (GPa) = 21.84188 29.96801 25.90494
#
# Velocity S-wave (km/s) = 3.45466 4.04659 3.76228
# Velocity P-wave (km/s) = 6.99170 7.52389 7.26267
#
# Compressibility (1/GPa) = 0.01657255
#
# Stress axis : x y z
#
# Youngs Moduli (GPa) = 49.72207 93.16904 82.50368
#
# Poissons Ratio (x) = 0.31113 0.72304
# Poissons Ratio (y) = 0.16604 0.09021
# Poissons Ratio (z) = 0.43575 0.10187
#
# Static dielectric constant tensor:
#      x y z
#    x 1.643790 0.000000 0.000000 
#    y 0.000000 1.667090 0.000000 
#    z 0.000000 0.000000 1.569920 
# 
# From -- ./inp_files/36532.got.cif
#   From: 2010.05.17/outbox.cif.g08.bks.cpg/sg51_19_cif.got.tgz:36532.got - 2010.06.03 11:52:47.
