data_PCOD9404332
_publ_section_title
;
Structure prediction by ZEFSAII (Michael W. Deem and Ramdas Pophale) SiO2 
 PCOD9404332
Probable space group: P M M A
;
_chemical_formula_sum "Si O2"
_cell_formula_units_Z 56
_cell_length_a 16.187735
_cell_length_b 11.055389
_cell_length_c 16.530404
_cell_angle_alpha 90.000000
_cell_angle_beta 90.000000
_cell_angle_gamma 90.000000
_cell_volume 2958.309325
_symmetry_space_group_name_H-M "P M M A"
_symmetry_group_IT_number 51
_symmetry_cell_setting 'orthorhombic'
loop_
_space_group_symop_operation_xyz
x,y,z
1/2-x,-y,z
1/2+x,-y,-z
-x,y,-z
-x,-y,-z
1/2+x,y,-z
1/2-x,y,z
x,-y,z
loop_
_atom_site_type_symbol
_atom_site_label
_atom_site_fract_x
_atom_site_fract_y
_atom_site_fract_z
Si Si1 0.347891 0.368857 0.026567
Si Si2 0.596090 0.136142 0.523643
Si Si3 0.511991 0.138328 0.234651
Si Si4 0.154982 0.281589 0.207433
Si Si5 0.917887 0.868636 0.054137
Si Si6 0.341217 0.854865 0.655400
Si Si7 0.346028 0.369163 0.384042
O O1 0.250000 0.376401 0.017534
O O2 0.384313 0.500000 0.003081
O O3 0.362922 0.345102 0.121882
O O4 0.374738 0.252664 0.975776
O O5 0.500000 0.133696 0.500000
O O6 0.645398 0.158499 0.440366
O O7 0.612177 0.247591 0.583009
O O8 0.617750 0.000000 0.554046
O O9 0.421223 0.192278 0.223278
O O10 0.556111 0.140631 0.147348
O O11 0.578566 0.194693 0.297120
O O12 0.499802 0.000000 0.260809
O O13 0.250000 0.231997 0.202436
O O14 0.153508 0.364647 0.286721
O O15 0.874353 0.000000 0.042639
O O16 0.000000 0.874030 0.000000
O O17 0.250000 0.807966 0.679067
O O18 0.340163 0.000000 0.671367
O O19 0.250000 0.363258 0.409363
O O20 0.380308 0.500000 0.411021
#
# Coordination Sequence:
#
# PCOD9404332 Si02
#       7
#     8   8   8   8   8   8   8
#     4  10  21  37  57  81 110 147 191 234 279 342
#     4  10  20  35  56  82 111 142 184 236 285 335
#     4  10  20  35  55  81 114 147 186 233 281 342
#     4  10  20  35  54  78 110 148 187 231 282 337
#     4  10  20  36  55  81 114 143 181 236 291 342
#     4   9  18  33  54  79 108 146 190 233 279 335
#     4  10  21  36  54  78 110 146 183 225 275 334
#
# _framework density 18.929732000000001
#
# number of rings (size 3 to 8) (size 9 to 14) (size 15 to 20)
#    0.000    2.143    1.429    1.714    0.000    6.000 
#    0.000    4.286    0.000    0.857    0.000    2.000 
#    0.000    0.000    0.000    0.000    0.000    0.000 
#
# Total GULP energy -311888.567820 kJ/mol
# GULP energy per Si atom -5569.438711 kJ/mol
# Density = 1.888665 g / cm^3
# Si number density = 18.929732 Si / 1000 Ang^3
#
#
#
# Elastic Constant Matrix: (Units=GPa)
#
#
# Indices 1 2 3 4 5 6 
#
# 1 80.6685 49.0082 12.2551 0.0000 0.0000 0.0000
# 2 49.0082 140.3575 37.1768 0.0000 0.0000 0.0000
# 3 12.2551 37.1768 54.9882 0.0000 0.0000 0.0000
# 4 0.0000 0.0000 0.0000 21.5695 0.0000 0.0000
# 5 0.0000 0.0000 0.0000 0.0000 28.8338 0.0000
# 6 0.0000 0.0000 0.0000 0.0000 0.0000 29.3135
#
#
#
# Elastic Compliance Matrix: (Units=1/GPa)
#
#
# Indices 1 2 3 4 5 6 
#
# 1 0.015737 -0.005562 0.000253 0.000000 0.000000 0.000000
# 2 -0.005562 0.010645 -0.005957 0.000000 0.000000 0.000000
# 3 0.000253 -0.005957 0.022157 0.000000 0.000000 0.000000
# 4 0.000000 0.000000 0.000000 0.046362 0.000000 0.000000
# 5 0.000000 0.000000 0.000000 0.000000 0.034682 0.000000
# 6 0.000000 0.000000 0.000000 0.000000 0.000000 0.034114
#
#
# Mechanical properties :
#
#
# Convention : Reuss Voigt Hill
#
# Bulk Modulus (GPa) = 38.45188 52.54382 45.49785
# Shear Modulus (GPa) = 25.65468 27.78163 26.71816
#
# Velocity S-wave (km/s) = 3.68538 3.83511 3.76099
# Velocity P-wave (km/s) = 6.20213 6.88682 6.55342
#
# Compressibility (1/GPa) = 0.02600653
#
# Stress axis : x y z
#
# Youngs Moduli (GPa) = 63.54480 93.94494 45.13276
#
# Poissons Ratio (x) = 0.52251 -0.01142
# Poissons Ratio (y) = 0.35343 0.26886
# Poissons Ratio (z) = -0.01608 0.55964
#
# Static dielectric constant tensor:
#      x y z
#    x 1.681200 0.000000 0.000000 
#    y 0.000000 1.703640 0.000000 
#    z 0.000000 0.000000 1.674500 
# 
# From -- ./inp_files/24188.got.cif
#   From: 2010.05.17/outbox.cif.g08.bks.cpg/sg51_13_cif.got.tgz:24188.got - 2010.06.03 11:52:47.
