data_PCOD9404652
_publ_section_title
;
Structure prediction by ZEFSAII (Michael W. Deem and Ramdas Pophale) SiO2 
 PCOD9404652
Probable space group: P M M A
;
_chemical_formula_sum "Si O2"
_cell_formula_units_Z 64
_cell_length_a 32.292479
_cell_length_b 18.125530
_cell_length_c 5.266558
_cell_angle_alpha 90.000000
_cell_angle_beta 90.000000
_cell_angle_gamma 90.000000
_cell_volume 3082.612759
_symmetry_space_group_name_H-M "P M M A"
_symmetry_group_IT_number 51
_symmetry_cell_setting 'orthorhombic'
loop_
_space_group_symop_operation_xyz
x,y,z
1/2-x,-y,z
1/2+x,-y,-z
-x,y,-z
-x,-y,-z
1/2+x,y,-z
1/2-x,y,z
x,-y,z
loop_
_atom_site_type_symbol
_atom_site_label
_atom_site_fract_x
_atom_site_fract_y
_atom_site_fract_z
Si Si1 0.903645 0.300669 0.626022
Si Si2 0.325961 0.772007 0.259782
Si Si3 0.129916 0.585672 0.758135
Si Si4 0.202981 0.305808 0.783850
Si Si5 0.537831 0.781799 0.309052
Si Si6 0.043012 0.630395 0.996451
Si Si7 0.922898 0.916793 0.070071
Si Si8 0.867770 0.916671 0.572477
O O1 0.871305 0.262587 0.812340
O O2 0.880927 0.368238 0.493029
O O3 0.918664 0.233997 0.451303
O O4 0.944964 0.335944 0.734286
O O5 0.309416 0.729262 0.510593
O O6 0.334593 0.854789 0.350659
O O7 0.300133 0.754926 0.008534
O O8 0.138375 0.500000 0.719847
O O9 0.170524 0.628973 0.854900
O O10 0.086249 0.593629 0.910827
O O11 0.250000 0.333091 0.769084
O O12 0.500000 0.795528 0.500000
O O13 0.534073 0.703079 0.170598
O O14 0.545421 0.850571 0.124929
O O15 0.000000 0.586817 0.000000
O O16 0.887559 0.910103 0.290518
O O17 0.940376 0.000000 0.098324
O O18 0.903334 0.910914 0.790279
O O19 0.850936 0.000000 0.592384
#
# Coordination Sequence:
#
# PCOD9404652 Si02
#       8
#     8   8   8   8   8   8   8   8
#     4  10  20  37  57  86 116 159 206 253 307 364
#     4  11  20  39  67  91 124 162 206 257 303 366
#     4  10  24  41  61  90 123 160 201 252 314 381
#     4  11  24  42  67  97 125 159 204 255 312 374
#     4  11  21  32  54  80 116 163 210 264 313 365
#     4  11  21  37  61  89 119 159 211 260 307 365
#     4  10  21  34  51  82 123 163 210 261 311 364
#     4  10  20  35  59  89 120 160 206 254 310 368
#
# _framework density 20.761610999999998
#
# number of rings (size 3 to 8) (size 9 to 14) (size 15 to 20)
#    0.000    1.500    3.750    1.875    1.750    1.250 
#    0.000    0.625    0.000    6.375    0.000    0.000 
#    0.000    0.000    0.000    0.000    0.000    0.000 
#
# Total GULP energy -356755.354057 kJ/mol
# GULP energy per Si atom -5574.302407 kJ/mol
# Density = 2.071436 g / cm^3
# Si number density = 20.761611 Si / 1000 Ang^3
#
#
#
# Elastic Constant Matrix: (Units=GPa)
#
#
# Indices 1 2 3 4 5 6 
#
# 1 112.5346 37.4168 9.5974 0.0000 0.0000 0.0000
# 2 37.4168 107.4898 -0.4837 0.0000 0.0000 0.0000
# 3 9.5974 -0.4837 64.0500 0.0000 0.0000 0.0000
# 4 0.0000 0.0000 0.0000 -30.6870 0.0000 0.0000
# 5 0.0000 0.0000 0.0000 0.0000 22.2118 0.0000
# 6 0.0000 0.0000 0.0000 0.0000 0.0000 2.0502
#
#
#
# Elastic Compliance Matrix: (Units=1/GPa)
#
#
# Indices 1 2 3 4 5 6 
#
# 1 0.010202 -0.003558 -0.001556 0.000000 0.000000 0.000000
# 2 -0.003558 0.010545 0.000613 0.000000 0.000000 0.000000
# 3 -0.001556 0.000613 0.015851 0.000000 0.000000 0.000000
# 4 0.000000 0.000000 0.000000 -0.032587 0.000000 0.000000
# 5 0.000000 0.000000 0.000000 0.000000 0.045021 0.000000
# 6 0.000000 0.000000 0.000000 0.000000 0.000000 0.487756
#
#
# Mechanical properties :
#
#
# Convention : Reuss Voigt Hill
#
# Bulk Modulus (GPa) = 36.23843 41.90394 39.07118
# Shear Modulus (GPa) = 9.00922 14.55126 11.78024
#
# Velocity S-wave (km/s) = 2.08537 2.65027 2.38461
# Velocity P-wave (km/s) = 4.82605 5.43989 5.14214
#
# Compressibility (1/GPa) = 0.02759502
#
# Stress axis : x y z
#
# Youngs Moduli (GPa) = 98.02082 94.83540 63.08946
#
# Poissons Ratio (x) = 0.33745 0.09814
# Poissons Ratio (y) = 0.34878 -0.03866
# Poissons Ratio (z) = 0.15248 -0.05812
#
# Static dielectric constant tensor:
#      x y z
#    x 1.868570 0.000000 0.000000 
#    y 0.000000 1.740960 0.000000 
#    z 0.000000 0.000000 1.842940 
# 
# From -- ./inp_files/4099.got.cif
#   From: 2010.05.17/outbox.cif.g08.bks.cpg/sg51_3_cif.got.tgz:4099.got - 2010.06.03 11:52:47.
