data_PCOD9404621
_publ_section_title
;
Structure prediction by ZEFSAII (Michael W. Deem and Ramdas Pophale) SiO2 
 PCOD9404621
Probable space group: P M M A
;
_chemical_formula_sum "Si O2"
_cell_formula_units_Z 64
_cell_length_a 25.618796
_cell_length_b 8.929649
_cell_length_c 14.701983
_cell_angle_alpha 90.000000
_cell_angle_beta 90.000000
_cell_angle_gamma 90.000000
_cell_volume 3363.326429
_symmetry_space_group_name_H-M "P M M A"
_symmetry_group_IT_number 51
_symmetry_cell_setting 'orthorhombic'
loop_
_space_group_symop_operation_xyz
x,y,z
1/2-x,-y,z
1/2+x,-y,-z
-x,y,-z
-x,-y,-z
1/2+x,y,-z
1/2-x,y,z
x,-y,z
loop_
_atom_site_type_symbol
_atom_site_label
_atom_site_fract_x
_atom_site_fract_y
_atom_site_fract_z
Si Si1 0.402204 0.678245 0.388027
Si Si2 0.190709 0.180530 0.272124
Si Si3 0.524472 0.319452 0.904085
Si Si4 0.137670 0.180230 0.084874
Si Si5 0.600685 0.822051 0.414161
Si Si6 0.187716 0.177638 0.894707
Si Si7 0.012504 0.321223 0.710566
Si Si8 0.188026 0.322885 0.703373
O O1 0.396328 0.500000 0.396793
O O2 0.352518 0.745495 0.335934
O O3 0.407349 0.750671 0.486992
O O4 0.455056 0.706551 0.331061
O O5 0.250000 0.226046 0.293309
O O6 0.176477 0.217988 0.167524
O O7 0.187349 0.000000 0.281151
O O8 0.528791 0.500000 0.903268
O O9 0.581762 0.251066 0.895313
O O10 0.489963 0.277503 0.816595
O O11 0.500000 0.272380 0.000000
O O12 0.133194 0.000000 0.082975
O O13 0.158818 0.227869 0.986240
O O14 0.555294 0.765625 0.346938
O O15 0.654647 0.763957 0.371016
O O16 0.600426 0.000000 0.420680
O O17 0.250000 0.196005 0.908066
O O18 0.172518 0.266018 0.803973
O O19 0.178076 0.000000 0.880873
O O20 0.022805 0.500000 0.703983
O O21 0.250000 0.295419 0.693386
O O22 0.178537 0.500000 0.695768
#
# Coordination Sequence:
#
# PCOD9404621 Si02
#       8
#     8   8   8   8   8   8   8   8
#     4  11  23  42  65  89 120 157 201 252 306 358
#     4  10  21  38  61  90 125 165 206 251 306 363
#     4  10  22  39  59  87 122 162 199 240 297 356
#     4  10  20  35  58  87 121 159 201 247 295 354
#     4  12  26  41  64  93 120 154 199 248 305 368
#     4   9  18  34  56  84 119 157 196 239 290 348
#     4  10  22  42  64  89 123 161 200 246 300 357
#     4  10  22  41  63  88 120 158 200 247 299 355
#
# _framework density 19.028780000000001
#
# number of rings (size 3 to 8) (size 9 to 14) (size 15 to 20)
#    0.000    1.750    1.250    2.625    1.750    6.750 
#    0.000    0.000    0.000    2.250    0.000    0.000 
#    0.000    0.000    0.000    0.000    0.000    0.000 
#
# Total GULP energy -357683.114648 kJ/mol
# GULP energy per Si atom -5588.798666 kJ/mol
# Density = 1.898547 g / cm^3
# Si number density = 19.028780 Si / 1000 Ang^3
#
#
#
# Elastic Constant Matrix: (Units=GPa)
#
#
# Indices 1 2 3 4 5 6 
#
# 1 65.8141 39.4227 34.2590 0.0000 0.0000 0.0000
# 2 39.4227 47.1930 46.9904 0.0000 0.0000 0.0000
# 3 34.2590 46.9904 134.6134 0.0000 0.0000 0.0000
# 4 0.0000 0.0000 0.0000 25.6558 0.0000 0.0000
# 5 0.0000 0.0000 0.0000 0.0000 18.9865 0.0000
# 6 0.0000 0.0000 0.0000 0.0000 0.0000 31.0550
#
#
#
# Elastic Compliance Matrix: (Units=1/GPa)
#
#
# Indices 1 2 3 4 5 6 
#
# 1 0.030676 -0.027363 0.001745 0.000000 0.000000 0.000000
# 2 -0.027363 0.056885 -0.012893 0.000000 0.000000 0.000000
# 3 0.001745 -0.012893 0.011486 0.000000 0.000000 0.000000
# 4 0.000000 0.000000 0.000000 0.038977 0.000000 0.000000
# 5 0.000000 0.000000 0.000000 0.000000 0.052669 0.000000
# 6 0.000000 0.000000 0.000000 0.000000 0.000000 0.032201
#
#
# Mechanical properties :
#
#
# Convention : Reuss Voigt Hill
#
# Bulk Modulus (GPa) = 45.40527 54.32939 49.86733
# Shear Modulus (GPa) = 16.27291 23.60270 19.93781
#
# Velocity S-wave (km/s) = 2.92751 3.52571 3.24044
# Velocity P-wave (km/s) = 5.94477 6.72215 6.34537
#
# Compressibility (1/GPa) = 0.02202387
#
# Stress axis : x y z
#
# Youngs Moduli (GPa) = 32.59826 17.57929 87.06613
#
# Poissons Ratio (x) = 0.48102 -0.15189
# Poissons Ratio (y) = 0.89197 1.12259
# Poissons Ratio (z) = -0.05687 0.22666
#
# Static dielectric constant tensor:
#      x y z
#    x 1.637510 0.000000 0.000000 
#    y 0.000000 1.634680 0.000000 
#    z 0.000000 0.000000 1.651180 
# 
# From -- ./inp_files/26350.got.cif
#   From: 2010.05.17/outbox.cif.g08.bks.cpg/sg51_14_cif.got.tgz:26350.got - 2010.06.03 11:52:47.
