data_PCOD9404008
_publ_section_title
;
Structure prediction by ZEFSAII (Michael W. Deem and Ramdas Pophale) SiO2 
 PCOD9404008
Probable space group: P M M A
;
_chemical_formula_sum "Si O2"
_cell_formula_units_Z 48
_cell_length_a 7.602045
_cell_length_b 9.086634
_cell_length_c 35.139947
_cell_angle_alpha 90.000000
_cell_angle_beta 90.000000
_cell_angle_gamma 90.000000
_cell_volume 2427.362139
_symmetry_space_group_name_H-M "P M M A"
_symmetry_group_IT_number 51
_symmetry_cell_setting 'orthorhombic'
loop_
_space_group_symop_operation_xyz
x,y,z
1/2-x,-y,z
1/2+x,-y,-z
-x,y,-z
-x,-y,-z
1/2+x,y,-z
1/2-x,y,z
x,-y,z
loop_
_atom_site_type_symbol
_atom_site_label
_atom_site_fract_x
_atom_site_fract_y
_atom_site_fract_z
Si Si1 0.543209 0.826187 0.455632
Si Si2 0.459783 0.674737 0.729045
Si Si3 0.458600 0.664706 0.881456
Si Si4 0.250000 0.176518 0.322919
Si Si5 0.535783 0.832738 0.192687
Si Si6 0.750000 0.675255 0.594564
Si Si7 0.541329 0.832933 0.957915
O O1 0.500000 0.798653 0.500000
O O2 0.750000 0.800544 0.449175
O O3 0.419393 0.728634 0.429313
O O4 0.506417 0.000000 0.448650
O O5 0.250000 0.700621 0.723520
O O6 0.490986 0.500000 0.726091
O O7 0.579350 0.762063 0.699333
O O8 0.508228 0.732416 0.771188
O O9 0.250000 0.653556 0.874676
O O10 0.532686 0.500000 0.880749
O O11 0.528424 0.764419 0.847029
O O12 0.479698 0.737670 0.922553
O O13 0.250000 0.500000 0.400502
O O14 0.250000 0.243123 0.365081
O O15 0.750000 0.837661 0.191340
O O16 0.474234 0.000000 0.197817
O O17 0.750000 0.000000 0.676532
O O18 0.750000 0.841878 0.954900
O O19 0.468100 0.000000 0.955757
O O20 0.500000 0.773575 0.000000
#
# Coordination Sequence:
#
# PCOD9404008 Si02
#       7
#     8   8   8   4   8   4   8
#     4  10  20  39  67  95 127 170 218 266 319 382
#     4  10  21  40  66  94 127 164 204 257 320 379
#     4  10  20  34  54  81 112 145 182 227 281 339
#     4  12  26  44  66  92 126 170 222 268 314 378
#     4   9  17  32  57  87 117 151 192 236 286 349
#     4  12  26  42  62  92 134 172 214 270 326 384
#     4  10  21  37  56  77 102 136 179 226 278 339
#
# _framework density 19.774553000000001
#
# number of rings (size 3 to 8) (size 9 to 14) (size 15 to 20)
#    0.000    1.833    0.833    3.500    0.000    6.667 
#    1.500    0.000    0.000    0.000    0.000    0.000 
#    0.000    0.000    0.000    0.000    0.000    0.000 
#
# Total GULP energy -268213.832807 kJ/mol
# GULP energy per Si atom -5587.788183 kJ/mol
# Density = 1.972955 g / cm^3
# Si number density = 19.774553 Si / 1000 Ang^3
#
#
#
# Elastic Constant Matrix: (Units=GPa)
#
#
# Indices 1 2 3 4 5 6 
#
# 1 78.4377 54.5519 42.9185 0.0000 0.0000 0.0000
# 2 54.5519 160.2910 97.0615 0.0000 0.0000 0.0000
# 3 42.9185 97.0615 149.7979 0.0000 0.0000 0.0000
# 4 0.0000 0.0000 0.0000 247.1186 0.0000 0.0000
# 5 0.0000 0.0000 0.0000 0.0000 22.9934 0.0000
# 6 0.0000 0.0000 0.0000 0.0000 0.0000 21.8359
#
#
#
# Elastic Compliance Matrix: (Units=1/GPa)
#
#
# Indices 1 2 3 4 5 6 
#
# 1 0.017007 -0.004670 -0.001847 0.000000 0.000000 0.000000
# 2 -0.004670 0.011549 -0.006145 0.000000 0.000000 0.000000
# 3 -0.001847 -0.006145 0.011187 0.000000 0.000000 0.000000
# 4 0.000000 0.000000 0.000000 0.004047 0.000000 0.000000
# 5 0.000000 0.000000 0.000000 0.000000 0.043491 0.000000
# 6 0.000000 0.000000 0.000000 0.000000 0.000000 0.045796
#
#
# Mechanical properties :
#
#
# Convention : Reuss Voigt Hill
#
# Bulk Modulus (GPa) = 69.35277 86.39891 77.87584
# Shear Modulus (GPa) = 30.63596 71.32257 50.97926
#
# Velocity S-wave (km/s) = 3.94034 6.01217 5.08293
# Velocity P-wave (km/s) = 7.47325 9.59071 8.59742
#
# Compressibility (1/GPa) = 0.01441903
#
# Stress axis : x y z
#
# Youngs Moduli (GPa) = 58.79837 86.58709 89.39177
#
# Poissons Ratio (x) = 0.40433 0.16511
# Poissons Ratio (y) = 0.27457 0.54934
# Poissons Ratio (z) = 0.10860 0.53210
#
# Static dielectric constant tensor:
#      x y z
#    x 1.712430 0.000000 0.000000 
#    y 0.000000 1.685850 0.000000 
#    z 0.000000 0.000000 1.670490 
# 
# From -- ./inp_files/37077.got.cif
#   From: 2010.05.17/outbox.cif.g08.bks.cpg/sg51_19_cif.got.tgz:37077.got - 2010.06.03 11:52:47.
