data_PCOD9404731
_publ_section_title
;
Structure prediction by ZEFSAII (Michael W. Deem and Ramdas Pophale) SiO2 
 PCOD9404731
Probable space group: P M M A
;
_chemical_formula_sum "Si O2"
_cell_formula_units_Z 64
_cell_length_a 17.460147
_cell_length_b 20.567031
_cell_length_c 9.911363
_cell_angle_alpha 90.000000
_cell_angle_beta 90.000000
_cell_angle_gamma 90.000000
_cell_volume 3559.203999
_symmetry_space_group_name_H-M "P M M A"
_symmetry_group_IT_number 51
_symmetry_cell_setting 'orthorhombic'
loop_
_space_group_symop_operation_xyz
x,y,z
1/2-x,-y,z
1/2+x,-y,-z
-x,y,-z
-x,-y,-z
1/2+x,y,-z
1/2-x,y,z
x,-y,z
loop_
_atom_site_type_symbol
_atom_site_label
_atom_site_fract_x
_atom_site_fract_y
_atom_site_fract_z
Si Si1 0.078728 0.424178 0.416758
Si Si2 0.082531 0.316723 0.187196
Si Si3 0.343447 0.179032 0.223711
Si Si4 0.841442 0.071286 0.290401
Si Si5 0.917352 0.923362 0.570422
Si Si6 0.905195 0.683699 0.122221
Si Si7 0.659986 0.573188 0.312569
Si Si8 0.841274 0.177384 0.088518
O O1 0.079192 0.500000 0.374584
O O2 0.087050 0.375635 0.292385
O O3 0.143323 0.413839 0.530191
O O4 0.000000 0.412496 0.500000
O O5 0.127451 0.253509 0.242862
O O6 0.993256 0.301595 0.159159
O O7 0.109104 0.334338 0.035056
O O8 0.250000 0.174558 0.240393
O O9 0.388709 0.127394 0.316801
O O10 0.364394 0.166868 0.066402
O O11 0.750000 0.069761 0.273795
O O12 0.859121 0.083939 0.445686
O O13 0.874568 0.124745 0.190672
O O14 0.872998 0.000000 0.257536
O O15 0.000000 0.910348 0.500000
O O16 0.916918 0.000000 0.613975
O O17 0.878812 0.626246 0.218807
O O18 0.861320 0.751119 0.139277
O O19 0.750000 0.573955 0.287466
O O20 0.629775 0.500000 0.285733
O O21 0.750000 0.171716 0.088287
#
# Coordination Sequence:
#
# PCOD9404731 Si02
#       8
#     8   8   8   8   8   8   8   8
#     4  10  20  37  58  81 112 149 187 232 281 330
#     4  10  22  36  57  85 114 148 189 233 279 337
#     4  10  22  39  58  82 113 149 187 231 279 331
#     4   9  18  34  55  79 108 142 181 226 272 321
#     4  10  22  38  57  83 114 148 186 230 279 332
#     4  10  20  36  56  83 115 150 186 229 283 334
#     4  10  21  37  58  84 113 147 188 233 282 338
#     4   9  19  35  56  82 111 145 187 231 275 328
#
# _framework density 17.981549999999999
#
# number of rings (size 3 to 8) (size 9 to 14) (size 15 to 20)
#    0.000    2.250    1.250    0.750    1.750    4.250 
#    0.000    2.500    0.000    3.750    0.000    0.000 
#    0.000    0.000    0.000    0.000    0.000    0.000 
#
# Total GULP energy -356634.909079 kJ/mol
# GULP energy per Si atom -5572.420454 kJ/mol
# Density = 1.794062 g / cm^3
# Si number density = 17.981550 Si / 1000 Ang^3
#
#
#
# Elastic Constant Matrix: (Units=GPa)
#
#
# Indices 1 2 3 4 5 6 
#
# 1 35.4141 22.2322 12.5607 0.0000 0.0000 0.0000
# 2 22.2322 124.0614 89.5083 0.0000 0.0000 0.0000
# 3 12.5607 89.5083 80.1232 0.0000 0.0000 0.0000
# 4 0.0000 0.0000 0.0000 4.2003 0.0000 0.0000
# 5 0.0000 0.0000 0.0000 0.0000 20.6982 0.0000
# 6 0.0000 0.0000 0.0000 0.0000 0.0000 22.7252
#
#
#
# Elastic Compliance Matrix: (Units=1/GPa)
#
#
# Indices 1 2 3 4 5 6 
#
# 1 0.032625 -0.011116 0.007303 0.000000 0.000000 0.000000
# 2 -0.011116 0.045335 -0.048903 0.000000 0.000000 0.000000
# 3 0.007303 -0.048903 0.065967 0.000000 0.000000 0.000000
# 4 0.000000 0.000000 0.000000 0.238080 0.000000 0.000000
# 5 0.000000 0.000000 0.000000 0.000000 0.048313 0.000000
# 6 0.000000 0.000000 0.000000 0.000000 0.000000 0.044004
#
#
# Mechanical properties :
#
#
# Convention : Reuss Voigt Hill
#
# Bulk Modulus (GPa) = 25.97642 54.24458 40.11050
# Shear Modulus (GPa) = 8.43759 17.21123 12.82441
#
# Velocity S-wave (km/s) = 2.16854 3.09716 2.67347
# Velocity P-wave (km/s) = 4.55495 6.55913 5.64667
#
# Compressibility (1/GPa) = 0.03849645
#
# Stress axis : x y z
#
# Youngs Moduli (GPa) = 30.65114 22.05809 15.15920
#
# Poissons Ratio (x) = 0.24519 -0.11071
# Poissons Ratio (y) = 0.34070 0.74132
# Poissons Ratio (z) = -0.22384 1.07870
#
# Static dielectric constant tensor:
#      x y z
#    x 1.653860 0.000000 0.000000 
#    y 0.000000 1.612370 0.000000 
#    z 0.000000 0.000000 1.622880 
# 
# From -- ./inp_files/10009.got.cif
#   From: 2010.05.17/outbox.cif.g08.bks.cpg/sg51_6_cif.got.tgz:10009.got - 2010.06.03 11:52:47.
