data_PCOD9404264
_publ_section_title
;
Structure prediction by ZEFSAII (Michael W. Deem and Ramdas Pophale) SiO2 
 PCOD9404264
Probable space group: P M M A
;
_chemical_formula_sum "Si O2"
_cell_formula_units_Z 40
_cell_length_a 9.293078
_cell_length_b 7.765842
_cell_length_c 30.274358
_cell_angle_alpha 90.000000
_cell_angle_beta 90.000000
_cell_angle_gamma 90.000000
_cell_volume 2184.857289
_symmetry_space_group_name_H-M "P M M A"
_symmetry_group_IT_number 51
_symmetry_cell_setting 'orthorhombic'
loop_
_space_group_symop_operation_xyz
x,y,z
1/2-x,-y,z
1/2+x,-y,-z
-x,y,-z
-x,-y,-z
1/2+x,y,-z
1/2-x,y,z
x,-y,z
loop_
_atom_site_type_symbol
_atom_site_label
_atom_site_fract_x
_atom_site_fract_y
_atom_site_fract_z
Si Si1 0.924576 0.000000 0.207534
Si Si2 0.915180 0.789279 0.543680
Si Si3 0.583183 0.791477 0.369090
Si Si4 0.076873 0.000000 0.113547
Si Si5 0.577847 0.699276 0.954090
Si Si6 0.575068 0.308831 0.271350
O O1 0.969265 0.165125 0.236560
O O2 0.750000 0.000000 0.203565
O O3 0.996269 0.000000 0.159890
O O4 0.750000 0.734705 0.542122
O O5 0.000000 0.733487 0.500000
O O6 0.992232 0.734004 0.588791
O O7 0.917266 0.000000 0.543704
O O8 0.750000 0.738285 0.374421
O O9 0.528424 0.728127 0.321611
O O10 0.581394 0.000000 0.367672
O O11 0.038904 0.832332 0.084328
O O12 0.250000 0.000000 0.120168
O O13 0.750000 0.711206 0.960624
O O14 0.543006 0.500000 0.943180
O O15 0.500000 0.742905 0.000000
O O16 0.750000 0.301430 0.272939
O O17 0.531348 0.500000 0.257981
#
# Coordination Sequence:
#
# PCOD9404264 Si02
#       6
#     4   8   8   4   8   8
#     4  10  20  35  53  76 102 131 172 216 252 294
#     4   9  16  25  39  64  96 127 158 193 236 288
#     4   9  15  26  46  68  91 121 156 196 242 292
#     4  10  21  35  51  74 106 141 171 206 257 306
#     4   9  18  33  53  77 106 139 175 213 252 297
#     4   9  17  31  52  75  98 126 163 208 255 299
#
# _framework density 18.307831
#
# number of rings (size 3 to 8) (size 9 to 14) (size 15 to 20)
#    0.000    2.800    1.000    0.900    0.000    4.000 
#    0.000    1.000    0.000    2.400    0.000    0.000 
#    0.000    0.000    0.000    0.000    0.000    0.000 
#
# Total GULP energy -223133.529539 kJ/mol
# GULP energy per Si atom -5578.338238 kJ/mol
# Density = 1.826616 g / cm^3
# Si number density = 18.307831 Si / 1000 Ang^3
#
#
#
# Elastic Constant Matrix: (Units=GPa)
#
#
# Indices 1 2 3 4 5 6 
#
# 1 52.9697 36.6936 67.7910 0.0000 0.0000 0.0000
# 2 36.6936 98.9263 95.0631 0.0000 0.0000 0.0000
# 3 67.7910 95.0631 203.1058 0.0000 0.0000 0.0000
# 4 0.0000 0.0000 0.0000 -15.5901 0.0000 0.0000
# 5 0.0000 0.0000 0.0000 0.0000 37.0126 0.0000
# 6 0.0000 0.0000 0.0000 0.0000 0.0000 4.1791
#
#
#
# Elastic Compliance Matrix: (Units=1/GPa)
#
#
# Indices 1 2 3 4 5 6 
#
# 1 0.033456 -0.003051 -0.009738 0.000000 0.000000 0.000000
# 2 -0.003051 0.018650 -0.007711 0.000000 0.000000 0.000000
# 3 -0.009738 -0.007711 0.011783 0.000000 0.000000 0.000000
# 4 0.000000 0.000000 0.000000 -0.064143 0.000000 0.000000
# 5 0.000000 0.000000 0.000000 0.000000 0.027018 0.000000
# 6 0.000000 0.000000 0.000000 0.000000 0.000000 0.239285
#
#
# Mechanical properties :
#
#
# Convention : Reuss Voigt Hill
#
# Bulk Modulus (GPa) = 43.69118 83.78859 63.73988
# Shear Modulus (GPa) = 15.88928 15.48392 15.68660
#
# Velocity S-wave (km/s) = 2.94920 2.91134 2.93033
# Velocity P-wave (km/s) = 5.95933 7.56089 6.80737
#
# Compressibility (1/GPa) = 0.02288792
#
# Stress axis : x y z
#
# Youngs Moduli (GPa) = 29.89021 53.62005 84.86891
#
# Poissons Ratio (x) = 0.16361 0.82649
# Poissons Ratio (y) = 0.09120 0.65439
# Poissons Ratio (z) = 0.29109 0.41344
#
# Static dielectric constant tensor:
#      x y z
#    x 1.610180 0.000000 0.000000 
#    y 0.000000 1.662580 0.000000 
#    z 0.000000 0.000000 1.587700 
# 
# From -- ./inp_files/36055.got.cif
#   From: 2010.05.17/outbox.cif.g08.bks.cpg/sg51_19_cif.got.tgz:36055.got - 2010.06.03 11:52:47.
