data_PCOD9404232
_publ_section_title
;
Structure prediction by ZEFSAII (Michael W. Deem and Ramdas Pophale) SiO2 
 PCOD9404232
Probable space group: P M M A
;
_chemical_formula_sum "Si O2"
_cell_formula_units_Z 64
_cell_length_a 19.276426
_cell_length_b 18.322947
_cell_length_c 9.586498
_cell_angle_alpha 90.000000
_cell_angle_beta 90.000000
_cell_angle_gamma 90.000000
_cell_volume 3385.960028
_symmetry_space_group_name_H-M "P M M A"
_symmetry_group_IT_number 51
_symmetry_cell_setting 'orthorhombic'
loop_
_space_group_symop_operation_xyz
x,y,z
1/2-x,-y,z
1/2+x,-y,-z
-x,y,-z
-x,-y,-z
1/2+x,y,-z
1/2-x,y,z
x,-y,z
loop_
_atom_site_type_symbol
_atom_site_label
_atom_site_fract_x
_atom_site_fract_y
_atom_site_fract_z
Si Si1 0.019232 0.083120 0.846689
Si Si2 0.169240 0.223548 0.458528
Si Si3 0.329607 0.412757 0.990870
Si Si4 0.173636 0.801653 0.069773
Si Si5 0.879507 0.798675 0.232095
Si Si6 0.605100 0.323905 0.765515
Si Si7 0.538783 0.340379 0.147933
Si Si8 0.868473 0.916232 0.724315
O O1 0.950529 0.083833 0.753441
O O2 0.079709 0.125703 0.770826
O O3 0.040856 0.000000 0.872650
O O4 0.000000 0.115168 0.000000
O O5 0.250000 0.234815 0.433617
O O6 0.154999 0.218852 0.622049
O O7 0.129999 0.290123 0.380835
O O8 0.149247 0.145142 0.390135
O O9 0.250000 0.390963 0.953904
O O10 0.332634 0.500000 0.994870
O O11 0.348654 0.380106 0.143682
O O12 0.390086 0.384896 0.884268
O O13 0.250000 0.774930 0.112902
O O14 0.115091 0.749171 0.136602
O O15 0.163741 0.881893 0.134098
O O16 0.168260 0.799198 0.904447
O O17 0.936533 0.737320 0.201268
O O18 0.527999 0.358120 0.755657
O O19 0.500000 0.338346 0.000000
O O20 0.846704 0.000000 0.696907
#
# Coordination Sequence:
#
# PCOD9404232 Si02
#       8
#     8   8   8   8   8   8   8   8
#     4  10  20  35  57  83 110 142 192 258 315 362
#     4  11  25  39  54  81 119 161 200 246 304 368
#     4  10  20  35  61  96 129 159 194 242 299 355
#     4  11  20  32  56  82 108 146 196 246 297 355
#     4  12  21  35  57  83 117 149 195 247 305 353
#     4  10  20  37  59  84 117 157 199 242 286 348
#     4  10  20  34  59  91 118 152 195 248 296 340
#     4  10  21  38  58  76 105 152 199 249 306 363
#
# _framework density 18.901581
#
# number of rings (size 3 to 8) (size 9 to 14) (size 15 to 20)
#    0.000    1.500    3.750    4.500    0.000    6.250 
#    0.000    1.250    0.000    3.000    0.000    6.125 
#    0.000    0.000    0.000    0.000    0.000    0.000 
#
# Total GULP energy -356532.609444 kJ/mol
# GULP energy per Si atom -5570.822023 kJ/mol
# Density = 1.885856 g / cm^3
# Si number density = 18.901581 Si / 1000 Ang^3
#
#
#
# Elastic Constant Matrix: (Units=GPa)
#
#
# Indices 1 2 3 4 5 6 
#
# 1 104.6287 23.0990 12.4006 0.0000 0.0000 0.0000
# 2 23.0990 63.9902 2.8650 0.0000 0.0000 0.0000
# 3 12.4006 2.8650 83.5976 0.0000 0.0000 0.0000
# 4 0.0000 0.0000 0.0000 3.8282 0.0000 0.0000
# 5 0.0000 0.0000 0.0000 0.0000 7.8888 0.0000
# 6 0.0000 0.0000 0.0000 0.0000 0.0000 21.7512
#
#
#
# Elastic Compliance Matrix: (Units=1/GPa)
#
#
# Indices 1 2 3 4 5 6 
#
# 1 0.010555 -0.003746 -0.001437 0.000000 0.000000 0.000000
# 2 -0.003746 0.016981 -0.000026 0.000000 0.000000 0.000000
# 3 -0.001437 -0.000026 0.012176 0.000000 0.000000 0.000000
# 4 0.000000 0.000000 0.000000 0.261221 0.000000 0.000000
# 5 0.000000 0.000000 0.000000 0.000000 0.126762 0.000000
# 6 0.000000 0.000000 0.000000 0.000000 0.000000 0.045975
#
#
# Mechanical properties :
#
#
# Convention : Reuss Voigt Hill
#
# Bulk Modulus (GPa) = 34.13779 36.54952 35.34365
# Shear Modulus (GPa) = 10.12450 20.95043 15.53746
#
# Velocity S-wave (km/s) = 2.31691 3.33287 2.87020
# Velocity P-wave (km/s) = 5.02568 5.84717 5.45192
#
# Compressibility (1/GPa) = 0.02929305
#
# Stress axis : x y z
#
# Youngs Moduli (GPa) = 94.74271 58.89039 82.12764
#
# Poissons Ratio (x) = 0.22059 0.11804
# Poissons Ratio (y) = 0.35488 0.00216
# Poissons Ratio (z) = 0.13617 0.00155
#
# Static dielectric constant tensor:
#      x y z
#    x 1.715480 0.000000 0.000000 
#    y 0.000000 1.671210 0.000000 
#    z 0.000000 0.000000 1.703050 
# 
# From -- ./inp_files/11239.got.cif
#   From: 2010.05.17/outbox.cif.g08.bks.cpg/sg51_6_cif.got.tgz:11239.got - 2010.06.03 11:52:47.
