data_PCOD9404396
_publ_section_title
;
Structure prediction by ZEFSAII (Michael W. Deem and Ramdas Pophale) SiO2 
 PCOD9404396
Probable space group: P M M A
;
_chemical_formula_sum "Si O2"
_cell_formula_units_Z 56
_cell_length_a 15.301603
_cell_length_b 8.878647
_cell_length_c 22.692338
_cell_angle_alpha 90.000000
_cell_angle_beta 90.000000
_cell_angle_gamma 90.000000
_cell_volume 3082.925026
_symmetry_space_group_name_H-M "P M M A"
_symmetry_group_IT_number 51
_symmetry_cell_setting 'orthorhombic'
loop_
_space_group_symop_operation_xyz
x,y,z
1/2-x,-y,z
1/2+x,-y,-z
-x,y,-z
-x,-y,-z
1/2+x,y,-z
1/2-x,y,z
x,-y,z
loop_
_atom_site_type_symbol
_atom_site_label
_atom_site_fract_x
_atom_site_fract_y
_atom_site_fract_z
Si Si1 0.065351 0.180645 0.315538
Si Si2 0.069392 0.181026 0.452087
Si Si3 0.144108 0.672156 0.006275
Si Si4 0.854400 0.179457 0.116949
Si Si5 0.991513 0.320379 0.205059
Si Si6 0.250000 0.671714 0.311645
Si Si7 0.750000 0.330410 0.545816
Si Si8 0.147184 0.179864 0.130477
O O1 0.051250 0.224764 0.384038
O O2 0.161670 0.239774 0.297030
O O3 0.997514 0.255336 0.271003
O O4 0.063184 0.000000 0.310967
O O5 0.163102 0.243115 0.470447
O O6 0.000000 0.234092 0.500000
O O7 0.071506 0.000000 0.452516
O O8 0.250000 0.667360 0.003945
O O9 0.112599 0.500000 0.011663
O O10 0.123703 0.769000 0.064022
O O11 0.116166 0.747933 0.945197
O O12 0.750000 0.206146 0.123844
O O13 0.910606 0.252878 0.168716
O O14 0.868272 0.000000 0.115329
O O15 0.988458 0.500000 0.205287
O O16 0.079765 0.263611 0.172711
O O17 0.250000 0.500000 0.288583
O O18 0.250000 0.663343 0.382848
O O19 0.750000 0.500000 0.523134
O O20 0.250000 0.217946 0.140931
O O21 0.138020 0.000000 0.136747
#
# Coordination Sequence:
#
# PCOD9404396 Si02
#       8
#     8   8   8   8   8   4   4   8
#     4  10  20  35  55  80 112 146 185 226 271 325
#     4   9  18  34  58  84 111 146 187 229 271 318
#     4   9  17  32  55  82 111 141 177 223 278 333
#     4  10  21  39  62  83 104 136 183 235 282 330
#     4  12  25  38  55  80 112 146 184 228 275 333
#     4   9  17  31  51  77 109 145 181 216 261 318
#     4   9  17  29  49  81 115 145 179 218 265 318
#     4  10  21  37  56  80 113 149 185 225 272 327
#
# _framework density 18.164567999999999
#
# number of rings (size 3 to 8) (size 9 to 14) (size 15 to 20)
#    0.000    2.143    0.000    3.429    1.000    6.571 
#    0.000    2.857    1.571    0.000    0.000    0.000 
#    0.000    0.000    0.000    0.000    0.000    0.000 
#
# Total GULP energy -312680.386089 kJ/mol
# GULP energy per Si atom -5583.578323 kJ/mol
# Density = 1.812322 g / cm^3
# Si number density = 18.164568 Si / 1000 Ang^3
#
#
#
# Elastic Constant Matrix: (Units=GPa)
#
#
# Indices 1 2 3 4 5 6 
#
# 1 64.3268 29.0296 48.4582 0.0000 0.0000 0.0000
# 2 29.0296 78.7214 33.9193 0.0000 0.0000 0.0000
# 3 48.4582 33.9193 97.0019 0.0000 0.0000 0.0000
# 4 0.0000 0.0000 0.0000 21.2063 0.0000 0.0000
# 5 0.0000 0.0000 0.0000 0.0000 18.8330 0.0000
# 6 0.0000 0.0000 0.0000 0.0000 0.0000 -22.3775
#
#
#
# Elastic Compliance Matrix: (Units=1/GPa)
#
#
# Indices 1 2 3 4 5 6 
#
# 1 0.026361 -0.004765 -0.011503 0.000000 0.000000 0.000000
# 2 -0.004765 0.015818 -0.003151 0.000000 0.000000 0.000000
# 3 -0.011503 -0.003151 0.017157 0.000000 0.000000 0.000000
# 4 0.000000 0.000000 0.000000 0.047156 0.000000 0.000000
# 5 0.000000 0.000000 0.000000 0.000000 0.053098 0.000000
# 6 0.000000 0.000000 0.000000 0.000000 0.000000 -0.044688
#
#
# Mechanical properties :
#
#
# Convention : Reuss Voigt Hill
#
# Bulk Modulus (GPa) = 48.78220 51.42934 50.10577
# Shear Modulus (GPa) = 31.13866 12.10856 21.62361
#
# Velocity S-wave (km/s) = 4.14485 2.58467 3.45400
# Velocity P-wave (km/s) = 7.05835 6.10588 6.59932
#
# Compressibility (1/GPa) = 0.02049928
#
# Stress axis : x y z
#
# Youngs Moduli (GPa) = 37.93470 63.22034 58.28456
#
# Poissons Ratio (x) = 0.30123 0.67044
# Poissons Ratio (y) = 0.18075 0.18364
# Poissons Ratio (z) = 0.43636 0.19920
#
# Static dielectric constant tensor:
#      x y z
#    x 1.622340 0.000000 0.000000 
#    y 0.000000 1.608710 0.000000 
#    z 0.000000 0.000000 1.629360 
# 
# From -- ./inp_files/33498.got.cif
#   From: 2010.05.17/outbox.cif.g08.bks.cpg/sg51_17_cif.got.tgz:33498.got - 2010.06.03 11:52:47.
