data_PCOD9404674
_publ_section_title
;
Structure prediction by ZEFSAII (Michael W. Deem and Ramdas Pophale) SiO2 
 PCOD9404674
Probable space group: P M M A
;
_chemical_formula_sum "Si O2"
_cell_formula_units_Z 44
_cell_length_a 9.371672
_cell_length_b 17.163015
_cell_length_c 15.742661
_cell_angle_alpha 90.000000
_cell_angle_beta 90.000000
_cell_angle_gamma 90.000000
_cell_volume 2532.146367
_symmetry_space_group_name_H-M "P M M A"
_symmetry_group_IT_number 51
_symmetry_cell_setting 'orthorhombic'
loop_
_space_group_symop_operation_xyz
x,y,z
1/2-x,-y,z
1/2+x,-y,-z
-x,y,-z
-x,-y,-z
1/2+x,y,-z
1/2-x,y,z
x,-y,z
loop_
_atom_site_type_symbol
_atom_site_label
_atom_site_fract_x
_atom_site_fract_y
_atom_site_fract_z
Si Si1 0.082304 0.407055 0.587324
Si Si2 0.577114 0.873202 0.729445
Si Si3 0.923049 0.000000 0.590742
Si Si4 0.914843 0.882097 0.916911
Si Si5 0.586508 0.692352 0.918719
Si Si6 0.923026 0.691237 0.729093
O O1 0.250000 0.387371 0.581022
O O2 0.071200 0.500000 0.601677
O O3 0.000000 0.389308 0.500000
O O4 0.004508 0.360648 0.661702
O O5 0.750000 0.876332 0.735028
O O6 0.527684 0.902449 0.822764
O O7 0.539599 0.782645 0.717770
O O8 0.536338 0.926129 0.649822
O O9 0.000000 0.000000 0.500000
O O10 0.750000 0.000000 0.579841
O O11 0.750000 0.906556 0.923539
O O12 0.916247 0.787201 0.917587
O O13 0.000000 0.908208 0.000000
O O14 0.750000 0.668559 0.927865
O O15 0.536084 0.668114 0.825377
O O16 0.500000 0.665221 0.000000
O O17 0.750000 0.684569 0.721599
#
# Coordination Sequence:
#
# PCOD9404674 Si02
#       6
#     8   8   4   8   8   8
#     4  10  21  36  53  74  99 126 156 193 241 295
#     4   8  16  31  50  70  95 128 163 196 235 286
#     4  10  20  36  53  66  88 126 165 202 245 286
#     4   8  13  24  42  65  92 122 154 188 230 278
#     4   8  14  24  41  66  96 127 158 193 231 274
#     4   9  17  31  51  75 100 127 162 201 239 282
#
# _framework density 17.376562
#
# number of rings (size 3 to 8) (size 9 to 14) (size 15 to 20)
#    0.000    3.273    0.000    2.727    0.000    2.545 
#    0.000    6.818    0.000    0.545    0.000    0.000 
#    0.000    0.000    0.000    0.000    0.000    0.000 
#
# Total GULP energy -245067.413110 kJ/mol
# GULP energy per Si atom -5569.713934 kJ/mol
# Density = 1.733701 g / cm^3
# Si number density = 17.376562 Si / 1000 Ang^3
#
#
#
# Elastic Constant Matrix: (Units=GPa)
#
#
# Indices 1 2 3 4 5 6 
#
# 1 60.3887 37.3547 84.9255 0.0000 0.0000 0.0000
# 2 37.3547 36.7709 68.4969 0.0000 0.0000 0.0000
# 3 84.9255 68.4969 219.5516 0.0000 0.0000 0.0000
# 4 0.0000 0.0000 0.0000 236.7958 0.0000 0.0000
# 5 0.0000 0.0000 0.0000 0.0000 37.5006 0.0000
# 6 0.0000 0.0000 0.0000 0.0000 0.0000 -1.9322
#
#
#
# Elastic Compliance Matrix: (Units=1/GPa)
#
#
# Indices 1 2 3 4 5 6 
#
# 1 0.050298 -0.035465 -0.008391 0.000000 0.000000 0.000000
# 2 -0.035465 0.089938 -0.014341 0.000000 0.000000 0.000000
# 3 -0.008391 -0.014341 0.012275 0.000000 0.000000 0.000000
# 4 0.000000 0.000000 0.000000 0.004223 0.000000 0.000000
# 5 0.000000 0.000000 0.000000 0.000000 0.026666 0.000000
# 6 0.000000 0.000000 0.000000 0.000000 0.000000 -0.517553
#
#
# Mechanical properties :
#
#
# Convention : Reuss Voigt Hill
#
# Bulk Modulus (GPa) = 27.68866 77.58504 52.63685
# Shear Modulus (GPa) = -24.30487 62.86845 19.28179
#
# Velocity S-wave (km/s) = -3.74400 6.02151 3.33475
# Velocity P-wave (km/s) = 1.64953 9.64836 6.72198
#
# Compressibility (1/GPa) = 0.03611587
#
# Stress axis : x y z
#
# Youngs Moduli (GPa) = 19.88158 11.11879 81.46801
#
# Poissons Ratio (x) = 0.39433 0.68362
# Poissons Ratio (y) = 0.70510 1.16833
# Poissons Ratio (z) = 0.16683 0.15945
#
# Static dielectric constant tensor:
#      x y z
#    x 1.576790 0.000000 0.000000 
#    y 0.000000 1.599380 0.000000 
#    z 0.000000 0.000000 1.595870 
# 
# From -- ./inp_files/20920.got.cif
#   From: 2010.05.17/outbox.cif.g08.bks.cpg/sg51_11_cif.got.tgz:20920.got - 2010.06.03 11:52:47.
