data_PCOD9404001
_publ_section_title
;
Structure prediction by ZEFSAII (Michael W. Deem and Ramdas Pophale) SiO2 
 PCOD9404001
Probable space group: P M M A
;
_chemical_formula_sum "Si O2"
_cell_formula_units_Z 56
_cell_length_a 20.212336
_cell_length_b 7.614917
_cell_length_c 16.538172
_cell_angle_alpha 90.000000
_cell_angle_beta 90.000000
_cell_angle_gamma 90.000000
_cell_volume 2545.477060
_symmetry_space_group_name_H-M "P M M A"
_symmetry_group_IT_number 51
_symmetry_cell_setting 'orthorhombic'
loop_
_space_group_symop_operation_xyz
x,y,z
1/2-x,-y,z
1/2+x,-y,-z
-x,y,-z
-x,-y,-z
1/2+x,y,-z
1/2-x,y,z
x,-y,z
loop_
_atom_site_type_symbol
_atom_site_label
_atom_site_fract_x
_atom_site_fract_y
_atom_site_fract_z
Si Si1 0.825312 0.787845 0.981531
Si Si2 0.176391 0.208600 0.669597
Si Si3 0.541076 0.293127 0.250459
Si Si4 0.675879 0.288193 0.518683
Si Si5 0.455436 0.292486 0.928101
Si Si6 0.577868 0.702492 0.652101
Si Si7 0.327048 0.212290 0.202406
O O1 0.750000 0.729762 0.997778
O O2 0.843550 0.733007 0.889652
O O3 0.824997 0.000000 0.981752
O O4 0.879545 0.726853 0.044874
O O5 0.250000 0.277777 0.689085
O O6 0.116520 0.279082 0.722215
O O7 0.164038 0.246546 0.574973
O O8 0.177482 0.000000 0.680599
O O9 0.524818 0.500000 0.245702
O O10 0.531866 0.217090 0.160790
O O11 0.490973 0.217087 0.317201
O O12 0.750000 0.223873 0.540063
O O13 0.677280 0.500000 0.526807
O O14 0.619534 0.218098 0.578333
O O15 0.470213 0.500000 0.923601
O O16 0.500000 0.215645 0.000000
O O17 0.564667 0.500000 0.628530
O O18 0.625708 0.708680 0.730204
O O19 0.250000 0.257839 0.216872
O O20 0.332301 0.000000 0.206486
#
# Coordination Sequence:
#
# PCOD9404001 Si02
#       7
#     8   8   8   8   8   8   8
#     4   9  19  35  53  75 104 138 178 224 272 321
#     4  10  22  40  60  81 106 139 181 225 267 316
#     4  10  22  38  56  80 110 143 176 218 273 321
#     4   9  18  34  57  83 110 141 176 215 261 312
#     4  10  21  37  56  79 108 141 179 222 268 320
#     4  10  20  34  54  81 111 143 181 220 260 315
#     4   9  18  32  50  75 109 146 180 218 268 320
#
# _framework density 21.999804000000001
#
# number of rings (size 3 to 8) (size 9 to 14) (size 15 to 20)
#    0.000    2.429    0.000    2.571    0.000    6.857 
#    0.000    8.571    0.000    0.000    0.000    0.000 
#    0.000    0.000    0.000    0.000    0.000    0.000 
#
# Total GULP energy -312770.481168 kJ/mol
# GULP energy per Si atom -5585.187164 kJ/mol
# Density = 2.194973 g / cm^3
# Si number density = 21.999804 Si / 1000 Ang^3
#
#
#
# Elastic Constant Matrix: (Units=GPa)
#
#
# Indices 1 2 3 4 5 6 
#
# 1 89.0531 -3.5054 48.1310 0.0000 0.0000 0.0000
# 2 -3.5054 45.9281 -3.0012 0.0000 0.0000 0.0000
# 3 48.1310 -3.0012 62.8424 0.0000 0.0000 0.0000
# 4 0.0000 0.0000 0.0000 112.8485 0.0000 0.0000
# 5 0.0000 0.0000 0.0000 0.0000 36.6645 0.0000
# 6 0.0000 0.0000 0.0000 0.0000 0.0000 32.9819
#
#
#
# Elastic Compliance Matrix: (Units=1/GPa)
#
#
# Indices 1 2 3 4 5 6 
#
# 1 0.019173 0.000505 -0.014660 0.000000 0.000000 0.000000
# 2 0.000505 0.021855 0.000657 0.000000 0.000000 0.000000
# 3 -0.014660 0.000657 0.027172 0.000000 0.000000 0.000000
# 4 0.000000 0.000000 0.000000 0.008861 0.000000 0.000000
# 5 0.000000 0.000000 0.000000 0.000000 0.027274 0.000000
# 6 0.000000 0.000000 0.000000 0.000000 0.000000 0.030320
#
#
# Mechanical properties :
#
#
# Convention : Reuss Voigt Hill
#
# Bulk Modulus (GPa) = 24.26983 31.23024 27.75003
# Shear Modulus (GPa) = 28.50859 46.91227 37.71043
#
# Velocity S-wave (km/s) = 3.60371 4.62280 4.14469
# Velocity P-wave (km/s) = 5.32648 6.53607 5.96203
#
# Compressibility (1/GPa) = 0.04120343
#
# Stress axis : x y z
#
# Youngs Moduli (GPa) = 52.15779 45.75683 36.80207
#
# Poissons Ratio (x) = -0.02312 0.53952
# Poissons Ratio (y) = -0.02636 -0.02417
# Poissons Ratio (z) = 0.76464 -0.03005
#
# Static dielectric constant tensor:
#      x y z
#    x 1.802170 0.000000 0.000000 
#    y 0.000000 1.828610 0.000000 
#    z 0.000000 0.000000 1.787880 
# 
# From -- ./inp_files/25698.got.cif
#   From: 2010.05.17/outbox.cif.g08.bks.cpg/sg51_13_cif.got.tgz:25698.got - 2010.06.03 11:52:47.
