data_PCOD9404903
_publ_section_title
;
Structure prediction by ZEFSAII (Michael W. Deem and Ramdas Pophale) SiO2 
 PCOD9404903
Probable space group: P M M A
;
_chemical_formula_sum "Si O2"
_cell_formula_units_Z 56
_cell_length_a 15.246350
_cell_length_b 7.714688
_cell_length_c 22.765875
_cell_angle_alpha 90.000000
_cell_angle_beta 90.000000
_cell_angle_gamma 90.000000
_cell_volume 2677.741190
_symmetry_space_group_name_H-M "P M M A"
_symmetry_group_IT_number 51
_symmetry_cell_setting 'orthorhombic'
loop_
_space_group_symop_operation_xyz
x,y,z
1/2-x,-y,z
1/2+x,-y,-z
-x,y,-z
-x,-y,-z
1/2+x,y,-z
1/2-x,y,z
x,-y,z
loop_
_atom_site_type_symbol
_atom_site_label
_atom_site_fract_x
_atom_site_fract_y
_atom_site_fract_z
Si Si1 0.649962 0.290420 0.849353
Si Si2 0.645723 0.000000 0.635211
Si Si3 0.350592 0.708435 0.715425
Si Si4 0.145039 0.696126 0.589262
Si Si5 0.507277 0.793888 0.065797
Si Si6 0.103231 0.000000 0.501177
Si Si7 0.142898 0.696833 0.282347
Si Si8 0.649550 0.207884 0.156861
O O1 0.750000 0.231298 0.859977
O O2 0.651063 0.500000 0.848427
O O3 0.581973 0.231331 0.898033
O O4 0.622271 0.237968 0.783347
O O5 0.611638 0.171546 0.667968
O O6 0.750000 0.000000 0.646146
O O7 0.633930 0.000000 0.565788
O O8 0.250000 0.775968 0.718713
O O9 0.347611 0.500000 0.711983
O O10 0.389483 0.763289 0.652649
O O11 0.389651 0.754432 0.778447
O O12 0.250000 0.683514 0.597429
O O13 0.112444 0.500000 0.577379
O O14 0.131014 0.830198 0.537273
O O15 0.586660 0.723235 0.105757
O O16 0.522933 0.000000 0.060403
O O17 0.500000 0.721883 0.000000
O O18 0.000000 0.000000 0.500000
O O19 0.250000 0.687902 0.283942
O O20 0.110076 0.500000 0.290394
O O21 0.750000 0.275172 0.153584
O O22 0.653948 0.000000 0.151723
#
# Coordination Sequence:
#
# PCOD9404903 Si02
#       8
#     8   4   8   8   8   4   8   8
#     4   9  19  37  59  83 111 145 189 240 292 343
#     4  10  20  36  60  84 105 144 200 240 279 345
#     4   8  15  30  54  83 107 132 180 239 288 335
#     4   9  19  38  63  85 108 147 199 247 288 341
#     4  10  22  37  53  81 117 154 195 234 278 342
#     4  12  26  40  52  82 126 162 191 230 288 357
#     4   8  16  33  57  85 113 139 182 246 300 341
#     4   9  18  33  53  79 112 149 187 236 291 341
#
# _framework density 20.913149000000001
#
# number of rings (size 3 to 8) (size 9 to 14) (size 15 to 20)
#    0.000    2.857    0.000    2.357    2.000    2.571 
#    2.571    2.857    0.000    1.714    0.000    0.000 
#    0.000    0.000    0.000    0.000    0.000    0.000 
#
# Total GULP energy -312378.139231 kJ/mol
# GULP energy per Si atom -5578.181058 kJ/mol
# Density = 2.086555 g / cm^3
# Si number density = 20.913149 Si / 1000 Ang^3
#
#
#
# Elastic Constant Matrix: (Units=GPa)
#
#
# Indices 1 2 3 4 5 6 
#
# 1 57.4293 12.0541 45.7449 0.0000 0.0000 0.0000
# 2 12.0541 66.5697 61.8025 0.0000 0.0000 0.0000
# 3 45.7449 61.8025 217.9815 0.0000 0.0000 0.0000
# 4 0.0000 0.0000 0.0000 55.7118 0.0000 0.0000
# 5 0.0000 0.0000 0.0000 0.0000 40.3942 0.0000
# 6 0.0000 0.0000 0.0000 0.0000 0.0000 -4.6106
#
#
#
# Elastic Compliance Matrix: (Units=1/GPa)
#
#
# Indices 1 2 3 4 5 6 
#
# 1 0.020915 0.000390 -0.004500 0.000000 0.000000 0.000000
# 2 0.000390 0.020396 -0.005865 0.000000 0.000000 0.000000
# 3 -0.004500 -0.005865 0.007195 0.000000 0.000000 0.000000
# 4 0.000000 0.000000 0.000000 0.017950 0.000000 0.000000
# 5 0.000000 0.000000 0.000000 0.000000 0.024756 0.000000
# 6 0.000000 0.000000 0.000000 0.000000 0.000000 -0.216891
#
#
# Mechanical properties :
#
#
# Convention : Reuss Voigt Hill
#
# Bulk Modulus (GPa) = 35.01722 64.57596 49.79659
# Shear Modulus (GPa) = -51.96812 33.12435 -9.42189
#
# Velocity S-wave (km/s) = -4.99033 3.98414 -2.12486
# Velocity P-wave (km/s) = 4.05267 7.21871 4.22407
#
# Compressibility (1/GPa) = 0.02855738
#
# Stress axis : x y z
#
# Youngs Moduli (GPa) = 47.81238 49.02988 138.99311
#
# Poissons Ratio (x) = -0.01914 0.62545
# Poissons Ratio (y) = -0.01867 0.81513
# Poissons Ratio (z) = 0.21515 0.28754
#
# Static dielectric constant tensor:
#      x y z
#    x 1.766270 0.000000 0.000000 
#    y 0.000000 1.750880 0.000000 
#    z 0.000000 0.000000 1.415090 
# 
# From -- ./inp_files/33580.got.cif
#   From: 2010.05.17/outbox.cif.g08.bks.cpg/sg51_17_cif.got.tgz:33580.got - 2010.06.03 11:52:47.
