data_PCOD9404775
_publ_section_title
;
Structure prediction by ZEFSAII (Michael W. Deem and Ramdas Pophale) SiO2 
 PCOD9404775
Probable space group: P M M A
;
_chemical_formula_sum "Si O2"
_cell_formula_units_Z 48
_cell_length_a 8.728748
_cell_length_b 31.004351
_cell_length_c 9.602034
_cell_angle_alpha 90.000000
_cell_angle_beta 90.000000
_cell_angle_gamma 90.000000
_cell_volume 2598.590461
_symmetry_space_group_name_H-M "P M M A"
_symmetry_group_IT_number 51
_symmetry_cell_setting 'orthorhombic'
loop_
_space_group_symop_operation_xyz
x,y,z
1/2-x,-y,z
1/2+x,-y,-z
-x,y,-z
-x,-y,-z
1/2+x,y,-z
1/2-x,y,z
x,-y,z
loop_
_atom_site_type_symbol
_atom_site_label
_atom_site_fract_x
_atom_site_fract_y
_atom_site_fract_z
Si Si1 0.065372 0.199239 0.655547
Si Si2 0.066286 0.622823 0.846396
Si Si3 0.566971 0.877496 0.844815
Si Si4 0.568143 0.948699 0.348820
Si Si5 0.566646 0.548258 0.655043
Si Si6 0.565827 0.279184 0.153520
O O1 0.250000 0.196523 0.651102
O O2 0.020116 0.243596 0.733758
O O3 0.000000 0.197421 0.500000
O O4 0.000246 0.160472 0.748624
O O5 0.250000 0.620628 0.849069
O O6 0.021075 0.671925 0.806304
O O7 0.001360 0.586438 0.746217
O O8 0.000000 0.615653 0.000000
O O9 0.750000 0.874828 0.849491
O O10 0.513812 0.921611 0.770815
O O11 0.500000 0.874300 0.000000
O O12 0.500000 0.936591 0.500000
O O13 0.750000 0.939974 0.347426
O O14 0.544998 0.000000 0.330927
O O15 0.500000 0.551329 0.500000
O O16 0.750000 0.551659 0.650394
O O17 0.527468 0.500000 0.708879
O O18 0.750000 0.278079 0.142542
O O19 0.500000 0.269691 0.000000
#
# Coordination Sequence:
#
# PCOD9404775 Si02
#       6
#     8   8   8   8   8   8
#     4  11  23  40  60  85 116 150 190 233 280 333
#     4  10  20  36  57  83 113 146 185 228 277 331
#     4  12  25  41  61  86 117 153 193 237 286 338
#     4  10  21  39  63  90 120 155 194 236 284 337
#     4  10  21  37  56  79 108 144 185 229 279 333
#     4   9  20  37  58  83 112 146 184 228 278 333
#
# _framework density 18.471553
#
# number of rings (size 3 to 8) (size 9 to 14) (size 15 to 20)
#    0.000    1.667    0.000    4.500    0.000    6.667 
#    0.000    1.667    0.000    0.000    0.000    0.000 
#    0.000    0.000    0.000    0.000    0.000    0.000 
#
# Total GULP energy -268246.144332 kJ/mol
# GULP energy per Si atom -5588.461340 kJ/mol
# Density = 1.842951 g / cm^3
# Si number density = 18.471553 Si / 1000 Ang^3
#
#
#
# Elastic Constant Matrix: (Units=GPa)
#
#
# Indices 1 2 3 4 5 6 
#
# 1 97.5964 64.3539 64.5877 0.0000 0.0000 0.0000
# 2 64.3539 109.9868 96.4881 0.0000 0.0000 0.0000
# 3 64.5877 96.4881 148.4885 0.0000 0.0000 0.0000
# 4 0.0000 0.0000 0.0000 39.9750 0.0000 0.0000
# 5 0.0000 0.0000 0.0000 0.0000 39.1834 0.0000
# 6 0.0000 0.0000 0.0000 0.0000 0.0000 29.9586
#
#
#
# Elastic Compliance Matrix: (Units=1/GPa)
#
#
# Indices 1 2 3 4 5 6 
#
# 1 0.016976 -0.008036 -0.002162 0.000000 0.000000 0.000000
# 2 -0.008036 0.024951 -0.012718 0.000000 0.000000 0.000000
# 3 -0.002162 -0.012718 0.015939 0.000000 0.000000 0.000000
# 4 0.000000 0.000000 0.000000 0.025016 0.000000 0.000000
# 5 0.000000 0.000000 0.000000 0.000000 0.025521 0.000000
# 6 0.000000 0.000000 0.000000 0.000000 0.000000 0.033379
#
#
# Mechanical properties :
#
#
# Convention : Reuss Voigt Hill
#
# Bulk Modulus (GPa) = 83.09738 89.65900 86.37819
# Shear Modulus (GPa) = 26.09271 30.53286 28.31278
#
# Velocity S-wave (km/s) = 3.76252 4.07008 3.91932
# Velocity P-wave (km/s) = 7.99748 8.41022 8.20644
#
# Compressibility (1/GPa) = 0.01203407
#
# Stress axis : x y z
#
# Youngs Moduli (GPa) = 58.90672 40.07925 62.73925
#
# Poissons Ratio (x) = 0.32207 0.13566
# Poissons Ratio (y) = 0.47336 0.79789
# Poissons Ratio (z) = 0.12738 0.50971
#
# Static dielectric constant tensor:
#      x y z
#    x 1.617320 0.000000 0.000000 
#    y 0.000000 1.648710 0.000000 
#    z 0.000000 0.000000 1.583750 
# 
# From -- ./inp_files/5967.got.cif
#   From: 2010.05.17/outbox.cif.g08.bks.cpg/sg51_3_cif.got.tgz:5967.got - 2010.06.03 11:52:47.
