data_PCOD9404814
_publ_section_title
;
Structure prediction by ZEFSAII (Michael W. Deem and Ramdas Pophale) SiO2 
 PCOD9404814
Probable space group: P M M A
;
_chemical_formula_sum "Si O2"
_cell_formula_units_Z 32
_cell_length_a 13.637620
_cell_length_b 9.303567
_cell_length_c 13.693319
_cell_angle_alpha 90.000000
_cell_angle_beta 90.000000
_cell_angle_gamma 90.000000
_cell_volume 1737.387931
_symmetry_space_group_name_H-M "P M M A"
_symmetry_group_IT_number 51
_symmetry_cell_setting 'orthorhombic'
loop_
_space_group_symop_operation_xyz
x,y,z
1/2-x,-y,z
1/2+x,-y,-z
-x,y,-z
-x,-y,-z
1/2+x,y,-z
1/2-x,y,z
x,-y,z
loop_
_atom_site_type_symbol
_atom_site_label
_atom_site_fract_x
_atom_site_fract_y
_atom_site_fract_z
Si Si1 0.250000 0.329756 0.604139
Si Si2 0.389391 0.836103 0.466515
Si Si3 0.969431 0.671475 0.112302
Si Si4 0.250000 0.325334 0.828661
Si Si5 0.862512 0.173168 0.761326
O O1 0.250000 0.500000 0.606375
O O2 0.160860 0.269138 0.542205
O O3 0.250000 0.279249 0.715607
O O4 0.500000 0.839402 0.500000
O O5 0.374534 0.792894 0.353968
O O6 0.352594 0.000000 0.475065
O O7 0.973157 0.500000 0.134173
O O8 0.855787 0.719906 0.127460
O O9 0.050376 0.750958 0.178962
O O10 0.000000 0.692021 0.000000
O O11 0.250000 0.500000 0.834546
O O12 0.750000 0.212855 0.790573
O O13 0.871424 0.000000 0.771438
#
# Coordination Sequence:
#
# PCOD9404814 Si02
#       5
#     4   8   8   4   8
#     4  11  21  33  54  81 116 154 183 229 286 337
#     4  10  20  36  58  82 114 155 194 232 276 336
#     4  10  22  39  63  87 112 151 195 241 290 347
#     4   9  20  39  56  83 122 148 183 243 296 337
#     4  10  21  38  58  85 122 154 187 240 292 335
#
# _framework density 18.418454000000001
#
# number of rings (size 3 to 8) (size 9 to 14) (size 15 to 20)
#    0.000    2.000    1.250    1.875    1.750    2.500 
#    0.000    1.875    0.000    0.000    0.000    0.000 
#    0.000    0.000    0.000    0.000    0.000    0.000 
#
# Total GULP energy -178390.255334 kJ/mol
# GULP energy per Si atom -5574.695479 kJ/mol
# Density = 1.837653 g / cm^3
# Si number density = 18.418454 Si / 1000 Ang^3
#
#
#
# Elastic Constant Matrix: (Units=GPa)
#
#
# Indices 1 2 3 4 5 6 
#
# 1 214.1048 46.7575 87.0485 0.0000 0.0000 0.0000
# 2 46.7575 34.6273 44.9236 0.0000 0.0000 0.0000
# 3 87.0485 44.9236 110.0025 0.0000 0.0000 0.0000
# 4 0.0000 0.0000 0.0000 10.4312 0.0000 0.0000
# 5 0.0000 0.0000 0.0000 0.0000 11.0374 0.0000
# 6 0.0000 0.0000 0.0000 0.0000 0.0000 39.9322
#
#
#
# Elastic Compliance Matrix: (Units=1/GPa)
#
#
# Indices 1 2 3 4 5 6 
#
# 1 0.007272 -0.005006 -0.003710 0.000000 0.000000 0.000000
# 2 -0.005006 0.064868 -0.022529 0.000000 0.000000 0.000000
# 3 -0.003710 -0.022529 0.021228 0.000000 0.000000 0.000000
# 4 0.000000 0.000000 0.000000 0.095866 0.000000 0.000000
# 5 0.000000 0.000000 0.000000 0.000000 0.090601 0.000000
# 6 0.000000 0.000000 0.000000 0.000000 0.000000 0.025042
#
#
# Mechanical properties :
#
#
# Convention : Reuss Voigt Hill
#
# Bulk Modulus (GPa) = 32.38833 79.57709 55.98271
# Shear Modulus (GPa) = 13.23934 24.28047 18.75991
#
# Velocity S-wave (km/s) = 2.68397 3.63474 3.19492
# Velocity P-wave (km/s) = 5.21803 7.80474 6.63859
#
# Compressibility (1/GPa) = 0.03087532
#
# Stress axis : x y z
#
# Youngs Moduli (GPa) = 137.50490 15.41599 47.10852
#
# Poissons Ratio (x) = 0.07718 0.17479
# Poissons Ratio (y) = 0.68841 1.06133
# Poissons Ratio (z) = 0.51020 0.34731
#
# Static dielectric constant tensor:
#      x y z
#    x 1.666500 0.000000 0.000000 
#    y 0.000000 1.619750 0.000000 
#    z 0.000000 0.000000 1.605160 
# 
# From -- ./inp_files/15970.got.cif
#   From: 2010.05.17/outbox.cif.g08.bks.cpg/sg51_8_cif.got.tgz:15970.got - 2010.06.03 11:52:47.
