data_PCOD9404571
_publ_section_title
;
Structure prediction by ZEFSAII (Michael W. Deem and Ramdas Pophale) SiO2 
 PCOD9404571
Probable space group: P M M A
;
_chemical_formula_sum "Si O2"
_cell_formula_units_Z 56
_cell_length_a 7.781636
_cell_length_b 15.465257
_cell_length_c 20.357014
_cell_angle_alpha 90.000000
_cell_angle_beta 90.000000
_cell_angle_gamma 90.000000
_cell_volume 2449.864862
_symmetry_space_group_name_H-M "P M M A"
_symmetry_group_IT_number 51
_symmetry_cell_setting 'orthorhombic'
loop_
_space_group_symop_operation_xyz
x,y,z
1/2-x,-y,z
1/2+x,-y,-z
-x,y,-z
-x,-y,-z
1/2+x,y,-z
1/2-x,y,z
x,-y,z
loop_
_atom_site_type_symbol
_atom_site_label
_atom_site_fract_x
_atom_site_fract_y
_atom_site_fract_z
Si Si1 0.543089 0.908784 0.922192
Si Si2 0.546673 0.594909 0.186812
Si Si3 0.061285 0.103023 0.431513
Si Si4 0.461858 0.716833 0.697892
Si Si5 0.056314 0.903629 0.709546
Si Si6 0.043485 0.599759 0.576237
Si Si7 0.045001 0.723320 0.076560
O O1 0.750000 0.909058 0.915760
O O2 0.477450 0.816730 0.897814
O O3 0.477751 0.000000 0.893968
O O4 0.500000 0.909453 0.000000
O O5 0.750000 0.587821 0.198796
O O6 0.470861 0.500000 0.182547
O O7 0.478926 0.648892 0.247807
O O8 0.524173 0.646756 0.119987
O O9 0.250000 0.136083 0.413543
O O10 0.000000 0.141922 0.500000
O O11 0.938133 0.108541 0.369791
O O12 0.077906 0.000000 0.441986
O O13 0.250000 0.723301 0.697134
O O14 0.525861 0.810768 0.724228
O O15 0.513582 0.674724 0.627543
O O16 0.250000 0.906598 0.735836
O O17 0.977668 0.000000 0.721414
O O18 0.250000 0.597438 0.581989
O O19 0.983128 0.500000 0.591145
O O20 0.000000 0.617731 0.500000
O O21 0.250000 0.724130 0.081926
O O22 0.000000 0.715292 0.000000
#
# Coordination Sequence:
#
# PCOD9404571 Si02
#       7
#     8   8   8   8   8   8   8
#     4   8  14  26  46  73 106 143 179 213 252 300
#     4  10  21  38  59  80 104 139 182 225 270 322
#     4   9  16  26  41  62  90 125 165 207 250 298
#     4   9  18  34  55  76 100 134 175 213 254 312
#     4   9  17  30  48  69  95 128 165 207 254 305
#     4   9  17  31  52  76 100 127 163 210 261 308
#     4  10  20  35  57  85 116 147 180 221 266 313
#
# _framework density 22.858402000000002
#
# number of rings (size 3 to 8) (size 9 to 14) (size 15 to 20)
#    0.000    2.857    0.000    1.286    0.000    5.143 
#    0.000    4.286    0.000    2.571    0.000    0.000 
#    0.000    0.000    0.000    0.000    0.000    0.000 
#
# Total GULP energy -312010.720646 kJ/mol
# GULP energy per Si atom -5571.620012 kJ/mol
# Density = 2.280637 g / cm^3
# Si number density = 22.858402 Si / 1000 Ang^3
#
#
#
# Elastic Constant Matrix: (Units=GPa)
#
#
# Indices 1 2 3 4 5 6 
#
# 1 43.6054 4.1832 -7.6912 0.0000 0.0000 0.0000
# 2 4.1832 224.2480 59.6100 0.0000 0.0000 0.0000
# 3 -7.6912 59.6100 65.5409 0.0000 0.0000 0.0000
# 4 0.0000 0.0000 0.0000 -78.7836 0.0000 0.0000
# 5 0.0000 0.0000 0.0000 0.0000 13.4533 0.0000
# 6 0.0000 0.0000 0.0000 0.0000 0.0000 -9.5894
#
#
#
# Elastic Compliance Matrix: (Units=1/GPa)
#
#
# Indices 1 2 3 4 5 6 
#
# 1 0.023828 -0.001567 0.004221 0.000000 0.000000 0.000000
# 2 -0.001567 0.005984 -0.005627 0.000000 0.000000 0.000000
# 3 0.004221 -0.005627 0.020870 0.000000 0.000000 0.000000
# 4 0.000000 0.000000 0.000000 -0.012693 0.000000 0.000000
# 5 0.000000 0.000000 0.000000 0.000000 0.074331 0.000000
# 6 0.000000 0.000000 0.000000 0.000000 0.000000 -0.104282
#
#
# Mechanical properties :
#
#
# Convention : Reuss Voigt Hill
#
# Bulk Modulus (GPa) = 22.35233 49.51093 35.93163
# Shear Modulus (GPa) = 173.03833 3.50221 88.27027
#
# Velocity S-wave (km/s) = 8.71002 1.23914 6.22093
# Velocity P-wave (km/s) = 10.53340 4.87382 8.20690
#
# Compressibility (1/GPa) = 0.04473807
#
# Stress axis : x y z
#
# Youngs Moduli (GPa) = 41.96794 167.10601 47.91482
#
# Poissons Ratio (x) = 0.26177 -0.20224
# Poissons Ratio (y) = 0.06574 0.26959
# Poissons Ratio (z) = -0.17714 0.94023
#
# Static dielectric constant tensor:
#      x y z
#    x 1.946850 0.000000 0.000000 
#    y 0.000000 1.938670 0.000000 
#    z 0.000000 0.000000 1.837010 
# 
# From -- ./inp_files/31895.got.cif
#   From: 2010.05.17/outbox.cif.g08.bks.cpg/sg51_16_cif.got.tgz:31895.got - 2010.06.03 11:52:47.
