data_PCOD9404093
_publ_section_title
;
Structure prediction by ZEFSAII (Michael W. Deem and Ramdas Pophale) SiO2 
 PCOD9404093
Probable space group: P M M A
;
_chemical_formula_sum "Si O2"
_cell_formula_units_Z 56
_cell_length_a 9.132741
_cell_length_b 14.555412
_cell_length_c 21.874749
_cell_angle_alpha 90.000000
_cell_angle_beta 90.000000
_cell_angle_gamma 90.000000
_cell_volume 2907.828058
_symmetry_space_group_name_H-M "P M M A"
_symmetry_group_IT_number 51
_symmetry_cell_setting 'orthorhombic'
loop_
_space_group_symop_operation_xyz
x,y,z
1/2-x,-y,z
1/2+x,-y,-z
-x,y,-z
-x,-y,-z
1/2+x,y,-z
1/2-x,y,z
x,-y,z
loop_
_atom_site_type_symbol
_atom_site_label
_atom_site_fract_x
_atom_site_fract_y
_atom_site_fract_z
Si Si1 0.575945 0.395850 0.696436
Si Si2 0.579892 0.111699 0.937227
Si Si3 0.925923 0.890984 0.191192
Si Si4 0.576718 0.109027 0.439080
Si Si5 0.573553 0.210967 0.317246
Si Si6 0.086826 0.609067 0.822096
Si Si7 0.417699 0.387789 0.061402
O O1 0.750000 0.387230 0.690610
O O2 0.534082 0.500000 0.677403
O O3 0.491331 0.310924 0.667619
O O4 0.524862 0.384932 0.766569
O O5 0.750000 0.139564 0.937468
O O6 0.502666 0.136022 0.872721
O O7 0.576035 0.000000 0.938669
O O8 0.500000 0.142482 0.000000
O O9 0.750000 0.882568 0.184061
O O10 0.970713 0.831367 0.251000
O O11 0.956361 0.000000 0.202633
O O12 0.500000 0.146612 0.500000
O O13 0.750000 0.125858 0.444294
O O14 0.527077 0.147927 0.373991
O O15 0.552870 0.000000 0.437637
O O16 0.750000 0.215075 0.315954
O O17 0.250000 0.646274 0.808720
O O18 0.104180 0.500000 0.832416
O O19 0.012884 0.647545 0.882319
O O20 0.250000 0.357882 0.063439
O O21 0.414872 0.500000 0.063832
O O22 0.500000 0.362368 0.000000
#
# Coordination Sequence:
#
# PCOD9404093 Si02
#       7
#     8   8   8   8   8   8   8
#     4  10  21  36  53  74 101 134 174 223 276 324
#     4   9  16  26  42  66  98 138 182 224 267 319
#     4   9  17  30  49  75 108 143 178 219 268 322
#     4   9  18  34  57  87 123 159 190 218 254 308
#     4  10  20  34  55  82 111 145 184 225 270 321
#     4   9  16  27  44  64  86 115 154 202 257 316
#     4   9  15  22  34  55  83 113 148 194 250 313
#
# _framework density 19.258358999999999
#
# number of rings (size 3 to 8) (size 9 to 14) (size 15 to 20)
#    0.000    2.714    0.000    2.143    0.000    8.857 
#    0.000    0.000    0.000    5.571    0.000    2.000 
#    0.000    0.000    0.000    0.000    0.000    0.000 
#
# Total GULP energy -312278.270219 kJ/mol
# GULP energy per Si atom -5576.397682 kJ/mol
# Density = 1.921453 g / cm^3
# Si number density = 19.258359 Si / 1000 Ang^3
#
#
#
# Elastic Constant Matrix: (Units=GPa)
#
#
# Indices 1 2 3 4 5 6 
#
# 1 42.3928 23.3868 43.0580 0.0000 0.0000 0.0000
# 2 23.3868 65.2297 30.3815 0.0000 0.0000 0.0000
# 3 43.0580 30.3815 120.6405 0.0000 0.0000 0.0000
# 4 0.0000 0.0000 0.0000 -84.1354 0.0000 0.0000
# 5 0.0000 0.0000 0.0000 0.0000 27.2309 0.0000
# 6 0.0000 0.0000 0.0000 0.0000 0.0000 10.2233
#
#
#
# Elastic Compliance Matrix: (Units=1/GPa)
#
#
# Indices 1 2 3 4 5 6 
#
# 1 0.041165 -0.008968 -0.012434 0.000000 0.000000 0.000000
# 2 -0.008968 0.019321 -0.001665 0.000000 0.000000 0.000000
# 3 -0.012434 -0.001665 0.013146 0.000000 0.000000 0.000000
# 4 0.000000 0.000000 0.000000 -0.011886 0.000000 0.000000
# 5 0.000000 0.000000 0.000000 0.000000 0.036723 0.000000
# 6 0.000000 0.000000 0.000000 0.000000 0.000000 0.097816
#
#
# Mechanical properties :
#
#
# Convention : Reuss Voigt Hill
#
# Bulk Modulus (GPa) = 36.36473 46.87949 41.62211
# Shear Modulus (GPa) = 19.87392 -0.57381 9.65005
#
# Velocity S-wave (km/s) = 3.21590 -0.54645 2.24092
# Velocity P-wave (km/s) = 5.71952 4.89869 5.32494
#
# Compressibility (1/GPa) = 0.02749917
#
# Stress axis : x y z
#
# Youngs Moduli (GPa) = 24.29234 51.75678 76.06730
#
# Poissons Ratio (x) = 0.46414 0.94582
# Poissons Ratio (y) = 0.21785 0.12666
# Poissons Ratio (z) = 0.30205 0.08618
#
# Static dielectric constant tensor:
#      x y z
#    x 1.646330 0.000000 0.000000 
#    y 0.000000 1.745560 0.000000 
#    z 0.000000 0.000000 1.623130 
# 
# From -- ./inp_files/32007.got.cif
#   From: 2010.05.17/outbox.cif.g08.bks.cpg/sg51_17_cif.got.tgz:32007.got - 2010.06.03 11:52:47.
