data_PCOD9404048
_publ_section_title
;
Structure prediction by ZEFSAII (Michael W. Deem and Ramdas Pophale) SiO2 
 PCOD9404048
Probable space group: P M M A
;
_chemical_formula_sum "Si O2"
_cell_formula_units_Z 64
_cell_length_a 18.756354
_cell_length_b 14.455475
_cell_length_c 12.339857
_cell_angle_alpha 90.000000
_cell_angle_beta 90.000000
_cell_angle_gamma 90.000000
_cell_volume 3345.730186
_symmetry_space_group_name_H-M "P M M A"
_symmetry_group_IT_number 51
_symmetry_cell_setting 'orthorhombic'
loop_
_space_group_symop_operation_xyz
x,y,z
1/2-x,-y,z
1/2+x,-y,-z
-x,y,-z
-x,-y,-z
1/2+x,y,-z
1/2-x,y,z
x,-y,z
loop_
_atom_site_type_symbol
_atom_site_label
_atom_site_fract_x
_atom_site_fract_y
_atom_site_fract_z
Si Si1 0.923593 0.101807 0.486542
Si Si2 0.331753 0.389716 0.985992
Si Si3 0.016982 0.107337 0.873801
Si Si4 0.589443 0.711193 0.200470
Si Si5 0.167005 0.258169 0.587053
Si Si6 0.060834 0.609350 0.181228
Si Si7 0.671323 0.699915 0.668058
Si Si8 0.627074 0.101978 0.733335
O O1 0.865197 0.155216 0.419030
O O2 0.896189 0.093760 0.608392
O O3 0.000000 0.151445 0.500000
O O4 0.937112 0.000000 0.439316
O O5 0.250000 0.371706 0.019707
O O6 0.337549 0.500000 0.963617
O O7 0.353295 0.330796 0.881920
O O8 0.389236 0.367037 0.078603
O O9 0.072206 0.181507 0.825986
O O10 0.943088 0.114949 0.806686
O O11 0.040554 0.000000 0.866202
O O12 0.000000 0.127592 0.000000
O O13 0.618620 0.694890 0.321640
O O14 0.514229 0.660675 0.180663
O O15 0.250000 0.261216 0.616931
O O16 0.161438 0.290649 0.461846
O O17 0.048750 0.500000 0.180452
O O18 0.107704 0.640665 0.283302
O O19 0.750000 0.659476 0.687353
O O20 0.668886 0.800997 0.727106
O O21 0.658910 0.000000 0.762426
#
# Coordination Sequence:
#
# PCOD9404048 Si02
#       8
#     8   8   8   8   8   8   8   8
#     4   9  17  30  53  82 110 148 201 252 291 335
#     4  10  22  41  65  91 118 149 190 246 307 360
#     4  10  20  34  54  84 122 160 199 242 291 349
#     4  12  22  37  62  89 121 156 201 243 294 355
#     4  10  23  38  55  83 121 160 196 242 299 362
#     4  11  23  40  63  91 116 146 196 255 305 355
#     4  10  21  38  58  83 118 158 197 244 304 357
#     4   9  17  31  52  80 112 148 195 243 289 338
#
# _framework density 19.128858999999999
#
# number of rings (size 3 to 8) (size 9 to 14) (size 15 to 20)
#    0.000    1.875    1.250    3.000    1.750    3.750 
#    0.000    4.375    0.000    2.625    0.000    0.000 
#    0.000    0.000    0.000    0.000    0.000    0.000 
#
# Total GULP energy -356844.945289 kJ/mol
# GULP energy per Si atom -5575.702270 kJ/mol
# Density = 1.908532 g / cm^3
# Si number density = 19.128859 Si / 1000 Ang^3
#
#
#
# Elastic Constant Matrix: (Units=GPa)
#
#
# Indices 1 2 3 4 5 6 
#
# 1 67.9761 20.3236 24.9917 0.0000 0.0000 0.0000
# 2 20.3236 35.6401 27.2518 0.0000 0.0000 0.0000
# 3 24.9917 27.2518 78.9948 0.0000 0.0000 0.0000
# 4 0.0000 0.0000 0.0000 19.1392 0.0000 0.0000
# 5 0.0000 0.0000 0.0000 0.0000 29.0918 0.0000
# 6 0.0000 0.0000 0.0000 0.0000 0.0000 23.8534
#
#
#
# Elastic Compliance Matrix: (Units=1/GPa)
#
#
# Indices 1 2 3 4 5 6 
#
# 1 0.018231 -0.008131 -0.002963 0.000000 0.000000 0.000000
# 2 -0.008131 0.041738 -0.011826 0.000000 0.000000 0.000000
# 3 -0.002963 -0.011826 0.017676 0.000000 0.000000 0.000000
# 4 0.000000 0.000000 0.000000 0.052249 0.000000 0.000000
# 5 0.000000 0.000000 0.000000 0.000000 0.034374 0.000000
# 6 0.000000 0.000000 0.000000 0.000000 0.000000 0.041923
#
#
# Mechanical properties :
#
#
# Convention : Reuss Voigt Hill
#
# Bulk Modulus (GPa) = 31.44139 36.41613 33.92876
# Shear Modulus (GPa) = 19.03800 21.75315 20.39557
#
# Velocity S-wave (km/s) = 3.15818 3.37588 3.26884
# Velocity P-wave (km/s) = 5.45629 5.85440 5.65885
#
# Compressibility (1/GPa) = 0.03180521
#
# Stress axis : x y z
#
# Youngs Moduli (GPa) = 54.85061 23.95915 56.57280
#
# Poissons Ratio (x) = 0.19481 0.16762
# Poissons Ratio (y) = 0.44598 0.66905
# Poissons Ratio (z) = 0.16252 0.28335
#
# Static dielectric constant tensor:
#      x y z
#    x 1.656390 0.000000 0.000000 
#    y 0.000000 1.709830 0.000000 
#    z 0.000000 0.000000 1.669820 
# 
# From -- ./inp_files/17540.got.cif
#   From: 2010.05.17/outbox.cif.g08.bks.cpg/sg51_9_cif.got.tgz:17540.got - 2010.06.03 11:52:47.
