data_PCOD9404203
_publ_section_title
;
Structure prediction by ZEFSAII (Michael W. Deem and Ramdas Pophale) SiO2 
 PCOD9404203
Probable space group: P M M A
;
_chemical_formula_sum "Si O2"
_cell_formula_units_Z 48
_cell_length_a 14.041753
_cell_length_b 13.328569
_cell_length_c 15.282821
_cell_angle_alpha 90.000000
_cell_angle_beta 90.000000
_cell_angle_gamma 90.000000
_cell_volume 2860.278887
_symmetry_space_group_name_H-M "P M M A"
_symmetry_group_IT_number 51
_symmetry_cell_setting 'orthorhombic'
loop_
_space_group_symop_operation_xyz
x,y,z
1/2-x,-y,z
1/2+x,-y,-z
-x,y,-z
-x,-y,-z
1/2+x,y,-z
1/2-x,y,z
x,-y,z
loop_
_atom_site_type_symbol
_atom_site_label
_atom_site_fract_x
_atom_site_fract_y
_atom_site_fract_z
Si Si1 0.031349 0.303111 0.863577
Si Si2 0.250000 0.878424 0.300883
Si Si3 0.539925 0.880937 0.757697
Si Si4 0.137549 0.383755 0.695039
Si Si5 0.250000 0.118327 0.501168
Si Si6 0.638566 0.381150 0.970631
Si Si7 0.437434 0.203001 0.586417
O O1 0.083358 0.360811 0.785192
O O2 0.009568 0.190796 0.829334
O O3 0.931191 0.353355 0.891042
O O4 0.099104 0.316298 0.947898
O O5 0.348698 0.851269 0.253522
O O6 0.250000 0.839878 0.401443
O O7 0.250000 0.000000 0.304205
O O8 0.490516 0.856638 0.664183
O O9 0.532989 0.000000 0.775952
O O10 0.250000 0.360611 0.704763
O O11 0.128350 0.500000 0.672056
O O12 0.091218 0.310893 0.624194
O O13 0.341684 0.149629 0.555506
O O14 0.250000 0.000000 0.491200
O O15 0.750000 0.362648 0.954382
O O16 0.627126 0.500000 0.991330
O O17 0.500000 0.210599 0.500000
#
# Coordination Sequence:
#
# PCOD9404203 Si02
#       7
#     8   4   8   8   4   8   8
#     4  10  20  34  57  81 107 135 174 216 259 316
#     4   9  18  32  52  75 100 139 182 219 264 309
#     4  10  21  35  53  78 109 143 177 218 264 313
#     4  10  20  35  55  78 107 141 177 217 268 326
#     4  11  20  32  53  77 106 137 183 231 267 305
#     4  10  20  36  59  84 108 134 170 216 263 312
#     4  11  21  34  53  79 105 141 185 230 267 307
#
# _framework density 16.781580999999999
#
# number of rings (size 3 to 8) (size 9 to 14) (size 15 to 20)
#    0.000    1.833    2.500    3.000    1.167    2.333 
#    0.000    1.667    0.000    1.000    0.000    0.000 
#    0.000    0.000    0.000    0.000    0.000    0.000 
#
# Total GULP energy -267692.649191 kJ/mol
# GULP energy per Si atom -5576.930191 kJ/mol
# Density = 1.674339 g / cm^3
# Si number density = 16.781581 Si / 1000 Ang^3
#
#
#
# Elastic Constant Matrix: (Units=GPa)
#
#
# Indices 1 2 3 4 5 6 
#
# 1 123.0186 39.4567 33.2704 0.0000 0.0000 0.0000
# 2 39.4567 82.9776 32.2133 0.0000 0.0000 0.0000
# 3 33.2704 32.2133 58.9307 0.0000 0.0000 0.0000
# 4 0.0000 0.0000 0.0000 11.0208 0.0000 0.0000
# 5 0.0000 0.0000 0.0000 0.0000 56.0107 0.0000
# 6 0.0000 0.0000 0.0000 0.0000 0.0000 4.7898
#
#
#
# Elastic Compliance Matrix: (Units=1/GPa)
#
#
# Indices 1 2 3 4 5 6 
#
# 1 0.010276 -0.003344 -0.003974 0.000000 0.000000 0.000000
# 2 -0.003344 0.016386 -0.007069 0.000000 0.000000 0.000000
# 3 -0.003974 -0.007069 0.023077 0.000000 0.000000 0.000000
# 4 0.000000 0.000000 0.000000 0.090738 0.000000 0.000000
# 5 0.000000 0.000000 0.000000 0.000000 0.017854 0.000000
# 6 0.000000 0.000000 0.000000 0.000000 0.000000 0.208778
#
#
# Mechanical properties :
#
#
# Convention : Reuss Voigt Hill
#
# Bulk Modulus (GPa) = 47.69791 52.75640 50.22715
# Shear Modulus (GPa) = 12.41095 25.03000 18.72047
#
# Velocity S-wave (km/s) = 2.72243 3.86621 3.34359
# Velocity P-wave (km/s) = 6.19408 7.17185 6.70082
#
# Compressibility (1/GPa) = 0.02096528
#
# Stress axis : x y z
#
# Youngs Moduli (GPa) = 97.31412 61.02850 43.33355
#
# Poissons Ratio (x) = 0.20406 0.17220
# Poissons Ratio (y) = 0.32539 0.30633
# Poissons Ratio (z) = 0.38670 0.43142
#
# Static dielectric constant tensor:
#      x y z
#    x 1.579530 0.000000 0.000000 
#    y 0.000000 1.547710 0.000000 
#    z 0.000000 0.000000 1.567270 
# 
# From -- ./inp_files/24089.got.cif
#   From: 2010.05.17/outbox.cif.g08.bks.cpg/sg51_13_cif.got.tgz:24089.got - 2010.06.03 11:52:47.
