data_PCOD9404732
_publ_section_title
;
Structure prediction by ZEFSAII (Michael W. Deem and Ramdas Pophale) SiO2 
 PCOD9404732
Probable space group: P M M A
;
_chemical_formula_sum "Si O2"
_cell_formula_units_Z 48
_cell_length_a 9.176065
_cell_length_b 17.491889
_cell_length_c 16.413218
_cell_angle_alpha 90.000000
_cell_angle_beta 90.000000
_cell_angle_gamma 90.000000
_cell_volume 2634.431629
_symmetry_space_group_name_H-M "P M M A"
_symmetry_group_IT_number 51
_symmetry_cell_setting 'orthorhombic'
loop_
_space_group_symop_operation_xyz
x,y,z
1/2-x,-y,z
1/2+x,-y,-z
-x,y,-z
-x,-y,-z
1/2+x,y,-z
1/2-x,y,z
x,-y,z
loop_
_atom_site_type_symbol
_atom_site_label
_atom_site_fract_x
_atom_site_fract_y
_atom_site_fract_z
Si Si1 0.424156 0.680350 0.588716
Si Si2 0.573314 0.680220 0.087620
Si Si3 0.915785 0.854014 0.079129
Si Si4 0.416216 0.000000 0.339641
Si Si5 0.412941 0.000000 0.806696
Si Si6 0.577150 0.144641 0.413112
Si Si7 0.572593 0.588594 0.250402
O O1 0.500000 0.669127 0.500000
O O2 0.250000 0.669544 0.576725
O O3 0.445137 0.768605 0.617108
O O4 0.474401 0.627775 0.664212
O O5 0.750000 0.672890 0.080244
O O6 0.534335 0.769357 0.105522
O O7 0.527393 0.630886 0.166619
O O8 0.500000 0.660675 0.000000
O O9 0.750000 0.842234 0.053511
O O10 0.917371 0.921549 0.143517
O O11 0.000000 0.879798 0.000000
O O12 0.439729 0.000000 0.244138
O O13 0.500688 0.923910 0.366315
O O14 0.250000 0.000000 0.367719
O O15 0.250000 0.000000 0.764931
O O16 0.500000 0.143395 0.500000
O O17 0.750000 0.131312 0.418828
O O18 0.750000 0.592341 0.251418
O O19 0.529281 0.500000 0.248564
#
# Coordination Sequence:
#
# PCOD9404732 Si02
#       7
#     8   8   8   4   4   8   8
#     4   9  19  35  58  83 109 143 182 224 270 323
#     4   9  18  33  54  78 107 141 181 224 267 321
#     4   9  18  32  52  74 100 135 177 219 265 317
#     4  12  25  36  49  76 109 140 177 222 267 312
#     4  10  21  34  50  74 103 140 178 218 263 316
#     4  10  20  36  57  77 103 139 179 221 265 317
#     4   9  18  33  55  82 110 144 183 221 267 328
#
# _framework density 18.22025
#
# number of rings (size 3 to 8) (size 9 to 14) (size 15 to 20)
#    0.000    2.500    0.000    1.750    2.333    2.000 
#    0.000    0.833    0.000    1.000    0.000    0.000 
#    0.000    0.000    0.000    0.000    0.000    0.000 
#
# Total GULP energy -267213.017021 kJ/mol
# GULP energy per Si atom -5566.937855 kJ/mol
# Density = 1.817878 g / cm^3
# Si number density = 18.220250 Si / 1000 Ang^3
#
#
#
# Elastic Constant Matrix: (Units=GPa)
#
#
# Indices 1 2 3 4 5 6 
#
# 1 41.1145 43.3865 32.6249 0.0000 0.0000 0.0000
# 2 43.3865 101.0284 74.1454 0.0000 0.0000 0.0000
# 3 32.6249 74.1454 97.2963 0.0000 0.0000 0.0000
# 4 0.0000 0.0000 0.0000 32.4461 0.0000 0.0000
# 5 0.0000 0.0000 0.0000 0.0000 28.5726 0.0000
# 6 0.0000 0.0000 0.0000 0.0000 0.0000 16.0803
#
#
#
# Elastic Compliance Matrix: (Units=1/GPa)
#
#
# Indices 1 2 3 4 5 6 
#
# 1 0.044508 -0.018517 -0.000813 0.000000 0.000000 0.000000
# 2 -0.018517 0.030163 -0.016777 0.000000 0.000000 0.000000
# 3 -0.000813 -0.016777 0.023335 0.000000 0.000000 0.000000
# 4 0.000000 0.000000 0.000000 0.030820 0.000000 0.000000
# 5 0.000000 0.000000 0.000000 0.000000 0.034999 0.000000
# 6 0.000000 0.000000 0.000000 0.000000 0.000000 0.062188
#
#
# Mechanical properties :
#
#
# Convention : Reuss Voigt Hill
#
# Bulk Modulus (GPa) = 38.77138 59.97252 49.37195
# Shear Modulus (GPa) = 16.29597 21.37198 18.83398
#
# Velocity S-wave (km/s) = 2.99388 3.42859 3.21858
# Velocity P-wave (km/s) = 5.76858 6.97570 6.40066
#
# Compressibility (1/GPa) = 0.02579222
#
# Stress axis : x y z
#
# Youngs Moduli (GPa) = 22.46798 33.15321 42.85333
#
# Poissons Ratio (x) = 0.61390 0.03484
# Poissons Ratio (y) = 0.41604 0.71894
# Poissons Ratio (z) = 0.01827 0.55621
#
# Static dielectric constant tensor:
#      x y z
#    x 1.618930 0.000000 0.000000 
#    y 0.000000 1.722350 0.000000 
#    z 0.000000 0.000000 1.646740 
# 
# From -- ./inp_files/21245.got.cif
#   From: 2010.05.17/outbox.cif.g08.bks.cpg/sg51_11_cif.got.tgz:21245.got - 2010.06.03 11:52:47.
