data_PCOD9404164
_publ_section_title
;
Structure prediction by ZEFSAII (Michael W. Deem and Ramdas Pophale) SiO2 
 PCOD9404164
Probable space group: P M M A
;
_chemical_formula_sum "Si O2"
_cell_formula_units_Z 40
_cell_length_a 8.563540
_cell_length_b 10.453039
_cell_length_c 24.895306
_cell_angle_alpha 90.000000
_cell_angle_beta 90.000000
_cell_angle_gamma 90.000000
_cell_volume 2228.503755
_symmetry_space_group_name_H-M "P M M A"
_symmetry_group_IT_number 51
_symmetry_cell_setting 'orthorhombic'
loop_
_space_group_symop_operation_xyz
x,y,z
1/2-x,-y,z
1/2+x,-y,-z
-x,y,-z
-x,-y,-z
1/2+x,y,-z
1/2-x,y,z
x,-y,z
loop_
_atom_site_type_symbol
_atom_site_label
_atom_site_fract_x
_atom_site_fract_y
_atom_site_fract_z
Si Si1 0.061238 0.353754 0.440317
Si Si2 0.061619 0.853189 0.353046
Si Si3 0.061837 0.000000 0.939879
Si Si4 0.439194 0.745068 0.876620
Si Si5 0.938065 0.850972 0.235579
Si Si6 0.064542 0.500000 0.060670
O O1 0.250000 0.350893 0.441395
O O2 0.013767 0.500000 0.426595
O O3 0.006992 0.248645 0.397306
O O4 0.000000 0.325617 0.500000
O O5 0.250000 0.853880 0.353988
O O6 0.007442 0.816675 0.293272
O O7 0.008605 0.000000 0.363337
O O8 0.012759 0.127076 0.908406
O O9 0.250000 0.000000 0.940846
O O10 0.000000 0.000000 0.000000
O O11 0.250000 0.737706 0.877581
O O12 0.487756 0.764384 0.814634
O O13 0.506518 0.623539 0.906836
O O14 0.750000 0.845638 0.238854
O O15 0.979536 0.000000 0.224433
O O16 0.250000 0.500000 0.057713
O O17 0.000000 0.500000 0.000000
#
# Coordination Sequence:
#
# PCOD9404164 Si02
#       6
#     8   8   4   8   8   4
#     4   9  18  33  51  71 100 137 173 214 262 308
#     4   9  18  32  50  74 105 139 173 212 259 309
#     4  10  20  34  56  84 108 136 175 220 267 318
#     4  10  20  38  60  81 110 144 178 222 272 321
#     4   9  17  33  57  82 108 139 175 217 265 315
#     4  12  26  42  58  80 110 146 183 222 271 326
#
# _framework density 17.949263999999999
#
# number of rings (size 3 to 8) (size 9 to 14) (size 15 to 20)
#    0.000    2.400    1.000    1.500    0.000    4.400 
#    1.800    0.000    0.000    0.000    0.000    0.000 
#    0.000    0.000    0.000    0.000    0.000    0.000 
#
# Total GULP energy -223160.936158 kJ/mol
# GULP energy per Si atom -5579.023404 kJ/mol
# Density = 1.790841 g / cm^3
# Si number density = 17.949264 Si / 1000 Ang^3
#
#
#
# Elastic Constant Matrix: (Units=GPa)
#
#
# Indices 1 2 3 4 5 6 
#
# 1 14.1798 33.3895 31.2969 0.0000 0.0000 0.0000
# 2 33.3895 154.8614 124.7023 0.0000 0.0000 0.0000
# 3 31.2969 124.7023 188.9960 0.0000 0.0000 0.0000
# 4 0.0000 0.0000 0.0000 33.5699 0.0000 0.0000
# 5 0.0000 0.0000 0.0000 0.0000 33.4224 0.0000
# 6 0.0000 0.0000 0.0000 0.0000 0.0000 11.8544
#
#
#
# Elastic Compliance Matrix: (Units=1/GPa)
#
#
# Indices 1 2 3 4 5 6 
#
# 1 0.147904 -0.025960 -0.007363 0.000000 0.000000 0.000000
# 2 -0.025960 0.018334 -0.007798 0.000000 0.000000 0.000000
# 3 -0.007363 -0.007798 0.011656 0.000000 0.000000 0.000000
# 4 0.000000 0.000000 0.000000 0.029789 0.000000 0.000000
# 5 0.000000 0.000000 0.000000 0.000000 0.029920 0.000000
# 6 0.000000 0.000000 0.000000 0.000000 0.000000 0.084357
#
#
# Mechanical properties :
#
#
# Convention : Reuss Voigt Hill
#
# Bulk Modulus (GPa) = 10.45470 81.86828 46.16149
# Shear Modulus (GPa) = 11.46561 27.01260 19.23910
#
# Velocity S-wave (km/s) = 2.53015 3.88357 3.27748
# Velocity P-wave (km/s) = 3.79114 8.11292 6.33215
#
# Compressibility (1/GPa) = 0.09565078
#
# Stress axis : x y z
#
# Youngs Moduli (GPa) = 6.76113 54.54279 85.79344
#
# Poissons Ratio (x) = 1.41594 0.63173
# Poissons Ratio (y) = 0.17552 0.66904
# Poissons Ratio (z) = 0.04978 0.42534
#
# Static dielectric constant tensor:
#      x y z
#    x 1.611960 0.000000 0.000000 
#    y 0.000000 1.615060 0.000000 
#    z 0.000000 0.000000 1.590250 
# 
# From -- ./inp_files/36092.got.cif
#   From: 2010.05.17/outbox.cif.g08.bks.cpg/sg51_19_cif.got.tgz:36092.got - 2010.06.03 11:52:47.
