data_PCOD9404611
_publ_section_title
;
Structure prediction by ZEFSAII (Michael W. Deem and Ramdas Pophale) SiO2 
 PCOD9404611
Probable space group: P M M A
;
_chemical_formula_sum "Si O2"
_cell_formula_units_Z 64
_cell_length_a 29.513637
_cell_length_b 8.633962
_cell_length_c 12.929160
_cell_angle_alpha 90.000000
_cell_angle_beta 90.000000
_cell_angle_gamma 90.000000
_cell_volume 3294.603643
_symmetry_space_group_name_H-M "P M M A"
_symmetry_group_IT_number 51
_symmetry_cell_setting 'orthorhombic'
loop_
_space_group_symop_operation_xyz
x,y,z
1/2-x,-y,z
1/2+x,-y,-z
-x,y,-z
-x,-y,-z
1/2+x,y,-z
1/2-x,y,z
x,-y,z
loop_
_atom_site_type_symbol
_atom_site_label
_atom_site_fract_x
_atom_site_fract_y
_atom_site_fract_z
Si Si1 0.800892 0.310974 0.494165
Si Si2 0.559817 0.818812 0.256459
Si Si3 0.123206 0.310652 0.343004
Si Si4 0.864564 0.314182 0.891925
Si Si5 0.655230 0.315237 0.281167
Si Si6 0.051547 0.681997 0.965355
Si Si7 0.697680 0.814749 0.071065
Si Si8 0.520314 0.312950 0.611429
O O1 0.750000 0.260840 0.520576
O O2 0.801343 0.500000 0.495444
O O3 0.839156 0.259302 0.574788
O O4 0.814214 0.264031 0.377893
O O5 0.603596 0.733563 0.303023
O O6 0.561250 0.783773 0.134563
O O7 0.513400 0.752814 0.302558
O O8 0.563122 0.000000 0.276621
O O9 0.122956 0.500000 0.343463
O O10 0.135560 0.260964 0.226636
O O11 0.072227 0.262273 0.372987
O O12 0.858580 0.500000 0.892097
O O13 0.913501 0.282020 0.943246
O O14 0.827474 0.243111 0.968188
O O15 0.657461 0.500000 0.273125
O O16 0.672157 0.246200 0.173018
O O17 0.058086 0.500000 0.937134
O O18 0.000000 0.701972 0.000000
O O19 0.750000 0.762484 0.073224
O O20 0.696609 0.000000 0.072959
O O21 0.500000 0.268180 0.500000
O O22 0.519480 0.500000 0.618016
#
# Coordination Sequence:
#
# PCOD9404611 Si02
#       8
#     8   8   8   8   8   8   8   8
#     4   9  18  33  57  90 121 147 185 246 308 358
#     4  12  24  36  55  85 121 158 197 245 305 361
#     4   9  18  34  57  88 122 153 191 241 297 354
#     4  10  20  35  58  86 116 154 196 240 287 350
#     4  11  21  37  61  88 118 155 202 250 302 362
#     4  10  20  36  58  84 115 153 197 244 292 346
#     4  11  24  40  58  83 118 157 196 248 310 361
#     4  10  20  37  61  87 117 159 206 249 300 360
#
# _framework density 19.425705000000001
#
# number of rings (size 3 to 8) (size 9 to 14) (size 15 to 20)
#    0.000    1.750    1.250    3.750    0.000    6.500 
#    0.000    3.125    0.000    1.500    0.000    1.750 
#    0.000    0.000    0.000    0.000    0.000    0.000 
#
# Total GULP energy -357597.306380 kJ/mol
# GULP energy per Si atom -5587.457912 kJ/mol
# Density = 1.938149 g / cm^3
# Si number density = 19.425705 Si / 1000 Ang^3
#
#
#
# Elastic Constant Matrix: (Units=GPa)
#
#
# Indices 1 2 3 4 5 6 
#
# 1 156.7377 22.1176 67.8053 0.0000 0.0000 0.0000
# 2 22.1176 14.8876 24.0128 0.0000 0.0000 0.0000
# 3 67.8053 24.0128 133.9018 0.0000 0.0000 0.0000
# 4 0.0000 0.0000 0.0000 -24.0369 0.0000 0.0000
# 5 0.0000 0.0000 0.0000 0.0000 30.5778 0.0000
# 6 0.0000 0.0000 0.0000 0.0000 0.0000 9.6343
#
#
#
# Elastic Compliance Matrix: (Units=1/GPa)
#
#
# Indices 1 2 3 4 5 6 
#
# 1 0.008847 -0.008326 -0.002987 0.000000 0.000000 0.000000
# 2 -0.008326 0.102341 -0.014137 0.000000 0.000000 0.000000
# 3 -0.002987 -0.014137 0.011516 0.000000 0.000000 0.000000
# 4 0.000000 0.000000 0.000000 -0.041603 0.000000 0.000000
# 5 0.000000 0.000000 0.000000 0.000000 0.032703 0.000000
# 6 0.000000 0.000000 0.000000 0.000000 0.000000 0.103796
#
#
# Mechanical properties :
#
#
# Convention : Reuss Voigt Hill
#
# Bulk Modulus (GPa) = 13.92670 59.26650 36.59660
# Shear Modulus (GPa) = 17.09783 16.00780 16.55282
#
# Velocity S-wave (km/s) = 2.96998 2.87375 2.92226
# Velocity P-wave (km/s) = 4.35268 6.44878 5.50148
#
# Compressibility (1/GPa) = 0.07180451
#
# Stress axis : x y z
#
# Youngs Moduli (GPa) = 113.03126 9.77127 86.83670
#
# Poissons Ratio (x) = 0.08135 0.25937
# Poissons Ratio (y) = 0.94108 1.22760
# Poissons Ratio (z) = 0.33762 0.13814
#
# Static dielectric constant tensor:
#      x y z
#    x 1.672430 0.000000 0.000000 
#    y 0.000000 1.654310 0.000000 
#    z 0.000000 0.000000 1.665110 
# 
# From -- ./inp_files/19625.got.cif
#   From: 2010.05.17/outbox.cif.g08.bks.cpg/sg51_10_cif.got.tgz:19625.got - 2010.06.03 11:52:47.
