data_PCOD9404166
_publ_section_title
;
Structure prediction by ZEFSAII (Michael W. Deem and Ramdas Pophale) SiO2 
 PCOD9404166
Probable space group: P M M A
;
_chemical_formula_sum "Si O2"
_cell_formula_units_Z 56
_cell_length_a 18.804115
_cell_length_b 9.714680
_cell_length_c 16.740700
_cell_angle_alpha 90.000000
_cell_angle_beta 90.000000
_cell_angle_gamma 90.000000
_cell_volume 3058.123442
_symmetry_space_group_name_H-M "P M M A"
_symmetry_group_IT_number 51
_symmetry_cell_setting 'orthorhombic'
loop_
_space_group_symop_operation_xyz
x,y,z
1/2-x,-y,z
1/2+x,-y,-z
-x,y,-z
-x,-y,-z
1/2+x,y,-z
1/2-x,y,z
x,-y,z
loop_
_atom_site_type_symbol
_atom_site_label
_atom_site_fract_x
_atom_site_fract_y
_atom_site_fract_z
Si Si1 0.164701 0.159864 0.479122
Si Si2 0.410328 0.336731 0.163603
Si Si3 0.835375 0.655803 0.671096
Si Si4 0.558591 0.662111 0.432155
Si Si5 0.584304 0.163373 0.989597
Si Si6 0.833824 0.835653 0.154030
Si Si7 0.442691 0.337367 0.751140
O O1 0.250000 0.168179 0.486830
O O2 0.143856 0.237124 0.397079
O O3 0.125768 0.243110 0.548488
O O4 0.144269 0.000000 0.477922
O O5 0.405396 0.500000 0.146947
O O6 0.362963 0.307468 0.241429
O O7 0.390568 0.249365 0.086593
O O8 0.490828 0.305441 0.191536
O O9 0.750000 0.651307 0.672185
O O10 0.861932 0.500000 0.652193
O O11 0.500000 0.692241 0.500000
O O12 0.576539 0.500000 0.439348
O O13 0.535215 0.686411 0.340944
O O14 0.592042 0.000000 0.975155
O O15 0.500000 0.191707 0.000000
O O16 0.628246 0.197453 0.069422
O O17 0.750000 0.803959 0.151882
O O18 0.875997 0.752417 0.221555
O O19 0.841777 0.000000 0.166558
O O20 0.426910 0.500000 0.758898
#
# Coordination Sequence:
#
# PCOD9404166 Si02
#       7
#     8   8   8   8   8   8   8
#     4  10  21  36  54  79 111 146 185 229 278 332
#     4  10  20  34  56  84 112 142 180 224 274 326
#     4   9  18  34  55  79 110 147 184 224 274 331
#     4  10  21  38  59  82 111 146 188 234 281 334
#     4  10  20  36  57  80 107 143 184 222 267 330
#     4  10  22  40  59  80 110 148 187 228 276 328
#     4  10  21  36  56  82 110 143 182 227 275 326
#
# _framework density 18.311883000000002
#
# number of rings (size 3 to 8) (size 9 to 14) (size 15 to 20)
#    0.000    2.143    1.429    1.286    0.000    6.857 
#    0.000    4.286    0.000    0.000    0.000    0.000 
#    0.000    0.000    0.000    0.000    0.000    0.000 
#
# Total GULP energy -312578.840892 kJ/mol
# GULP energy per Si atom -5581.765016 kJ/mol
# Density = 1.827020 g / cm^3
# Si number density = 18.311883 Si / 1000 Ang^3
#
#
#
# Elastic Constant Matrix: (Units=GPa)
#
#
# Indices 1 2 3 4 5 6 
#
# 1 53.1105 28.1775 26.9487 0.0000 0.0000 0.0000
# 2 28.1775 39.8197 39.8936 0.0000 0.0000 0.0000
# 3 26.9487 39.8936 89.2718 0.0000 0.0000 0.0000
# 4 0.0000 0.0000 0.0000 -63.2749 0.0000 0.0000
# 5 0.0000 0.0000 0.0000 0.0000 34.5179 0.0000
# 6 0.0000 0.0000 0.0000 0.0000 0.0000 20.8083
#
#
#
# Elastic Compliance Matrix: (Units=1/GPa)
#
#
# Indices 1 2 3 4 5 6 
#
# 1 0.030177 -0.022140 0.000784 0.000000 0.000000 0.000000
# 2 -0.022140 0.061714 -0.020895 0.000000 0.000000 0.000000
# 3 0.000784 -0.020895 0.020303 0.000000 0.000000 0.000000
# 4 0.000000 0.000000 0.000000 -0.015804 0.000000 0.000000
# 5 0.000000 0.000000 0.000000 0.000000 0.028970 0.000000
# 6 0.000000 0.000000 0.000000 0.000000 0.000000 0.048058
#
#
# Mechanical properties :
#
#
# Convention : Reuss Voigt Hill
#
# Bulk Modulus (GPa) = 36.11156 41.36019 38.73587
# Shear Modulus (GPa) = 18.71615 4.22241 11.46928
#
# Velocity S-wave (km/s) = 3.20046 1.52014 2.50537
# Velocity P-wave (km/s) = 5.78104 5.07116 5.43769
#
# Compressibility (1/GPa) = 0.02769196
#
# Stress axis : x y z
#
# Youngs Moduli (GPa) = 33.13802 16.20388 49.25471
#
# Poissons Ratio (x) = 0.35875 -0.03862
# Poissons Ratio (y) = 0.73366 1.02918
# Poissons Ratio (z) = -0.02598 0.33858
#
# Static dielectric constant tensor:
#      x y z
#    x 1.637590 0.000000 0.000000 
#    y 0.000000 1.608530 0.000000 
#    z 0.000000 0.000000 1.614290 
# 
# From -- ./inp_files/25637.got.cif
#   From: 2010.05.17/outbox.cif.g08.bks.cpg/sg51_13_cif.got.tgz:25637.got - 2010.06.03 11:52:47.
