data_PCOD9404275
_publ_section_title
;
Structure prediction by ZEFSAII (Michael W. Deem and Ramdas Pophale) SiO2 
 PCOD9404275
Probable space group: P M M A
;
_chemical_formula_sum "Si O2"
_cell_formula_units_Z 56
_cell_length_a 22.487058
_cell_length_b 7.611866
_cell_length_c 15.413549
_cell_angle_alpha 90.000000
_cell_angle_beta 90.000000
_cell_angle_gamma 90.000000
_cell_volume 2638.313634
_symmetry_space_group_name_H-M "P M M A"
_symmetry_group_IT_number 51
_symmetry_cell_setting 'orthorhombic'
loop_
_space_group_symop_operation_xyz
x,y,z
1/2-x,-y,z
1/2+x,-y,-z
-x,y,-z
-x,-y,-z
1/2+x,y,-z
1/2-x,y,z
x,-y,z
loop_
_atom_site_type_symbol
_atom_site_label
_atom_site_fract_x
_atom_site_fract_y
_atom_site_fract_z
Si Si1 0.626422 0.296103 0.868604
Si Si2 0.183173 0.209062 0.761854
Si Si3 0.072382 0.213486 0.648392
Si Si4 0.121849 0.794129 0.470997
Si Si5 0.941818 0.704969 0.706374
Si Si6 0.250000 0.787710 0.222015
Si Si7 0.317929 0.712427 0.961138
Si Si8 0.750000 0.784770 0.574743
O O1 0.609359 0.500000 0.881313
O O2 0.581220 0.218458 0.797787
O O3 0.691008 0.284365 0.823233
O O4 0.637727 0.220351 0.964496
O O5 0.250000 0.280665 0.746990
O O6 0.130715 0.274123 0.700502
O O7 0.167677 0.238707 0.862678
O O8 0.186403 0.000000 0.747293
O O9 0.080917 0.273965 0.548872
O O10 0.011630 0.276644 0.690983
O O11 0.069109 0.000000 0.651034
O O12 0.091952 0.781008 0.377074
O O13 0.188672 0.720604 0.467227
O O14 0.129048 0.000000 0.490409
O O15 0.925639 0.500000 0.706917
O O16 0.250000 0.739918 0.323424
O O17 0.250000 0.000000 0.215452
O O18 0.250000 0.773546 0.978348
O O19 0.317063 0.500000 0.966389
O O20 0.750000 0.000000 0.571143
#
# Coordination Sequence:
#
# PCOD9404275 Si02
#       8
#     8   8   8   8   8   4   8   4
#     4  10  20  35  53  77 111 149 181 215 266 324
#     4   9  19  36  57  83 109 133 173 228 277 319
#     4  10  22  38  58  78 105 145 182 220 271 322
#     4  10  20  36  57  80 109 144 181 219 266 323
#     4  11  23  37  55  78 109 147 184 224 263 311
#     4  11  19  29  51  82 111 140 176 225 269 311
#     4   9  17  32  55  79 105 140 177 216 266 324
#     4   9  18  31  51  82 111 134 172 223 265 311
#
# _framework density 21.225680000000001
#
# number of rings (size 3 to 8) (size 9 to 14) (size 15 to 20)
#    0.000    2.143    2.143    1.071    1.000    4.000 
#    0.000    1.071    0.000    4.286    0.000    0.000 
#    0.000    0.000    0.000    0.000    0.000    0.000 
#
# Total GULP energy -312607.873204 kJ/mol
# GULP energy per Si atom -5582.283450 kJ/mol
# Density = 2.117737 g / cm^3
# Si number density = 21.225680 Si / 1000 Ang^3
#
#
#
# Elastic Constant Matrix: (Units=GPa)
#
#
# Indices 1 2 3 4 5 6 
#
# 1 84.3663 -8.9835 22.0930 0.0000 0.0000 0.0000
# 2 -8.9835 37.6261 -4.5282 0.0000 0.0000 0.0000
# 3 22.0930 -4.5282 57.9838 0.0000 0.0000 0.0000
# 4 0.0000 0.0000 0.0000 16.7365 0.0000 0.0000
# 5 0.0000 0.0000 0.0000 0.0000 14.0324 0.0000
# 6 0.0000 0.0000 0.0000 0.0000 0.0000 -22.6372
#
#
#
# Elastic Compliance Matrix: (Units=1/GPa)
#
#
# Indices 1 2 3 4 5 6 
#
# 1 0.013417 0.002613 -0.004908 0.000000 0.000000 0.000000
# 2 0.002613 0.027338 0.001140 0.000000 0.000000 0.000000
# 3 -0.004908 0.001140 0.019205 0.000000 0.000000 0.000000
# 4 0.000000 0.000000 0.000000 0.059750 0.000000 0.000000
# 5 0.000000 0.000000 0.000000 0.000000 0.071264 0.000000
# 6 0.000000 0.000000 0.000000 0.000000 0.000000 -0.044175
#
#
# Mechanical properties :
#
#
# Convention : Reuss Voigt Hill
#
# Bulk Modulus (GPa) = 17.34655 21.90430 19.62543
# Shear Modulus (GPa) = 29.70431 13.05267 21.37849
#
# Velocity S-wave (km/s) = 3.74498 2.48250 3.17708
# Velocity P-wave (km/s) = 5.18556 4.30804 4.76704
#
# Compressibility (1/GPa) = 0.05764835
#
# Stress axis : x y z
#
# Youngs Moduli (GPa) = 74.53503 36.57883 52.06922
#
# Poissons Ratio (x) = -0.09557 0.25555
# Poissons Ratio (y) = -0.19473 -0.05933
# Poissons Ratio (z) = 0.36581 -0.04168
#
# Static dielectric constant tensor:
#      x y z
#    x 1.741320 0.000000 0.000000 
#    y 0.000000 1.783960 0.000000 
#    z 0.000000 0.000000 1.772810 
# 
# From -- ./inp_files/25861.got.cif
#   From: 2010.05.17/outbox.cif.g08.bks.cpg/sg51_13_cif.got.tgz:25861.got - 2010.06.03 11:52:47.
