data_PCOD9404082
_publ_section_title
;
Structure prediction by ZEFSAII (Michael W. Deem and Ramdas Pophale) SiO2 
 PCOD9404082
Probable space group: P M M A
;
_chemical_formula_sum "Si O2"
_cell_formula_units_Z 40
_cell_length_a 14.417247
_cell_length_b 16.021305
_cell_length_c 7.162281
_cell_angle_alpha 90.000000
_cell_angle_beta 90.000000
_cell_angle_gamma 90.000000
_cell_volume 1654.365950
_symmetry_space_group_name_H-M "P M M A"
_symmetry_group_IT_number 51
_symmetry_cell_setting 'orthorhombic'
loop_
_space_group_symop_operation_xyz
x,y,z
1/2-x,-y,z
1/2+x,-y,-z
-x,y,-z
-x,-y,-z
1/2+x,y,-z
1/2-x,y,z
x,-y,z
loop_
_atom_site_type_symbol
_atom_site_label
_atom_site_fract_x
_atom_site_fract_y
_atom_site_fract_z
Si Si1 0.642672 0.092783 0.212883
Si Si2 0.138188 0.411411 0.511621
Si Si3 0.362600 0.231500 0.511461
Si Si4 0.604547 0.770909 0.927430
Si Si5 0.393472 0.589873 0.066191
O O1 0.750000 0.082853 0.267077
O O2 0.600541 0.155034 0.366780
O O3 0.643423 0.146480 0.023843
O O4 0.601336 0.000000 0.197470
O O5 0.250000 0.412181 0.529824
O O6 0.102200 0.500000 0.588801
O O7 0.103623 0.322311 0.584838
O O8 0.115406 0.410604 0.291140
O O9 0.250000 0.233054 0.524230
O O10 0.386620 0.223370 0.294573
O O11 0.646503 0.680662 0.987309
O O12 0.500000 0.768647 0.000000
O O13 0.353233 0.500000 0.004194
O O14 0.500000 0.589761 0.000000
#
# Coordination Sequence:
#
# PCOD9404082 Si02
#       5
#     8   8   8   8   8
#     4  10  22  39  57  77 101 132 174 219 260 311
#     4   8  13  23  43  70  97 127 164 206 251 296
#     4   9  18  34  54  74 102 140 175 209 255 309
#     4  10  20  34  55  82 109 137 171 214 262 308
#     4   8  14  26  45  70 102 138 170 199 239 298
#
# _framework density 24.178447999999999
#
# number of rings (size 3 to 8) (size 9 to 14) (size 15 to 20)
#    0.000    3.000    0.000    0.600    0.000    2.800 
#    0.000    4.000    0.000    1.200    0.000   14.000 
#    0.000    0.000    0.000    0.000    0.000    0.000 
#
# Total GULP energy -223263.556684 kJ/mol
# GULP energy per Si atom -5581.588917 kJ/mol
# Density = 2.412342 g / cm^3
# Si number density = 24.178448 Si / 1000 Ang^3
#
#
#
# Elastic Constant Matrix: (Units=GPa)
#
#
# Indices 1 2 3 4 5 6 
#
# 1 79.5203 13.6028 -17.0415 0.0000 0.0000 0.0000
# 2 13.6028 310.7541 78.2137 0.0000 0.0000 0.0000
# 3 -17.0415 78.2137 117.3015 0.0000 0.0000 0.0000
# 4 0.0000 0.0000 0.0000 22.1457 0.0000 0.0000
# 5 0.0000 0.0000 0.0000 0.0000 21.9796 0.0000
# 6 0.0000 0.0000 0.0000 0.0000 0.0000 -121.3617
#
#
#
# Elastic Compliance Matrix: (Units=1/GPa)
#
#
# Indices 1 2 3 4 5 6 
#
# 1 0.013399 -0.001294 0.002809 0.000000 0.000000 0.000000
# 2 -0.001294 0.003992 -0.002850 0.000000 0.000000 0.000000
# 3 0.002809 -0.002850 0.010833 0.000000 0.000000 0.000000
# 4 0.000000 0.000000 0.000000 0.045155 0.000000 0.000000
# 5 0.000000 0.000000 0.000000 0.000000 0.045497 0.000000
# 6 0.000000 0.000000 0.000000 0.000000 0.000000 -0.008240
#
#
# Mechanical properties :
#
#
# Convention : Reuss Voigt Hill
#
# Bulk Modulus (GPa) = 39.13049 73.01399 56.07224
# Shear Modulus (GPa) = 41.04330 13.40612 27.22471
#
# Velocity S-wave (km/s) = 4.12456 2.35726 3.35922
# Velocity P-wave (km/s) = 6.23713 6.13779 6.18766
#
# Compressibility (1/GPa) = 0.02555552
#
# Stress axis : x y z
#
# Youngs Moduli (GPa) = 74.63439 250.51323 92.30928
#
# Poissons Ratio (x) = 0.32404 -0.25930
# Poissons Ratio (y) = 0.09654 0.26304
# Poissons Ratio (z) = -0.20965 0.71385
#
# Static dielectric constant tensor:
#      x y z
#    x 2.096100 0.000000 0.000000 
#    y 0.000000 2.005840 0.000000 
#    z 0.000000 0.000000 2.030070 
# 
# From -- ./inp_files/7974.got.cif
#   From: 2010.05.17/outbox.cif.g08.bks.cpg/sg51_4_cif.got.tgz:7974.got - 2010.06.03 11:52:47.
