data_PCOD9404834
_publ_section_title
;
Structure prediction by ZEFSAII (Michael W. Deem and Ramdas Pophale) SiO2 
 PCOD9404834
Probable space group: P M M A
;
_chemical_formula_sum "Si O2"
_cell_formula_units_Z 48
_cell_length_a 9.326863
_cell_length_b 30.052235
_cell_length_c 9.120232
_cell_angle_alpha 90.000000
_cell_angle_beta 90.000000
_cell_angle_gamma 90.000000
_cell_volume 2556.337906
_symmetry_space_group_name_H-M "P M M A"
_symmetry_group_IT_number 51
_symmetry_cell_setting 'orthorhombic'
loop_
_space_group_symop_operation_xyz
x,y,z
1/2-x,-y,z
1/2+x,-y,-z
-x,y,-z
-x,-y,-z
1/2+x,y,-z
1/2-x,y,z
x,-y,z
loop_
_atom_site_type_symbol
_atom_site_label
_atom_site_fract_x
_atom_site_fract_y
_atom_site_fract_z
Si Si1 0.991976 0.396135 0.825489
Si Si2 0.420219 0.048969 0.346215
Si Si3 0.426444 0.226119 0.838231
Si Si4 0.750000 0.448050 0.674091
Si Si5 0.575875 0.863765 0.843388
Si Si6 0.250000 0.554811 0.667733
Si Si7 0.076259 0.304930 0.342632
O O1 0.124250 0.419822 0.749404
O O2 0.876507 0.430785 0.771583
O O3 0.952755 0.348850 0.753890
O O4 0.000000 0.391762 0.000000
O O5 0.500000 0.052940 0.500000
O O6 0.250000 0.049245 0.372534
O O7 0.451010 0.091465 0.246993
O O8 0.457122 0.000000 0.282059
O O9 0.250000 0.226367 0.844865
O O10 0.492472 0.179323 0.780658
O O11 0.492776 0.264758 0.737923
O O12 0.500000 0.231321 0.000000
O O13 0.750000 0.500000 0.660665
O O14 0.750000 0.432332 0.505047
O O15 0.750000 0.856368 0.854503
O O16 0.500000 0.869893 0.000000
O O17 0.250000 0.500000 0.680206
O O18 0.250000 0.297933 0.354171
O O19 0.000000 0.310942 0.500000
#
# Coordination Sequence:
#
# PCOD9404834 Si02
#       7
#     8   8   8   4   8   4   8
#     4  12  26  42  67  97 131 169 213 265 319 381
#     4   9  19  35  55  81 115 157 204 256 312 372
#     4  11  23  41  66  93 126 165 208 260 317 380
#     4  11  23  45  67  95 131 171 215 261 318 377
#     4  10  20  36  58  86 122 161 205 259 314 376
#     4  11  25  43  69  97 131 175 215 261 318 383
#     4  12  26  45  68  95 127 165 212 264 323 389
#
# _framework density 18.776859999999999
#
# number of rings (size 3 to 8) (size 9 to 14) (size 15 to 20)
#    0.000    1.167    0.833    6.500    2.333    5.667 
#    0.000    1.667    0.000    0.000    0.000    0.000 
#    0.000    0.000    0.000    0.000    0.000    0.000 
#
# Total GULP energy -267526.552208 kJ/mol
# GULP energy per Si atom -5573.469838 kJ/mol
# Density = 1.873412 g / cm^3
# Si number density = 18.776860 Si / 1000 Ang^3
#
#
#
# Elastic Constant Matrix: (Units=GPa)
#
#
# Indices 1 2 3 4 5 6 
#
# 1 156.1160 38.0683 43.8923 0.0000 0.0000 0.0000
# 2 38.0683 86.1108 52.2379 0.0000 0.0000 0.0000
# 3 43.8923 52.2379 120.2984 0.0000 0.0000 0.0000
# 4 0.0000 0.0000 0.0000 32.5019 0.0000 0.0000
# 5 0.0000 0.0000 0.0000 0.0000 40.6102 0.0000
# 6 0.0000 0.0000 0.0000 0.0000 0.0000 24.6690
#
#
#
# Elastic Compliance Matrix: (Units=1/GPa)
#
#
# Indices 1 2 3 4 5 6 
#
# 1 0.007440 -0.002230 -0.001746 0.000000 0.000000 0.000000
# 2 -0.002230 0.016434 -0.006323 0.000000 0.000000 0.000000
# 3 -0.001746 -0.006323 0.011695 0.000000 0.000000 0.000000
# 4 0.000000 0.000000 0.000000 0.030767 0.000000 0.000000
# 5 0.000000 0.000000 0.000000 0.000000 0.024624 0.000000
# 6 0.000000 0.000000 0.000000 0.000000 0.000000 0.040537
#
#
# Mechanical properties :
#
#
# Convention : Reuss Voigt Hill
#
# Bulk Modulus (GPa) = 66.79128 70.10246 68.44687
# Shear Modulus (GPa) = 31.82945 34.77799 33.30372
#
# Velocity S-wave (km/s) = 4.12168 4.30836 4.21605
# Velocity P-wave (km/s) = 7.63539 7.88447 7.76093
#
# Compressibility (1/GPa) = 0.01497201
#
# Stress axis : x y z
#
# Youngs Moduli (GPa) = 134.40464 60.84817 85.50325
#
# Poissons Ratio (x) = 0.13568 0.14932
# Poissons Ratio (y) = 0.29969 0.54062
# Poissons Ratio (z) = 0.23472 0.38473
#
# Static dielectric constant tensor:
#      x y z
#    x 1.605090 0.000000 0.000000 
#    y 0.000000 1.655300 0.000000 
#    z 0.000000 0.000000 1.631430 
# 
# From -- ./inp_files/6265.got.cif
#   From: 2010.05.17/outbox.cif.g08.bks.cpg/sg51_4_cif.got.tgz:6265.got - 2010.06.03 11:52:47.
