data_PCOD9404724
_publ_section_title
;
Structure prediction by ZEFSAII (Michael W. Deem and Ramdas Pophale) SiO2 
 PCOD9404724
Probable space group: P M M A
;
_chemical_formula_sum "Si O2"
_cell_formula_units_Z 64
_cell_length_a 8.382055
_cell_length_b 22.706017
_cell_length_c 16.685137
_cell_angle_alpha 90.000000
_cell_angle_beta 90.000000
_cell_angle_gamma 90.000000
_cell_volume 3175.566720
_symmetry_space_group_name_H-M "P M M A"
_symmetry_group_IT_number 51
_symmetry_cell_setting 'orthorhombic'
loop_
_space_group_symop_operation_xyz
x,y,z
1/2-x,-y,z
1/2+x,-y,-z
-x,y,-z
-x,-y,-z
1/2+x,y,-z
1/2-x,y,z
x,-y,z
loop_
_atom_site_type_symbol
_atom_site_label
_atom_site_fract_x
_atom_site_fract_y
_atom_site_fract_z
Si Si1 0.062084 0.265456 0.585683
Si Si2 0.937719 0.642197 0.912247
Si Si3 0.565068 0.771847 0.114711
Si Si4 0.442860 0.935444 0.740581
Si Si5 0.059405 0.398192 0.414375
Si Si6 0.068046 0.810381 0.276324
Si Si7 0.441319 0.901519 0.918763
Si Si8 0.561091 0.432816 0.239508
O O1 0.250000 0.254642 0.596609
O O2 0.000000 0.245118 0.500000
O O3 0.026670 0.334869 0.590075
O O4 0.956845 0.231810 0.649676
O O5 0.750000 0.633295 0.910466
O O6 0.976703 0.711949 0.906450
O O7 0.007498 0.610424 0.832634
O O8 0.000000 0.621750 0.000000
O O9 0.750000 0.765221 0.091232
O O10 0.549486 0.784589 0.209065
O O11 0.497745 0.833838 0.082540
O O12 0.250000 0.930713 0.735230
O O13 0.520249 0.877368 0.703535
O O14 0.486856 0.930925 0.835053
O O15 0.489884 0.000000 0.709983
O O16 0.250000 0.391476 0.420479
O O17 0.000000 0.425384 0.500000
O O18 0.019204 0.426056 0.327526
O O19 0.250000 0.808551 0.246762
O O20 0.250000 0.899269 0.919423
O O21 0.500000 0.930324 0.000000
O O22 0.750000 0.424039 0.251695
O O23 0.532402 0.500000 0.212450
#
# Coordination Sequence:
#
# PCOD9404724 Si02
#       8
#     8   8   8   8   8   8   8   8
#     4  11  21  36  58  86 119 150 182 220 270 330
#     4  12  25  41  62  88 118 154 197 246 301 356
#     4  10  20  36  56  80 111 146 186 231 283 339
#     4   9  19  36  53  70  98 140 187 230 275 327
#     4  11  22  39  64  95 129 161 194 235 288 349
#     4  11  21  34  54  82 113 145 184 229 281 338
#     4   9  18  30  47  72 102 136 172 217 270 324
#     4  11  25  45  66  88 117 156 202 249 295 345
#
# _framework density 20.153883
#
# number of rings (size 3 to 8) (size 9 to 14) (size 15 to 20)
#    0.000    1.500    0.000    7.875    0.000    5.500 
#    0.000    0.000    0.000    0.375    0.000    0.000 
#    0.000    0.000    0.000    0.000    0.000    0.000 
#
# Total GULP energy -357218.601708 kJ/mol
# GULP energy per Si atom -5581.540652 kJ/mol
# Density = 2.010801 g / cm^3
# Si number density = 20.153883 Si / 1000 Ang^3
#
#
#
# Elastic Constant Matrix: (Units=GPa)
#
#
# Indices 1 2 3 4 5 6 
#
# 1 71.6673 12.0223 0.7329 0.0000 0.0000 0.0000
# 2 12.0223 70.5106 26.8547 0.0000 0.0000 0.0000
# 3 0.7329 26.8547 80.5424 0.0000 0.0000 0.0000
# 4 0.0000 0.0000 0.0000 -0.9164 0.0000 0.0000
# 5 0.0000 0.0000 0.0000 0.0000 33.6457 0.0000
# 6 0.0000 0.0000 0.0000 0.0000 0.0000 14.8753
#
#
#
# Elastic Compliance Matrix: (Units=1/GPa)
#
#
# Indices 1 2 3 4 5 6 
#
# 1 0.014408 -0.002757 0.000788 0.000000 0.000000 0.000000
# 2 -0.002757 0.016773 -0.005567 0.000000 0.000000 0.000000
# 3 0.000788 -0.005567 0.014265 0.000000 0.000000 0.000000
# 4 0.000000 0.000000 0.000000 -1.091189 0.000000 0.000000
# 5 0.000000 0.000000 0.000000 0.000000 0.029721 0.000000
# 6 0.000000 0.000000 0.000000 0.000000 0.000000 0.067225
#
#
# Mechanical properties :
#
#
# Convention : Reuss Voigt Hill
#
# Bulk Modulus (GPa) = 32.92355 33.54890 33.23623
# Shear Modulus (GPa) = -5.41359 21.72828 8.15734
#
# Velocity S-wave (km/s) = -1.64072 3.28703 2.01403
# Velocity P-wave (km/s) = 3.57523 5.57572 4.68353
#
# Compressibility (1/GPa) = 0.03037339
#
# Stress axis : x y z
#
# Youngs Moduli (GPa) = 69.40711 59.62090 70.10207
#
# Poissons Ratio (x) = 0.16436 -0.05524
# Poissons Ratio (y) = 0.19133 0.39028
# Poissons Ratio (z) = -0.05470 0.33193
#
# Static dielectric constant tensor:
#      x y z
#    x 1.678600 0.000000 0.000000 
#    y 0.000000 1.718170 0.000000 
#    z 0.000000 0.000000 1.774910 
# 
# From -- ./inp_files/22215.got.cif
#   From: 2010.05.17/outbox.cif.g08.bks.cpg/sg51_12_cif.got.tgz:22215.got - 2010.06.03 11:52:47.
