data_PCOD9404178
_publ_section_title
;
Structure prediction by ZEFSAII (Michael W. Deem and Ramdas Pophale) SiO2 
 PCOD9404178
Probable space group: P M M A
;
_chemical_formula_sum "Si O2"
_cell_formula_units_Z 48
_cell_length_a 8.824894
_cell_length_b 14.528506
_cell_length_c 21.040166
_cell_angle_alpha 90.000000
_cell_angle_beta 90.000000
_cell_angle_gamma 90.000000
_cell_volume 2697.612818
_symmetry_space_group_name_H-M "P M M A"
_symmetry_group_IT_number 51
_symmetry_cell_setting 'orthorhombic'
loop_
_space_group_symop_operation_xyz
x,y,z
1/2-x,-y,z
1/2+x,-y,-z
-x,y,-z
-x,-y,-z
1/2+x,y,-z
1/2-x,y,z
x,-y,z
loop_
_atom_site_type_symbol
_atom_site_label
_atom_site_fract_x
_atom_site_fract_y
_atom_site_fract_z
Si Si1 0.069590 0.394577 0.736943
Si Si2 0.431957 0.397207 0.122460
Si Si3 0.430052 0.109442 0.808960
Si Si4 0.068509 0.796726 0.066832
Si Si5 0.069443 0.213934 0.312205
Si Si6 0.430804 0.891338 0.568672
O O1 0.250000 0.379970 0.735481
O O2 0.037715 0.500000 0.717788
O O3 0.011261 0.384543 0.809394
O O4 0.987087 0.318489 0.695121
O O5 0.250000 0.394230 0.132284
O O6 0.470876 0.500000 0.098488
O O7 0.472029 0.310931 0.078680
O O8 0.250000 0.127751 0.808750
O O9 0.501797 0.147617 0.873790
O O10 0.504779 0.160058 0.749091
O O11 0.453290 0.000000 0.804029
O O12 0.250000 0.805024 0.066074
O O13 0.000000 0.827643 0.000000
O O14 0.250000 0.209803 0.311644
O O15 0.004225 0.167121 0.375264
O O16 0.500000 0.868008 0.500000
O O17 0.250000 0.878522 0.567941
O O18 0.461178 0.000000 0.580110
#
# Coordination Sequence:
#
# PCOD9404178 Si02
#       6
#     8   8   8   8   8   8
#     4  10  20  34  56  85 115 149 189 234 283 335
#     4   9  18  34  55  80 110 143 181 227 282 341
#     4  11  24  41  60  82 109 143 188 242 291 339
#     4  11  23  38  57  80 109 148 187 233 288 345
#     4  12  23  36  59  89 120 155 191 233 283 338
#     4  10  21  38  60  88 123 160 197 238 283 334
#
# _framework density 17.793510000000001
#
# number of rings (size 3 to 8) (size 9 to 14) (size 15 to 20)
#    0.000    1.500    1.667    4.000    0.000    6.667 
#    0.000    0.000    0.000    0.500    0.000    0.000 
#    0.000    0.000    0.000    0.000    0.000    0.000 
#
# Total GULP energy -268251.848437 kJ/mol
# GULP energy per Si atom -5588.580176 kJ/mol
# Density = 1.775301 g / cm^3
# Si number density = 17.793510 Si / 1000 Ang^3
#
#
#
# Elastic Constant Matrix: (Units=GPa)
#
#
# Indices 1 2 3 4 5 6 
#
# 1 82.5988 63.4885 61.2194 0.0000 0.0000 0.0000
# 2 63.4885 92.3153 70.9405 0.0000 0.0000 0.0000
# 3 61.2194 70.9405 136.2165 0.0000 0.0000 0.0000
# 4 0.0000 0.0000 0.0000 11.8257 0.0000 0.0000
# 5 0.0000 0.0000 0.0000 0.0000 33.5255 0.0000
# 6 0.0000 0.0000 0.0000 0.0000 0.0000 26.6472
#
#
#
# Elastic Compliance Matrix: (Units=1/GPa)
#
#
# Indices 1 2 3 4 5 6 
#
# 1 0.026995 -0.015409 -0.004107 0.000000 0.000000 0.000000
# 2 -0.015409 0.026856 -0.007061 0.000000 0.000000 0.000000
# 3 -0.004107 -0.007061 0.012865 0.000000 0.000000 0.000000
# 4 0.000000 0.000000 0.000000 0.084562 0.000000 0.000000
# 5 0.000000 0.000000 0.000000 0.000000 0.029828 0.000000
# 6 0.000000 0.000000 0.000000 0.000000 0.000000 0.037527
#
#
# Mechanical properties :
#
#
# Convention : Reuss Voigt Hill
#
# Bulk Modulus (GPa) = 73.74397 78.04751 75.89574
# Shear Modulus (GPa) = 18.09577 22.09849 20.09713
#
# Velocity S-wave (km/s) = 3.19248 3.52794 3.36440
# Velocity P-wave (km/s) = 7.42452 7.78160 7.60516
#
# Compressibility (1/GPa) = 0.01356043
#
# Stress axis : x y z
#
# Youngs Moduli (GPa) = 37.04409 37.23568 77.73271
#
# Poissons Ratio (x) = 0.57376 0.31927
# Poissons Ratio (y) = 0.57081 0.54888
# Poissons Ratio (z) = 0.15215 0.26293
#
# Static dielectric constant tensor:
#      x y z
#    x 1.589910 0.000000 0.000000 
#    y 0.000000 1.622150 0.000000 
#    z 0.000000 0.000000 1.562980 
# 
# From -- ./inp_files/27524.got.cif
#   From: 2010.05.17/outbox.cif.g08.bks.cpg/sg51_14_cif.got.tgz:27524.got - 2010.06.03 11:52:47.
