data_PCOD9404075
_publ_section_title
;
Structure prediction by ZEFSAII (Michael W. Deem and Ramdas Pophale) SiO2 
 PCOD9404075
Probable space group: P M M A
;
_chemical_formula_sum "Si O2"
_cell_formula_units_Z 52
_cell_length_a 9.720005
_cell_length_b 17.543932
_cell_length_c 17.605351
_cell_angle_alpha 90.000000
_cell_angle_beta 90.000000
_cell_angle_gamma 90.000000
_cell_volume 3002.189570
_symmetry_space_group_name_H-M "P M M A"
_symmetry_group_IT_number 51
_symmetry_cell_setting 'orthorhombic'
loop_
_space_group_symop_operation_xyz
x,y,z
1/2-x,-y,z
1/2+x,-y,-z
-x,y,-z
-x,-y,-z
1/2+x,y,-z
1/2-x,y,z
x,-y,z
loop_
_atom_site_type_symbol
_atom_site_label
_atom_site_fract_x
_atom_site_fract_y
_atom_site_fract_z
Si Si1 0.085009 0.161203 0.076562
Si Si2 0.090940 0.000000 0.425193
Si Si3 0.013294 0.320639 0.850032
Si Si4 0.250000 0.592281 0.941359
Si Si5 0.403681 0.914770 0.802999
Si Si6 0.097010 0.765440 0.700780
Si Si7 0.250000 0.410226 0.122460
Si Si8 0.086643 0.170306 0.421710
O O1 0.250000 0.157774 0.067717
O O2 0.039443 0.244420 0.107510
O O3 0.024918 0.102194 0.138054
O O4 0.000000 0.147983 0.000000
O O5 0.069144 0.916709 0.389079
O O6 0.000000 0.000000 0.500000
O O7 0.250000 0.000000 0.448962
O O8 0.120641 0.366705 0.901913
O O9 0.073080 0.293816 0.769261
O O10 0.883085 0.374113 0.840222
O O11 0.250000 0.500000 0.930552
O O12 0.250000 0.607328 0.031691
O O13 0.250000 0.909258 0.840009
O O14 0.405498 0.847813 0.741911
O O15 0.415660 0.000000 0.771462
O O16 0.250000 0.754338 0.667976
O O17 0.980092 0.770676 0.637292
O O18 0.250000 0.500000 0.129397
O O19 0.250000 0.182150 0.433404
O O20 0.000000 0.173659 0.500000
#
# Coordination Sequence:
#
# PCOD9404075 Si02
#       8
#     8   4   8   4   8   8   4   8
#     4  11  22  34  53  74  97 137 181 228 282 329
#     4   8  16  30  46  74 108 142 175 220 275 325
#     4  11  22  37  55  81 114 148 185 225 272 334
#     4  11  22  38  60  86 116 152 185 224 276 332
#     4   9  20  37  53  72  99 135 183 234 282 327
#     4  10  21  36  55  77 109 149 185 227 276 327
#     4  11  22  36  58  88 118 146 183 230 274 326
#     4  10  20  34  55  81 111 143 185 229 277 334
#
# _framework density 17.320692000000001
#
# number of rings (size 3 to 8) (size 9 to 14) (size 15 to 20)
#    0.000    1.846    1.538    2.769    4.308    3.077 
#    0.000    0.000    0.000    0.000    0.000    0.000 
#    0.000    3.692    0.000    0.000    0.000    0.000 
#
# Total GULP energy -289940.766272 kJ/mol
# GULP energy per Si atom -5575.783967 kJ/mol
# Density = 1.728127 g / cm^3
# Si number density = 17.320692 Si / 1000 Ang^3
#
#
#
# Elastic Constant Matrix: (Units=GPa)
#
#
# Indices 1 2 3 4 5 6 
#
# 1 131.5639 25.7003 36.7849 0.0000 0.0000 0.0000
# 2 25.7003 66.9106 17.0790 0.0000 0.0000 0.0000
# 3 36.7849 17.0790 45.8703 0.0000 0.0000 0.0000
# 4 0.0000 0.0000 0.0000 18.9603 0.0000 0.0000
# 5 0.0000 0.0000 0.0000 0.0000 30.5148 0.0000
# 6 0.0000 0.0000 0.0000 0.0000 0.0000 29.6846
#
#
#
# Elastic Compliance Matrix: (Units=1/GPa)
#
#
# Indices 1 2 3 4 5 6 
#
# 1 0.010032 -0.001989 -0.007304 0.000000 0.000000 0.000000
# 2 -0.001989 0.016909 -0.004701 0.000000 0.000000 0.000000
# 3 -0.007304 -0.004701 0.029408 0.000000 0.000000 0.000000
# 4 0.000000 0.000000 0.000000 0.052742 0.000000 0.000000
# 5 0.000000 0.000000 0.000000 0.000000 0.032771 0.000000
# 6 0.000000 0.000000 0.000000 0.000000 0.000000 0.033688
#
#
# Mechanical properties :
#
#
# Convention : Reuss Voigt Hill
#
# Bulk Modulus (GPa) = 35.25933 44.83035 40.04484
# Shear Modulus (GPa) = 23.47518 26.81732 25.14625
#
# Velocity S-wave (km/s) = 3.68547 3.93909 3.81439
# Velocity P-wave (km/s) = 6.20574 6.82842 6.52451
#
# Compressibility (1/GPa) = 0.02836129
#
# Stress axis : x y z
#
# Youngs Moduli (GPa) = 99.68509 59.13975 34.00392
#
# Poissons Ratio (x) = 0.11761 0.24837
# Poissons Ratio (y) = 0.19825 0.15985
# Poissons Ratio (z) = 0.72812 0.27801
#
# Static dielectric constant tensor:
#      x y z
#    x 1.580690 0.000000 0.000000 
#    y 0.000000 1.585090 0.000000 
#    z 0.000000 0.000000 1.588830 
# 
# From -- ./inp_files/27996.got.cif
#   From: 2010.05.17/outbox.cif.g08.bks.cpg/sg51_14_cif.got.tgz:27996.got - 2010.06.03 11:52:47.
