data_PCOD9404654
_publ_section_title
;
Structure prediction by ZEFSAII (Michael W. Deem and Ramdas Pophale) SiO2 
 PCOD9404654
Probable space group: P M M A
;
_chemical_formula_sum "Si O2"
_cell_formula_units_Z 48
_cell_length_a 28.483667
_cell_length_b 8.340436
_cell_length_c 9.871968
_cell_angle_alpha 90.000000
_cell_angle_beta 90.000000
_cell_angle_gamma 90.000000
_cell_volume 2345.245941
_symmetry_space_group_name_H-M "P M M A"
_symmetry_group_IT_number 51
_symmetry_cell_setting 'orthorhombic'
loop_
_space_group_symop_operation_xyz
x,y,z
1/2-x,-y,z
1/2+x,-y,-z
-x,y,-z
-x,-y,-z
1/2+x,y,-z
1/2-x,y,z
x,-y,z
loop_
_atom_site_type_symbol
_atom_site_label
_atom_site_fract_x
_atom_site_fract_y
_atom_site_fract_z
Si Si1 0.899575 0.183702 0.817836
Si Si2 0.302518 0.192894 0.844672
Si Si3 0.302362 0.309744 0.153231
Si Si4 0.104898 0.188988 0.686330
Si Si5 0.450171 0.688224 0.438539
Si Si6 0.451219 0.313152 0.935142
O O1 0.846224 0.223824 0.777405
O O2 0.934417 0.219092 0.694910
O O3 0.913690 0.293091 0.944827
O O4 0.902812 0.000000 0.861922
O O5 0.250000 0.227377 0.791942
O O6 0.345054 0.242203 0.747828
O O7 0.306539 0.000000 0.863402
O O8 0.306210 0.270905 0.992851
O O9 0.250000 0.256718 0.195694
O O10 0.305926 0.500000 0.173296
O O11 0.088243 0.283248 0.554750
O O12 0.107110 0.000000 0.655012
O O13 0.066962 0.219486 0.804997
O O14 0.500000 0.741861 0.500000
O O15 0.453976 0.500000 0.404828
O O16 0.456872 0.500000 0.897982
O O17 0.500000 0.254779 0.000000
#
# Coordination Sequence:
#
# PCOD9404654 Si02
#       6
#     8   8   8   8   8   8
#     4  12  24  39  61  89 120 157 200 250 303 357
#     4   9  18  34  57  87 122 156 191 235 292 354
#     4  10  20  35  59  90 122 157 198 244 296 354
#     4  11  22  37  60  90 119 154 197 245 299 353
#     4  11  25  44  63  83 115 161 205 250 306 362
#     4  11  23  38  58  85 118 155 197 248 301 354
#
# _framework density 20.466937999999999
#
# number of rings (size 3 to 8) (size 9 to 14) (size 15 to 20)
#    0.000    1.333    1.667    4.500    0.000    8.333 
#    0.000    0.833    0.000    3.000    0.000    0.000 
#    0.000    0.000    0.000    0.000    0.000    0.000 
#
# Total GULP energy -268371.981271 kJ/mol
# GULP energy per Si atom -5591.082943 kJ/mol
# Density = 2.042035 g / cm^3
# Si number density = 20.466938 Si / 1000 Ang^3
#
#
#
# Elastic Constant Matrix: (Units=GPa)
#
#
# Indices 1 2 3 4 5 6 
#
# 1 84.1703 5.9632 -12.8220 0.0000 0.0000 0.0000
# 2 5.9632 25.7349 -8.4792 0.0000 0.0000 0.0000
# 3 -12.8220 -8.4792 31.4641 0.0000 0.0000 0.0000
# 4 0.0000 0.0000 0.0000 25.1262 0.0000 0.0000
# 5 0.0000 0.0000 0.0000 0.0000 31.0590 0.0000
# 6 0.0000 0.0000 0.0000 0.0000 0.0000 27.5247
#
#
#
# Elastic Compliance Matrix: (Units=1/GPa)
#
#
# Indices 1 2 3 4 5 6 
#
# 1 0.012710 -0.001359 0.004813 0.000000 0.000000 0.000000
# 2 -0.001359 0.042790 0.010977 0.000000 0.000000 0.000000
# 3 0.004813 0.010977 0.036702 0.000000 0.000000 0.000000
# 4 0.000000 0.000000 0.000000 0.039799 0.000000 0.000000
# 5 0.000000 0.000000 0.000000 0.000000 0.032197 0.000000
# 6 0.000000 0.000000 0.000000 0.000000 0.000000 0.036331
#
#
# Mechanical properties :
#
#
# Convention : Reuss Voigt Hill
#
# Bulk Modulus (GPa) = 8.26006 12.29925 10.27965
# Shear Modulus (GPa) = 23.58260 27.18915 25.38587
#
# Velocity S-wave (km/s) = 3.39813 3.64873 3.52566
# Velocity P-wave (km/s) = 4.40919 4.87580 4.64835
#
# Compressibility (1/GPa) = 0.12106457
#
# Stress axis : x y z
#
# Youngs Moduli (GPa) = 78.67701 23.37018 27.24645
#
# Poissons Ratio (x) = 0.03177 -0.13114
# Poissons Ratio (y) = 0.10694 -0.29910
# Poissons Ratio (z) = -0.37869 -0.25654
#
# Static dielectric constant tensor:
#      x y z
#    x 1.785180 0.000000 0.000000 
#    y 0.000000 1.691330 0.000000 
#    z 0.000000 0.000000 1.684620 
# 
# From -- ./inp_files/12755.got.cif
#   From: 2010.05.17/outbox.cif.g08.bks.cpg/sg51_7_cif.got.tgz:12755.got - 2010.06.03 11:52:47.
