data_PCOD9404148
_publ_section_title
;
Structure prediction by ZEFSAII (Michael W. Deem and Ramdas Pophale) SiO2 
 PCOD9404148
Probable space group: P M M A
;
_chemical_formula_sum "Si O2"
_cell_formula_units_Z 40
_cell_length_a 18.162935
_cell_length_b 12.207732
_cell_length_c 10.141999
_cell_angle_alpha 90.000000
_cell_angle_beta 90.000000
_cell_angle_gamma 90.000000
_cell_volume 2248.767617
_symmetry_space_group_name_H-M "P M M A"
_symmetry_group_IT_number 51
_symmetry_cell_setting 'orthorhombic'
loop_
_space_group_symop_operation_xyz
x,y,z
1/2-x,-y,z
1/2+x,-y,-z
-x,y,-z
-x,-y,-z
1/2+x,y,-z
1/2-x,y,z
x,-y,z
loop_
_atom_site_type_symbol
_atom_site_label
_atom_site_fract_x
_atom_site_fract_y
_atom_site_fract_z
Si Si1 0.088405 0.223721 0.989045
Si Si2 0.939303 0.000000 0.389363
Si Si3 0.161815 0.627249 0.771793
Si Si4 0.162645 0.799479 0.546561
Si Si5 0.062222 0.000000 0.890672
Si Si6 0.337714 0.132329 0.249513
O O1 0.123071 0.318199 0.898885
O O2 0.106129 0.110914 0.910807
O O3 0.120399 0.196675 0.133497
O O4 0.000000 0.238187 0.000000
O O5 0.886999 0.104012 0.397556
O O6 0.000000 0.000000 0.500000
O O7 0.977006 0.000000 0.248407
O O8 0.250000 0.634536 0.791214
O O9 0.141474 0.500000 0.759420
O O10 0.145649 0.693045 0.635543
O O11 0.250000 0.821871 0.561094
O O12 0.147540 0.807615 0.389459
O O13 0.000000 0.000000 0.000000
O O14 0.250000 0.139132 0.224778
O O15 0.353972 0.000000 0.256536
#
# Coordination Sequence:
#
# PCOD9404148 Si02
#       6
#     8   4   8   8   4   8
#     4  11  22  36  58  85 124 153 189 236 292 355
#     4  12  23  33  59  87 120 156 185 236 295 357
#     4  10  22  42  63  82 110 154 207 253 288 332
#     4  10  21  37  57  85 117 150 191 240 294 350
#     4  10  22  35  49  87 122 158 182 228 289 360
#     4  10  20  34  55  86 121 153 184 230 291 357
#
# _framework density 17.787520000000001
#
# number of rings (size 3 to 8) (size 9 to 14) (size 15 to 20)
#    0.000    1.600    4.000    0.900    5.600    0.400 
#    0.000    1.000    0.000    7.800    0.000    0.000 
#    0.000    0.000    0.000    0.000    0.000    0.000 
#
# Total GULP energy -222948.845045 kJ/mol
# GULP energy per Si atom -5573.721126 kJ/mol
# Density = 1.774703 g / cm^3
# Si number density = 17.787520 Si / 1000 Ang^3
#
#
#
# Elastic Constant Matrix: (Units=GPa)
#
#
# Indices 1 2 3 4 5 6 
#
# 1 57.8099 56.3489 67.8284 0.0000 0.0000 0.0000
# 2 56.3489 154.1271 80.1192 0.0000 0.0000 0.0000
# 3 67.8284 80.1192 186.0881 0.0000 0.0000 0.0000
# 4 0.0000 0.0000 0.0000 128.0733 0.0000 0.0000
# 5 0.0000 0.0000 0.0000 0.0000 24.8877 0.0000
# 6 0.0000 0.0000 0.0000 0.0000 0.0000 44.4733
#
#
#
# Elastic Compliance Matrix: (Units=1/GPa)
#
#
# Indices 1 2 3 4 5 6 
#
# 1 0.037137 -0.008427 -0.009908 0.000000 0.000000 0.000000
# 2 -0.008427 0.010271 -0.001351 0.000000 0.000000 0.000000
# 3 -0.009908 -0.001351 0.009567 0.000000 0.000000 0.000000
# 4 0.000000 0.000000 0.000000 0.007808 0.000000 0.000000
# 5 0.000000 0.000000 0.000000 0.000000 0.040180 0.000000
# 6 0.000000 0.000000 0.000000 0.000000 0.000000 0.022485
#
#
# Mechanical properties :
#
#
# Convention : Reuss Voigt Hill
#
# Bulk Modulus (GPa) = 56.80590 89.62425 73.21507
# Shear Modulus (GPa) = 28.95381 52.40211 40.67796
#
# Velocity S-wave (km/s) = 4.03893 5.43360 4.78732
# Velocity P-wave (km/s) = 7.33183 9.47949 8.47397
#
# Compressibility (1/GPa) = 0.01760381
#
# Stress axis : x y z
#
# Youngs Moduli (GPa) = 26.92697 97.36058 104.52773
#
# Poissons Ratio (x) = 0.82045 1.03570
# Poissons Ratio (y) = 0.22691 0.14117
# Poissons Ratio (z) = 0.26680 0.13149
#
# Static dielectric constant tensor:
#      x y z
#    x 1.579620 0.000000 0.000000 
#    y 0.000000 1.626180 0.000000 
#    z 0.000000 0.000000 1.649680 
# 
# From -- ./inp_files/10702.got.cif
#   From: 2010.05.17/outbox.cif.g08.bks.cpg/sg51_6_cif.got.tgz:10702.got - 2010.06.03 11:52:47.
