data_PCOD9404115
_publ_section_title
;
Structure prediction by ZEFSAII (Michael W. Deem and Ramdas Pophale) SiO2 
 PCOD9404115
Probable space group: P M M A
;
_chemical_formula_sum "Si O2"
_cell_formula_units_Z 40
_cell_length_a 9.281047
_cell_length_b 7.583377
_cell_length_c 30.463014
_cell_angle_alpha 90.000000
_cell_angle_beta 90.000000
_cell_angle_gamma 90.000000
_cell_volume 2144.038053
_symmetry_space_group_name_H-M "P M M A"
_symmetry_group_IT_number 51
_symmetry_cell_setting 'orthorhombic'
loop_
_space_group_symop_operation_xyz
x,y,z
1/2-x,-y,z
1/2+x,-y,-z
-x,y,-z
-x,-y,-z
1/2+x,y,-z
1/2-x,y,z
x,-y,z
loop_
_atom_site_type_symbol
_atom_site_label
_atom_site_fract_x
_atom_site_fract_y
_atom_site_fract_z
Si Si1 0.418891 0.798480 0.632348
Si Si2 0.915606 0.286294 0.543421
Si Si3 0.915118 0.785096 0.957399
Si Si4 0.923656 0.209855 0.858845
Si Si5 0.575663 0.500000 0.199265
Si Si6 0.575299 0.500000 0.300715
O O1 0.250000 0.758552 0.623065
O O2 0.506615 0.773160 0.587719
O O3 0.469714 0.668607 0.670648
O O4 0.428909 0.000000 0.646855
O O5 0.750000 0.228516 0.542181
O O6 0.917521 0.500000 0.543467
O O7 0.000000 0.226709 0.500000
O O8 0.750000 0.728734 0.960938
O O9 0.967800 0.737669 0.908694
O O10 0.916694 0.000000 0.958037
O O11 0.000000 0.722803 0.000000
O O12 0.750000 0.236734 0.855472
O O13 0.009126 0.329707 0.824867
O O14 0.949449 0.000000 0.853184
O O15 0.750000 0.500000 0.196571
O O16 0.529808 0.500000 0.250351
O O17 0.750000 0.500000 0.299553
#
# Coordination Sequence:
#
# PCOD9404115 Si02
#       6
#     8   8   8   8   4   4
#     4  10  20  36  60  84 107 142 183 222 270 325
#     4  10  20  34  55  83 115 151 185 220 264 313
#     4   8  14  26  47  75 106 141 180 221 269 324
#     4   9  19  37  58  80 111 151 189 226 275 338
#     4  11  23  37  58  87 112 141 184 239 292 335
#     4   9  20  39  58  79 110 141 176 227 282 333
#
# _framework density 18.656385
#
# number of rings (size 3 to 8) (size 9 to 14) (size 15 to 20)
#    0.000    2.600    1.000    2.100    0.000    3.600 
#    0.000    6.500    0.000    0.000    0.000    0.000 
#    0.000    0.000    0.000    0.000    0.000    0.000 
#
# Total GULP energy -223195.071183 kJ/mol
# GULP energy per Si atom -5579.876780 kJ/mol
# Density = 1.861392 g / cm^3
# Si number density = 18.656385 Si / 1000 Ang^3
#
#
#
# Elastic Constant Matrix: (Units=GPa)
#
#
# Indices 1 2 3 4 5 6 
#
# 1 73.1121 46.0545 77.0149 0.0000 0.0000 0.0000
# 2 46.0545 83.1488 72.6900 0.0000 0.0000 0.0000
# 3 77.0149 72.6900 206.5206 0.0000 0.0000 0.0000
# 4 0.0000 0.0000 0.0000 -24.5117 0.0000 0.0000
# 5 0.0000 0.0000 0.0000 0.0000 32.2896 0.0000
# 6 0.0000 0.0000 0.0000 0.0000 0.0000 18.2723
#
#
#
# Elastic Compliance Matrix: (Units=1/GPa)
#
#
# Indices 1 2 3 4 5 6 
#
# 1 0.026209 -0.008627 -0.006737 0.000000 0.000000 0.000000
# 2 -0.008627 0.020212 -0.003897 0.000000 0.000000 0.000000
# 3 -0.006737 -0.003897 0.008726 0.000000 0.000000 0.000000
# 4 0.000000 0.000000 0.000000 -0.040797 0.000000 0.000000
# 5 0.000000 0.000000 0.000000 0.000000 0.030970 0.000000
# 6 0.000000 0.000000 0.000000 0.000000 0.000000 0.054728
#
#
# Mechanical properties :
#
#
# Convention : Reuss Voigt Hill
#
# Bulk Modulus (GPa) = 60.15157 83.81116 71.98136
# Shear Modulus (GPa) = 34.69571 16.34484 25.52027
#
# Velocity S-wave (km/s) = 4.31713 2.96311 3.70254
# Velocity P-wave (km/s) = 7.56055 7.53178 7.54618
#
# Compressibility (1/GPa) = 0.01662467
#
# Stress axis : x y z
#
# Youngs Moduli (GPa) = 38.15542 49.47677 114.59751
#
# Poissons Ratio (x) = 0.42682 0.77207
# Poissons Ratio (y) = 0.32915 0.44658
# Poissons Ratio (z) = 0.25706 0.19281
#
# Static dielectric constant tensor:
#      x y z
#    x 1.628700 0.000000 0.000000 
#    y 0.000000 1.677610 0.000000 
#    z 0.000000 0.000000 1.615790 
# 
# From -- ./inp_files/36039.got.cif
#   From: 2010.05.17/outbox.cif.g08.bks.cpg/sg51_19_cif.got.tgz:36039.got - 2010.06.03 11:52:47.
