data_PCOD9404010
_publ_section_title
;
Structure prediction by ZEFSAII (Michael W. Deem and Ramdas Pophale) SiO2 
 PCOD9404010
Probable space group: P M M A
;
_chemical_formula_sum "Si O2"
_cell_formula_units_Z 52
_cell_length_a 8.943637
_cell_length_b 10.853475
_cell_length_c 30.172983
_cell_angle_alpha 90.000000
_cell_angle_beta 90.000000
_cell_angle_gamma 90.000000
_cell_volume 2928.877598
_symmetry_space_group_name_H-M "P M M A"
_symmetry_group_IT_number 51
_symmetry_cell_setting 'orthorhombic'
loop_
_space_group_symop_operation_xyz
x,y,z
1/2-x,-y,z
1/2+x,-y,-z
-x,y,-z
-x,-y,-z
1/2+x,y,-z
1/2-x,y,z
x,-y,z
loop_
_atom_site_type_symbol
_atom_site_label
_atom_site_fract_x
_atom_site_fract_y
_atom_site_fract_z
Si Si1 0.581881 0.144819 0.043373
Si Si2 0.919313 0.351014 0.298291
Si Si3 0.929129 0.500000 0.049030
Si Si4 0.928281 0.711561 0.890250
Si Si5 0.571175 0.355275 0.608932
Si Si6 0.425721 0.648547 0.208463
Si Si7 0.429625 0.859294 0.548978
O O1 0.750000 0.195185 0.048164
O O2 0.480984 0.164319 0.086469
O O3 0.596472 0.000000 0.035985
O O4 0.500000 0.198128 0.000000
O O5 0.750000 0.307327 0.305665
O O6 0.915257 0.500000 0.295159
O O7 0.021423 0.325287 0.340762
O O8 0.984555 0.307275 0.251411
O O9 0.750000 0.500000 0.045917
O O10 0.989524 0.613600 0.078305
O O11 0.000000 0.500000 0.000000
O O12 0.750000 0.692596 0.892276
O O13 0.974190 0.700090 0.839117
O O14 0.750000 0.348638 0.604604
O O15 0.527426 0.500000 0.600010
O O16 0.495119 0.252743 0.577931
O O17 0.250000 0.675497 0.214785
O O18 0.439913 0.500000 0.205335
O O19 0.500000 0.850289 0.500000
O O20 0.250000 0.848267 0.546706
O O21 0.463722 0.000000 0.565345
#
# Coordination Sequence:
#
# PCOD9404010 Si02
#       7
#     8   8   4   8   8   8   8
#     4  10  21  37  55  74  95 123 162 205 249 299
#     4   9  17  29  48  75 105 137 174 218 265 310
#     4  12  24  36  50  70 102 136 166 200 247 302
#     4  11  21  35  53  75 102 131 165 203 250 302
#     4  10  20  34  54  81 112 147 187 231 280 329
#     4   9  17  31  49  71 102 136 168 205 253 310
#     4  10  21  37  57  81 111 149 191 233 279 333
#
# _framework density 17.754242000000001
#
# number of rings (size 3 to 8) (size 9 to 14) (size 15 to 20)
#    0.000    2.000    0.769    3.462    0.000    6.154 
#    0.000    0.000    0.000    0.923    0.000    4.308 
#    0.000    0.000    0.000    0.000    0.000    0.000 
#
# Total GULP energy -289880.210205 kJ/mol
# GULP energy per Si atom -5574.619427 kJ/mol
# Density = 1.771383 g / cm^3
# Si number density = 17.754242 Si / 1000 Ang^3
#
#
#
# Elastic Constant Matrix: (Units=GPa)
#
#
# Indices 1 2 3 4 5 6 
#
# 1 94.9517 40.6329 57.8842 0.0000 0.0000 0.0000
# 2 40.6329 66.7604 53.6847 0.0000 0.0000 0.0000
# 3 57.8842 53.6847 128.0614 0.0000 0.0000 0.0000
# 4 0.0000 0.0000 0.0000 11.7050 0.0000 0.0000
# 5 0.0000 0.0000 0.0000 0.0000 33.3990 0.0000
# 6 0.0000 0.0000 0.0000 0.0000 0.0000 24.6937
#
#
#
# Elastic Compliance Matrix: (Units=1/GPa)
#
#
# Indices 1 2 3 4 5 6 
#
# 1 0.015940 -0.005895 -0.004734 0.000000 0.000000 0.000000
# 2 -0.005895 0.024777 -0.007722 0.000000 0.000000 0.000000
# 3 -0.004734 -0.007722 0.013185 0.000000 0.000000 0.000000
# 4 0.000000 0.000000 0.000000 0.085433 0.000000 0.000000
# 5 0.000000 0.000000 0.000000 0.000000 0.029941 0.000000
# 6 0.000000 0.000000 0.000000 0.000000 0.000000 0.040496
#
#
# Mechanical properties :
#
#
# Convention : Reuss Voigt Hill
#
# Bulk Modulus (GPa) = 58.13775 66.01967 62.07871
# Shear Modulus (GPa) = 19.82491 23.13099 21.47795
#
# Velocity S-wave (km/s) = 3.34523 3.61341 3.48190
# Velocity P-wave (km/s) = 6.90924 7.39425 7.15586
#
# Compressibility (1/GPa) = 0.01720053
#
# Stress axis : x y z
#
# Youngs Moduli (GPa) = 62.73465 40.36079 75.84103
#
# Poissons Ratio (x) = 0.23794 0.35900
# Poissons Ratio (y) = 0.36984 0.58564
# Poissons Ratio (z) = 0.29696 0.31166
#
# Static dielectric constant tensor:
#      x y z
#    x 1.616410 0.000000 0.000000 
#    y 0.000000 1.685450 0.000000 
#    z 0.000000 0.000000 1.584700 
# 
# From -- ./inp_files/36252.got.cif
#   From: 2010.05.17/outbox.cif.g08.bks.cpg/sg51_19_cif.got.tgz:36252.got - 2010.06.03 11:52:47.
