data_PCOD9404746
_publ_section_title
;
Structure prediction by ZEFSAII (Michael W. Deem and Ramdas Pophale) SiO2 
 PCOD9404746
Probable space group: P M M A
;
_chemical_formula_sum "Si O2"
_cell_formula_units_Z 44
_cell_length_a 8.606670
_cell_length_b 29.242479
_cell_length_c 9.355784
_cell_angle_alpha 90.000000
_cell_angle_beta 90.000000
_cell_angle_gamma 90.000000
_cell_volume 2354.667148
_symmetry_space_group_name_H-M "P M M A"
_symmetry_group_IT_number 51
_symmetry_cell_setting 'orthorhombic'
loop_
_space_group_symop_operation_xyz
x,y,z
1/2-x,-y,z
1/2+x,-y,-z
-x,y,-z
-x,-y,-z
1/2+x,y,-z
1/2-x,y,z
x,-y,z
loop_
_atom_site_type_symbol
_atom_site_label
_atom_site_fract_x
_atom_site_fract_y
_atom_site_fract_z
Si Si1 0.563071 0.086104 0.838597
Si Si2 0.064086 0.000000 0.661548
Si Si3 0.937443 0.636786 0.159336
Si Si4 0.936072 0.823655 0.659892
Si Si5 0.562327 0.449771 0.339625
Si Si6 0.563421 0.260483 0.161121
O O1 0.750000 0.082773 0.842005
O O2 0.519187 0.133140 0.758588
O O3 0.495901 0.044220 0.747229
O O4 0.500000 0.085290 0.000000
O O5 0.000000 0.000000 0.500000
O O6 0.250000 0.000000 0.657447
O O7 0.750000 0.635555 0.156783
O O8 0.993748 0.594246 0.252902
O O9 0.982271 0.687965 0.208298
O O10 0.000000 0.631547 0.000000
O O11 0.750000 0.821910 0.654037
O O12 0.000000 0.828973 0.500000
O O13 0.998671 0.777854 0.734046
O O14 0.500000 0.447206 0.500000
O O15 0.750000 0.448432 0.342622
O O16 0.516783 0.500000 0.280431
O O17 0.750000 0.257767 0.156895
O O18 0.500000 0.253603 0.000000
#
# Coordination Sequence:
#
# PCOD9404746 Si02
#       6
#     8   4   8   8   8   8
#     4  11  24  42  64  90 120 155 194 235 281 333
#     4  12  25  42  65  92 124 158 194 238 285 334
#     4   9  19  34  52  77 106 138 176 220 270 323
#     4  11  24  40  60  86 116 150 189 233 281 332
#     4   9  18  33  51  72 101 136 175 219 267 321
#     4  10  20  36  57  80 110 145 183 227 276 332
#
# _framework density 18.686294
#
# number of rings (size 3 to 8) (size 9 to 14) (size 15 to 20)
#    0.000    1.818    0.000    3.818    0.000    8.364 
#    0.000    1.818    0.000    0.000    0.000    0.000 
#    0.000    0.000    0.000    0.000    0.000    0.000 
#
# Total GULP energy -245764.021124 kJ/mol
# GULP energy per Si atom -5585.545935 kJ/mol
# Density = 1.864376 g / cm^3
# Si number density = 18.686294 Si / 1000 Ang^3
#
#
#
# Elastic Constant Matrix: (Units=GPa)
#
#
# Indices 1 2 3 4 5 6 
#
# 1 44.5795 55.7986 42.5289 0.0000 0.0000 0.0000
# 2 55.7986 207.4804 118.8310 0.0000 0.0000 0.0000
# 3 42.5289 118.8310 145.2162 0.0000 0.0000 0.0000
# 4 0.0000 0.0000 0.0000 56.1490 0.0000 0.0000
# 5 0.0000 0.0000 0.0000 0.0000 36.6596 0.0000
# 6 0.0000 0.0000 0.0000 0.0000 0.0000 29.8416
#
#
#
# Elastic Compliance Matrix: (Units=1/GPa)
#
#
# Indices 1 2 3 4 5 6 
#
# 1 0.035556 -0.006772 -0.004871 0.000000 0.000000 0.000000
# 2 -0.006772 0.010361 -0.006495 0.000000 0.000000 0.000000
# 3 -0.004871 -0.006495 0.013628 0.000000 0.000000 0.000000
# 4 0.000000 0.000000 0.000000 0.017810 0.000000 0.000000
# 5 0.000000 0.000000 0.000000 0.000000 0.027278 0.000000
# 6 0.000000 0.000000 0.000000 0.000000 0.000000 0.033510
#
#
# Mechanical properties :
#
#
# Convention : Reuss Voigt Hill
#
# Bulk Modulus (GPa) = 42.97883 92.39922 67.68903
# Shear Modulus (GPa) = 27.44610 36.53787 31.99198
#
# Velocity S-wave (km/s) = 3.83663 4.42671 4.14219
# Velocity P-wave (km/s) = 6.53272 8.69957 7.69282
#
# Compressibility (1/GPa) = 0.02326727
#
# Stress axis : x y z
#
# Youngs Moduli (GPa) = 28.12502 96.51631 73.37894
#
# Poissons Ratio (x) = 0.65362 0.35745
# Poissons Ratio (y) = 0.19047 0.47660
# Poissons Ratio (z) = 0.13701 0.62688
#
# Static dielectric constant tensor:
#      x y z
#    x 1.632560 0.000000 0.000000 
#    y 0.000000 1.663960 0.000000 
#    z 0.000000 0.000000 1.593950 
# 
# From -- ./inp_files/5889.got.cif
#   From: 2010.05.17/outbox.cif.g08.bks.cpg/sg51_3_cif.got.tgz:5889.got - 2010.06.03 11:52:47.
