data_PCOD9404795
_publ_section_title
;
Structure prediction by ZEFSAII (Michael W. Deem and Ramdas Pophale) SiO2 
 PCOD9404795
Probable space group: P M M A
;
_chemical_formula_sum "Si O2"
_cell_formula_units_Z 48
_cell_length_a 14.921780
_cell_length_b 9.172761
_cell_length_c 20.065911
_cell_angle_alpha 90.000000
_cell_angle_beta 90.000000
_cell_angle_gamma 90.000000
_cell_volume 2746.499930
_symmetry_space_group_name_H-M "P M M A"
_symmetry_group_IT_number 51
_symmetry_cell_setting 'orthorhombic'
loop_
_space_group_symop_operation_xyz
x,y,z
1/2-x,-y,z
1/2+x,-y,-z
-x,y,-z
-x,-y,-z
1/2+x,y,-z
1/2-x,y,z
x,-y,z
loop_
_atom_site_type_symbol
_atom_site_label
_atom_site_fract_x
_atom_site_fract_y
_atom_site_fract_z
Si Si1 0.250000 0.675332 0.875078
Si Si2 0.057630 0.675481 0.816677
Si Si3 0.144854 0.825710 0.408872
Si Si4 0.250000 0.175371 0.019131
Si Si5 0.143225 0.172174 0.562699
Si Si6 0.512673 0.325510 0.334598
Si Si7 0.054123 0.175002 0.067626
O O1 0.250000 0.500000 0.883441
O O2 0.159513 0.715829 0.836066
O O3 0.250000 0.750152 0.947037
O O4 0.050436 0.500000 0.821568
O O5 0.034755 0.717969 0.741189
O O6 0.991641 0.747763 0.870022
O O7 0.250000 0.794454 0.398875
O O8 0.121898 0.789144 0.485874
O O9 0.080957 0.740603 0.359312
O O10 0.132555 0.000000 0.401662
O O11 0.158253 0.214206 0.056952
O O12 0.250000 0.000000 0.009916
O O13 0.250000 0.191159 0.571448
O O14 0.087262 0.263502 0.615184
O O15 0.123127 0.000000 0.570871
O O16 0.510941 0.500000 0.338076
O O17 0.047884 0.000000 0.075631
O O18 0.000000 0.213263 0.000000
#
# Coordination Sequence:
#
# PCOD9404795 Si02
#       7
#     4   8   8   4   8   8   8
#     4  10  20  36  58  80 106 145 182 215 264 325
#     4  10  23  39  55  79 113 149 183 219 265 325
#     4   9  19  38  61  81 106 144 189 234 277 325
#     4  10  20  36  58  86 112 135 172 227 282 321
#     4   9  19  36  58  84 111 143 186 231 274 327
#     4  11  23  36  54  82 116 150 182 225 279 330
#     4  10  20  36  59  84 111 140 177 226 273 320
#
# _framework density 17.476789
#
# number of rings (size 3 to 8) (size 9 to 14) (size 15 to 20)
#    0.000    2.167    1.667    2.000    1.167    5.667 
#    1.500    1.667    0.000    0.000    0.000    0.000 
#    0.000    0.000    0.000    0.000    0.000    0.000 
#
# Total GULP energy -267987.368186 kJ/mol
# GULP energy per Si atom -5583.070171 kJ/mol
# Density = 1.743701 g / cm^3
# Si number density = 17.476789 Si / 1000 Ang^3
#
#
#
# Elastic Constant Matrix: (Units=GPa)
#
#
# Indices 1 2 3 4 5 6 
#
# 1 151.4145 53.4850 110.1689 0.0000 0.0000 0.0000
# 2 53.4850 31.7145 62.8942 0.0000 0.0000 0.0000
# 3 110.1689 62.8942 163.2468 0.0000 0.0000 0.0000
# 4 0.0000 0.0000 0.0000 42.8041 0.0000 0.0000
# 5 0.0000 0.0000 0.0000 0.0000 -12.6623 0.0000
# 6 0.0000 0.0000 0.0000 0.0000 0.0000 -15.7879
#
#
#
# Elastic Compliance Matrix: (Units=1/GPa)
#
#
# Indices 1 2 3 4 5 6 
#
# 1 0.016453 -0.024274 -0.001752 0.000000 0.000000 0.000000
# 2 -0.024274 0.169443 -0.048900 0.000000 0.000000 0.000000
# 3 -0.001752 -0.048900 0.026148 0.000000 0.000000 0.000000
# 4 0.000000 0.000000 0.000000 0.023362 0.000000 0.000000
# 5 0.000000 0.000000 0.000000 0.000000 -0.078975 0.000000
# 6 0.000000 0.000000 0.000000 0.000000 0.000000 -0.063339
#
#
# Mechanical properties :
#
#
# Convention : Reuss Voigt Hill
#
# Bulk Modulus (GPa) = 16.07898 88.83021 52.45459
# Shear Modulus (GPa) = 18.96279 10.85929 14.91104
#
# Velocity S-wave (km/s) = 3.29755 2.49540 2.92411
# Velocity P-wave (km/s) = 4.87017 7.69679 6.44047
#
# Compressibility (1/GPa) = 0.06219301
#
# Stress axis : x y z
#
# Youngs Moduli (GPa) = 60.77816 5.90168 38.24443
#
# Poissons Ratio (x) = 0.14326 0.06699
# Poissons Ratio (y) = 1.47532 1.87015
# Poissons Ratio (z) = 0.10647 0.28859
#
# Static dielectric constant tensor:
#      x y z
#    x 1.596840 0.000000 0.000000 
#    y 0.000000 1.578570 0.000000 
#    z 0.000000 0.000000 1.558730 
# 
# From -- ./inp_files/29506.got.cif
#   From: 2010.05.17/outbox.cif.g08.bks.cpg/sg51_15_cif.got.tgz:29506.got - 2010.06.03 11:52:47.
