data_PCOD9404011
_publ_section_title
;
Structure prediction by ZEFSAII (Michael W. Deem and Ramdas Pophale) SiO2 
 PCOD9404011
Probable space group: P M M A
;
_chemical_formula_sum "Si O2"
_cell_formula_units_Z 52
_cell_length_a 8.942255
_cell_length_b 10.800497
_cell_length_c 30.320258
_cell_angle_alpha 90.000000
_cell_angle_beta 90.000000
_cell_angle_gamma 90.000000
_cell_volume 2928.354722
_symmetry_space_group_name_H-M "P M M A"
_symmetry_group_IT_number 51
_symmetry_cell_setting 'orthorhombic'
loop_
_space_group_symop_operation_xyz
x,y,z
1/2-x,-y,z
1/2+x,-y,-z
-x,y,-z
-x,-y,-z
1/2+x,y,-z
1/2-x,y,z
x,-y,z
loop_
_atom_site_type_symbol
_atom_site_label
_atom_site_fract_x
_atom_site_fract_y
_atom_site_fract_z
Si Si1 0.077246 0.647731 0.206441
Si Si2 0.570571 0.854933 0.638198
Si Si3 0.579355 0.850245 0.455445
Si Si4 0.071902 0.713445 0.109268
Si Si5 0.917774 0.145122 0.042857
Si Si6 0.428751 0.644699 0.700355
Si Si7 0.570671 0.500000 0.048964
O O1 0.250000 0.684334 0.215346
O O2 0.076515 0.500000 0.198685
O O3 0.026835 0.706134 0.160316
O O4 0.978577 0.671194 0.249346
O O5 0.750000 0.849613 0.639749
O O6 0.512479 0.825384 0.588912
O O7 0.502423 0.750422 0.670090
O O8 0.527234 0.000000 0.648006
O O9 0.500000 0.804494 0.500000
O O10 0.750000 0.805273 0.451933
O O11 0.585573 0.000000 0.458871
O O12 0.250000 0.693447 0.107433
O O13 0.019733 0.837446 0.085586
O O14 0.989340 0.614153 0.078320
O O15 0.750000 0.196074 0.048024
O O16 0.902110 0.000000 0.034912
O O17 0.000000 0.199895 0.000000
O O18 0.250000 0.650628 0.696115
O O19 0.474256 0.500000 0.690767
O O20 0.750000 0.500000 0.045791
O O21 0.500000 0.500000 0.000000
#
# Coordination Sequence:
#
# PCOD9404011 Si02
#       7
#     8   8   8   8   8   8   4
#     4   9  18  35  56  77 103 136 173 212 257 312
#     4  10  20  34  54  81 112 147 188 233 281 330
#     4   9  16  27  46  74 109 147 186 229 277 330
#     4  11  21  36  56  79 105 131 166 208 254 305
#     4  10  21  37  55  75 100 133 172 209 249 301
#     4  10  21  36  56  82 109 141 184 229 276 332
#     4  12  24  36  52  76 108 138 164 198 249 304
#
# _framework density 17.75741
#
# number of rings (size 3 to 8) (size 9 to 14) (size 15 to 20)
#    0.000    2.000    0.769    3.462    0.000    5.846 
#    0.000    0.769    0.000    1.385    0.000    0.000 
#    0.000    0.000    0.000    0.000    0.000    0.000 
#
# Total GULP energy -289857.959707 kJ/mol
# GULP energy per Si atom -5574.191533 kJ/mol
# Density = 1.771699 g / cm^3
# Si number density = 17.757410 Si / 1000 Ang^3
#
#
#
# Elastic Constant Matrix: (Units=GPa)
#
#
# Indices 1 2 3 4 5 6 
#
# 1 96.6986 40.3210 65.0979 0.0000 0.0000 0.0000
# 2 40.3210 64.2792 57.2962 0.0000 0.0000 0.0000
# 3 65.0979 57.2962 148.4626 0.0000 0.0000 0.0000
# 4 0.0000 0.0000 0.0000 17.1395 0.0000 0.0000
# 5 0.0000 0.0000 0.0000 0.0000 32.2204 0.0000
# 6 0.0000 0.0000 0.0000 0.0000 0.0000 26.3400
#
#
#
# Elastic Compliance Matrix: (Units=1/GPa)
#
#
# Indices 1 2 3 4 5 6 
#
# 1 0.015955 -0.005750 -0.004777 0.000000 0.000000 0.000000
# 2 -0.005750 0.025788 -0.007431 0.000000 0.000000 0.000000
# 3 -0.004777 -0.007431 0.011698 0.000000 0.000000 0.000000
# 4 0.000000 0.000000 0.000000 0.058345 0.000000 0.000000
# 5 0.000000 0.000000 0.000000 0.000000 0.031036 0.000000
# 6 0.000000 0.000000 0.000000 0.000000 0.000000 0.037965
#
#
# Mechanical properties :
#
#
# Convention : Reuss Voigt Hill
#
# Bulk Modulus (GPa) = 57.06190 70.54117 63.80153
# Shear Modulus (GPa) = 22.46746 24.92167 23.69456
#
# Velocity S-wave (km/s) = 3.56089 3.75033 3.65684
# Velocity P-wave (km/s) = 7.00788 7.65274 7.33740
#
# Compressibility (1/GPa) = 0.01752483
#
# Stress axis : x y z
#
# Youngs Moduli (GPa) = 62.67692 38.77796 85.48507
#
# Poissons Ratio (x) = 0.22299 0.40833
# Poissons Ratio (y) = 0.36042 0.63523
# Poissons Ratio (z) = 0.29938 0.28815
#
# Static dielectric constant tensor:
#      x y z
#    x 1.622050 0.000000 0.000000 
#    y 0.000000 1.686710 0.000000 
#    z 0.000000 0.000000 1.583880 
# 
# From -- ./inp_files/36222.got.cif
#   From: 2010.05.17/outbox.cif.g08.bks.cpg/sg51_19_cif.got.tgz:36222.got - 2010.06.03 11:52:47.
