data_PCOD9404231
_publ_section_title
;
Structure prediction by ZEFSAII (Michael W. Deem and Ramdas Pophale) SiO2 
 PCOD9404231
Probable space group: P M M A
;
_chemical_formula_sum "Si O2"
_cell_formula_units_Z 40
_cell_length_a 8.221942
_cell_length_b 21.693232
_cell_length_c 11.088489
_cell_angle_alpha 90.000000
_cell_angle_beta 90.000000
_cell_angle_gamma 90.000000
_cell_volume 1977.748390
_symmetry_space_group_name_H-M "P M M A"
_symmetry_group_IT_number 51
_symmetry_cell_setting 'orthorhombic'
loop_
_space_group_symop_operation_xyz
x,y,z
1/2-x,-y,z
1/2+x,-y,-z
-x,y,-z
-x,-y,-z
1/2+x,y,-z
1/2-x,y,z
x,-y,z
loop_
_atom_site_type_symbol
_atom_site_label
_atom_site_fract_x
_atom_site_fract_y
_atom_site_fract_z
Si Si1 0.750000 0.571482 0.953591
Si Si2 0.250000 0.568579 0.756071
Si Si3 0.563454 0.747756 0.785906
Si Si4 0.000000 0.329926 0.000000
Si Si5 0.562168 0.371709 0.635881
Si Si6 0.445548 0.135650 0.640159
Si Si7 0.445679 0.000000 0.638737
O O1 0.750000 0.500000 0.908963
O O2 0.750000 0.566960 0.098983
O O3 0.606560 0.619380 0.927913
O O4 0.250000 0.500000 0.707372
O O5 0.416897 0.597978 0.711458
O O6 0.750000 0.750892 0.833362
O O7 0.563818 0.699294 0.676361
O O8 0.510165 0.812195 0.729863
O O9 0.454628 0.717156 0.892178
O O10 0.500000 0.377970 0.500000
O O11 0.750000 0.395104 0.650262
O O12 0.500000 0.144480 0.500000
O O13 0.250000 0.137881 0.640052
O O14 0.500587 0.067191 0.683684
O O15 0.500000 0.000000 0.500000
O O16 0.250000 0.000000 0.645584
#
# Coordination Sequence:
#
# PCOD9404231 Si02
#       7
#     4   4   8   4   8   8   4
#     4  11  24  44  67  89 115 149 195 250 312 371
#     4  11  24  42  63  87 117 153 195 238 302 373
#     4  11  24  38  58  86 116 153 198 243 301 355
#     4  12  23  42  64  87 120 148 194 256 304 361
#     4  11  23  40  60  85 119 156 194 245 294 360
#     4  10  20  34  59  90 124 163 198 241 289 348
#     4   8  16  32  52  85 124 157 198 239 285 337
#
# _framework density 20.225021000000002
#
# number of rings (size 3 to 8) (size 9 to 14) (size 15 to 20)
#    0.000    1.400    4.000    1.500    2.800    3.200 
#    0.000    0.000    0.000    0.600    0.000    0.000 
#    0.000    0.000    0.000    0.000    0.000    0.000 
#
# Total GULP energy -222718.246822 kJ/mol
# GULP energy per Si atom -5567.956171 kJ/mol
# Density = 2.017899 g / cm^3
# Si number density = 20.225021 Si / 1000 Ang^3
#
#
#
# Elastic Constant Matrix: (Units=GPa)
#
#
# Indices 1 2 3 4 5 6 
#
# 1 103.2110 52.8074 26.0395 0.0000 0.0000 0.0000
# 2 52.8074 193.0615 45.0608 0.0000 0.0000 0.0000
# 3 26.0395 45.0608 80.4019 0.0000 0.0000 0.0000
# 4 0.0000 0.0000 0.0000 33.4111 0.0000 0.0000
# 5 0.0000 0.0000 0.0000 0.0000 -9.9215 0.0000
# 6 0.0000 0.0000 0.0000 0.0000 0.0000 30.1979
#
#
#
# Elastic Compliance Matrix: (Units=1/GPa)
#
#
# Indices 1 2 3 4 5 6 
#
# 1 0.011618 -0.002646 -0.002280 0.000000 0.000000 0.000000
# 2 -0.002646 0.006562 -0.002821 0.000000 0.000000 0.000000
# 3 -0.002280 -0.002821 0.014757 0.000000 0.000000 0.000000
# 4 0.000000 0.000000 0.000000 0.029930 0.000000 0.000000
# 5 0.000000 0.000000 0.000000 0.000000 -0.100791 0.000000
# 6 0.000000 0.000000 0.000000 0.000000 0.000000 0.033115
#
#
# Mechanical properties :
#
#
# Convention : Reuss Voigt Hill
#
# Bulk Modulus (GPa) = 57.32680 69.38775 63.35727
# Shear Modulus (GPa) = 303.08965 27.58860 165.33913
#
# Velocity S-wave (km/s) = 12.25496 3.69736 9.05137
# Velocity P-wave (km/s) = 15.12123 7.25325 11.85877
#
# Compressibility (1/GPa) = 0.01744385
#
# Stress axis : x y z
#
# Youngs Moduli (GPa) = 86.07555 152.39989 67.76581
#
# Poissons Ratio (x) = 0.40319 0.15450
# Poissons Ratio (y) = 0.22772 0.19114
# Poissons Ratio (z) = 0.19624 0.42986
#
# Static dielectric constant tensor:
#      x y z
#    x 1.876710 0.000000 0.000000 
#    y 0.000000 1.733070 0.000000 
#    z 0.000000 0.000000 1.709350 
# 
# From -- ./inp_files/14304.got.cif
#   From: 2010.05.17/outbox.cif.g08.bks.cpg/sg51_8_cif.got.tgz:14304.got - 2010.06.03 11:52:47.
