data_PCOD9404067
_publ_section_title
;
Structure prediction by ZEFSAII (Michael W. Deem and Ramdas Pophale) SiO2 
 PCOD9404067
Probable space group: P M M A
;
_chemical_formula_sum "Si O2"
_cell_formula_units_Z 48
_cell_length_a 14.727999
_cell_length_b 16.175147
_cell_length_c 9.296534
_cell_angle_alpha 90.000000
_cell_angle_beta 90.000000
_cell_angle_gamma 90.000000
_cell_volume 2214.690508
_symmetry_space_group_name_H-M "P M M A"
_symmetry_group_IT_number 51
_symmetry_cell_setting 'orthorhombic'
loop_
_space_group_symop_operation_xyz
x,y,z
1/2-x,-y,z
1/2+x,-y,-z
-x,y,-z
-x,-y,-z
1/2+x,y,-z
1/2-x,y,z
x,-y,z
loop_
_atom_site_type_symbol
_atom_site_label
_atom_site_fract_x
_atom_site_fract_y
_atom_site_fract_z
Si Si1 0.139262 0.905451 0.095728
Si Si2 0.595143 0.749988 0.417057
Si Si3 0.640216 0.593063 0.891584
Si Si4 0.897590 0.590771 0.560271
Si Si5 0.142726 0.090621 0.419839
Si Si6 0.139167 0.747519 0.908631
O O1 0.250000 0.904208 0.094889
O O2 0.106954 0.888126 0.259713
O O3 0.112591 0.000000 0.058326
O O4 0.112101 0.831830 0.990160
O O5 0.500000 0.748909 0.500000
O O6 0.645403 0.669648 0.482083
O O7 0.631853 0.838648 0.463905
O O8 0.594358 0.742696 0.247015
O O9 0.750000 0.595531 0.877905
O O10 0.615587 0.500000 0.941517
O O11 0.602014 0.605040 0.731254
O O12 0.614732 0.667261 0.996922
O O13 0.855706 0.500000 0.535609
O O14 0.000000 0.585285 0.500000
O O15 0.250000 0.083128 0.398957
O O16 0.107618 0.000000 0.462624
O O17 0.250000 0.747926 0.891215
#
# Coordination Sequence:
#
# PCOD9404067 Si02
#       6
#     8   8   8   8   8   8
#     4   8  15  30  53  78 100 127 171 222 267 320
#     4  11  23  36  51  77 114 150 187 232 280 333
#     4   9  18  34  58  86 112 141 183 237 289 330
#     4   9  19  37  57  78 109 149 189 224 270 337
#     4   9  18  35  59  82 106 143 188 231 281 342
#     4  10  20  34  55  81 108 141 181 228 282 336
#
# _framework density 21.673458
#
# number of rings (size 3 to 8) (size 9 to 14) (size 15 to 20)
#    0.000    2.667    0.000    2.500    0.000    4.333 
#    0.000    9.167    0.000   11.000    0.000    0.000 
#    0.000    0.000    0.000    0.000    0.000    0.000 
#
# Total GULP energy -267831.471560 kJ/mol
# GULP energy per Si atom -5579.822324 kJ/mol
# Density = 2.162413 g / cm^3
# Si number density = 21.673458 Si / 1000 Ang^3
#
#
#
# Elastic Constant Matrix: (Units=GPa)
#
#
# Indices 1 2 3 4 5 6 
#
# 1 58.1298 10.5030 22.0135 0.0000 0.0000 0.0000
# 2 10.5030 201.8485 130.9494 0.0000 0.0000 0.0000
# 3 22.0135 130.9494 162.9564 0.0000 0.0000 0.0000
# 4 0.0000 0.0000 0.0000 0.3540 0.0000 0.0000
# 5 0.0000 0.0000 0.0000 0.0000 41.1472 0.0000
# 6 0.0000 0.0000 0.0000 0.0000 0.0000 -0.0225
#
#
#
# Elastic Compliance Matrix: (Units=1/GPa)
#
#
# Indices 1 2 3 4 5 6 
#
# 1 0.018308 0.001362 -0.003567 0.000000 0.000000 0.000000
# 2 0.001362 0.010451 -0.008582 0.000000 0.000000 0.000000
# 3 -0.003567 -0.008582 0.013515 0.000000 0.000000 0.000000
# 4 0.000000 0.000000 0.000000 2.824884 0.000000 0.000000
# 5 0.000000 0.000000 0.000000 0.000000 0.024303 0.000000
# 6 0.000000 0.000000 0.000000 0.000000 0.000000-44.491817
#
#
# Mechanical properties :
#
#
# Convention : Reuss Voigt Hill
#
# Bulk Modulus (GPa) = 48.31373 83.31851 65.81612
# Shear Modulus (GPa) = -0.12027 25.59366 12.73669
#
# Velocity S-wave (km/s) = -0.23583 3.44012 2.42681
# Velocity P-wave (km/s) = 4.71868 7.36921 6.18754
#
# Compressibility (1/GPa) = 0.02069805
#
# Stress axis : x y z
#
# Youngs Moduli (GPa) = 54.62148 95.68316 73.99085
#
# Poissons Ratio (x) = -0.13030 0.26396
# Poissons Ratio (y) = -0.07438 0.63502
# Poissons Ratio (z) = 0.19486 0.82119
#
# Static dielectric constant tensor:
#      x y z
#    x 1.794260 0.000000 0.000000 
#    y 0.000000 1.903270 0.000000 
#    z 0.000000 0.000000 1.732500 
# 
# From -- ./inp_files/9558.got.cif
#   From: 2010.05.17/outbox.cif.g08.bks.cpg/sg51_5_cif.got.tgz:9558.got - 2010.06.03 11:52:47.
