data_PCOD9404461
_publ_section_title
;
Structure prediction by ZEFSAII (Michael W. Deem and Ramdas Pophale) SiO2 
 PCOD9404461
Probable space group: P M M A
;
_chemical_formula_sum "Si O2"
_cell_formula_units_Z 48
_cell_length_a 19.769857
_cell_length_b 7.960835
_cell_length_c 15.601148
_cell_angle_alpha 90.000000
_cell_angle_beta 90.000000
_cell_angle_gamma 90.000000
_cell_volume 2455.379962
_symmetry_space_group_name_H-M "P M M A"
_symmetry_group_IT_number 51
_symmetry_cell_setting 'orthorhombic'
loop_
_space_group_symop_operation_xyz
x,y,z
1/2-x,-y,z
1/2+x,-y,-z
-x,y,-z
-x,-y,-z
1/2+x,y,-z
1/2-x,y,z
x,-y,z
loop_
_atom_site_type_symbol
_atom_site_label
_atom_site_fract_x
_atom_site_fract_y
_atom_site_fract_z
Si Si1 0.173717 0.200716 0.105046
Si Si2 0.940011 0.199350 0.233570
Si Si3 0.908707 0.698492 0.727397
Si Si4 0.172565 0.703114 0.630342
Si Si5 0.172064 0.295175 0.436486
Si Si6 0.072415 0.794621 0.960501
O O1 0.250000 0.268555 0.111863
O O2 0.130575 0.230485 0.190596
O O3 0.178546 0.000000 0.094515
O O4 0.131720 0.265660 0.023287
O O5 0.880564 0.236897 0.299951
O O6 0.923061 0.262240 0.137721
O O7 0.011704 0.270390 0.264405
O O8 0.949042 0.000000 0.227132
O O9 0.896776 0.500000 0.728526
O O10 0.876959 0.765158 0.638659
O O11 0.250000 0.756528 0.648196
O O12 0.171902 0.500000 0.630505
O O13 0.155023 0.759137 0.533299
O O14 0.250000 0.247643 0.418385
O O15 0.170087 0.500000 0.437574
O O16 0.074136 0.000000 0.960791
O O17 0.000000 0.745608 0.000000
#
# Coordination Sequence:
#
# PCOD9404461 Si02
#       6
#     8   8   8   8   8   8
#     4  10  20  35  56  81 107 139 182 229 276 325
#     4  11  22  36  57  82 110 143 183 227 271 321
#     4  11  21  34  55  82 112 144 182 224 270 324
#     4   9  19  38  60  80 106 141 182 226 271 322
#     4   8  16  33  56  78 104 144 186 220 262 324
#     4   9  17  34  56  74 101 144 185 217 260 325
#
# _framework density 19.548908000000001
#
# number of rings (size 3 to 8) (size 9 to 14) (size 15 to 20)
#    0.000    2.333    1.667    2.500    0.000    2.667 
#    0.000    9.167    0.000    2.000    0.000    0.000 
#    0.000    0.000    0.000    0.000    0.000    0.000 
#
# Total GULP energy -267915.078422 kJ/mol
# GULP energy per Si atom -5581.564134 kJ/mol
# Density = 1.950441 g / cm^3
# Si number density = 19.548908 Si / 1000 Ang^3
#
#
#
# Elastic Constant Matrix: (Units=GPa)
#
#
# Indices 1 2 3 4 5 6 
#
# 1 121.1810 -8.1610 91.4632 0.0000 0.0000 0.0000
# 2 -8.1610 12.2487 -4.7183 0.0000 0.0000 0.0000
# 3 91.4632 -4.7183 172.2166 0.0000 0.0000 0.0000
# 4 0.0000 0.0000 0.0000 24.3554 0.0000 0.0000
# 5 0.0000 0.0000 0.0000 0.0000 35.7992 0.0000
# 6 0.0000 0.0000 0.0000 0.0000 0.0000 19.5743
#
#
#
# Elastic Compliance Matrix: (Units=1/GPa)
#
#
# Indices 1 2 3 4 5 6 
#
# 1 0.014293 0.006669 -0.007408 0.000000 0.000000 0.000000
# 2 0.006669 0.085624 -0.001196 0.000000 0.000000 0.000000
# 3 -0.007408 -0.001196 0.009708 0.000000 0.000000 0.000000
# 4 0.000000 0.000000 0.000000 0.041059 0.000000 0.000000
# 5 0.000000 0.000000 0.000000 0.000000 0.027934 0.000000
# 6 0.000000 0.000000 0.000000 0.000000 0.000000 0.051087
#
#
# Mechanical properties :
#
#
# Convention : Reuss Voigt Hill
#
# Bulk Modulus (GPa) = 9.45580 51.42379 30.43979
# Shear Modulus (GPa) = 18.59939 31.08328 24.84133
#
# Velocity S-wave (km/s) = 3.08787 3.99184 3.56859
# Velocity P-wave (km/s) = 4.19055 6.89990 5.70830
#
# Compressibility (1/GPa) = 0.10575523
#
# Stress axis : x y z
#
# Youngs Moduli (GPa) = 69.96661 11.67894 103.00572
#
# Poissons Ratio (x) = -0.07789 0.76306
# Poissons Ratio (y) = -0.46662 0.12320
# Poissons Ratio (z) = 0.51831 0.01397
#
# Static dielectric constant tensor:
#      x y z
#    x 1.656530 0.000000 0.000000 
#    y 0.000000 1.720110 0.000000 
#    z 0.000000 0.000000 1.679930 
# 
# From -- ./inp_files/24764.got.cif
#   From: 2010.05.17/outbox.cif.g08.bks.cpg/sg51_13_cif.got.tgz:24764.got - 2010.06.03 11:52:47.
