data_PCOD9404826
_publ_section_title
;
Structure prediction by ZEFSAII (Michael W. Deem and Ramdas Pophale) SiO2 
 PCOD9404826
Probable space group: P M M A
;
_chemical_formula_sum "Si O2"
_cell_formula_units_Z 48
_cell_length_a 27.222048
_cell_length_b 10.581616
_cell_length_c 8.434794
_cell_angle_alpha 90.000000
_cell_angle_beta 90.000000
_cell_angle_gamma 90.000000
_cell_volume 2429.669898
_symmetry_space_group_name_H-M "P M M A"
_symmetry_group_IT_number 51
_symmetry_cell_setting 'orthorhombic'
loop_
_space_group_symop_operation_xyz
x,y,z
1/2-x,-y,z
1/2+x,-y,-z
-x,y,-z
-x,-y,-z
1/2+x,y,-z
1/2-x,y,z
x,-y,z
loop_
_atom_site_type_symbol
_atom_site_label
_atom_site_fract_x
_atom_site_fract_y
_atom_site_fract_z
Si Si1 0.377589 0.638697 0.456876
Si Si2 0.692509 0.144835 0.628196
Si Si3 0.696221 0.848956 0.007860
Si Si4 0.089085 0.145136 0.916755
Si Si5 0.032963 0.741736 0.646064
Si Si6 0.945329 0.639774 0.849024
O O1 0.355282 0.500000 0.480154
O O2 0.339649 0.753308 0.463109
O O3 0.423100 0.658755 0.574750
O O4 0.402571 0.642976 0.282991
O O5 0.750000 0.152692 0.586243
O O6 0.676033 0.000000 0.601279
O O7 0.689421 0.169992 0.818269
O O8 0.750000 0.795717 0.053530
O O9 0.646079 0.810779 0.094572
O O10 0.699254 0.000000 0.030653
O O11 0.059562 0.154785 0.753614
O O12 0.063524 0.243694 0.034815
O O13 0.088485 0.000000 0.975473
O O14 0.995866 0.661844 0.754678
O O15 0.000000 0.791255 0.500000
O O16 0.944728 0.500000 0.923789
#
# Coordination Sequence:
#
# PCOD9404826 Si02
#       6
#     8   8   8   8   8   8
#     4  10  20  36  58  84 113 150 194 236 282 334
#     4   9  17  32  57  86 115 148 184 228 287 349
#     4   8  15  31  56  84 112 141 176 225 283 337
#     4  11  22  37  60  88 114 146 191 240 289 341
#     4  10  23  39  54  78 117 158 194 235 286 342
#     4  10  21  38  60  84 111 149 194 239 286 340
#
# _framework density 19.755769000000001
#
# number of rings (size 3 to 8) (size 9 to 14) (size 15 to 20)
#    0.000    2.333    1.667    2.000    0.000    6.667 
#    0.000    4.167    0.000    2.500    0.000    0.000 
#    0.000    0.000    0.000    0.000    0.000    0.000 
#
# Total GULP energy -267668.313587 kJ/mol
# GULP energy per Si atom -5576.423200 kJ/mol
# Density = 1.971080 g / cm^3
# Si number density = 19.755769 Si / 1000 Ang^3
#
#
#
# Elastic Constant Matrix: (Units=GPa)
#
#
# Indices 1 2 3 4 5 6 
#
# 1 122.0710 64.7954 35.8416 0.0000 0.0000 0.0000
# 2 64.7954 122.6376 40.8072 0.0000 0.0000 0.0000
# 3 35.8416 40.8072 45.9768 0.0000 0.0000 0.0000
# 4 0.0000 0.0000 0.0000 11.8313 0.0000 0.0000
# 5 0.0000 0.0000 0.0000 0.0000 17.5187 0.0000
# 6 0.0000 0.0000 0.0000 0.0000 0.0000 16.6420
#
#
#
# Elastic Compliance Matrix: (Units=1/GPa)
#
#
# Indices 1 2 3 4 5 6 
#
# 1 0.012264 -0.004681 -0.005406 0.000000 0.000000 0.000000
# 2 -0.004681 0.013358 -0.008207 0.000000 0.000000 0.000000
# 3 -0.005406 -0.008207 0.033249 0.000000 0.000000 0.000000
# 4 0.000000 0.000000 0.000000 0.084522 0.000000 0.000000
# 5 0.000000 0.000000 0.000000 0.000000 0.057082 0.000000
# 6 0.000000 0.000000 0.000000 0.000000 0.000000 0.060089
#
#
# Mechanical properties :
#
#
# Convention : Reuss Voigt Hill
#
# Bulk Modulus (GPa) = 44.87749 63.73041 54.30395
# Shear Modulus (GPa) = 16.41615 19.14782 17.78199
#
# Velocity S-wave (km/s) = 2.88576 3.11662 3.00341
# Velocity P-wave (km/s) = 5.81970 6.72906 6.29083
#
# Compressibility (1/GPa) = 0.02228289
#
# Stress axis : x y z
#
# Youngs Moduli (GPa) = 81.54133 74.86106 30.07642
#
# Poissons Ratio (x) = 0.35041 0.16259
# Poissons Ratio (y) = 0.38167 0.24684
# Poissons Ratio (z) = 0.44080 0.61440
#
# Static dielectric constant tensor:
#      x y z
#    x 1.717750 0.000000 0.000000 
#    y 0.000000 1.675430 0.000000 
#    z 0.000000 0.000000 1.723610 
# 
# From -- ./inp_files/13040.got.cif
#   From: 2010.05.17/outbox.cif.g08.bks.cpg/sg51_7_cif.got.tgz:13040.got - 2010.06.03 11:52:47.
