data_PCOD9404185
_publ_section_title
;
Structure prediction by ZEFSAII (Michael W. Deem and Ramdas Pophale) SiO2 
 PCOD9404185
Probable space group: P M M A
;
_chemical_formula_sum "Si O2"
_cell_formula_units_Z 40
_cell_length_a 8.385100
_cell_length_b 10.051388
_cell_length_c 24.712496
_cell_angle_alpha 90.000000
_cell_angle_beta 90.000000
_cell_angle_gamma 90.000000
_cell_volume 2082.815956
_symmetry_space_group_name_H-M "P M M A"
_symmetry_group_IT_number 51
_symmetry_cell_setting 'orthorhombic'
loop_
_space_group_symop_operation_xyz
x,y,z
1/2-x,-y,z
1/2+x,-y,-z
-x,y,-z
-x,-y,-z
1/2+x,y,-z
1/2-x,y,z
x,-y,z
loop_
_atom_site_type_symbol
_atom_site_label
_atom_site_fract_x
_atom_site_fract_y
_atom_site_fract_z
Si Si1 0.557074 0.249915 0.129810
Si Si2 0.057469 0.845642 0.653248
Si Si3 0.055169 0.655385 0.751638
Si Si4 0.058723 0.650235 0.438527
Si Si5 0.561437 0.000000 0.937930
Si Si6 0.941830 0.500000 0.060561
O O1 0.750000 0.244306 0.130876
O O2 0.505779 0.279316 0.191264
O O3 0.503818 0.372965 0.093514
O O4 0.495926 0.123517 0.097832
O O5 0.250000 0.849645 0.655312
O O6 0.002731 0.752268 0.703167
O O7 0.007077 0.765852 0.599678
O O8 0.001921 0.000000 0.655317
O O9 0.250000 0.652385 0.751144
O O10 0.004105 0.500000 0.747071
O O11 0.250000 0.654018 0.437592
O O12 0.007899 0.500000 0.420627
O O13 0.000000 0.666760 0.500000
O O14 0.750000 0.000000 0.941705
O O15 0.500000 0.000000 0.000000
O O16 0.750000 0.500000 0.060620
O O17 0.000000 0.500000 0.000000
#
# Coordination Sequence:
#
# PCOD9404185 Si02
#       6
#     8   8   8   8   4   4
#     4  10  20  37  61  87 114 148 188 235 287 342
#     4  10  21  35  56  89 122 155 195 238 284 338
#     4   9  17  33  59  88 116 148 191 238 284 338
#     4  10  21  38  61  87 116 154 198 243 291 342
#     4  12  26  42  58  82 114 152 193 234 285 346
#     4  10  20  34  56  86 114 142 183 232 285 342
#
# _framework density 19.20477
#
# number of rings (size 3 to 8) (size 9 to 14) (size 15 to 20)
#    0.000    2.000    1.000    2.700    1.400    5.200 
#    0.000    1.000    0.000    1.200    0.000    0.000 
#    0.000    0.000    0.000    0.000    0.000    0.000 
#
# Total GULP energy -223223.148110 kJ/mol
# GULP energy per Si atom -5580.578703 kJ/mol
# Density = 1.916106 g / cm^3
# Si number density = 19.204770 Si / 1000 Ang^3
#
#
#
# Elastic Constant Matrix: (Units=GPa)
#
#
# Indices 1 2 3 4 5 6 
#
# 1 10.5283 27.6817 16.1446 0.0000 0.0000 0.0000
# 2 27.6817 221.9631 116.5671 0.0000 0.0000 0.0000
# 3 16.1446 116.5671 156.3773 0.0000 0.0000 0.0000
# 4 0.0000 0.0000 0.0000 37.7002 0.0000 0.0000
# 5 0.0000 0.0000 0.0000 0.0000 24.7268 0.0000
# 6 0.0000 0.0000 0.0000 0.0000 0.0000 34.1412
#
#
#
# Elastic Compliance Matrix: (Units=1/GPa)
#
#
# Indices 1 2 3 4 5 6 
#
# 1 0.141867 -0.016434 -0.002396 0.000000 0.000000 0.000000
# 2 -0.016434 0.009307 -0.005241 0.000000 0.000000 0.000000
# 3 -0.002396 -0.005241 0.010549 0.000000 0.000000 0.000000
# 4 0.000000 0.000000 0.000000 0.026525 0.000000 0.000000
# 5 0.000000 0.000000 0.000000 0.000000 0.040442 0.000000
# 6 0.000000 0.000000 0.000000 0.000000 0.000000 0.029290
#
#
# Mechanical properties :
#
#
# Convention : Reuss Voigt Hill
#
# Bulk Modulus (GPa) = 8.80434 78.85063 43.82748
# Shear Modulus (GPa) = 14.53556 34.54530 24.54043
#
# Velocity S-wave (km/s) = 2.75412 4.24581 3.57855
# Velocity P-wave (km/s) = 3.83509 8.07359 6.32024
#
# Compressibility (1/GPa) = 0.11358036
#
# Stress axis : x y z
#
# Youngs Moduli (GPa) = 7.04885 107.44230 94.79535
#
# Poissons Ratio (x) = 1.76575 0.22713
# Poissons Ratio (y) = 0.11584 0.49684
# Poissons Ratio (z) = 0.01689 0.56312
#
# Static dielectric constant tensor:
#      x y z
#    x 1.673990 0.000000 0.000000 
#    y 0.000000 1.652120 0.000000 
#    z 0.000000 0.000000 1.657200 
# 
# From -- ./inp_files/36014.got.cif
#   From: 2010.05.17/outbox.cif.g08.bks.cpg/sg51_19_cif.got.tgz:36014.got - 2010.06.03 11:52:47.
