data_PCOD9404333
_publ_section_title
;
Structure prediction by ZEFSAII (Michael W. Deem and Ramdas Pophale) SiO2 
 PCOD9404333
Probable space group: P M M A
;
_chemical_formula_sum "Si O2"
_cell_formula_units_Z 38
_cell_length_a 9.924792
_cell_length_b 11.327752
_cell_length_c 19.117077
_cell_angle_alpha 90.000000
_cell_angle_beta 90.000000
_cell_angle_gamma 90.000000
_cell_volume 2149.248516
_symmetry_space_group_name_H-M "P M M A"
_symmetry_group_IT_number 51
_symmetry_cell_setting 'orthorhombic'
loop_
_space_group_symop_operation_xyz
x,y,z
1/2-x,-y,z
1/2+x,-y,-z
-x,y,-z
-x,-y,-z
1/2+x,y,-z
1/2-x,y,z
x,-y,z
loop_
_atom_site_type_symbol
_atom_site_label
_atom_site_fract_x
_atom_site_fract_y
_atom_site_fract_z
Si Si1 0.405915 0.143819 0.564942
Si Si2 0.401492 0.858227 0.309834
Si Si3 0.028908 0.241194 0.159172
Si Si4 0.750000 0.142235 0.106780
Si Si5 0.984804 0.500000 0.891995
Si Si6 0.750000 0.858011 0.944973
Si Si7 0.250000 0.500000 0.988599
O O1 0.500000 0.180664 0.500000
O O2 0.250000 0.182726 0.560935
O O3 0.483318 0.179243 0.635835
O O4 0.403548 0.000000 0.564034
O O5 0.250000 0.833369 0.336880
O O6 0.419334 0.802015 0.233858
O O7 0.411435 0.000000 0.301647
O O8 0.881410 0.190141 0.144631
O O9 0.029763 0.381261 0.152497
O O10 0.121981 0.189448 0.097041
O O11 0.750000 0.000000 0.106364
O O12 0.750000 0.184190 0.025411
O O13 0.130158 0.500000 0.928903
O O14 0.867857 0.500000 0.950134
O O15 0.750000 0.000000 0.944670
#
# Coordination Sequence:
#
# PCOD9404333 Si02
#       7
#     8   8   8   4   4   4   2
#     4   9  17  30  52  83 117 152 190 228 273 336
#     4  10  20  35  54  78 114 156 190 231 288 345
#     4  12  24  38  59  81 114 148 195 243 294 352
#     4  11  25  38  57  83 110 145 186 239 296 354
#     4  11  26  40  62  84 105 146 196 250 308 342
#     4  11  23  40  57  79 108 147 188 237 296 354
#     4  10  24  42  60  78 102 138 194 254 304 350
#
# _framework density 17.680598
#
# number of rings (size 3 to 8) (size 9 to 14) (size 15 to 20)
#    0.000    1.474    1.053    4.421   10.316    4.211 
#    0.000    0.000    0.000    0.000    0.000    0.737 
#    0.000    0.000    0.000    0.000    0.000    0.000 
#
# Total GULP energy -211771.192781 kJ/mol
# GULP energy per Si atom -5572.926126 kJ/mol
# Density = 1.764036 g / cm^3
# Si number density = 17.680598 Si / 1000 Ang^3
#
#
#
# Elastic Constant Matrix: (Units=GPa)
#
#
# Indices 1 2 3 4 5 6 
#
# 1 158.1874 23.4780 38.2854 0.0000 0.0000 0.0000
# 2 23.4780 49.7171 18.7781 0.0000 0.0000 0.0000
# 3 38.2854 18.7781 81.6985 0.0000 0.0000 0.0000
# 4 0.0000 0.0000 0.0000 -4.0010 0.0000 0.0000
# 5 0.0000 0.0000 0.0000 0.0000 30.5428 0.0000
# 6 0.0000 0.0000 0.0000 0.0000 0.0000 13.5071
#
#
#
# Elastic Compliance Matrix: (Units=1/GPa)
#
#
# Indices 1 2 3 4 5 6 
#
# 1 0.007380 -0.002386 -0.002910 0.000000 0.000000 0.000000
# 2 -0.002386 0.022797 -0.004122 0.000000 0.000000 0.000000
# 3 -0.002910 -0.004122 0.014551 0.000000 0.000000 0.000000
# 4 0.000000 0.000000 0.000000 -0.249935 0.000000 0.000000
# 5 0.000000 0.000000 0.000000 0.000000 0.032741 0.000000
# 6 0.000000 0.000000 0.000000 0.000000 0.000000 0.074035
#
#
# Mechanical properties :
#
#
# Convention : Reuss Voigt Hill
#
# Bulk Modulus (GPa) = 38.62044 50.07623 44.34833
# Shear Modulus (GPa) = -70.45863 21.94720 -24.25571
#
# Velocity S-wave (km/s) = -6.31960 3.52705 -3.70791
# Velocity P-wave (km/s) = 5.59991 6.70604 2.60883
#
# Compressibility (1/GPa) = 0.02589303
#
# Stress axis : x y z
#
# Youngs Moduli (GPa) = 135.50064 43.86481 68.72292
#
# Poissons Ratio (x) = 0.10466 0.19998
# Poissons Ratio (y) = 0.32330 0.28326
# Poissons Ratio (z) = 0.39431 0.18080
#
# Static dielectric constant tensor:
#      x y z
#    x 1.631090 0.000000 0.000000 
#    y 0.000000 1.578920 0.000000 
#    z 0.000000 0.000000 1.581520 
# 
# From -- ./inp_files/27133.got.cif
#   From: 2010.05.17/outbox.cif.g08.bks.cpg/sg51_14_cif.got.tgz:27133.got - 2010.06.03 11:52:47.
