data_PCOD9404830
_publ_section_title
;
Structure prediction by ZEFSAII (Michael W. Deem and Ramdas Pophale) SiO2 
 PCOD9404830
Probable space group: P M M A
;
_chemical_formula_sum "Si O2"
_cell_formula_units_Z 38
_cell_length_a 9.322626
_cell_length_b 9.338307
_cell_length_c 23.003716
_cell_angle_alpha 90.000000
_cell_angle_beta 90.000000
_cell_angle_gamma 90.000000
_cell_volume 2002.647009
_symmetry_space_group_name_H-M "P M M A"
_symmetry_group_IT_number 51
_symmetry_cell_setting 'orthorhombic'
loop_
_space_group_symop_operation_xyz
x,y,z
1/2-x,-y,z
1/2+x,-y,-z
-x,y,-z
-x,-y,-z
1/2+x,y,-z
1/2-x,y,z
x,-y,z
loop_
_atom_site_type_symbol
_atom_site_label
_atom_site_fract_x
_atom_site_fract_y
_atom_site_fract_z
Si Si1 0.419203 0.170843 0.219633
Si Si2 0.250000 0.000000 0.026321
Si Si3 0.000000 0.226178 0.000000
Si Si4 0.919837 0.328077 0.324230
Si Si5 0.416403 0.335303 0.877182
Si Si6 0.584399 0.325716 0.557566
O O1 0.250000 0.202480 0.224459
O O2 0.505746 0.246324 0.271394
O O3 0.482084 0.232852 0.159897
O O4 0.437668 0.000000 0.221507
O O5 0.125801 0.124501 0.022961
O O6 0.944792 0.316716 0.054644
O O7 0.750000 0.298318 0.327098
O O8 0.936599 0.500000 0.316581
O O9 0.998594 0.286723 0.384230
O O10 0.250000 0.298789 0.865184
O O11 0.440136 0.500000 0.859694
O O12 0.500000 0.277470 0.500000
O O13 0.750000 0.277636 0.558595
O O14 0.586806 0.500000 0.555830
#
# Coordination Sequence:
#
# PCOD9404830 Si02
#       6
#     8   2   4   8   8   8
#     4  11  26  42  61  85 114 151 196 243 292 351
#     4  10  24  38  66  94 124 158 198 234 290 346
#     4  11  23  42  64  92 124 160 194 244 286 350
#     4  10  20  36  58  85 118 153 193 241 293 347
#     4  11  25  43  63  89 121 154 193 240 295 349
#     4   9  16  27  48  80 117 155 195 239 288 341
#
# _framework density 18.974886999999999
#
# number of rings (size 3 to 8) (size 9 to 14) (size 15 to 20)
#    0.000    1.684    1.053    2.842    4.421    8.421 
#    0.000    0.000    0.000    0.632    0.000    0.000 
#    0.000    0.000    0.000    0.000    0.000    0.000 
#
# Total GULP energy -211752.125427 kJ/mol
# GULP energy per Si atom -5572.424353 kJ/mol
# Density = 1.893170 g / cm^3
# Si number density = 18.974887 Si / 1000 Ang^3
#
#
#
# Elastic Constant Matrix: (Units=GPa)
#
#
# Indices 1 2 3 4 5 6 
#
# 1 160.2694 58.1592 61.0342 0.0000 0.0000 0.0000
# 2 58.1592 42.3643 34.1191 0.0000 0.0000 0.0000
# 3 61.0342 34.1191 135.6976 0.0000 0.0000 0.0000
# 4 0.0000 0.0000 0.0000 -29.0629 0.0000 0.0000
# 5 0.0000 0.0000 0.0000 0.0000 20.3718 0.0000
# 6 0.0000 0.0000 0.0000 0.0000 0.0000 24.0349
#
#
#
# Elastic Compliance Matrix: (Units=1/GPa)
#
#
# Indices 1 2 3 4 5 6 
#
# 1 0.012728 -0.016129 -0.001669 0.000000 0.000000 0.000000
# 2 -0.016129 0.050037 -0.005326 0.000000 0.000000 0.000000
# 3 -0.001669 -0.005326 0.009459 0.000000 0.000000 0.000000
# 4 0.000000 0.000000 0.000000 -0.034408 0.000000 0.000000
# 5 0.000000 0.000000 0.000000 0.000000 0.049087 0.000000
# 6 0.000000 0.000000 0.000000 0.000000 0.000000 0.041606
#
#
# Mechanical properties :
#
#
# Convention : Reuss Voigt Hill
#
# Bulk Modulus (GPa) = 38.49902 71.66180 55.08041
# Shear Modulus (GPa) = 27.25988 15.40335 21.33162
#
# Velocity S-wave (km/s) = 3.79440 2.85226 3.35655
# Velocity P-wave (km/s) = 6.28730 6.97824 6.64176
#
# Compressibility (1/GPa) = 0.02597469
#
# Stress axis : x y z
#
# Youngs Moduli (GPa) = 78.56476 19.98501 105.71389
#
# Poissons Ratio (x) = 0.32235 0.17649
# Poissons Ratio (y) = 1.26720 0.56308
# Poissons Ratio (z) = 0.13116 0.10645
#
# Static dielectric constant tensor:
#      x y z
#    x 1.635120 0.000000 0.000000 
#    y 0.000000 1.630290 0.000000 
#    z 0.000000 0.000000 1.656490 
# 
# From -- ./inp_files/34348.got.cif
#   From: 2010.05.17/outbox.cif.g08.bks.cpg/sg51_18_cif.got.tgz:34348.got - 2010.06.03 11:52:47.
