data_PCOD9404613
_publ_section_title
;
Structure prediction by ZEFSAII (Michael W. Deem and Ramdas Pophale) SiO2 
 PCOD9404613
Probable space group: P M M A
;
_chemical_formula_sum "Si O2"
_cell_formula_units_Z 56
_cell_length_a 16.473050
_cell_length_b 21.773495
_cell_length_c 8.176775
_cell_angle_alpha 90.000000
_cell_angle_beta 90.000000
_cell_angle_gamma 90.000000
_cell_volume 2932.811902
_symmetry_space_group_name_H-M "P M M A"
_symmetry_group_IT_number 51
_symmetry_cell_setting 'orthorhombic'
loop_
_space_group_symop_operation_xyz
x,y,z
1/2-x,-y,z
1/2+x,-y,-z
-x,y,-z
-x,-y,-z
1/2+x,y,-z
1/2-x,y,z
x,-y,z
loop_
_atom_site_type_symbol
_atom_site_label
_atom_site_fract_x
_atom_site_fract_y
_atom_site_fract_z
Si Si1 0.846391 0.568986 0.774421
Si Si2 0.345630 0.221069 0.908336
Si Si3 0.091709 0.427459 0.567194
Si Si4 0.348915 0.363253 0.898269
Si Si5 0.846326 0.069763 0.584931
Si Si6 0.438611 0.825692 0.619477
Si Si7 0.562415 0.117396 0.879651
O O1 0.750000 0.565494 0.796313
O O2 0.881182 0.500000 0.768964
O O3 0.859988 0.595827 0.593454
O O4 0.877029 0.601737 0.937611
O O5 0.250000 0.212819 0.932450
O O6 0.367187 0.291983 0.934689
O O7 0.370892 0.209269 0.720638
O O8 0.391765 0.171858 0.022679
O O9 0.111638 0.500000 0.597822
O O10 0.111065 0.390151 0.732711
O O11 0.000000 0.423920 0.500000
O O12 0.250000 0.368835 0.879782
O O13 0.750000 0.079663 0.570783
O O14 0.895010 0.119033 0.477143
O O15 0.874767 0.078955 0.772407
O O16 0.865037 0.000000 0.533502
O O17 0.500000 0.789465 0.500000
O O18 0.500705 0.852558 0.751426
O O19 0.500000 0.082720 0.000000
#
# Coordination Sequence:
#
# PCOD9404613 Si02
#       7
#     8   8   8   8   8   8   8
#     4   9  18  35  58  81 108 144 187 235 287 343
#     4  10  20  37  56  77 109 145 187 234 279 334
#     4  10  21  37  55  82 116 148 185 234 295 353
#     4  10  21  37  57  83 110 146 195 239 285 343
#     4  10  20  35  58  87 114 145 189 234 280 336
#     4   9  19  36  56  79 110 146 182 223 277 333
#     4   9  19  36  55  78 110 148 184 227 280 337
#
# _framework density 19.094304000000001
#
# number of rings (size 3 to 8) (size 9 to 14) (size 15 to 20)
#    0.000    2.429    0.000    1.714    0.000    5.429 
#   12.857    4.286    0.000    7.714    0.000    0.000 
#    0.000    0.000    0.000    0.000    0.000    0.000 
#
# Total GULP energy -311781.151994 kJ/mol
# GULP energy per Si atom -5567.520571 kJ/mol
# Density = 1.905084 g / cm^3
# Si number density = 19.094304 Si / 1000 Ang^3
#
#
#
# Elastic Constant Matrix: (Units=GPa)
#
#
# Indices 1 2 3 4 5 6 
#
# 1 55.0938 30.4183 28.4013 0.0000 0.0000 0.0000
# 2 30.4183 61.0395 32.6958 0.0000 0.0000 0.0000
# 3 28.4013 32.6958 101.2729 0.0000 0.0000 0.0000
# 4 0.0000 0.0000 0.0000 -39.6564 0.0000 0.0000
# 5 0.0000 0.0000 0.0000 0.0000 37.5018 0.0000
# 6 0.0000 0.0000 0.0000 0.0000 0.0000 8.4079
#
#
#
# Elastic Compliance Matrix: (Units=1/GPa)
#
#
# Indices 1 2 3 4 5 6 
#
# 1 0.026188 -0.011023 -0.003786 0.000000 0.000000 0.000000
# 2 -0.011023 0.024448 -0.004802 0.000000 0.000000 0.000000
# 3 -0.003786 -0.004802 0.012486 0.000000 0.000000 0.000000
# 4 0.000000 0.000000 0.000000 -0.025217 0.000000 0.000000
# 5 0.000000 0.000000 0.000000 0.000000 0.026665 0.000000
# 6 0.000000 0.000000 0.000000 0.000000 0.000000 0.118936
#
#
# Mechanical properties :
#
#
# Convention : Reuss Voigt Hill
#
# Bulk Modulus (GPa) = 41.83733 44.49300 43.16516
# Shear Modulus (GPa) = 21.67367 9.64339 15.65853
#
# Velocity S-wave (km/s) = 3.37276 2.24975 2.86678
# Velocity P-wave (km/s) = 6.09309 5.48642 5.79770
#
# Compressibility (1/GPa) = 0.02390210
#
# Stress axis : x y z
#
# Youngs Moduli (GPa) = 38.18493 40.90309 80.08852
#
# Poissons Ratio (x) = 0.45087 0.30318
# Poissons Ratio (y) = 0.42091 0.38456
# Poissons Ratio (z) = 0.14455 0.19641
#
# Static dielectric constant tensor:
#      x y z
#    x 1.700340 0.000000 0.000000 
#    y 0.000000 1.668080 0.000000 
#    z 0.000000 0.000000 1.704780 
# 
# From -- ./inp_files/8506.got.cif
#   From: 2010.05.17/outbox.cif.g08.bks.cpg/sg51_5_cif.got.tgz:8506.got - 2010.06.03 11:52:47.
