data_PCOD9404520
_publ_section_title
;
Structure prediction by ZEFSAII (Michael W. Deem and Ramdas Pophale) SiO2 
 PCOD9404520
Probable space group: P M M A
;
_chemical_formula_sum "Si O2"
_cell_formula_units_Z 64
_cell_length_a 14.401203
_cell_length_b 8.995429
_cell_length_c 26.326978
_cell_angle_alpha 90.000000
_cell_angle_beta 90.000000
_cell_angle_gamma 90.000000
_cell_volume 3410.528341
_symmetry_space_group_name_H-M "P M M A"
_symmetry_group_IT_number 51
_symmetry_cell_setting 'orthorhombic'
loop_
_space_group_symop_operation_xyz
x,y,z
1/2-x,-y,z
1/2+x,-y,-z
-x,y,-z
-x,-y,-z
1/2+x,y,-z
1/2-x,y,z
x,-y,z
loop_
_atom_site_type_symbol
_atom_site_label
_atom_site_fract_x
_atom_site_fract_y
_atom_site_fract_z
Si Si1 0.966426 0.322133 0.125398
Si Si2 0.357790 0.823017 0.085212
Si Si3 0.470593 0.820915 0.679595
Si Si4 0.636946 0.170093 0.530909
Si Si5 0.642420 0.322949 0.636647
Si Si6 0.357149 0.181059 0.580228
Si Si7 0.858473 0.179307 0.219026
Si Si8 0.359782 0.673644 0.977723
O O1 0.968097 0.500000 0.129153
O O2 0.908438 0.253772 0.171361
O O3 0.916497 0.282639 0.072021
O O4 0.069757 0.256836 0.121948
O O5 0.250000 0.783962 0.095244
O O6 0.367786 0.000000 0.088570
O O7 0.378777 0.768855 0.027785
O O8 0.572038 0.750363 0.676099
O O9 0.415781 0.772554 0.628778
O O10 0.412288 0.779942 0.729326
O O11 0.477998 0.000000 0.678319
O O12 0.750000 0.164909 0.527239
O O13 0.615493 0.265331 0.580317
O O14 0.606070 0.226091 0.475452
O O15 0.604137 0.000000 0.538844
O O16 0.750000 0.279489 0.645059
O O17 0.636105 0.500000 0.638418
O O18 0.250000 0.228865 0.585939
O O19 0.356631 0.000000 0.579046
O O20 0.750000 0.220877 0.221798
O O21 0.863012 0.000000 0.214015
O O22 0.250000 0.685378 0.966416
O O23 0.379983 0.500000 0.989395
#
# Coordination Sequence:
#
# PCOD9404520 Si02
#       8
#     8   8   8   8   8   8   8   8
#     4  11  22  36  57  83 112 150 192 229 269 321
#     4  10  21  36  55  82 116 151 187 230 278 324
#     4  10  20  35  57  81 103 133 175 220 266 316
#     4   8  14  27  49  75 102 134 171 210 254 308
#     4  10  21  36  52  72 103 140 175 215 263 314
#     4   8  14  27  50  79 107 134 168 211 258 312
#     4  10  22  40  61  85 112 140 173 219 273 323
#     4   9  18  33  53  80 115 152 188 225 269 324
#
# _framework density 18.765422000000001
#
# number of rings (size 3 to 8) (size 9 to 14) (size 15 to 20)
#    0.000    2.500    0.000    3.000    0.000    7.250 
#    0.000    5.000    0.000    2.625    0.000    0.000 
#    0.000    0.000    0.000    0.000    0.000    0.000 
#
# Total GULP energy -357314.448282 kJ/mol
# GULP energy per Si atom -5583.038254 kJ/mol
# Density = 1.872271 g / cm^3
# Si number density = 18.765422 Si / 1000 Ang^3
#
#
#
# Elastic Constant Matrix: (Units=GPa)
#
#
# Indices 1 2 3 4 5 6 
#
# 1 138.4037 47.5508 90.1179 0.0000 0.0000 0.0000
# 2 47.5508 27.1508 39.6556 0.0000 0.0000 0.0000
# 3 90.1179 39.6556 93.4526 0.0000 0.0000 0.0000
# 4 0.0000 0.0000 0.0000 139.1884 0.0000 0.0000
# 5 0.0000 0.0000 0.0000 0.0000 35.2300 0.0000
# 6 0.0000 0.0000 0.0000 0.0000 0.0000 18.4731
#
#
#
# Elastic Compliance Matrix: (Units=1/GPa)
#
#
# Indices 1 2 3 4 5 6 
#
# 1 0.023199 -0.020922 -0.013493 0.000000 0.000000 0.000000
# 2 -0.020922 0.115736 -0.028935 0.000000 0.000000 0.000000
# 3 -0.013493 -0.028935 0.035991 0.000000 0.000000 0.000000
# 4 0.000000 0.000000 0.000000 0.007185 0.000000 0.000000
# 5 0.000000 0.000000 0.000000 0.000000 0.028385 0.000000
# 6 0.000000 0.000000 0.000000 0.000000 0.000000 0.054133
#
#
# Mechanical properties :
#
#
# Convention : Reuss Voigt Hill
#
# Bulk Modulus (GPa) = 20.73663 68.18397 44.46030
# Shear Modulus (GPa) = 12.27282 44.02382 28.14832
#
# Velocity S-wave (km/s) = 2.56014 4.84881 3.87720
# Velocity P-wave (km/s) = 4.45124 8.23175 6.61722
#
# Compressibility (1/GPa) = 0.04822383
#
# Stress axis : x y z
#
# Youngs Moduli (GPa) = 43.10494 8.64036 27.78496
#
# Poissons Ratio (x) = 0.18078 0.37491
# Poissons Ratio (y) = 0.90186 0.80397
# Poissons Ratio (z) = 0.58162 0.25001
#
# Static dielectric constant tensor:
#      x y z
#    x 1.678940 0.000000 0.000000 
#    y 0.000000 1.622800 0.000000 
#    z 0.000000 0.000000 1.629890 
# 
# From -- ./inp_files/35727.got.cif
#   From: 2010.05.17/outbox.cif.g08.bks.cpg/sg51_18_cif.got.tgz:35727.got - 2010.06.03 11:52:47.
