data_PCOD9404137
_publ_section_title
;
Structure prediction by ZEFSAII (Michael W. Deem and Ramdas Pophale) SiO2 
 PCOD9404137
Probable space group: P M M A
;
_chemical_formula_sum "Si O2"
_cell_formula_units_Z 40
_cell_length_a 30.011850
_cell_length_b 7.729081
_cell_length_c 8.017193
_cell_angle_alpha 90.000000
_cell_angle_beta 90.000000
_cell_angle_gamma 90.000000
_cell_volume 1859.700314
_symmetry_space_group_name_H-M "P M M A"
_symmetry_group_IT_number 51
_symmetry_cell_setting 'orthorhombic'
loop_
_space_group_symop_operation_xyz
x,y,z
1/2-x,-y,z
1/2+x,-y,-z
-x,y,-z
-x,-y,-z
1/2+x,y,-z
1/2-x,y,z
x,-y,z
loop_
_atom_site_type_symbol
_atom_site_label
_atom_site_fract_x
_atom_site_fract_y
_atom_site_fract_z
Si Si1 0.451866 0.789890 0.567320
Si Si2 0.300506 0.291912 0.747180
Si Si3 0.357853 0.705884 0.058428
Si Si4 0.640933 0.205798 0.575119
Si Si5 0.547991 0.296011 0.047724
O O1 0.500000 0.732770 0.500000
O O2 0.409525 0.729445 0.459616
O O3 0.445527 0.725508 0.755213
O O4 0.451835 0.000000 0.569696
O O5 0.250000 0.225402 0.737543
O O6 0.298079 0.500000 0.761618
O O7 0.328390 0.253999 0.580962
O O8 0.326559 0.225239 0.910849
O O9 0.361020 0.500000 0.030155
O O10 0.341743 0.732589 0.246186
O O11 0.408114 0.778423 0.040405
O O12 0.638729 0.000000 0.582164
O O13 0.546099 0.500000 0.005183
O O14 0.500000 0.219048 0.000000
#
# Coordination Sequence:
#
# PCOD9404137 Si02
#       5
#     8   8   8   8   8
#     4  10  21  36  54  81 119 162 201 237 287 354
#     4  10  22  42  66  88 114 154 201 248 299 355
#     4  10  21  38  60  87 120 156 198 245 296 354
#     4  11  23  38  60  90 123 158 198 245 299 353
#     4  10  20  34  55  85 117 152 197 247 294 341
#
# _framework density 21.508841
#
# number of rings (size 3 to 8) (size 9 to 14) (size 15 to 20)
#    0.000    1.800    2.000    1.800    0.000    4.400 
#    0.000    2.000    0.000    0.000    0.000    0.000 
#    0.000    0.000    0.000    0.000    0.000    0.000 
#
# Total GULP energy -223504.364597 kJ/mol
# GULP energy per Si atom -5587.609115 kJ/mol
# Density = 2.145989 g / cm^3
# Si number density = 21.508841 Si / 1000 Ang^3
#
#
#
# Elastic Constant Matrix: (Units=GPa)
#
#
# Indices 1 2 3 4 5 6 
#
# 1 164.5625 13.0324 78.3660 0.0000 0.0000 0.0000
# 2 13.0324 29.4067 -22.0146 0.0000 0.0000 0.0000
# 3 78.3660 -22.0146 143.1755 0.0000 0.0000 0.0000
# 4 0.0000 0.0000 0.0000 -5.4210 0.0000 0.0000
# 5 0.0000 0.0000 0.0000 0.0000 26.8292 0.0000
# 6 0.0000 0.0000 0.0000 0.0000 0.0000 16.6554
#
#
#
# Elastic Compliance Matrix: (Units=1/GPa)
#
#
# Indices 1 2 3 4 5 6 
#
# 1 0.010257 -0.009887 -0.007134 0.000000 0.000000 0.000000
# 2 -0.009887 0.047959 0.012786 0.000000 0.000000 0.000000
# 3 -0.007134 0.012786 0.012855 0.000000 0.000000 0.000000
# 4 0.000000 0.000000 0.000000 -0.184468 0.000000 0.000000
# 5 0.000000 0.000000 0.000000 0.000000 0.037273 0.000000
# 6 0.000000 0.000000 0.000000 0.000000 0.000000 0.060041
#
#
# Mechanical properties :
#
#
# Convention : Reuss Voigt Hill
#
# Bulk Modulus (GPa) = 15.97434 52.87915 34.42674
# Shear Modulus (GPa) = 377.24190 25.46345 201.35268
#
# Velocity S-wave (km/s) = 13.25783 3.44446 9.68592
# Velocity P-wave (km/s) = 15.55002 6.36060 11.87982
#
# Compressibility (1/GPa) = 0.06260039
#
# Stress axis : x y z
#
# Youngs Moduli (GPa) = 97.49341 20.85117 77.78930
#
# Poissons Ratio (x) = 0.20615 0.55497
# Poissons Ratio (y) = 0.96388 -0.99458
# Poissons Ratio (z) = 0.69555 -0.26659
#
# Static dielectric constant tensor:
#      x y z
#    x 1.810260 0.000000 0.000000 
#    y 0.000000 1.793770 0.000000 
#    z 0.000000 0.000000 1.748330 
# 
# From -- ./inp_files/12595.got.cif
#   From: 2010.05.17/outbox.cif.g08.bks.cpg/sg51_7_cif.got.tgz:12595.got - 2010.06.03 11:52:47.
