data_PCOD9404937
_publ_section_title
;
Structure prediction by ZEFSAII (Michael W. Deem and Ramdas Pophale) SiO2 
 PCOD9404937
Probable space group: P M M A
;
_chemical_formula_sum "Si O2"
_cell_formula_units_Z 56
_cell_length_a 14.031324
_cell_length_b 8.670469
_cell_length_c 24.160275
_cell_angle_alpha 90.000000
_cell_angle_beta 90.000000
_cell_angle_gamma 90.000000
_cell_volume 2939.294596
_symmetry_space_group_name_H-M "P M M A"
_symmetry_group_IT_number 51
_symmetry_cell_setting 'orthorhombic'
loop_
_space_group_symop_operation_xyz
x,y,z
1/2-x,-y,z
1/2+x,-y,-z
-x,y,-z
-x,-y,-z
1/2+x,y,-z
1/2-x,y,z
x,-y,z
loop_
_atom_site_type_symbol
_atom_site_label
_atom_site_fract_x
_atom_site_fract_y
_atom_site_fract_z
Si Si1 0.138771 0.817620 0.650725
Si Si2 0.044767 0.316178 0.081017
Si Si3 0.133891 0.322689 0.532886
Si Si4 0.538249 0.316279 0.700711
Si Si5 0.359870 0.312167 0.412230
Si Si6 0.861695 0.184381 0.808847
Si Si7 0.859842 0.185248 0.028990
O O1 0.250000 0.777540 0.657499
O O2 0.111480 0.771390 0.587802
O O3 0.071673 0.728598 0.693206
O O4 0.127455 0.000000 0.657885
O O5 0.046993 0.500000 0.076023
O O6 0.086503 0.262657 0.139299
O O7 0.937250 0.256791 0.070586
O O8 0.107993 0.243405 0.031636
O O9 0.250000 0.326478 0.528869
O O10 0.101492 0.500000 0.541063
O O11 0.101678 0.263898 0.472582
O O12 0.549576 0.500000 0.705477
O O13 0.585990 0.264012 0.642787
O O14 0.588371 0.236694 0.752312
O O15 0.250000 0.263182 0.407361
O O16 0.361081 0.500000 0.414036
O O17 0.750000 0.227753 0.807876
O O18 0.867941 0.000000 0.814682
O O19 0.750000 0.227805 0.039818
O O20 0.867696 0.000000 0.030365
#
# Coordination Sequence:
#
# PCOD9404937 Si02
#       7
#     8   8   8   8   8   8   8
#     4  10  21  37  54  73 102 139 178 224 279 338
#     4  11  22  36  59  90 123 159 200 244 284 328
#     4   8  14  28  51  75  99 131 172 216 266 329
#     4  11  22  36  57  82 107 138 182 233 278 327
#     4   8  15  29  50  77 107 136 168 213 271 331
#     4  11  24  42  62  84 115 153 189 227 274 331
#     4  10  20  36  60  90 126 165 200 238 286 336
#
# _framework density 19.05219
#
# number of rings (size 3 to 8) (size 9 to 14) (size 15 to 20)
#    0.000    2.143    0.000    5.571    0.000    6.000 
#    0.000    5.000    0.000    7.714    0.000    0.000 
#    0.000    0.000    0.000    0.000    0.000    0.000 
#
# Total GULP energy -312816.145393 kJ/mol
# GULP energy per Si atom -5586.002596 kJ/mol
# Density = 1.900883 g / cm^3
# Si number density = 19.052190 Si / 1000 Ang^3
#
#
#
# Elastic Constant Matrix: (Units=GPa)
#
#
# Indices 1 2 3 4 5 6 
#
# 1 109.4428 32.5811 60.5064 0.0000 0.0000 0.0000
# 2 32.5811 47.9833 25.3755 0.0000 0.0000 0.0000
# 3 60.5064 25.3755 103.6384 0.0000 0.0000 0.0000
# 4 0.0000 0.0000 0.0000 37.8979 0.0000 0.0000
# 5 0.0000 0.0000 0.0000 0.0000 27.4334 0.0000
# 6 0.0000 0.0000 0.0000 0.0000 0.0000 7.8319
#
#
#
# Elastic Compliance Matrix: (Units=1/GPa)
#
#
# Indices 1 2 3 4 5 6 
#
# 1 0.015024 -0.006390 -0.007207 0.000000 0.000000 0.000000
# 2 -0.006390 0.026658 -0.002797 0.000000 0.000000 0.000000
# 3 -0.007207 -0.002797 0.014541 0.000000 0.000000 0.000000
# 4 0.000000 0.000000 0.000000 0.026387 0.000000 0.000000
# 5 0.000000 0.000000 0.000000 0.000000 0.036452 0.000000
# 6 0.000000 0.000000 0.000000 0.000000 0.000000 0.127682
#
#
# Mechanical properties :
#
#
# Convention : Reuss Voigt Hill
#
# Bulk Modulus (GPa) = 42.66810 55.33228 49.00019
# Shear Modulus (GPa) = 17.40080 24.13941 20.77010
#
# Velocity S-wave (km/s) = 3.02540 3.56338 3.30535
# Velocity P-wave (km/s) = 5.88626 6.78496 6.35153
#
# Compressibility (1/GPa) = 0.02343671
#
# Stress axis : x y z
#
# Youngs Moduli (GPa) = 66.56118 37.51158 68.77096
#
# Poissons Ratio (x) = 0.23970 0.49561
# Poissons Ratio (y) = 0.42534 0.19232
# Poissons Ratio (z) = 0.47968 0.10490
#
# Static dielectric constant tensor:
#      x y z
#    x 1.698090 0.000000 0.000000 
#    y 0.000000 1.641690 0.000000 
#    z 0.000000 0.000000 1.635570 
# 
# From -- ./inp_files/33444.got.cif
#   From: 2010.05.17/outbox.cif.g08.bks.cpg/sg51_17_cif.got.tgz:33444.got - 2010.06.03 11:52:47.
