data_PCOD9404721
_publ_section_title
;
Structure prediction by ZEFSAII (Michael W. Deem and Ramdas Pophale) SiO2 
 PCOD9404721
Probable space group: P M M A
;
_chemical_formula_sum "Si O2"
_cell_formula_units_Z 48
_cell_length_a 14.240397
_cell_length_b 11.273977
_cell_length_c 15.101851
_cell_angle_alpha 90.000000
_cell_angle_beta 90.000000
_cell_angle_gamma 90.000000
_cell_volume 2424.540385
_symmetry_space_group_name_H-M "P M M A"
_symmetry_group_IT_number 51
_symmetry_cell_setting 'orthorhombic'
loop_
_space_group_symop_operation_xyz
x,y,z
1/2-x,-y,z
1/2+x,-y,-z
-x,y,-z
-x,-y,-z
1/2+x,y,-z
1/2-x,y,z
x,-y,z
loop_
_atom_site_type_symbol
_atom_site_label
_atom_site_fract_x
_atom_site_fract_y
_atom_site_fract_z
Si Si1 0.851893 0.137506 0.274870
Si Si2 0.355242 0.730225 0.912581
Si Si3 0.490590 0.298849 0.642644
Si Si4 0.357859 0.636017 0.485496
Si Si5 0.465838 0.370360 0.160558
Si Si6 0.638228 0.863781 0.907659
O O1 0.750000 0.165866 0.316874
O O2 0.854496 0.204742 0.181812
O O3 0.939298 0.177299 0.332664
O O4 0.855286 0.000000 0.256770
O O5 0.250000 0.680382 0.928244
O O6 0.441194 0.640504 0.900890
O O7 0.373860 0.825893 0.989518
O O8 0.585722 0.288950 0.587057
O O9 0.416042 0.360071 0.576664
O O10 0.506609 0.364437 0.735581
O O11 0.250000 0.670262 0.496711
O O12 0.360994 0.500000 0.453167
O O13 0.420635 0.500000 0.143721
O O14 0.408873 0.248165 0.142423
O O15 0.750000 0.863618 0.889369
O O16 0.604038 0.000000 0.891730
#
# Coordination Sequence:
#
# PCOD9404721 Si02
#       6
#     8   8   8   8   8   8
#     4   9  17  31  54  83 113 146 185 229 277 326
#     4   9  19  35  56  82 113 150 193 238 278 320
#     4  10  20  36  56  80 110 140 178 225 275 333
#     4  10  20  36  59  81 103 136 178 223 271 330
#     4  11  23  36  55  86 121 152 183 228 289 346
#     4  10  22  40  60  81 109 151 202 246 280 323
#
# _framework density 19.797567999999998
#
# number of rings (size 3 to 8) (size 9 to 14) (size 15 to 20)
#    0.000    2.167    0.000    3.500    0.000    9.333 
#    0.000    3.333    0.000    1.500    0.000    2.333 
#    0.000    0.000    0.000    0.000    0.000    0.000 
#
# Total GULP energy -267440.441436 kJ/mol
# GULP energy per Si atom -5571.675863 kJ/mol
# Density = 1.975251 g / cm^3
# Si number density = 19.797568 Si / 1000 Ang^3
#
#
#
# Elastic Constant Matrix: (Units=GPa)
#
#
# Indices 1 2 3 4 5 6 
#
# 1 91.2401 29.8862 32.5450 0.0000 0.0000 0.0000
# 2 29.8862 91.4783 14.7453 0.0000 0.0000 0.0000
# 3 32.5450 14.7453 58.8424 0.0000 0.0000 0.0000
# 4 0.0000 0.0000 0.0000 12.4365 0.0000 0.0000
# 5 0.0000 0.0000 0.0000 0.0000 19.0822 0.0000
# 6 0.0000 0.0000 0.0000 0.0000 0.0000 14.6188
#
#
#
# Elastic Compliance Matrix: (Units=1/GPa)
#
#
# Indices 1 2 3 4 5 6 
#
# 1 0.014736 -0.003648 -0.007236 0.000000 0.000000 0.000000
# 2 -0.003648 0.012295 -0.001063 0.000000 0.000000 0.000000
# 3 -0.007236 -0.001063 0.021263 0.000000 0.000000 0.000000
# 4 0.000000 0.000000 0.000000 0.080408 0.000000 0.000000
# 5 0.000000 0.000000 0.000000 0.000000 0.052405 0.000000
# 6 0.000000 0.000000 0.000000 0.000000 0.000000 0.068405
#
#
# Mechanical properties :
#
#
# Convention : Reuss Voigt Hill
#
# Bulk Modulus (GPa) = 40.98497 43.99042 42.48769
# Shear Modulus (GPa) = 17.75942 20.18645 18.97294
#
# Velocity S-wave (km/s) = 2.99833 3.19665 3.09908
# Velocity P-wave (km/s) = 5.72133 5.99109 5.85776
#
# Compressibility (1/GPa) = 0.02439919
#
# Stress axis : x y z
#
# Youngs Moduli (GPa) = 67.86038 81.33567 47.02944
#
# Poissons Ratio (x) = 0.29671 0.34032
# Poissons Ratio (y) = 0.24755 0.05001
# Poissons Ratio (z) = 0.49105 0.08648
#
# Static dielectric constant tensor:
#      x y z
#    x 1.757990 0.000000 0.000000 
#    y 0.000000 1.698020 0.000000 
#    z 0.000000 0.000000 1.693390 
# 
# From -- ./inp_files/24050.got.cif
#   From: 2010.05.17/outbox.cif.g08.bks.cpg/sg51_13_cif.got.tgz:24050.got - 2010.06.03 11:52:47.
