data_PCOD9404551
_publ_section_title
;
Structure prediction by ZEFSAII (Michael W. Deem and Ramdas Pophale) SiO2 
 PCOD9404551
Probable space group: P M M A
;
_chemical_formula_sum "Si O2"
_cell_formula_units_Z 64
_cell_length_a 8.108911
_cell_length_b 18.139210
_cell_length_c 21.317342
_cell_angle_alpha 90.000000
_cell_angle_beta 90.000000
_cell_angle_gamma 90.000000
_cell_volume 3135.551623
_symmetry_space_group_name_H-M "P M M A"
_symmetry_group_IT_number 51
_symmetry_cell_setting 'orthorhombic'
loop_
_space_group_symop_operation_xyz
x,y,z
1/2-x,-y,z
1/2+x,-y,-z
-x,y,-z
-x,-y,-z
1/2+x,y,-z
1/2-x,y,z
x,-y,z
loop_
_atom_site_type_symbol
_atom_site_label
_atom_site_fract_x
_atom_site_fract_y
_atom_site_fract_z
Si Si1 0.449168 0.756340 0.066763
Si Si2 0.447881 0.079632 0.092163
Si Si3 0.049149 0.287180 0.204158
Si Si4 0.446742 0.419378 0.292962
Si Si5 0.060133 0.920270 0.636104
Si Si6 0.438334 0.621917 0.570596
Si Si7 0.554080 0.879659 0.764678
Si Si8 0.560843 0.216154 0.566101
O O1 0.250000 0.759591 0.069774
O O2 0.513042 0.841518 0.068263
O O3 0.503636 0.715374 0.130823
O O4 0.500000 0.723289 0.000000
O O5 0.250000 0.079178 0.080106
O O6 0.469295 0.086078 0.166984
O O7 0.515698 0.000000 0.071040
O O8 0.250000 0.290244 0.203715
O O9 0.988370 0.352710 0.249310
O O10 0.007740 0.206709 0.231492
O O11 0.250000 0.419894 0.283506
O O12 0.513194 0.500000 0.275043
O O13 0.474081 0.408562 0.367419
O O14 0.250000 0.911704 0.616277
O O15 0.046899 0.918472 0.710838
O O16 0.960378 0.849279 0.614415
O O17 0.998747 0.000000 0.613227
O O18 0.500000 0.603640 0.500000
O O19 0.250000 0.598973 0.574044
O O20 0.456102 0.710516 0.577428
O O21 0.750000 0.885112 0.750572
O O22 0.500000 0.185027 0.500000
O O23 0.750000 0.240681 0.562731
#
# Coordination Sequence:
#
# PCOD9404551 Si02
#       8
#     8   8   8   8   8   8   8   8
#     4   9  17  30  48  70  97 131 172 217 265 318
#     4   8  14  25  42  65  94 128 166 209 259 315
#     4   8  16  32  53  76 102 134 172 217 267 319
#     4  10  20  35  57  84 112 143 180 220 262 311
#     4  11  23  35  47  69 102 135 169 215 270 321
#     4  11  22  38  60  85 115 147 178 213 257 312
#     4   9  16  29  51  72  91 124 172 217 257 310
#     4  11  22  38  58  76  97 128 171 217 260 310
#
# _framework density 20.411080999999999
#
# number of rings (size 3 to 8) (size 9 to 14) (size 15 to 20)
#    0.000    2.375    0.000    6.000    0.000    3.500 
#    0.000    3.125    0.000    1.125    0.000    0.000 
#    0.000    0.000    0.000    0.000    0.000    0.000 
#
# Total GULP energy -356961.885142 kJ/mol
# GULP energy per Si atom -5577.529455 kJ/mol
# Density = 2.036462 g / cm^3
# Si number density = 20.411081 Si / 1000 Ang^3
#
#
#
# Elastic Constant Matrix: (Units=GPa)
#
#
# Indices 1 2 3 4 5 6 
#
# 1 17.9645 6.3923 -2.0602 0.0000 0.0000 0.0000
# 2 6.3923 101.4688 55.4534 0.0000 0.0000 0.0000
# 3 -2.0602 55.4534 92.0541 0.0000 0.0000 0.0000
# 4 0.0000 0.0000 0.0000 14.5475 0.0000 0.0000
# 5 0.0000 0.0000 0.0000 0.0000 24.2804 0.0000
# 6 0.0000 0.0000 0.0000 0.0000 0.0000 0.4591
#
#
#
# Elastic Compliance Matrix: (Units=1/GPa)
#
#
# Indices 1 2 3 4 5 6 
#
# 1 0.058609 -0.006573 0.005271 0.000000 0.000000 0.000000
# 2 -0.006573 0.015429 -0.009442 0.000000 0.000000 0.000000
# 3 0.005271 -0.009442 0.016669 0.000000 0.000000 0.000000
# 4 0.000000 0.000000 0.000000 0.068740 0.000000 0.000000
# 5 0.000000 0.000000 0.000000 0.000000 0.041185 0.000000
# 6 0.000000 0.000000 0.000000 0.000000 0.000000 2.178026
#
#
# Mechanical properties :
#
#
# Convention : Reuss Voigt Hill
#
# Bulk Modulus (GPa) = 14.44673 36.78427 25.61550
# Shear Modulus (GPa) = 2.06337 17.97087 10.01712
#
# Velocity S-wave (km/s) = 1.00653 2.97045 2.21773
# Velocity P-wave (km/s) = 2.90587 5.46128 4.37434
#
# Compressibility (1/GPa) = 0.06921980
#
# Stress axis : x y z
#
# Youngs Moduli (GPa) = 17.06236 64.81177 59.99213
#
# Poissons Ratio (x) = 0.42600 -0.31623
# Poissons Ratio (y) = 0.11215 0.56643
# Poissons Ratio (z) = -0.08994 0.61193
#
# Static dielectric constant tensor:
#      x y z
#    x 1.719500 0.000000 0.000000 
#    y 0.000000 1.750140 0.000000 
#    z 0.000000 0.000000 1.757070 
# 
# From -- ./inp_files/32330.got.cif
#   From: 2010.05.17/outbox.cif.g08.bks.cpg/sg51_17_cif.got.tgz:32330.got - 2010.06.03 11:52:47.
