data_PCOD9404324
_publ_section_title
;
Structure prediction by ZEFSAII (Michael W. Deem and Ramdas Pophale) SiO2 
 PCOD9404324
Probable space group: P M M A
;
_chemical_formula_sum "Si O2"
_cell_formula_units_Z 64
_cell_length_a 9.258149
_cell_length_b 24.652862
_cell_length_c 15.338745
_cell_angle_alpha 90.000000
_cell_angle_beta 90.000000
_cell_angle_gamma 90.000000
_cell_volume 3500.913160
_symmetry_space_group_name_H-M "P M M A"
_symmetry_group_IT_number 51
_symmetry_cell_setting 'orthorhombic'
loop_
_space_group_symop_operation_xyz
x,y,z
1/2-x,-y,z
1/2+x,-y,-z
-x,y,-z
-x,-y,-z
1/2+x,y,-z
1/2-x,y,z
x,-y,z
loop_
_atom_site_type_symbol
_atom_site_label
_atom_site_fract_x
_atom_site_fract_y
_atom_site_fract_z
Si Si1 0.079843 0.563494 0.761689
Si Si2 0.076543 0.652291 0.906281
Si Si3 0.416557 0.722416 0.587705
Si Si4 0.079731 0.143687 0.241347
Si Si5 0.586338 0.854478 0.415300
Si Si6 0.914428 0.433827 0.586777
Si Si7 0.077233 0.061679 0.091709
Si Si8 0.078460 0.273000 0.232561
O O1 0.250000 0.568513 0.740897
O O2 0.048461 0.500000 0.777046
O O3 0.051386 0.598535 0.847602
O O4 0.991225 0.581884 0.676874
O O5 0.250000 0.659913 0.915182
O O6 0.003780 0.698913 0.847328
O O7 0.000000 0.649174 0.000000
O O8 0.500000 0.705114 0.500000
O O9 0.250000 0.703129 0.590770
O O10 0.411949 0.788375 0.584056
O O11 0.503876 0.709784 0.676079
O O12 0.250000 0.134424 0.256340
O O13 0.032498 0.106726 0.161075
O O14 0.062253 0.207908 0.224777
O O15 0.992692 0.129017 0.327429
O O16 0.500000 0.872385 0.500000
O O17 0.750000 0.873347 0.417837
O O18 0.750000 0.414546 0.583956
O O19 0.912866 0.500000 0.586671
O O20 0.000000 0.417683 0.500000
O O21 0.250000 0.065785 0.079883
O O22 0.045569 0.000000 0.121475
O O23 0.000000 0.070051 0.000000
O O24 0.250000 0.285636 0.233067
#
# Coordination Sequence:
#
# PCOD9404324 Si02
#       8
#     8   8   8   8   8   8   8   8
#     4   9  19  37  59  81 105 134 170 212 256 304
#     4  11  24  41  59  78 103 135 171 214 264 313
#     4   9  16  28  48  75 106 139 174 211 254 303
#     4   9  18  32  51  76 104 136 173 211 253 303
#     4   9  16  26  44  71 102 136 172 211 253 299
#     4   9  16  27  48  79 112 143 172 204 246 298
#     4   9  18  33  52  74 101 132 167 211 261 308
#     4  10  20  35  54  77 107 140 174 212 255 306
#
# _framework density 18.280944000000002
#
# number of rings (size 3 to 8) (size 9 to 14) (size 15 to 20)
#    0.000    2.625    0.000    1.875    0.000    7.250 
#    0.000    1.875    0.000    3.375    0.000    0.000 
#    0.000    0.000    0.000    0.000    0.000    0.000 
#
# Total GULP energy -357213.123013 kJ/mol
# GULP energy per Si atom -5581.455047 kJ/mol
# Density = 1.823934 g / cm^3
# Si number density = 18.280944 Si / 1000 Ang^3
#
#
#
# Elastic Constant Matrix: (Units=GPa)
#
#
# Indices 1 2 3 4 5 6 
#
# 1 123.6529 51.0173 109.7544 0.0000 0.0000 0.0000
# 2 51.0173 60.1451 60.6302 0.0000 0.0000 0.0000
# 3 109.7544 60.6302 186.8941 0.0000 0.0000 0.0000
# 4 0.0000 0.0000 0.0000 88.2522 0.0000 0.0000
# 5 0.0000 0.0000 0.0000 0.0000 39.7377 0.0000
# 6 0.0000 0.0000 0.0000 0.0000 0.0000 15.0470
#
#
#
# Elastic Compliance Matrix: (Units=1/GPa)
#
#
# Indices 1 2 3 4 5 6 
#
# 1 0.018751 -0.007140 -0.008695 0.000000 0.000000 0.000000
# 2 -0.007140 0.027425 -0.004704 0.000000 0.000000 0.000000
# 3 -0.008695 -0.004704 0.011983 0.000000 0.000000 0.000000
# 4 0.000000 0.000000 0.000000 0.011331 0.000000 0.000000
# 5 0.000000 0.000000 0.000000 0.000000 0.025165 0.000000
# 6 0.000000 0.000000 0.000000 0.000000 0.000000 0.066459
#
#
# Mechanical properties :
#
#
# Convention : Reuss Voigt Hill
#
# Bulk Modulus (GPa) = 58.54666 90.38845 74.46756
# Shear Modulus (GPa) = 24.05181 38.56006 31.30593
#
# Velocity S-wave (km/s) = 3.63116 4.59770 4.14271
# Velocity P-wave (km/s) = 7.04812 8.81683 7.98162
#
# Compressibility (1/GPa) = 0.01708039
#
# Stress axis : x y z
#
# Youngs Moduli (GPa) = 53.33081 36.46373 83.45148
#
# Poissons Ratio (x) = 0.26034 0.72564
# Poissons Ratio (y) = 0.38077 0.39255
# Poissons Ratio (z) = 0.46373 0.17152
#
# Static dielectric constant tensor:
#      x y z
#    x 1.618650 0.000000 0.000000 
#    y 0.000000 1.648470 0.000000 
#    z 0.000000 0.000000 1.585280 
# 
# From -- ./inp_files/14863.got.cif
#   From: 2010.05.17/outbox.cif.g08.bks.cpg/sg51_8_cif.got.tgz:14863.got - 2010.06.03 11:52:47.
