data_PCOD9404713
_publ_section_title
;
Structure prediction by ZEFSAII (Michael W. Deem and Ramdas Pophale) SiO2 
 PCOD9404713
Probable space group: P M M A
;
_chemical_formula_sum "Si O2"
_cell_formula_units_Z 36
_cell_length_a 9.822351
_cell_length_b 7.679475
_cell_length_c 25.975910
_cell_angle_alpha 90.000000
_cell_angle_beta 90.000000
_cell_angle_gamma 90.000000
_cell_volume 1959.375852
_symmetry_space_group_name_H-M "P M M A"
_symmetry_group_IT_number 51
_symmetry_cell_setting 'orthorhombic'
loop_
_space_group_symop_operation_xyz
x,y,z
1/2-x,-y,z
1/2+x,-y,-z
-x,y,-z
-x,-y,-z
1/2+x,y,-z
1/2-x,y,z
x,-y,z
loop_
_atom_site_type_symbol
_atom_site_label
_atom_site_fract_x
_atom_site_fract_y
_atom_site_fract_z
Si Si1 0.592628 0.212540 0.338129
Si Si2 0.584636 0.000000 0.947696
Si Si3 0.092612 0.787409 0.546885
Si Si4 0.584900 0.306870 0.870319
Si Si5 0.593084 0.789150 0.755907
O O1 0.750000 0.264338 0.331013
O O2 0.548532 0.266687 0.395629
O O3 0.497882 0.272238 0.291656
O O4 0.590168 0.000000 0.337676
O O5 0.546834 0.165338 0.912417
O O6 0.750000 0.000000 0.956005
O O7 0.500000 0.000000 0.000000
O O8 0.250000 0.736515 0.540026
O O9 0.000000 0.725888 0.500000
O O10 0.089395 0.000000 0.546442
O O11 0.750000 0.300780 0.867830
O O12 0.541897 0.500000 0.885217
O O13 0.540086 0.266984 0.811975
O O14 0.750000 0.731319 0.750232
O O15 0.593764 0.000000 0.755829
#
# Coordination Sequence:
#
# PCOD9404713 Si02
#       5
#     8   4   8   8   8
#     4   8  14  23  34  52  80 115 150 187 239 293
#     4  10  20  36  56  78 104 134 167 200 237 282
#     4   8  13  20  29  43  69 106 147 188 231 280
#     4   9  17  31  52  75 100 131 164 200 242 284
#     4   9  15  25  43  65  86 112 153 197 231 275
#
# _framework density 18.373199
#
# number of rings (size 3 to 8) (size 9 to 14) (size 15 to 20)
#    0.000    3.333    1.111    1.333    0.000    1.333 
#    0.000    5.556    0.000    2.000    0.000    0.000 
#    0.000    0.889    0.000    2.000    0.000    4.000 
#
# Total GULP energy -200603.624361 kJ/mol
# GULP energy per Si atom -5572.322899 kJ/mol
# Density = 1.833138 g / cm^3
# Si number density = 18.373199 Si / 1000 Ang^3
#
#
#
# Elastic Constant Matrix: (Units=GPa)
#
#
# Indices 1 2 3 4 5 6 
#
# 1 51.0922 25.2425 84.8154 0.0000 0.0000 0.0000
# 2 25.2425 68.1308 59.7435 0.0000 0.0000 0.0000
# 3 84.8154 59.7435 217.6247 0.0000 0.0000 0.0000
# 4 0.0000 0.0000 0.0000 -12.9430 0.0000 0.0000
# 5 0.0000 0.0000 0.0000 0.0000 41.1849 0.0000
# 6 0.0000 0.0000 0.0000 0.0000 0.0000 -1.4097
#
#
#
# Elastic Compliance Matrix: (Units=1/GPa)
#
#
# Indices 1 2 3 4 5 6 
#
# 1 0.055671 -0.002108 -0.021118 0.000000 0.000000 0.000000
# 2 -0.002108 0.019411 -0.004507 0.000000 0.000000 0.000000
# 3 -0.021118 -0.004507 0.014063 0.000000 0.000000 0.000000
# 4 0.000000 0.000000 0.000000 -0.077262 0.000000 0.000000
# 5 0.000000 0.000000 0.000000 0.000000 0.024281 0.000000
# 6 0.000000 0.000000 0.000000 0.000000 0.000000 -0.709394
#
#
# Mechanical properties :
#
#
# Convention : Reuss Voigt Hill
#
# Bulk Modulus (GPa) = 29.69268 75.16114 52.42691
# Shear Modulus (GPa) = -8.24351 16.50286 4.12967
#
# Velocity S-wave (km/s) = -2.12048 3.00025 1.50085
# Velocity P-wave (km/s) = 3.19385 7.28003 5.62137
#
# Compressibility (1/GPa) = 0.03367833
#
# Stress axis : x y z
#
# Youngs Moduli (GPa) = 17.96274 51.51705 71.10931
#
# Poissons Ratio (x) = 0.10858 1.50169
# Poissons Ratio (y) = 0.03786 0.32052
# Poissons Ratio (z) = 0.37934 0.23221
#
# Static dielectric constant tensor:
#      x y z
#    x 1.606870 0.000000 0.000000 
#    y 0.000000 1.695270 0.000000 
#    z 0.000000 0.000000 1.615880 
# 
# From -- ./inp_files/32768.got.cif
#   From: 2010.05.17/outbox.cif.g08.bks.cpg/sg51_17_cif.got.tgz:32768.got - 2010.06.03 11:52:47.
