data_PCOD9404085
_publ_section_title
;
Structure prediction by ZEFSAII (Michael W. Deem and Ramdas Pophale) SiO2 
 PCOD9404085
Probable space group: P M M A
;
_chemical_formula_sum "Si O2"
_cell_formula_units_Z 44
_cell_length_a 8.898368
_cell_length_b 15.609390
_cell_length_c 18.110307
_cell_angle_alpha 90.000000
_cell_angle_beta 90.000000
_cell_angle_gamma 90.000000
_cell_volume 2515.487169
_symmetry_space_group_name_H-M "P M M A"
_symmetry_group_IT_number 51
_symmetry_cell_setting 'orthorhombic'
loop_
_space_group_symop_operation_xyz
x,y,z
1/2-x,-y,z
1/2+x,-y,-z
-x,y,-z
-x,-y,-z
1/2+x,y,-z
1/2-x,y,z
x,-y,z
loop_
_atom_site_type_symbol
_atom_site_label
_atom_site_fract_x
_atom_site_fract_y
_atom_site_fract_z
Si Si1 0.428306 0.850770 0.923052
Si Si2 0.430891 0.597011 0.419020
Si Si3 0.071193 0.330783 0.856097
Si Si4 0.069714 0.097846 0.757939
Si Si5 0.069215 0.734868 0.295651
Si Si6 0.928274 0.500000 0.919794
O O1 0.250000 0.865212 0.928069
O O2 0.456281 0.749217 0.910982
O O3 0.478265 0.890905 0.844374
O O4 0.500000 0.880048 0.000000
O O5 0.500000 0.608666 0.500000
O O6 0.250000 0.598607 0.424581
O O7 0.472871 0.500000 0.393033
O O8 0.474722 0.673468 0.363769
O O9 0.250000 0.344330 0.853087
O O10 0.008123 0.303573 0.777019
O O11 0.986990 0.415371 0.880269
O O12 0.250000 0.114618 0.756678
O O13 0.988336 0.167231 0.706472
O O14 0.043093 0.000000 0.735902
O O15 0.250000 0.733160 0.289221
O O16 0.750000 0.500000 0.923984
O O17 0.000000 0.500000 0.000000
#
# Coordination Sequence:
#
# PCOD9404085 Si02
#       6
#     8   8   8   8   8   4
#     4   9  18  31  48  69  96 128 168 217 267 317
#     4   9  19  35  55  82 115 146 174 207 254 311
#     4  10  21  36  51  71  99 137 182 221 262 320
#     4   9  19  36  54  73 102 140 180 223 272 326
#     4  10  20  34  55  82 110 139 173 220 269 314
#     4  12  24  36  50  70  99 136 179 228 276 320
#
# _framework density 17.491643
#
# number of rings (size 3 to 8) (size 9 to 14) (size 15 to 20)
#    0.000    2.364    0.000    3.545    1.273    7.273 
#    0.000    0.000    0.000    0.545    0.000    0.000 
#    0.000    0.000    0.000    0.000    0.000    0.000 
#
# Total GULP energy -245386.530082 kJ/mol
# GULP energy per Si atom -5576.966593 kJ/mol
# Density = 1.745183 g / cm^3
# Si number density = 17.491643 Si / 1000 Ang^3
#
#
#
# Elastic Constant Matrix: (Units=GPa)
#
#
# Indices 1 2 3 4 5 6 
#
# 1 50.0453 51.5705 26.8104 0.0000 0.0000 0.0000
# 2 51.5705 116.1343 48.9442 0.0000 0.0000 0.0000
# 3 26.8104 48.9442 77.4488 0.0000 0.0000 0.0000
# 4 0.0000 0.0000 0.0000 13.2538 0.0000 0.0000
# 5 0.0000 0.0000 0.0000 0.0000 28.9867 0.0000
# 6 0.0000 0.0000 0.0000 0.0000 0.0000 26.1563
#
#
#
# Elastic Compliance Matrix: (Units=1/GPa)
#
#
# Indices 1 2 3 4 5 6 
#
# 1 0.037465 -0.015226 -0.003347 0.000000 0.000000 0.000000
# 2 -0.015226 0.017925 -0.006057 0.000000 0.000000 0.000000
# 3 -0.003347 -0.006057 0.017898 0.000000 0.000000 0.000000
# 4 0.000000 0.000000 0.000000 0.075450 0.000000 0.000000
# 5 0.000000 0.000000 0.000000 0.000000 0.034499 0.000000
# 6 0.000000 0.000000 0.000000 0.000000 0.000000 0.038232
#
#
# Mechanical properties :
#
#
# Convention : Reuss Voigt Hill
#
# Bulk Modulus (GPa) = 41.61825 55.36429 48.49127
# Shear Modulus (GPa) = 17.93803 21.43292 19.68548
#
# Velocity S-wave (km/s) = 3.20585 3.50426 3.35837
# Velocity P-wave (km/s) = 6.12766 6.93496 6.54377
#
# Compressibility (1/GPa) = 0.02402792
#
# Stress axis : x y z
#
# Youngs Moduli (GPa) = 26.69139 55.78920 55.87217
#
# Poissons Ratio (x) = 0.84946 0.18701
# Poissons Ratio (y) = 0.40641 0.33840
# Poissons Ratio (z) = 0.08934 0.33790
#
# Static dielectric constant tensor:
#      x y z
#    x 1.583840 0.000000 0.000000 
#    y 0.000000 1.636980 0.000000 
#    z 0.000000 0.000000 1.561310 
# 
# From -- ./inp_files/27346.got.cif
#   From: 2010.05.17/outbox.cif.g08.bks.cpg/sg51_14_cif.got.tgz:27346.got - 2010.06.03 11:52:47.
