data_PCOD9404014
_publ_section_title
;
Structure prediction by ZEFSAII (Michael W. Deem and Ramdas Pophale) SiO2 
 PCOD9404014
Probable space group: P M M A
;
_chemical_formula_sum "Si O2"
_cell_formula_units_Z 48
_cell_length_a 17.316883
_cell_length_b 16.378100
_cell_length_c 8.279160
_cell_angle_alpha 90.000000
_cell_angle_beta 90.000000
_cell_angle_gamma 90.000000
_cell_volume 2348.115832
_symmetry_space_group_name_H-M "P M M A"
_symmetry_group_IT_number 51
_symmetry_cell_setting 'orthorhombic'
loop_
_space_group_symop_operation_xyz
x,y,z
1/2-x,-y,z
1/2+x,-y,-z
-x,y,-z
-x,-y,-z
1/2+x,y,-z
1/2-x,y,z
x,-y,z
loop_
_atom_site_type_symbol
_atom_site_label
_atom_site_fract_x
_atom_site_fract_y
_atom_site_fract_z
Si Si1 0.537614 0.352343 0.832089
Si Si2 0.835378 0.247690 0.001839
Si Si3 0.841709 0.911735 0.849327
Si Si4 0.109006 0.272740 0.656725
Si Si5 0.839571 0.589425 0.592045
Si Si6 0.592011 0.905918 0.496206
O O1 0.474093 0.308318 0.717845
O O2 0.594164 0.409295 0.728847
O O3 0.500000 0.385973 0.000000
O O4 0.597596 0.285852 0.897045
O O5 0.750000 0.262452 0.934051
O O6 0.840109 0.278895 0.182477
O O7 0.852481 0.151954 0.991442
O O8 0.750000 0.915486 0.820660
O O9 0.878466 0.889612 0.678089
O O10 0.871783 0.000000 0.896614
O O11 0.140929 0.333851 0.521467
O O12 0.109940 0.177554 0.602493
O O13 0.750000 0.596302 0.648761
O O14 0.845205 0.500000 0.508890
O O15 0.500000 0.910615 0.500000
O O16 0.619646 0.000000 0.451204
#
# Coordination Sequence:
#
# PCOD9404014 Si02
#       6
#     8   8   8   8   8   8
#     4  10  22  39  61  87 117 154 197 240 288 344
#     4  10  20  35  56  81 113 155 198 244 298 350
#     4   9  18  32  50  74 107 150 198 243 289 344
#     4  11  22  37  59  89 121 155 197 246 296 349
#     4  11  24  42  65  91 119 154 193 236 293 355
#     4  10  20  34  54  81 113 151 195 242 293 350
#
# _framework density 20.441922000000002
#
# number of rings (size 3 to 8) (size 9 to 14) (size 15 to 20)
#    0.000    1.833    0.000    4.500    0.000    5.000 
#    0.000    2.500    0.000   15.000    0.000    0.000 
#    0.000    0.000    0.000    0.000    0.000    0.000 
#
# Total GULP energy -267332.256775 kJ/mol
# GULP energy per Si atom -5569.422016 kJ/mol
# Density = 2.039540 g / cm^3
# Si number density = 20.441922 Si / 1000 Ang^3
#
#
#
# Elastic Constant Matrix: (Units=GPa)
#
#
# Indices 1 2 3 4 5 6 
#
# 1 81.3525 38.7968 23.8073 0.0000 0.0000 0.0000
# 2 38.7968 113.1542 49.5834 0.0000 0.0000 0.0000
# 3 23.8073 49.5834 57.8043 0.0000 0.0000 0.0000
# 4 0.0000 0.0000 0.0000 10.2999 0.0000 0.0000
# 5 0.0000 0.0000 0.0000 0.0000 8.5565 0.0000
# 6 0.0000 0.0000 0.0000 0.0000 0.0000 118.1281
#
#
#
# Elastic Compliance Matrix: (Units=1/GPa)
#
#
# Indices 1 2 3 4 5 6 
#
# 1 0.014978 -0.003897 -0.002826 0.000000 0.000000 0.000000
# 2 -0.003897 0.015174 -0.011411 0.000000 0.000000 0.000000
# 3 -0.002826 -0.011411 0.028252 0.000000 0.000000 0.000000
# 4 0.000000 0.000000 0.000000 0.097088 0.000000 0.000000
# 5 0.000000 0.000000 0.000000 0.000000 0.116870 0.000000
# 6 0.000000 0.000000 0.000000 0.000000 0.000000 0.008465
#
#
# Mechanical properties :
#
#
# Convention : Reuss Voigt Hill
#
# Bulk Modulus (GPa) = 45.17608 52.96512 49.07060
# Shear Modulus (GPa) = 15.40964 36.73846 26.07405
#
# Velocity S-wave (km/s) = 2.74857 4.24395 3.57531
# Velocity P-wave (km/s) = 5.67631 7.06973 6.41099
#
# Compressibility (1/GPa) = 0.02213561
#
# Stress axis : x y z
#
# Youngs Moduli (GPa) = 66.76603 65.90320 35.39634
#
# Poissons Ratio (x) = 0.25683 0.10003
# Poissons Ratio (y) = 0.26019 0.40390
# Poissons Ratio (z) = 0.18867 0.75200
#
# Static dielectric constant tensor:
#      x y z
#    x 1.707210 0.000000 0.000000 
#    y 0.000000 1.768330 0.000000 
#    z 0.000000 0.000000 1.731740 
# 
# From -- ./inp_files/8276.got.cif
#   From: 2010.05.17/outbox.cif.g08.bks.cpg/sg51_5_cif.got.tgz:8276.got - 2010.06.03 11:52:47.
