data_PCOD9404953
_publ_section_title
;
Structure prediction by ZEFSAII (Michael W. Deem and Ramdas Pophale) SiO2 
 PCOD9404953
Probable space group: P M M A
;
_chemical_formula_sum "Si O2"
_cell_formula_units_Z 48
_cell_length_a 15.769985
_cell_length_b 15.511040
_cell_length_c 9.267341
_cell_angle_alpha 90.000000
_cell_angle_beta 90.000000
_cell_angle_gamma 90.000000
_cell_volume 2266.873793
_symmetry_space_group_name_H-M "P M M A"
_symmetry_group_IT_number 51
_symmetry_cell_setting 'orthorhombic'
loop_
_space_group_symop_operation_xyz
x,y,z
1/2-x,-y,z
1/2+x,-y,-z
-x,y,-z
-x,-y,-z
1/2+x,y,-z
1/2-x,y,z
x,-y,z
loop_
_atom_site_type_symbol
_atom_site_label
_atom_site_fract_x
_atom_site_fract_y
_atom_site_fract_z
Si Si1 0.991716 0.166485 0.155810
Si Si2 0.414684 0.601005 0.566573
Si Si3 0.250000 0.394165 0.400609
Si Si4 0.750000 0.604586 0.936650
Si Si5 0.847184 0.896445 0.690847
Si Si6 0.158061 0.102977 0.645474
Si Si7 0.424947 0.358722 0.900791
O O1 0.921733 0.127191 0.260068
O O2 0.957415 0.262230 0.128369
O O3 0.083909 0.158712 0.225473
O O4 0.000000 0.122203 0.000000
O O5 0.500000 0.640866 0.500000
O O6 0.414929 0.500000 0.526551
O O7 0.332114 0.637678 0.487832
O O8 0.413679 0.604735 0.739518
O O9 0.250000 0.500000 0.403697
O O10 0.250000 0.369910 0.232335
O O11 0.750000 0.500000 0.944216
O O12 0.835832 0.635938 0.015276
O O13 0.750000 0.882525 0.737958
O O14 0.852964 0.873668 0.521847
O O15 0.864899 0.000000 0.705511
O O16 0.250000 0.137739 0.696674
O O17 0.163361 0.000000 0.647488
O O18 0.500000 0.398995 0.000000
#
# Coordination Sequence:
#
# PCOD9404953 Si02
#       7
#     8   8   4   4   8   8   8
#     4  11  24  38  56  87 130 172 200 258 310 375
#     4  10  20  36  61  89 120 151 200 266 313 364
#     4   9  19  37  63  97 119 145 200 271 326 360
#     4  11  23  43  71  91 120 167 218 267 319 384
#     4   9  19  39  66  94 121 161 221 271 312 369
#     4   9  19  37  63  91 122 166 216 267 313 366
#     4  11  25  42  60  91 130 176 207 252 316 394
#
# _framework density 21.174537000000001
#
# number of rings (size 3 to 8) (size 9 to 14) (size 15 to 20)
#    0.000    2.000    0.000    4.000    1.167    8.000 
#    4.500    1.667    0.000    0.000    0.000    0.000 
#    0.000    0.000    0.000    0.000    0.000    0.000 
#
# Total GULP energy -268030.926899 kJ/mol
# GULP energy per Si atom -5583.977644 kJ/mol
# Density = 2.112634 g / cm^3
# Si number density = 21.174537 Si / 1000 Ang^3
#
#
#
# Elastic Constant Matrix: (Units=GPa)
#
#
# Indices 1 2 3 4 5 6 
#
# 1 225.1773 37.2361 113.8115 0.0000 0.0000 0.0000
# 2 37.2361 33.8956 27.0446 0.0000 0.0000 0.0000
# 3 113.8115 27.0446 113.7720 0.0000 0.0000 0.0000
# 4 0.0000 0.0000 0.0000 185.7586 0.0000 0.0000
# 5 0.0000 0.0000 0.0000 0.0000 126.9958 0.0000
# 6 0.0000 0.0000 0.0000 0.0000 0.0000 14.6761
#
#
#
# Elastic Compliance Matrix: (Units=1/GPa)
#
#
# Indices 1 2 3 4 5 6 
#
# 1 0.009298 -0.003447 -0.008482 0.000000 0.000000 0.000000
# 2 -0.003447 0.037685 -0.005510 0.000000 0.000000 0.000000
# 3 -0.008482 -0.005510 0.018584 0.000000 0.000000 0.000000
# 4 0.000000 0.000000 0.000000 0.005383 0.000000 0.000000
# 5 0.000000 0.000000 0.000000 0.000000 0.007874 0.000000
# 6 0.000000 0.000000 0.000000 0.000000 0.000000 0.068138
#
#
# Mechanical properties :
#
#
# Convention : Reuss Voigt Hill
#
# Bulk Modulus (GPa) = 32.58413 81.00323 56.79368
# Shear Modulus (GPa) = 26.03220 78.46963 52.25091
#
# Velocity S-wave (km/s) = 3.51010 6.09417 4.97291
# Velocity P-wave (km/s) = 5.64353 9.37319 7.73648
#
# Compressibility (1/GPa) = 0.03068979
#
# Stress axis : x y z
#
# Youngs Moduli (GPa) = 107.55177 26.53558 53.80971
#
# Poissons Ratio (x) = 0.09146 0.45640
# Poissons Ratio (y) = 0.37071 0.29650
# Poissons Ratio (z) = 0.91223 0.14621
#
# Static dielectric constant tensor:
#      x y z
#    x 1.728450 0.000000 0.000000 
#    y 0.000000 1.822970 0.000000 
#    z 0.000000 0.000000 1.770880 
# 
# From -- ./inp_files/8316.got.cif
#   From: 2010.05.17/outbox.cif.g08.bks.cpg/sg51_5_cif.got.tgz:8316.got - 2010.06.03 11:52:47.
