data_PCOD9404090
_publ_section_title
;
Structure prediction by ZEFSAII (Michael W. Deem and Ramdas Pophale) SiO2 
 PCOD9404090
Probable space group: P M M A
;
_chemical_formula_sum "Si O2"
_cell_formula_units_Z 64
_cell_length_a 9.352878
_cell_length_b 25.330660
_cell_length_c 14.734544
_cell_angle_alpha 90.000000
_cell_angle_beta 90.000000
_cell_angle_gamma 90.000000
_cell_volume 3490.828195
_symmetry_space_group_name_H-M "P M M A"
_symmetry_group_IT_number 51
_symmetry_cell_setting 'orthorhombic'
loop_
_space_group_symop_operation_xyz
x,y,z
1/2-x,-y,z
1/2+x,-y,-z
-x,y,-z
-x,-y,-z
1/2+x,y,-z
1/2-x,y,z
x,-y,z
loop_
_atom_site_type_symbol
_atom_site_label
_atom_site_fract_x
_atom_site_fract_y
_atom_site_fract_z
Si Si1 0.916761 0.770746 0.091132
Si Si2 0.580702 0.061455 0.731800
Si Si3 0.420955 0.846750 0.404568
Si Si4 0.079732 0.748502 0.273461
Si Si5 0.919857 0.348904 0.593656
Si Si6 0.580002 0.437849 0.730031
Si Si7 0.914223 0.435523 0.088797
Si Si8 0.416857 0.898659 0.908746
O O1 0.750000 0.756384 0.086326
O O2 0.925756 0.834806 0.097239
O O3 0.992006 0.748714 0.180822
O O4 0.000000 0.754710 0.000000
O O5 0.750000 0.070257 0.750776
O O6 0.542426 0.099162 0.647755
O O7 0.491494 0.077447 0.820273
O O8 0.559744 0.000000 0.710830
O O9 0.500000 0.841301 0.500000
O O10 0.250000 0.845147 0.419836
O O11 0.456245 0.799436 0.335011
O O12 0.250000 0.750717 0.253365
O O13 0.050905 0.697511 0.334757
O O14 0.750000 0.349143 0.576656
O O15 0.959925 0.403427 0.643110
O O16 0.000000 0.340691 0.500000
O O17 0.750000 0.430655 0.746634
O O18 0.554361 0.500000 0.715742
O O19 0.493953 0.420169 0.818937
O O20 0.750000 0.418218 0.086996
O O21 0.914648 0.500000 0.087127
O O22 0.000000 0.417676 0.000000
O O23 0.250000 0.913207 0.913836
O O24 0.500000 0.914939 0.000000
#
# Coordination Sequence:
#
# PCOD9404090 Si02
#       8
#     8   8   8   8   8   8   8   8
#     4  10  20  34  57  87 115 145 180 219 266 323
#     4  10  21  37  55  77 108 145 184 226 272 322
#     4  10  21  36  56  79 104 137 177 223 274 323
#     4  10  20  37  59  82 110 142 178 223 271 321
#     4  10  22  38  57  82 110 143 182 227 278 325
#     4   9  18  34  54  77 109 147 185 225 270 322
#     4   9  16  27  47  76 107 140 179 221 265 315
#     4  10  20  34  55  82 111 144 181 221 267 322
#
# _framework density 18.333758
#
# number of rings (size 3 to 8) (size 9 to 14) (size 15 to 20)
#    0.000    2.250    1.250    1.500    0.000    5.500 
#    0.000    0.625    0.000    0.000    0.000    0.000 
#    0.000    0.000    0.000    0.000    0.000    0.000 
#
# Total GULP energy -357344.957027 kJ/mol
# GULP energy per Si atom -5583.514954 kJ/mol
# Density = 1.829203 g / cm^3
# Si number density = 18.333758 Si / 1000 Ang^3
#
#
#
# Elastic Constant Matrix: (Units=GPa)
#
#
# Indices 1 2 3 4 5 6 
#
# 1 87.6945 47.3655 90.8054 0.0000 0.0000 0.0000
# 2 47.3655 42.8639 52.8156 0.0000 0.0000 0.0000
# 3 90.8054 52.8156 169.7839 0.0000 0.0000 0.0000
# 4 0.0000 0.0000 0.0000 9.0135 0.0000 0.0000
# 5 0.0000 0.0000 0.0000 0.0000 42.0136 0.0000
# 6 0.0000 0.0000 0.0000 0.0000 0.0000 11.8269
#
#
#
# Elastic Compliance Matrix: (Units=1/GPa)
#
#
# Indices 1 2 3 4 5 6 
#
# 1 0.039522 -0.028584 -0.012246 0.000000 0.000000 0.000000
# 2 -0.028584 0.058502 -0.002911 0.000000 0.000000 0.000000
# 3 -0.012246 -0.002911 0.013345 0.000000 0.000000 0.000000
# 4 0.000000 0.000000 0.000000 0.110944 0.000000 0.000000
# 5 0.000000 0.000000 0.000000 0.000000 0.023802 0.000000
# 6 0.000000 0.000000 0.000000 0.000000 0.000000 0.084553
#
#
# Mechanical properties :
#
#
# Convention : Reuss Voigt Hill
#
# Bulk Modulus (GPa) = 41.86259 75.81280 58.83770
# Shear Modulus (GPa) = 11.73397 19.86121 15.79759
#
# Velocity S-wave (km/s) = 2.53261 3.29494 2.93860
# Velocity P-wave (km/s) = 5.60672 7.47775 6.60879
#
# Compressibility (1/GPa) = 0.02388768
#
# Stress axis : x y z
#
# Youngs Moduli (GPa) = 25.30216 17.09331 74.93487
#
# Poissons Ratio (x) = 0.48859 0.91765
# Poissons Ratio (y) = 0.72323 0.21815
# Poissons Ratio (z) = 0.30985 0.04976
#
# Static dielectric constant tensor:
#      x y z
#    x 1.613060 0.000000 0.000000 
#    y 0.000000 1.647660 0.000000 
#    z 0.000000 0.000000 1.581400 
# 
# From -- ./inp_files/22255.got.cif
#   From: 2010.05.17/outbox.cif.g08.bks.cpg/sg51_12_cif.got.tgz:22255.got - 2010.06.03 11:52:47.
