data_PCOD9404431
_publ_section_title
;
Structure prediction by ZEFSAII (Michael W. Deem and Ramdas Pophale) SiO2 
 PCOD9404431
Probable space group: P M M A
;
_chemical_formula_sum "Si O2"
_cell_formula_units_Z 64
_cell_length_a 19.813975
_cell_length_b 7.824322
_cell_length_c 19.876960
_cell_angle_alpha 90.000000
_cell_angle_beta 90.000000
_cell_angle_gamma 90.000000
_cell_volume 3081.543406
_symmetry_space_group_name_H-M "P M M A"
_symmetry_group_IT_number 51
_symmetry_cell_setting 'orthorhombic'
loop_
_space_group_symop_operation_xyz
x,y,z
1/2-x,-y,z
1/2+x,-y,-z
-x,y,-z
-x,-y,-z
1/2+x,y,-z
1/2-x,y,z
x,-y,z
loop_
_atom_site_type_symbol
_atom_site_label
_atom_site_fract_x
_atom_site_fract_y
_atom_site_fract_z
Si Si1 0.428989 0.302388 0.587442
Si Si2 0.329829 0.805821 0.861934
Si Si3 0.884930 0.803671 0.272926
Si Si4 0.827925 0.301777 0.991986
Si Si5 0.037517 0.803523 0.066128
Si Si6 0.963900 0.194105 0.784711
Si Si7 0.073410 0.296129 0.359277
Si Si8 0.172402 0.709631 0.472539
O O1 0.440749 0.500000 0.568863
O O2 0.387090 0.291273 0.656757
O O3 0.503135 0.227605 0.606512
O O4 0.381051 0.229818 0.529306
O O5 0.250000 0.818873 0.866167
O O6 0.345549 0.726353 0.789947
O O7 0.358471 0.000000 0.862672
O O8 0.350382 0.713355 0.929908
O O9 0.960876 0.807688 0.244958
O O10 0.861942 0.000000 0.284338
O O11 0.750000 0.242410 0.986085
O O12 0.829912 0.500000 0.972358
O O13 0.883123 0.200991 0.950291
O O14 0.030955 0.724535 0.140866
O O15 0.012483 0.000000 0.070751
O O16 0.000000 0.727382 0.000000
O O17 0.923023 0.263224 0.720576
O O18 0.940299 0.000000 0.795686
O O19 0.068654 0.500000 0.366251
O O20 0.137959 0.239358 0.401954
O O21 0.250000 0.766519 0.480842
O O22 0.174023 0.500000 0.475630
#
# Coordination Sequence:
#
# PCOD9404431 Si02
#       8
#     8   8   8   8   8   8   8   8
#     4   9  17  29  47  71  96 123 157 196 237 284
#     4   9  17  30  48  67  91 129 170 201 236 291
#     4   9  17  30  47  69  98 128 158 195 239 289
#     4  10  21  35  50  72 102 133 167 209 255 302
#     4  10  20  35  56  79 102 132 170 210 254 305
#     4   9  18  32  50  72  97 124 158 201 245 290
#     4   9  17  31  51  71  93 124 161 197 235 284
#     4   9  17  30  49  72  96 124 160 200 240 282
#
# _framework density 20.768813000000002
#
# number of rings (size 3 to 8) (size 9 to 14) (size 15 to 20)
#    0.000    2.750    0.000    1.500    0.000    6.000 
#    0.000    3.750    0.000    6.375    0.000    0.000 
#    0.000    0.000    0.000    0.000    0.000    0.000 
#
# Total GULP energy -356375.958008 kJ/mol
# GULP energy per Si atom -5568.374344 kJ/mol
# Density = 2.072154 g / cm^3
# Si number density = 20.768813 Si / 1000 Ang^3
#
#
#
# Elastic Constant Matrix: (Units=GPa)
#
#
# Indices 1 2 3 4 5 6 
#
# 1 66.7701 6.1362 50.4342 0.0000 0.0000 0.0000
# 2 6.1362 23.8574 5.1200 0.0000 0.0000 0.0000
# 3 50.4342 5.1200 150.9196 0.0000 0.0000 0.0000
# 4 0.0000 0.0000 0.0000 22.1410 0.0000 0.0000
# 5 0.0000 0.0000 0.0000 0.0000 32.9715 0.0000
# 6 0.0000 0.0000 0.0000 0.0000 0.0000 11.0115
#
#
#
# Elastic Compliance Matrix: (Units=1/GPa)
#
#
# Indices 1 2 3 4 5 6 
#
# 1 0.020371 -0.003806 -0.006678 0.000000 0.000000 0.000000
# 2 -0.003806 0.042934 -0.000185 0.000000 0.000000 0.000000
# 3 -0.006678 -0.000185 0.008864 0.000000 0.000000 0.000000
# 4 0.000000 0.000000 0.000000 0.045165 0.000000 0.000000
# 5 0.000000 0.000000 0.000000 0.000000 0.030329 0.000000
# 6 0.000000 0.000000 0.000000 0.000000 0.000000 0.090814
#
#
# Mechanical properties :
#
#
# Convention : Reuss Voigt Hill
#
# Bulk Modulus (GPa) = 19.67306 40.54754 30.11030
# Shear Modulus (GPa) = 18.06621 25.21526 21.64074
#
# Velocity S-wave (km/s) = 2.95256 3.48816 3.23148
# Velocity P-wave (km/s) = 4.59526 5.98237 5.33410
#
# Compressibility (1/GPa) = 0.05083092
#
# Stress axis : x y z
#
# Youngs Moduli (GPa) = 49.08923 23.29137 112.81451
#
# Poissons Ratio (x) = 0.08865 0.75343
# Poissons Ratio (y) = 0.18685 0.02082
# Poissons Ratio (z) = 0.32784 0.00430
#
# Static dielectric constant tensor:
#      x y z
#    x 1.752630 0.000000 0.000000 
#    y 0.000000 1.806090 0.000000 
#    z 0.000000 0.000000 1.783770 
# 
# From -- ./inp_files/30609.got.cif
#   From: 2010.05.17/outbox.cif.g08.bks.cpg/sg51_16_cif.got.tgz:30609.got - 2010.06.03 11:52:47.
