data_PCOD9404643
_publ_section_title
;
Structure prediction by ZEFSAII (Michael W. Deem and Ramdas Pophale) SiO2 
 PCOD9404643
Probable space group: P M M A
;
_chemical_formula_sum "Si O2"
_cell_formula_units_Z 56
_cell_length_a 13.797626
_cell_length_b 15.223539
_cell_length_c 12.653337
_cell_angle_alpha 90.000000
_cell_angle_beta 90.000000
_cell_angle_gamma 90.000000
_cell_volume 2657.816956
_symmetry_space_group_name_H-M "P M M A"
_symmetry_group_IT_number 51
_symmetry_cell_setting 'orthorhombic'
loop_
_space_group_symop_operation_xyz
x,y,z
1/2-x,-y,z
1/2+x,-y,-z
-x,y,-z
-x,-y,-z
1/2+x,y,-z
1/2-x,y,z
x,-y,z
loop_
_atom_site_type_symbol
_atom_site_label
_atom_site_fract_x
_atom_site_fract_y
_atom_site_fract_z
Si Si1 0.640239 0.265321 0.073577
Si Si2 0.134701 0.398876 0.113745
Si Si3 0.947648 0.326377 0.670886
Si Si4 0.007103 0.834893 0.771374
Si Si5 0.643877 0.904998 0.929397
Si Si6 0.135549 0.096556 0.590353
Si Si7 0.638509 0.702958 0.455938
O O1 0.750000 0.286680 0.109197
O O2 0.569156 0.240500 0.168063
O O3 0.609558 0.336583 0.985746
O O4 0.642388 0.173600 0.010978
O O5 0.250000 0.383793 0.132462
O O6 0.119820 0.500000 0.084411
O O7 0.080316 0.378897 0.223768
O O8 0.880600 0.342023 0.568960
O O9 0.934849 0.224120 0.702344
O O10 0.057591 0.333130 0.625392
O O11 0.075811 0.892046 0.698121
O O12 0.944175 0.890971 0.851020
O O13 0.750000 0.901011 0.875349
O O14 0.636428 0.000000 0.981980
O O15 0.250000 0.095672 0.612632
O O16 0.118591 0.191064 0.534026
O O17 0.112363 0.000000 0.541584
O O18 0.750000 0.692104 0.422320
#
# Coordination Sequence:
#
# PCOD9404643 Si02
#       7
#     8   8   8   8   8   8   8
#     4  10  21  37  56  81 116 154 195 242 290 344
#     4  10  21  39  64  91 119 154 194 237 289 352
#     4  10  20  35  59  86 113 148 193 237 292 357
#     4  11  20  33  55  81 113 152 193 241 290 338
#     4  10  21  34  49  74 111 154 197 237 278 330
#     4   9  18  33  54  83 116 153 201 246 287 347
#     4   9  19  36  57  83 116 154 191 239 301 352
#
# _framework density 21.069924
#
# number of rings (size 3 to 8) (size 9 to 14) (size 15 to 20)
#    0.000    2.143    1.429    1.714    0.000    2.857 
#    0.000   10.714    0.000    3.000    0.000    0.000 
#    0.000    0.000    0.000    0.000    0.000    0.000 
#
# Total GULP energy -312241.163424 kJ/mol
# GULP energy per Si atom -5575.735061 kJ/mol
# Density = 2.102197 g / cm^3
# Si number density = 21.069924 Si / 1000 Ang^3
#
#
#
# Elastic Constant Matrix: (Units=GPa)
#
#
# Indices 1 2 3 4 5 6 
#
# 1 89.0251 22.7835 20.4805 0.0000 0.0000 0.0000
# 2 22.7835 72.0205 21.4106 0.0000 0.0000 0.0000
# 3 20.4805 21.4106 54.2354 0.0000 0.0000 0.0000
# 4 0.0000 0.0000 0.0000 -12.4877 0.0000 0.0000
# 5 0.0000 0.0000 0.0000 0.0000 13.9722 0.0000
# 6 0.0000 0.0000 0.0000 0.0000 0.0000 11.6863
#
#
#
# Elastic Compliance Matrix: (Units=1/GPa)
#
#
# Indices 1 2 3 4 5 6 
#
# 1 0.012838 -0.002968 -0.003676 0.000000 0.000000 0.000000
# 2 -0.002968 0.016418 -0.005360 0.000000 0.000000 0.000000
# 3 -0.003676 -0.005360 0.021942 0.000000 0.000000 0.000000
# 4 0.000000 0.000000 0.000000 -0.080079 0.000000 0.000000
# 5 0.000000 0.000000 0.000000 0.000000 0.071570 0.000000
# 6 0.000000 0.000000 0.000000 0.000000 0.000000 0.085570
#
#
# Mechanical properties :
#
#
# Convention : Reuss Voigt Hill
#
# Bulk Modulus (GPa) = 36.78027 38.29223 37.53625
# Shear Modulus (GPa) = 30.99193 12.67461 21.83327
#
# Velocity S-wave (km/s) = 3.83940 2.45531 3.22254
# Velocity P-wave (km/s) = 6.09499 5.12361 5.63029
#
# Compressibility (1/GPa) = 0.02718849
#
# Stress axis : x y z
#
# Youngs Moduli (GPa) = 77.89263 60.91061 45.57391
#
# Poissons Ratio (x) = 0.18081 0.16753
# Poissons Ratio (y) = 0.23122 0.24429
# Poissons Ratio (z) = 0.28634 0.32649
#
# Static dielectric constant tensor:
#      x y z
#    x 1.807720 0.000000 0.000000 
#    y 0.000000 1.775810 0.000000 
#    z 0.000000 0.000000 1.755750 
# 
# From -- ./inp_files/16631.got.cif
#   From: 2010.05.17/outbox.cif.g08.bks.cpg/sg51_9_cif.got.tgz:16631.got - 2010.06.03 11:52:47.
