data_PCOD9404788
_publ_section_title
;
Structure prediction by ZEFSAII (Michael W. Deem and Ramdas Pophale) SiO2 
 PCOD9404788
Probable space group: P M M A
;
_chemical_formula_sum "Si O2"
_cell_formula_units_Z 48
_cell_length_a 10.134486
_cell_length_b 15.117553
_cell_length_c 14.673137
_cell_angle_alpha 90.000000
_cell_angle_beta 90.000000
_cell_angle_gamma 90.000000
_cell_volume 2248.051206
_symmetry_space_group_name_H-M "P M M A"
_symmetry_group_IT_number 51
_symmetry_cell_setting 'orthorhombic'
loop_
_space_group_symop_operation_xyz
x,y,z
1/2-x,-y,z
1/2+x,-y,-z
-x,y,-z
-x,-y,-z
1/2+x,y,-z
1/2-x,y,z
x,-y,z
loop_
_atom_site_type_symbol
_atom_site_label
_atom_site_fract_x
_atom_site_fract_y
_atom_site_fract_z
Si Si1 0.250000 0.108244 0.136963
Si Si2 0.400585 0.365070 0.778330
Si Si3 0.604565 0.359176 0.428554
Si Si4 0.467637 0.157830 0.785437
Si Si5 0.598396 0.143521 0.419736
Si Si6 0.897951 0.601780 0.930727
Si Si7 0.250000 0.897422 0.929310
O O1 0.381329 0.143633 0.186397
O O2 0.250000 0.000000 0.141771
O O3 0.250000 0.141515 0.031384
O O4 0.250000 0.384844 0.811042
O O5 0.411005 0.393141 0.673750
O O6 0.422668 0.259732 0.780074
O O7 0.519557 0.400940 0.838092
O O8 0.500000 0.391583 0.500000
O O9 0.750000 0.381084 0.461288
O O10 0.595470 0.251526 0.422806
O O11 0.441104 0.118950 0.684090
O O12 0.376407 0.121203 0.866323
O O13 0.500000 0.113023 0.500000
O O14 0.750000 0.116561 0.436158
O O15 0.750000 0.639199 0.923992
O O16 0.881940 0.500000 0.961810
O O17 0.000000 0.648454 0.000000
O O18 0.250000 0.000000 0.948274
#
# Coordination Sequence:
#
# PCOD9404788 Si02
#       7
#     4   8   8   8   8   8   4
#     4  11  26  40  57  85 112 148 199 242 285 349
#     4  10  20  36  57  86 117 146 188 236 282 331
#     4   8  15  28  47  76 111 143 177 222 273 329
#     4  11  21  39  59  86 117 148 189 243 289 338
#     4   9  17  31  54  82 111 144 181 227 287 345
#     4  10  22  39  58  82 114 154 194 231 280 339
#     4  11  22  42  63  77 106 154 195 232 291 349
#
# _framework density 21.351825999999999
#
# number of rings (size 3 to 8) (size 9 to 14) (size 15 to 20)
#    0.000    2.167    1.667    2.500    2.333    4.333 
#    3.000    0.000    0.000    3.500    0.000    0.000 
#    0.000    0.000    0.000    0.000    0.000    0.000 
#
# Total GULP energy -267865.915494 kJ/mol
# GULP energy per Si atom -5580.539906 kJ/mol
# Density = 2.130323 g / cm^3
# Si number density = 21.351826 Si / 1000 Ang^3
#
#
#
# Elastic Constant Matrix: (Units=GPa)
#
#
# Indices 1 2 3 4 5 6 
#
# 1 244.0512 3.8953 113.6617 0.0000 0.0000 0.0000
# 2 3.8953 43.4058 2.0382 0.0000 0.0000 0.0000
# 3 113.6617 2.0382 135.3059 0.0000 0.0000 0.0000
# 4 0.0000 0.0000 0.0000 26.3722 0.0000 0.0000
# 5 0.0000 0.0000 0.0000 0.0000 61.0190 0.0000
# 6 0.0000 0.0000 0.0000 0.0000 0.0000 10.5005
#
#
#
# Elastic Compliance Matrix: (Units=1/GPa)
#
#
# Indices 1 2 3 4 5 6 
#
# 1 0.006736 -0.000339 -0.005653 0.000000 0.000000 0.000000
# 2 -0.000339 0.023072 -0.000063 0.000000 0.000000 0.000000
# 3 -0.005653 -0.000063 0.012140 0.000000 0.000000 0.000000
# 4 0.000000 0.000000 0.000000 0.037919 0.000000 0.000000
# 5 0.000000 0.000000 0.000000 0.000000 0.016388 0.000000
# 6 0.000000 0.000000 0.000000 0.000000 0.000000 0.095234
#
#
# Mechanical properties :
#
#
# Convention : Reuss Voigt Hill
#
# Bulk Modulus (GPa) = 33.51417 73.55036 53.53227
# Shear Modulus (GPa) = 23.41429 39.78952 31.60190
#
# Velocity S-wave (km/s) = 3.31508 4.32153 3.85132
# Velocity P-wave (km/s) = 5.51210 7.70860 6.70096
#
# Compressibility (1/GPa) = 0.02983812
#
# Stress axis : x y z
#
# Youngs Moduli (GPa) = 148.46153 43.34297 82.36921
#
# Poissons Ratio (x) = 0.01469 0.46565
# Poissons Ratio (y) = 0.05033 0.00517
# Poissons Ratio (z) = 0.83928 0.00272
#
# Static dielectric constant tensor:
#      x y z
#    x 1.762560 0.000000 0.000000 
#    y 0.000000 1.836160 0.000000 
#    z 0.000000 0.000000 1.778840 
# 
# From -- ./inp_files/21132.got.cif
#   From: 2010.05.17/outbox.cif.g08.bks.cpg/sg51_11_cif.got.tgz:21132.got - 2010.06.03 11:52:47.
