data_PCOD9404454
_publ_section_title
;
Structure prediction by ZEFSAII (Michael W. Deem and Ramdas Pophale) SiO2 
 PCOD9404454
Probable space group: P M M A
;
_chemical_formula_sum "Si O2"
_cell_formula_units_Z 56
_cell_length_a 21.863842
_cell_length_b 8.934776
_cell_length_c 14.430684
_cell_angle_alpha 90.000000
_cell_angle_beta 90.000000
_cell_angle_gamma 90.000000
_cell_volume 2819.012917
_symmetry_space_group_name_H-M "P M M A"
_symmetry_group_IT_number 51
_symmetry_cell_setting 'orthorhombic'
loop_
_space_group_symop_operation_xyz
x,y,z
1/2-x,-y,z
1/2+x,-y,-z
-x,y,-z
-x,-y,-z
1/2+x,y,-z
1/2-x,y,z
x,-y,z
loop_
_atom_site_type_symbol
_atom_site_label
_atom_site_fract_x
_atom_site_fract_y
_atom_site_fract_z
Si Si1 0.876219 0.675700 0.708789
Si Si2 0.822367 0.818618 0.896245
Si Si3 0.993910 0.180653 0.608411
Si Si4 0.176985 0.668042 0.629972
Si Si5 0.932772 0.818091 0.034152
Si Si6 0.097428 0.820988 0.757545
Si Si7 0.821439 0.164999 0.548216
O O1 0.884394 0.500000 0.723981
O O2 0.850576 0.753625 0.801184
O O3 0.936388 0.749010 0.662645
O O4 0.828659 0.713802 0.627774
O O5 0.750000 0.774839 0.908922
O O6 0.872508 0.773527 0.974821
O O7 0.822616 0.000000 0.891257
O O8 0.000000 0.228147 0.500000
O O9 0.049921 0.219063 0.676358
O O10 0.989245 0.000000 0.607887
O O11 0.250000 0.662354 0.622094
O O12 0.153064 0.500000 0.619607
O O13 0.158698 0.738475 0.727361
O O14 0.152544 0.773470 0.547591
O O15 0.934118 0.000000 0.029379
O O16 0.925055 0.775625 0.141281
O O17 0.000000 0.766088 0.000000
O O18 0.105707 0.000000 0.757516
O O19 0.750000 0.146416 0.533565
O O20 0.846899 0.000000 0.572135
#
# Coordination Sequence:
#
# PCOD9404454 Si02
#       7
#     8   8   8   8   8   8   8
#     4  12  24  36  55  83 116 153 191 237 296 358
#     4  10  21  38  60  85 114 152 201 256 312 372
#     4  10  21  37  58  85 118 156 197 239 287 349
#     4  10  21  36  54  80 116 153 185 222 273 334
#     4   9  18  35  60  87 113 145 192 250 307 359
#     4  10  20  35  59  87 112 144 188 238 288 338
#     4  10  20  35  56  80 108 146 190 233 277 330
#
# _framework density 19.865109
#
# number of rings (size 3 to 8) (size 9 to 14) (size 15 to 20)
#    0.000    1.857    0.000    4.286    0.000    8.571 
#    0.000    2.143    0.000    1.714    0.000    0.000 
#    0.000    0.000    0.000    0.000    0.000    0.000 
#
# Total GULP energy -312196.307868 kJ/mol
# GULP energy per Si atom -5574.934069 kJ/mol
# Density = 1.981989 g / cm^3
# Si number density = 19.865109 Si / 1000 Ang^3
#
#
#
# Elastic Constant Matrix: (Units=GPa)
#
#
# Indices 1 2 3 4 5 6 
#
# 1 104.3669 23.8229 68.5850 0.0000 0.0000 0.0000
# 2 23.8229 24.1421 17.9334 0.0000 0.0000 0.0000
# 3 68.5850 17.9334 141.3601 0.0000 0.0000 0.0000
# 4 0.0000 0.0000 0.0000 -21.1808 0.0000 0.0000
# 5 0.0000 0.0000 0.0000 0.0000 32.7164 0.0000
# 6 0.0000 0.0000 0.0000 0.0000 0.0000 16.2728
#
#
#
# Elastic Compliance Matrix: (Units=1/GPa)
#
#
# Indices 1 2 3 4 5 6 
#
# 1 0.016493 -0.011405 -0.006555 0.000000 0.000000 0.000000
# 2 -0.011405 0.053618 -0.001269 0.000000 0.000000 0.000000
# 3 -0.006555 -0.001269 0.010415 0.000000 0.000000 0.000000
# 4 0.000000 0.000000 0.000000 -0.047213 0.000000 0.000000
# 5 0.000000 0.000000 0.000000 0.000000 0.030566 0.000000
# 6 0.000000 0.000000 0.000000 0.000000 0.000000 0.061452
#
#
# Mechanical properties :
#
#
# Convention : Reuss Voigt Hill
#
# Bulk Modulus (GPa) = 23.77071 54.50574 39.13822
# Shear Modulus (GPa) = 28.11955 16.19686 22.15820
#
# Velocity S-wave (km/s) = 3.76643 2.85852 3.34343
# Velocity P-wave (km/s) = 5.55938 6.19615 5.88638
#
# Compressibility (1/GPa) = 0.04206859
#
# Stress axis : x y z
#
# Youngs Moduli (GPa) = 60.63331 18.65036 96.01177
#
# Poissons Ratio (x) = 0.21271 0.62935
# Poissons Ratio (y) = 0.69154 0.12179
# Poissons Ratio (z) = 0.39745 0.02366
#
# Static dielectric constant tensor:
#      x y z
#    x 1.972650 0.000000 0.000000 
#    y 0.000000 1.691070 0.000000 
#    z 0.000000 0.000000 1.675850 
# 
# From -- ./inp_files/25625.got.cif
#   From: 2010.05.17/outbox.cif.g08.bks.cpg/sg51_13_cif.got.tgz:25625.got - 2010.06.03 11:52:47.
