data_PCOD9404630
_publ_section_title
;
Structure prediction by ZEFSAII (Michael W. Deem and Ramdas Pophale) SiO2 
 PCOD9404630
Probable space group: P M M A
;
_chemical_formula_sum "Si O2"
_cell_formula_units_Z 56
_cell_length_a 8.653152
_cell_length_b 20.164404
_cell_length_c 16.110580
_cell_angle_alpha 90.000000
_cell_angle_beta 90.000000
_cell_angle_gamma 90.000000
_cell_volume 2811.065068
_symmetry_space_group_name_H-M "P M M A"
_symmetry_group_IT_number 51
_symmetry_cell_setting 'orthorhombic'
loop_
_space_group_symop_operation_xyz
x,y,z
1/2-x,-y,z
1/2+x,-y,-z
-x,y,-z
-x,-y,-z
1/2+x,y,-z
1/2-x,y,z
x,-y,z
loop_
_atom_site_type_symbol
_atom_site_label
_atom_site_fract_x
_atom_site_fract_y
_atom_site_fract_z
Si Si1 0.062528 0.282791 0.755874
Si Si2 0.571009 0.923589 0.831060
Si Si3 0.922123 0.421293 0.581044
Si Si4 0.066103 0.785811 0.410435
Si Si5 0.567658 0.427207 0.243722
Si Si6 0.565896 0.195981 0.084831
Si Si7 0.565766 0.924342 0.351651
O O1 0.250000 0.284331 0.747465
O O2 0.008171 0.356032 0.785744
O O3 0.021994 0.234215 0.830981
O O4 0.996437 0.256928 0.668137
O O5 0.750000 0.906932 0.813072
O O6 0.504403 0.876354 0.900864
O O7 0.475043 0.916644 0.745795
O O8 0.563242 0.000000 0.856073
O O9 0.750000 0.394501 0.598670
O O10 0.902773 0.500000 0.565893
O O11 0.000000 0.391375 0.500000
O O12 0.036267 0.418743 0.658312
O O13 0.250000 0.781646 0.411399
O O14 0.000000 0.765025 0.500000
O O15 0.015047 0.862618 0.396221
O O16 0.750000 0.429931 0.226687
O O17 0.501395 0.500000 0.219823
O O18 0.750000 0.193787 0.080011
O O19 0.500000 0.225625 0.000000
O O20 0.750000 0.919067 0.363189
O O21 0.517757 0.000000 0.375611
#
# Coordination Sequence:
#
# PCOD9404630 Si02
#       7
#     8   8   8   8   8   8   8
#     4  10  22  41  62  86 118 153 193 244 299 356
#     4  10  20  35  58  89 123 158 198 243 293 350
#     4   9  16  26  42  67 100 136 174 217 266 322
#     4  12  25  40  61  86 118 160 206 253 300 352
#     4   9  18  34  57  82 107 140 183 231 287 351
#     4  11  23  39  62  88 119 157 199 246 297 357
#     4  10  20  36  59  86 119 159 202 249 299 348
#
# _framework density 19.921275999999999
#
# number of rings (size 3 to 8) (size 9 to 14) (size 15 to 20)
#    0.000    1.857    1.429    3.000    0.000    5.714 
#    0.000    0.000    0.000    0.429    0.000    0.000 
#    0.000    0.000    0.000    0.000    0.000    0.143 
#
# Total GULP energy -312390.735616 kJ/mol
# GULP energy per Si atom -5578.405993 kJ/mol
# Density = 1.987593 g / cm^3
# Si number density = 19.921276 Si / 1000 Ang^3
#
#
#
# Elastic Constant Matrix: (Units=GPa)
#
#
# Indices 1 2 3 4 5 6 
#
# 1 50.4049 30.6443 25.3919 0.0000 0.0000 0.0000
# 2 30.6443 113.4605 37.7012 0.0000 0.0000 0.0000
# 3 25.3919 37.7012 84.8532 0.0000 0.0000 0.0000
# 4 0.0000 0.0000 0.0000-3665.2003 0.0000 0.0000
# 5 0.0000 0.0000 0.0000 0.0000 26.1285 0.0000
# 6 0.0000 0.0000 0.0000 0.0000 0.0000 10.9978
#
#
#
# Elastic Compliance Matrix: (Units=1/GPa)
#
#
# Indices 1 2 3 4 5 6 
#
# 1 0.025687 -0.005143 -0.005402 0.000000 0.000000 0.000000
# 2 -0.005143 0.011370 -0.003513 0.000000 0.000000 0.000000
# 3 -0.005402 -0.003513 0.014962 0.000000 0.000000 0.000000
# 4 0.000000 0.000000 0.000000 -0.000273 0.000000 0.000000
# 5 0.000000 0.000000 0.000000 0.000000 0.038272 0.000000
# 6 0.000000 0.000000 0.000000 0.000000 0.000000 0.090927
#
#
# Mechanical properties :
#
#
# Convention : Reuss Voigt Hill
#
# Bulk Modulus (GPa) = 41.83300 48.46593 45.14946
# Shear Modulus (GPa) = 23.03835 -715.28272 -346.12219
#
# Velocity S-wave (km/s) = 3.40438 -18.96930 -13.19554
# Velocity P-wave (km/s) = 6.04134 21.34004 14.47238
#
# Compressibility (1/GPa) = 0.02390457
#
# Stress axis : x y z
#
# Youngs Moduli (GPa) = 38.92987 87.95132 66.83484
#
# Poissons Ratio (x) = 0.45233 0.36102
# Poissons Ratio (y) = 0.20021 0.23478
# Poissons Ratio (z) = 0.21029 0.30895
#
# Static dielectric constant tensor:
#      x y z
#    x 1.691290 0.000000 0.000000 
#    y 0.000000 1.787570 0.000000 
#    z 0.000000 0.000000 1.681120 
# 
# From -- ./inp_files/21834.got.cif
#   From: 2010.05.17/outbox.cif.g08.bks.cpg/sg51_11_cif.got.tgz:21834.got - 2010.06.03 11:52:47.
