data_PCOD9404728
_publ_section_title
;
Structure prediction by ZEFSAII (Michael W. Deem and Ramdas Pophale) SiO2 
 PCOD9404728
Probable space group: P M M A
;
_chemical_formula_sum "Si O2"
_cell_formula_units_Z 40
_cell_length_a 11.498989
_cell_length_b 7.411871
_cell_length_c 19.367557
_cell_angle_alpha 90.000000
_cell_angle_beta 90.000000
_cell_angle_gamma 90.000000
_cell_volume 1650.677963
_symmetry_space_group_name_H-M "P M M A"
_symmetry_group_IT_number 51
_symmetry_cell_setting 'orthorhombic'
loop_
_space_group_symop_operation_xyz
x,y,z
1/2-x,-y,z
1/2+x,-y,-z
-x,y,-z
-x,-y,-z
1/2+x,y,-z
1/2-x,y,z
x,-y,z
loop_
_atom_site_type_symbol
_atom_site_label
_atom_site_fract_x
_atom_site_fract_y
_atom_site_fract_z
Si Si1 0.250000 0.219487 0.164783
Si Si2 0.534202 0.206777 0.926547
Si Si3 0.250000 0.709168 0.327978
Si Si4 0.878138 0.789833 0.471951
Si Si5 0.503378 0.718781 0.335596
Si Si6 0.381319 0.717900 0.803489
O O1 0.361801 0.281938 0.120766
O O2 0.250000 0.283221 0.244056
O O3 0.250000 0.000000 0.169204
O O4 0.423937 0.210940 0.876474
O O5 0.570016 0.000000 0.941125
O O6 0.500000 0.289854 0.000000
O O7 0.250000 0.500000 0.348235
O O8 0.373218 0.785148 0.353135
O O9 0.750000 0.713844 0.489179
O O10 0.900505 0.778849 0.389942
O O11 0.000000 0.708624 0.500000
O O12 0.876346 0.000000 0.492234
O O13 0.501968 0.500000 0.335891
O O14 0.535948 0.778036 0.258668
O O15 0.250000 0.770799 0.788023
O O16 0.386248 0.500000 0.806431
#
# Coordination Sequence:
#
# PCOD9404728 Si02
#       6
#     4   8   4   8   8   8
#     4  10  20  36  56  82 112 143 188 237 286 343
#     4  10  22  37  55  79 110 148 188 234 287 343
#     4  10  20  36  60  88 116 149 190 239 290 345
#     4  10  23  42  63  90 123 158 195 236 284 339
#     4  10  21  38  61  88 118 151 191 237 287 340
#     4  10  21  37  57  82 111 145 188 236 286 340
#
# _framework density 24.232467
#
# number of rings (size 3 to 8) (size 9 to 14) (size 15 to 20)
#    0.000    2.000    2.000    0.600    2.800    4.000 
#    0.000    0.000    0.000    0.000    0.000    0.000 
#    0.000    0.000    0.000    0.000    0.000    0.000 
#
# Total GULP energy -223583.856844 kJ/mol
# GULP energy per Si atom -5589.596421 kJ/mol
# Density = 2.417731 g / cm^3
# Si number density = 24.232467 Si / 1000 Ang^3
#
#
#
# Elastic Constant Matrix: (Units=GPa)
#
#
# Indices 1 2 3 4 5 6 
#
# 1 173.9783 10.4459 25.6884 0.0000 0.0000 0.0000
# 2 10.4459 85.8540 0.9616 0.0000 0.0000 0.0000
# 3 25.6884 0.9616 102.1833 0.0000 0.0000 0.0000
# 4 0.0000 0.0000 0.0000 20.1305 0.0000 0.0000
# 5 0.0000 0.0000 0.0000 0.0000 38.8328 0.0000
# 6 0.0000 0.0000 0.0000 0.0000 0.0000 26.3790
#
#
#
# Elastic Compliance Matrix: (Units=1/GPa)
#
#
# Indices 1 2 3 4 5 6 
#
# 1 0.006013 -0.000715 -0.001505 0.000000 0.000000 0.000000
# 2 -0.000715 0.011734 0.000069 0.000000 0.000000 0.000000
# 3 -0.001505 0.000069 0.010164 0.000000 0.000000 0.000000
# 4 0.000000 0.000000 0.000000 0.049676 0.000000 0.000000
# 5 0.000000 0.000000 0.000000 0.000000 0.025751 0.000000
# 6 0.000000 0.000000 0.000000 0.000000 0.000000 0.037909
#
#
# Mechanical properties :
#
#
# Convention : Reuss Voigt Hill
#
# Bulk Modulus (GPa) = 42.35481 48.46749 45.41115
# Shear Modulus (GPa) = 32.59075 38.72978 35.66027
#
# Velocity S-wave (km/s) = 3.67129 4.00216 3.84029
# Velocity P-wave (km/s) = 5.95715 6.43435 6.20035
#
# Compressibility (1/GPa) = 0.02361007
#
# Stress axis : x y z
#
# Youngs Moduli (GPa) = 166.30739 85.22333 98.38638
#
# Poissons Ratio (x) = 0.06091 0.14806
# Poissons Ratio (y) = 0.11887 -0.00681
# Poissons Ratio (z) = 0.25028 -0.00590
#
# Static dielectric constant tensor:
#      x y z
#    x 1.941960 0.000000 0.000000 
#    y 0.000000 1.912870 0.000000 
#    z 0.000000 0.000000 1.897370 
# 
# From -- ./inp_files/32806.got.cif
#   From: 2010.05.17/outbox.cif.g08.bks.cpg/sg51_17_cif.got.tgz:32806.got - 2010.06.03 11:52:47.
