data_PCOD9404484
_publ_section_title
;
Structure prediction by ZEFSAII (Michael W. Deem and Ramdas Pophale) SiO2 
 PCOD9404484
Probable space group: P M M A
;
_chemical_formula_sum "Si O2"
_cell_formula_units_Z 44
_cell_length_a 8.758545
_cell_length_b 28.701639
_cell_length_c 9.514142
_cell_angle_alpha 90.000000
_cell_angle_beta 90.000000
_cell_angle_gamma 90.000000
_cell_volume 2391.708750
_symmetry_space_group_name_H-M "P M M A"
_symmetry_group_IT_number 51
_symmetry_cell_setting 'orthorhombic'
loop_
_space_group_symop_operation_xyz
x,y,z
1/2-x,-y,z
1/2+x,-y,-z
-x,y,-z
-x,-y,-z
1/2+x,y,-z
1/2-x,y,z
x,-y,z
loop_
_atom_site_type_symbol
_atom_site_label
_atom_site_fract_x
_atom_site_fract_y
_atom_site_fract_z
Si Si1 0.934535 0.000000 0.842998
Si Si2 0.567357 0.446113 0.845649
Si Si3 0.066801 0.277092 0.845737
Si Si4 0.433658 0.176870 0.155304
Si Si5 0.432758 0.634522 0.654978
Si Si6 0.565961 0.911116 0.656265
O O1 0.981622 0.045527 0.754252
O O2 0.750000 0.000000 0.852662
O O3 0.000000 0.000000 0.000000
O O4 0.750000 0.441511 0.850113
O O5 0.530112 0.500000 0.810808
O O6 0.498152 0.410014 0.736402
O O7 0.500000 0.436388 0.000000
O O8 0.250000 0.273316 0.854961
O O9 0.026580 0.318833 0.741335
O O10 0.998065 0.227300 0.801856
O O11 0.000000 0.287418 0.000000
O O12 0.250000 0.178866 0.145936
O O13 0.477597 0.136574 0.264378
O O14 0.500000 0.166645 0.000000
O O15 0.500000 0.636791 0.500000
O O16 0.250000 0.631354 0.649767
O O17 0.500000 0.914263 0.500000
O O18 0.750000 0.912243 0.646749
#
# Coordination Sequence:
#
# PCOD9404484 Si02
#       6
#     4   8   8   8   8   8
#     4  10  21  38  58  82 110 142 183 228 272 322
#     4  10  21  38  61  87 114 146 185 228 274 327
#     4  10  21  37  58  83 109 143 185 228 275 326
#     4  10  20  35  56  82 109 141 182 226 271 323
#     4  11  24  39  57  82 113 149 187 229 279 332
#     4  10  22  37  55  81 112 145 182 223 271 326
#
# _framework density 18.396888000000001
#
# number of rings (size 3 to 8) (size 9 to 14) (size 15 to 20)
#    0.000    1.818    0.000    4.636    0.000    8.727 
#    0.000    3.636    0.000    0.000    0.000    0.000 
#    0.000    0.000    0.000    0.000    0.000    0.000 
#
# Total GULP energy -245882.820161 kJ/mol
# GULP energy per Si atom -5588.245913 kJ/mol
# Density = 1.835502 g / cm^3
# Si number density = 18.396888 Si / 1000 Ang^3
#
#
#
# Elastic Constant Matrix: (Units=GPa)
#
#
# Indices 1 2 3 4 5 6 
#
# 1 51.3386 64.4118 58.0513 0.0000 0.0000 0.0000
# 2 64.4118 170.8353 144.0343 0.0000 0.0000 0.0000
# 3 58.0513 144.0343 171.5324 0.0000 0.0000 0.0000
# 4 0.0000 0.0000 0.0000 -13.8872 0.0000 0.0000
# 5 0.0000 0.0000 0.0000 0.0000 37.1595 0.0000
# 6 0.0000 0.0000 0.0000 0.0000 0.0000 19.7043
#
#
#
# Elastic Compliance Matrix: (Units=1/GPa)
#
#
# Indices 1 2 3 4 5 6 
#
# 1 0.037351 -0.011729 -0.002792 0.000000 0.000000 0.000000
# 2 -0.011729 0.023727 -0.015954 0.000000 0.000000 0.000000
# 3 -0.002792 -0.015954 0.020171 0.000000 0.000000 0.000000
# 4 0.000000 0.000000 0.000000 -0.072009 0.000000 0.000000
# 5 0.000000 0.000000 0.000000 0.000000 0.026911 0.000000
# 6 0.000000 0.000000 0.000000 0.000000 0.000000 0.050750
#
#
# Mechanical properties :
#
#
# Convention : Reuss Voigt Hill
#
# Bulk Modulus (GPa) = 49.26220 102.96680 76.11450
# Shear Modulus (GPa) = 32.33773 17.07589 24.70681
#
# Velocity S-wave (km/s) = 4.19714 3.04993 3.66866
# Velocity P-wave (km/s) = 7.09391 8.27611 7.70771
#
# Compressibility (1/GPa) = 0.02029954
#
# Stress axis : x y z
#
# Youngs Moduli (GPa) = 26.77285 42.14633 49.57604
#
# Poissons Ratio (x) = 0.49433 0.13842
# Poissons Ratio (y) = 0.31402 0.79093
# Poissons Ratio (z) = 0.07475 0.67240
#
# Static dielectric constant tensor:
#      x y z
#    x 1.619580 0.000000 0.000000 
#    y 0.000000 1.629990 0.000000 
#    z 0.000000 0.000000 1.584510 
# 
# From -- ./inp_files/5860.got.cif
#   From: 2010.05.17/outbox.cif.g08.bks.cpg/sg51_3_cif.got.tgz:5860.got - 2010.06.03 11:52:47.
