data_PCOD9404801
_publ_section_title
;
Structure prediction by ZEFSAII (Michael W. Deem and Ramdas Pophale) SiO2 
 PCOD9404801
Probable space group: P M M A
;
_chemical_formula_sum "Si O2"
_cell_formula_units_Z 48
_cell_length_a 8.203523
_cell_length_b 18.043680
_cell_length_c 16.011648
_cell_angle_alpha 90.000000
_cell_angle_beta 90.000000
_cell_angle_gamma 90.000000
_cell_volume 2370.072059
_symmetry_space_group_name_H-M "P M M A"
_symmetry_group_IT_number 51
_symmetry_cell_setting 'orthorhombic'
loop_
_space_group_symop_operation_xyz
x,y,z
1/2-x,-y,z
1/2+x,-y,-z
-x,y,-z
-x,-y,-z
1/2+x,y,-z
1/2-x,y,z
x,-y,z
loop_
_atom_site_type_symbol
_atom_site_label
_atom_site_fract_x
_atom_site_fract_y
_atom_site_fract_z
Si Si1 0.555851 0.681356 0.597018
Si Si2 0.555129 0.689282 0.096509
Si Si3 0.946098 0.856029 0.095649
Si Si4 0.566749 0.000000 0.358286
Si Si5 0.565537 0.000000 0.812107
Si Si6 0.554654 0.160021 0.405076
Si Si7 0.446903 0.584705 0.247267
O O1 0.500000 0.671215 0.500000
O O2 0.750000 0.677809 0.593679
O O3 0.507866 0.762943 0.632020
O O4 0.494961 0.622834 0.666107
O O5 0.750000 0.687494 0.095350
O O6 0.506535 0.773051 0.124011
O O7 0.494120 0.631288 0.165144
O O8 0.500000 0.676840 0.000000
O O9 0.750000 0.864403 0.103931
O O10 0.035391 0.924531 0.138267
O O11 0.000000 0.858659 0.000000
O O12 0.488997 0.920858 0.379699
O O13 0.750000 0.000000 0.395256
O O14 0.568086 0.000000 0.259597
O O15 0.750000 0.000000 0.778629
O O16 0.500000 0.167085 0.500000
O O17 0.750000 0.159061 0.395087
O O18 0.250000 0.584035 0.250972
O O19 0.504661 0.500000 0.241224
#
# Coordination Sequence:
#
# PCOD9404801 Si02
#       7
#     8   8   8   4   4   8   8
#     4  10  21  38  61  89 120 157 200 246 298 355
#     4  10  22  40  65  93 121 158 200 246 298 357
#     4  10  21  39  60  83 114 151 193 240 291 343
#     4  10  23  38  52  78 115 154 192 240 289 340
#     4  12  25  36  53  82 115 154 197 240 287 340
#     4  10  20  36  58  81 111 150 193 239 290 342
#     4  10  23  42  63  89 123 159 196 245 302 359
#
# _framework density 20.252547
#
# number of rings (size 3 to 8) (size 9 to 14) (size 15 to 20)
#    0.000    1.833    0.000    4.250    2.333    5.667 
#    0.000    0.000    0.000    0.000    0.000    0.000 
#    0.000    0.000    0.000    0.000    0.000    0.000 
#
# Total GULP energy -267650.607687 kJ/mol
# GULP energy per Si atom -5576.054327 kJ/mol
# Density = 2.020645 g / cm^3
# Si number density = 20.252547 Si / 1000 Ang^3
#
#
#
# Elastic Constant Matrix: (Units=GPa)
#
#
# Indices 1 2 3 4 5 6 
#
# 1 45.4228 24.7975 9.9796 0.0000 0.0000 0.0000
# 2 24.7975 187.9021 82.2542 0.0000 0.0000 0.0000
# 3 9.9796 82.2542 83.6636 0.0000 0.0000 0.0000
# 4 0.0000 0.0000 0.0000 59.0939 0.0000 0.0000
# 5 0.0000 0.0000 0.0000 0.0000 25.2793 0.0000
# 6 0.0000 0.0000 0.0000 0.0000 0.0000 25.4294
#
#
#
# Elastic Compliance Matrix: (Units=1/GPa)
#
#
# Indices 1 2 3 4 5 6 
#
# 1 0.023734 -0.003323 0.000436 0.000000 0.000000 0.000000
# 2 -0.003323 0.009808 -0.009247 0.000000 0.000000 0.000000
# 3 0.000436 -0.009247 0.020991 0.000000 0.000000 0.000000
# 4 0.000000 0.000000 0.000000 0.016922 0.000000 0.000000
# 5 0.000000 0.000000 0.000000 0.000000 0.039558 0.000000
# 6 0.000000 0.000000 0.000000 0.000000 0.000000 0.039325
#
#
# Mechanical properties :
#
#
# Convention : Reuss Voigt Hill
#
# Bulk Modulus (GPa) = 33.04022 61.22790 47.13406
# Shear Modulus (GPa) = 27.07184 35.29100 31.18142
#
# Velocity S-wave (km/s) = 3.66007 4.17891 3.92807
# Velocity P-wave (km/s) = 5.84902 7.31999 6.62545
#
# Compressibility (1/GPa) = 0.03026614
#
# Stress axis : x y z
#
# Youngs Moduli (GPa) = 42.13423 101.95627 47.63863
#
# Poissons Ratio (x) = 0.33880 -0.02077
# Poissons Ratio (y) = 0.14001 0.44049
# Poissons Ratio (z) = -0.01837 0.94274
#
# Static dielectric constant tensor:
#      x y z
#    x 1.723180 0.000000 0.000000 
#    y 0.000000 1.850130 0.000000 
#    z 0.000000 0.000000 1.679110 
# 
# From -- ./inp_files/21244.got.cif
#   From: 2010.05.17/outbox.cif.g08.bks.cpg/sg51_11_cif.got.tgz:21244.got - 2010.06.03 11:52:47.
