data_PCOD9404462
_publ_section_title
;
Structure prediction by ZEFSAII (Michael W. Deem and Ramdas Pophale) SiO2 
 PCOD9404462
Probable space group: P M M A
;
_chemical_formula_sum "Si O2"
_cell_formula_units_Z 64
_cell_length_a 8.366341
_cell_length_b 18.957245
_cell_length_c 21.168448
_cell_angle_alpha 90.000000
_cell_angle_beta 90.000000
_cell_angle_gamma 90.000000
_cell_volume 3357.374618
_symmetry_space_group_name_H-M "P M M A"
_symmetry_group_IT_number 51
_symmetry_cell_setting 'orthorhombic'
loop_
_space_group_symop_operation_xyz
x,y,z
1/2-x,-y,z
1/2+x,-y,-z
-x,y,-z
-x,-y,-z
1/2+x,y,-z
1/2-x,y,z
x,-y,z
loop_
_atom_site_type_symbol
_atom_site_label
_atom_site_fract_x
_atom_site_fract_y
_atom_site_fract_z
Si Si1 0.942753 0.674287 0.430655
Si Si2 0.945523 0.581242 0.312191
Si Si3 0.441201 0.919333 0.308526
Si Si4 0.558739 0.581298 0.930677
Si Si5 0.557090 0.081361 0.069287
Si Si6 0.943234 0.170666 0.189709
Si Si7 0.556985 0.332258 0.189018
Si Si8 0.558356 0.837179 0.430389
O O1 0.750000 0.674155 0.430457
O O2 0.997797 0.623559 0.374493
O O3 0.994605 0.755582 0.420271
O O4 0.000000 0.652117 0.500000
O O5 0.750000 0.581293 0.312250
O O6 0.997448 0.500000 0.312049
O O7 0.997934 0.622536 0.249429
O O8 0.250000 0.919627 0.305483
O O9 0.505943 0.872409 0.251236
O O10 0.493418 0.885700 0.374812
O O11 0.499250 0.000000 0.302945
O O12 0.750000 0.581956 0.930013
O O13 0.503996 0.500000 0.920770
O O14 0.495009 0.630245 0.875212
O O15 0.500000 0.603519 0.000000
O O16 0.750000 0.081599 0.069449
O O17 0.500939 0.130649 0.126376
O O18 0.504105 0.000000 0.078965
O O19 0.500000 0.104200 0.000000
O O20 0.750000 0.171770 0.188131
O O21 0.999503 0.251472 0.192291
O O22 0.750000 0.331189 0.190903
O O23 0.500000 0.858635 0.500000
O O24 0.750000 0.838540 0.428998
#
# Coordination Sequence:
#
# PCOD9404462 Si02
#       8
#     8   8   8   8   8   8   8   8
#     4   9  18  33  53  78 106 137 175 215 257 309
#     4   9  17  30  50  75 104 139 176 214 259 313
#     4  11  24  39  56  81 111 143 182 227 274 325
#     4  10  21  37  57  81 110 145 184 226 274 328
#     4   9  18  33  53  76 103 136 173 214 262 316
#     4  10  21  37  57  81 109 143 183 225 271 326
#     4  10  20  35  56  81 108 140 181 227 275 327
#     4  10  20  36  58  81 108 142 179 222 271 325
#
# _framework density 19.062512999999999
#
# number of rings (size 3 to 8) (size 9 to 14) (size 15 to 20)
#    0.000    2.250    0.000    2.625    0.000    7.250 
#    0.000    3.125    0.000    0.750    0.000    0.000 
#    0.000    0.000    0.000    0.000    0.000    0.000 
#
# Total GULP energy -357411.232720 kJ/mol
# GULP energy per Si atom -5584.550511 kJ/mol
# Density = 1.901913 g / cm^3
# Si number density = 19.062513 Si / 1000 Ang^3
#
#
#
# Elastic Constant Matrix: (Units=GPa)
#
#
# Indices 1 2 3 4 5 6 
#
# 1 4.4950 15.9007 10.3230 0.0000 0.0000 0.0000
# 2 15.9007 147.1610 122.6428 0.0000 0.0000 0.0000
# 3 10.3230 122.6428 182.5110 0.0000 0.0000 0.0000
# 4 0.0000 0.0000 0.0000 42.8553 0.0000 0.0000
# 5 0.0000 0.0000 0.0000 0.0000 33.5369 0.0000
# 6 0.0000 0.0000 0.0000 0.0000 0.0000 -1.3681
#
#
#
# Elastic Compliance Matrix: (Units=1/GPa)
#
#
# Indices 1 2 3 4 5 6 
#
# 1 0.374519 -0.051849 0.013658 0.000000 0.000000 0.000000
# 2 -0.051849 0.022623 -0.012269 0.000000 0.000000 0.000000
# 3 0.013658 -0.012269 0.012951 0.000000 0.000000 0.000000
# 4 0.000000 0.000000 0.000000 0.023334 0.000000 0.000000
# 5 0.000000 0.000000 0.000000 0.000000 0.029818 0.000000
# 6 0.000000 0.000000 0.000000 0.000000 0.000000 -0.730945
#
#
# Mechanical properties :
#
#
# Convention : Reuss Voigt Hill
#
# Bulk Modulus (GPa) = 3.23444 70.21113 36.72279
# Shear Modulus (GPa) = -78.46614 27.35817 -25.55398
#
# Velocity S-wave (km/s) = -6.42276 3.79249 -3.66531
# Velocity P-wave (km/s) = 7.30083 7.48928 1.18051
#
# Compressibility (1/GPa) = 0.30917234
#
# Stress axis : x y z
#
# Youngs Moduli (GPa) = 2.67009 44.20363 77.21313
#
# Poissons Ratio (x) = 2.29192 -1.05459
# Poissons Ratio (y) = 0.13844 0.94734
# Poissons Ratio (z) = -0.03647 0.54234
#
# Static dielectric constant tensor:
#      x y z
#    x 1.650020 0.000000 0.000000 
#    y 0.000000 1.658490 0.000000 
#    z 0.000000 0.000000 1.623360 
# 
# From -- ./inp_files/28438.got.cif
#   From: 2010.05.17/outbox.cif.g08.bks.cpg/sg51_15_cif.got.tgz:28438.got - 2010.06.03 11:52:47.
