data_PCOD9404193
_publ_section_title
;
Structure prediction by ZEFSAII (Michael W. Deem and Ramdas Pophale) SiO2 
 PCOD9404193
Probable space group: P M M A
;
_chemical_formula_sum "Si O2"
_cell_formula_units_Z 64
_cell_length_a 19.953493
_cell_length_b 8.770964
_cell_length_c 21.133934
_cell_angle_alpha 90.000000
_cell_angle_beta 90.000000
_cell_angle_gamma 90.000000
_cell_volume 3698.678717
_symmetry_space_group_name_H-M "P M M A"
_symmetry_group_IT_number 51
_symmetry_cell_setting 'orthorhombic'
loop_
_space_group_symop_operation_xyz
x,y,z
1/2-x,-y,z
1/2+x,-y,-z
-x,y,-z
-x,-y,-z
1/2+x,y,-z
1/2-x,y,z
x,-y,z
loop_
_atom_site_type_symbol
_atom_site_label
_atom_site_fract_x
_atom_site_fract_y
_atom_site_fract_z
Si Si1 0.540980 0.316329 0.062002
Si Si2 0.673644 0.816827 0.864994
Si Si3 0.960195 0.317707 0.813147
Si Si4 0.825284 0.816901 0.014331
Si Si5 0.673515 0.818394 0.490700
Si Si6 0.539265 0.818866 0.680384
Si Si7 0.957505 0.682644 0.436773
Si Si8 0.673752 0.317695 0.631539
O O1 0.541215 0.500000 0.060934
O O2 0.503823 0.268295 0.126072
O O3 0.616069 0.256902 0.054575
O O4 0.500000 0.262814 0.000000
O O5 0.750000 0.777037 0.846792
O O6 0.616033 0.732397 0.827060
O O7 0.666249 0.000000 0.858259
O O8 0.665627 0.779698 0.939741
O O9 0.963629 0.500000 0.807405
O O10 0.983737 0.240962 0.748501
O O11 0.750000 0.768938 0.032332
O O12 0.828834 0.000000 0.019145
O O13 0.750000 0.791208 0.468714
O O14 0.616049 0.753127 0.445843
O O15 0.666550 0.737326 0.558907
O O16 0.664769 0.000000 0.499066
O O17 0.495890 0.747293 0.623831
O O18 0.615755 0.763380 0.670542
O O19 0.536227 0.000000 0.677035
O O20 0.953594 0.500000 0.432900
O O21 0.000000 0.721794 0.500000
O O22 0.750000 0.280817 0.651594
O O23 0.664841 0.500000 0.634292
#
# Coordination Sequence:
#
# PCOD9404193 Si02
#       8
#     8   8   8   8   8   8   8   8
#     4  10  20  35  55  82 110 142 183 227 274 325
#     4   9  18  33  52  77 110 146 185 224 266 322
#     4  11  23  38  55  77 111 147 185 229 275 331
#     4   9  18  32  53  82 112 142 179 225 274 324
#     4  10  20  34  56  87 118 147 183 228 276 325
#     4  12  25  39  57  80 111 148 189 233 279 330
#     4  11  22  37  60  86 113 148 187 229 278 330
#     4  10  20  35  55  80 112 149 188 227 271 326
#
# _framework density 17.303476
#
# number of rings (size 3 to 8) (size 9 to 14) (size 15 to 20)
#    0.000    1.750    2.500    3.375    0.000    4.250 
#    0.000    1.250    0.000    0.750    0.000    3.500 
#    0.000    0.000    0.000    0.000    0.000    0.000 
#
# Total GULP energy -357459.844208 kJ/mol
# GULP energy per Si atom -5585.310066 kJ/mol
# Density = 1.726409 g / cm^3
# Si number density = 17.303476 Si / 1000 Ang^3
#
#
#
# Elastic Constant Matrix: (Units=GPa)
#
#
# Indices 1 2 3 4 5 6 
#
# 1 101.2396 32.0755 56.9447 0.0000 0.0000 0.0000
# 2 32.0755 46.4142 35.1176 0.0000 0.0000 0.0000
# 3 56.9447 35.1176 106.9783 0.0000 0.0000 0.0000
# 4 0.0000 0.0000 0.0000 24.2480 0.0000 0.0000
# 5 0.0000 0.0000 0.0000 0.0000 19.3517 0.0000
# 6 0.0000 0.0000 0.0000 0.0000 0.0000 32.2267
#
#
#
# Elastic Compliance Matrix: (Units=1/GPa)
#
#
# Indices 1 2 3 4 5 6 
#
# 1 0.015199 -0.005830 -0.006176 0.000000 0.000000 0.000000
# 2 -0.005830 0.030901 -0.007040 0.000000 0.000000 0.000000
# 3 -0.006176 -0.007040 0.014947 0.000000 0.000000 0.000000
# 4 0.000000 0.000000 0.000000 0.041240 0.000000 0.000000
# 5 0.000000 0.000000 0.000000 0.000000 0.051675 0.000000
# 6 0.000000 0.000000 0.000000 0.000000 0.000000 0.031030
#
#
# Mechanical properties :
#
#
# Convention : Reuss Voigt Hill
#
# Bulk Modulus (GPa) = 43.56872 55.87862 49.72367
# Shear Modulus (GPa) = 21.66967 23.86491 22.76729
#
# Velocity S-wave (km/s) = 3.54267 3.71778 3.63128
# Velocity P-wave (km/s) = 6.47826 7.12689 6.81030
#
# Compressibility (1/GPa) = 0.02295225
#
# Stress axis : x y z
#
# Youngs Moduli (GPa) = 65.79437 32.36132 66.90496
#
# Poissons Ratio (x) = 0.18868 0.41324
# Poissons Ratio (y) = 0.38360 0.47104
# Poissons Ratio (z) = 0.40638 0.22784
#
# Static dielectric constant tensor:
#      x y z
#    x 1.587820 0.000000 0.000000 
#    y 0.000000 1.575570 0.000000 
#    z 0.000000 0.000000 1.576970 
# 
# From -- ./inp_files/33790.got.cif
#   From: 2010.05.17/outbox.cif.g08.bks.cpg/sg51_17_cif.got.tgz:33790.got - 2010.06.03 11:52:47.
