data_PCOD9404882
_publ_section_title
;
Structure prediction by ZEFSAII (Michael W. Deem and Ramdas Pophale) SiO2 
 PCOD9404882
Probable space group: P M M A
;
_chemical_formula_sum "Si O2"
_cell_formula_units_Z 48
_cell_length_a 18.306895
_cell_length_b 7.875970
_cell_length_c 15.523388
_cell_angle_alpha 90.000000
_cell_angle_beta 90.000000
_cell_angle_gamma 90.000000
_cell_volume 2238.232803
_symmetry_space_group_name_H-M "P M M A"
_symmetry_group_IT_number 51
_symmetry_cell_setting 'orthorhombic'
loop_
_space_group_symop_operation_xyz
x,y,z
1/2-x,-y,z
1/2+x,-y,-z
-x,y,-z
-x,-y,-z
1/2+x,y,-z
1/2-x,y,z
x,-y,z
loop_
_atom_site_type_symbol
_atom_site_label
_atom_site_fract_x
_atom_site_fract_y
_atom_site_fract_z
Si Si1 0.569072 0.697236 0.311341
Si Si2 0.082784 0.705330 0.017372
Si Si3 0.333028 0.798948 0.188732
Si Si4 0.411000 0.302646 0.359834
Si Si5 0.333608 0.198295 0.532624
Si Si6 0.833533 0.291906 0.153980
O O1 0.554200 0.500000 0.289371
O O2 0.490472 0.772308 0.335996
O O3 0.620979 0.707574 0.394015
O O4 0.612722 0.769016 0.229675
O O5 0.081898 0.500000 0.018454
O O6 0.115015 0.763425 0.107995
O O7 0.134541 0.759158 0.938466
O O8 0.000000 0.763075 0.000000
O O9 0.250000 0.744830 0.168589
O O10 0.362253 0.710846 0.274594
O O11 0.332750 0.000000 0.205663
O O12 0.420531 0.500000 0.384400
O O13 0.372287 0.216701 0.440588
O O14 0.250000 0.259242 0.527578
O O15 0.332966 0.000000 0.556331
O O16 0.750000 0.236430 0.166555
O O17 0.833009 0.500000 0.156510
#
# Coordination Sequence:
#
# PCOD9404882 Si02
#       6
#     8   8   8   8   8   8
#     4  10  21  38  60  86 114 146 189 239 288 340
#     4  10  20  36  59  86 116 151 194 242 289 341
#     4  11  24  40  58  84 119 157 196 239 290 348
#     4  11  23  39  61  87 113 147 194 243 290 342
#     4  11  24  40  58  84 118 153 189 231 283 344
#     4   9  17  31  54  82 110 143 184 230 280 333
#
# _framework density 21.445489999999999
#
# number of rings (size 3 to 8) (size 9 to 14) (size 15 to 20)
#    0.000    1.667    0.000    4.500    0.000   12.333 
#    0.000    0.833    0.000    3.000    0.000    0.000 
#    0.000    0.000    0.000    0.000    0.000    0.000 
#
# Total GULP energy -268402.507145 kJ/mol
# GULP energy per Si atom -5591.718899 kJ/mol
# Density = 2.139668 g / cm^3
# Si number density = 21.445490 Si / 1000 Ang^3
#
#
#
# Elastic Constant Matrix: (Units=GPa)
#
#
# Indices 1 2 3 4 5 6 
#
# 1 60.8204 0.3056 -30.1912 0.0000 0.0000 0.0000
# 2 0.3056 25.6404 -14.0925 0.0000 0.0000 0.0000
# 3 -30.1912 -14.0925 58.3451 0.0000 0.0000 0.0000
# 4 0.0000 0.0000 0.0000 87.9710 0.0000 0.0000
# 5 0.0000 0.0000 0.0000 0.0000 44.9331 0.0000
# 6 0.0000 0.0000 0.0000 0.0000 0.0000 0.5483
#
#
#
# Elastic Compliance Matrix: (Units=1/GPa)
#
#
# Indices 1 2 3 4 5 6 
#
# 1 0.023254 0.007307 0.013798 0.000000 0.000000 0.000000
# 2 0.007307 0.047267 0.015198 0.000000 0.000000 0.000000
# 3 0.013798 0.015198 0.027950 0.000000 0.000000 0.000000
# 4 0.000000 0.000000 0.000000 0.011367 0.000000 0.000000
# 5 0.000000 0.000000 0.000000 0.000000 0.022255 0.000000
# 6 0.000000 0.000000 0.000000 0.000000 0.000000 1.823934
#
#
# Mechanical properties :
#
#
# Convention : Reuss Voigt Hill
#
# Bulk Modulus (GPa) = 5.84537 6.31663 6.08100
# Shear Modulus (GPa) = 2.57672 39.27607 20.92640
#
# Velocity S-wave (km/s) = 1.09733 4.28417 3.12716
# Velocity P-wave (km/s) = 2.08257 5.23679 3.98504
#
# Compressibility (1/GPa) = 0.17107567
#
# Stress axis : x y z
#
# Youngs Moduli (GPa) = 43.00248 21.15649 35.77806
#
# Poissons Ratio (x) = -0.15458 -0.49367
# Poissons Ratio (y) = -0.31420 -0.54374
# Poissons Ratio (z) = -0.59335 -0.32153
#
# Static dielectric constant tensor:
#      x y z
#    x 1.770450 0.000000 0.000000 
#    y 0.000000 1.864090 0.000000 
#    z 0.000000 0.000000 1.709520 
# 
# From -- ./inp_files/24718.got.cif
#   From: 2010.05.17/outbox.cif.g08.bks.cpg/sg51_13_cif.got.tgz:24718.got - 2010.06.03 11:52:47.
