data_PCOD9404170
_publ_section_title
;
Structure prediction by ZEFSAII (Michael W. Deem and Ramdas Pophale) SiO2 
 PCOD9404170
Probable space group: P M M A
;
_chemical_formula_sum "Si O2"
_cell_formula_units_Z 44
_cell_length_a 8.709334
_cell_length_b 18.348072
_cell_length_c 14.642527
_cell_angle_alpha 90.000000
_cell_angle_beta 90.000000
_cell_angle_gamma 90.000000
_cell_volume 2339.868307
_symmetry_space_group_name_H-M "P M M A"
_symmetry_group_IT_number 51
_symmetry_cell_setting 'orthorhombic'
loop_
_space_group_symop_operation_xyz
x,y,z
1/2-x,-y,z
1/2+x,-y,-z
-x,y,-z
-x,-y,-z
1/2+x,y,-z
1/2-x,y,z
x,-y,z
loop_
_atom_site_type_symbol
_atom_site_label
_atom_site_fract_x
_atom_site_fract_y
_atom_site_fract_z
Si Si1 0.064533 0.418308 0.718230
Si Si2 0.933563 0.000000 0.602351
Si Si3 0.934411 0.136231 0.286575
Si Si4 0.933336 0.354612 0.902354
Si Si5 0.433725 0.182421 0.098105
Si Si6 0.065065 0.280739 0.600976
O O1 0.250000 0.415906 0.721141
O O2 0.017251 0.500000 0.691906
O O3 0.012092 0.355562 0.648649
O O4 0.002706 0.398492 0.818193
O O5 0.000000 0.000000 0.500000
O O6 0.993189 0.929481 0.656660
O O7 0.750000 0.000000 0.598322
O O8 0.750000 0.130024 0.287094
O O9 0.978197 0.212086 0.336129
O O10 0.994729 0.140030 0.183215
O O11 0.750000 0.361126 0.903140
O O12 0.972962 0.268624 0.890645
O O13 0.000000 0.378118 0.000000
O O14 0.250000 0.175727 0.098321
O O15 0.500000 0.159465 0.000000
O O16 0.250000 0.282035 0.596112
O O17 0.000000 0.272643 0.500000
#
# Coordination Sequence:
#
# PCOD9404170 Si02
#       6
#     8   4   8   8   8   8
#     4  10  21  38  57  80 114 154 197 247 300 352
#     4  12  26  44  65  94 129 162 202 248 300 356
#     4  11  22  40  65  92 123 160 200 245 298 355
#     4  10  20  34  56  84 116 153 196 243 295 352
#     4  10  20  35  59  91 123 159 199 245 294 353
#     4  10  22  38  59  85 113 150 196 244 295 353
#
# _framework density 18.804476000000001
#
# number of rings (size 3 to 8) (size 9 to 14) (size 15 to 20)
#    0.000    1.636    1.818    3.000    0.000    6.182 
#    0.000    0.455    0.000    0.000    0.000    0.000 
#    0.000    0.000    0.000    0.000    0.000    0.000 
#
# Total GULP energy -245914.203083 kJ/mol
# GULP energy per Si atom -5588.959161 kJ/mol
# Density = 1.876168 g / cm^3
# Si number density = 18.804476 Si / 1000 Ang^3
#
#
#
# Elastic Constant Matrix: (Units=GPa)
#
#
# Indices 1 2 3 4 5 6 
#
# 1 47.5601 48.5316 44.9423 0.0000 0.0000 0.0000
# 2 48.5316 120.2131 82.6999 0.0000 0.0000 0.0000
# 3 44.9423 82.6999 166.1562 0.0000 0.0000 0.0000
# 4 0.0000 0.0000 0.0000 8.8065 0.0000 0.0000
# 5 0.0000 0.0000 0.0000 0.0000 39.1533 0.0000
# 6 0.0000 0.0000 0.0000 0.0000 0.0000 12.7555
#
#
#
# Elastic Compliance Matrix: (Units=1/GPa)
#
#
# Indices 1 2 3 4 5 6 
#
# 1 0.037390 -0.012375 -0.003954 0.000000 0.000000 0.000000
# 2 -0.012375 0.016745 -0.004988 0.000000 0.000000 0.000000
# 3 -0.003954 -0.004988 0.009570 0.000000 0.000000 0.000000
# 4 0.000000 0.000000 0.000000 0.113553 0.000000 0.000000
# 5 0.000000 0.000000 0.000000 0.000000 0.025541 0.000000
# 6 0.000000 0.000000 0.000000 0.000000 0.000000 0.078398
#
#
# Mechanical properties :
#
#
# Convention : Reuss Voigt Hill
#
# Bulk Modulus (GPa) = 47.45358 76.25298 61.85328
# Shear Modulus (GPa) = 15.11240 22.66008 18.88624
#
# Velocity S-wave (km/s) = 2.83796 3.47513 3.17258
# Velocity P-wave (km/s) = 6.00240 7.53263 6.81063
#
# Compressibility (1/GPa) = 0.02107323
#
# Stress axis : x y z
#
# Youngs Moduli (GPa) = 26.74522 59.71770 104.48899
#
# Poissons Ratio (x) = 0.73898 0.41317
# Poissons Ratio (y) = 0.33096 0.52114
# Poissons Ratio (z) = 0.10576 0.29784
#
# Static dielectric constant tensor:
#      x y z
#    x 1.626760 0.000000 0.000000 
#    y 0.000000 1.656260 0.000000 
#    z 0.000000 0.000000 1.609940 
# 
# From -- ./inp_files/20969.got.cif
#   From: 2010.05.17/outbox.cif.g08.bks.cpg/sg51_11_cif.got.tgz:20969.got - 2010.06.03 11:52:47.
