data_PCOD9404954
_publ_section_title
;
Structure prediction by ZEFSAII (Michael W. Deem and Ramdas Pophale) SiO2 
 PCOD9404954
Probable space group: P M M A
;
_chemical_formula_sum "Si O2"
_cell_formula_units_Z 48
_cell_length_a 14.662265
_cell_length_b 17.277165
_cell_length_c 9.077977
_cell_angle_alpha 90.000000
_cell_angle_beta 90.000000
_cell_angle_gamma 90.000000
_cell_volume 2299.654664
_symmetry_space_group_name_H-M "P M M A"
_symmetry_group_IT_number 51
_symmetry_cell_setting 'orthorhombic'
loop_
_space_group_symop_operation_xyz
x,y,z
1/2-x,-y,z
1/2+x,-y,-z
-x,y,-z
-x,-y,-z
1/2+x,y,-z
1/2-x,y,z
x,-y,z
loop_
_atom_site_type_symbol
_atom_site_label
_atom_site_fract_x
_atom_site_fract_y
_atom_site_fract_z
Si Si1 0.848991 0.694191 0.684346
Si Si2 0.603535 0.416255 0.440240
Si Si3 0.968769 0.912682 0.335213
Si Si4 0.969617 0.360366 0.152000
Si Si5 0.851244 0.863964 0.803999
Si Si6 0.143660 0.797209 0.865767
O O1 0.750000 0.672664 0.749635
O O2 0.853135 0.657404 0.521419
O O3 0.855667 0.786271 0.703099
O O4 0.935160 0.659765 0.768391
O O5 0.500000 0.417857 0.500000
O O6 0.644609 0.500000 0.478257
O O7 0.593249 0.406213 0.266045
O O8 0.900887 0.852512 0.257629
O O9 0.000000 0.890339 0.500000
O O10 0.061741 0.912755 0.240664
O O11 0.930374 0.000000 0.340718
O O12 0.916034 0.280417 0.122423
O O13 0.000000 0.398622 0.000000
O O14 0.750000 0.898246 0.783794
O O15 0.860049 0.837757 0.973880
O O16 0.250000 0.781001 0.833945
#
# Coordination Sequence:
#
# PCOD9404954 Si02
#       6
#     8   8   8   8   8   8
#     4  10  20  36  61  89 120 159 204 255 306 364
#     4   9  21  38  57  86 122 162 203 244 300 366
#     4  11  25  42  62  91 126 161 199 249 311 371
#     4  11  20  36  62  91 125 162 206 261 309 363
#     4  10  21  39  63  92 121 158 210 256 304 367
#     4  11  23  40  63  91 122 161 209 257 308 363
#
# _framework density 20.872699000000001
#
# number of rings (size 3 to 8) (size 9 to 14) (size 15 to 20)
#    0.000    1.667    3.333    0.500    2.333    4.000 
#    0.000    3.333    0.000    0.000    0.000    0.000 
#    0.000    0.000    0.000    0.000    0.000    0.000 
#
# Total GULP energy -267836.757662 kJ/mol
# GULP energy per Si atom -5579.932451 kJ/mol
# Density = 2.082519 g / cm^3
# Si number density = 20.872699 Si / 1000 Ang^3
#
#
#
# Elastic Constant Matrix: (Units=GPa)
#
#
# Indices 1 2 3 4 5 6 
#
# 1 110.2865 11.8415 18.8788 0.0000 0.0000 0.0000
# 2 11.8415 60.2520 36.8456 0.0000 0.0000 0.0000
# 3 18.8788 36.8456 102.5257 0.0000 0.0000 0.0000
# 4 0.0000 0.0000 0.0000 3.2636 0.0000 0.0000
# 5 0.0000 0.0000 0.0000 0.0000 18.6078 0.0000
# 6 0.0000 0.0000 0.0000 0.0000 0.0000 45.6889
#
#
#
# Elastic Compliance Matrix: (Units=1/GPa)
#
#
# Indices 1 2 3 4 5 6 
#
# 1 0.009410 -0.001012 -0.001369 0.000000 0.000000 0.000000
# 2 -0.001012 0.021381 -0.007497 0.000000 0.000000 0.000000
# 3 -0.001369 -0.007497 0.012700 0.000000 0.000000 0.000000
# 4 0.000000 0.000000 0.000000 0.306414 0.000000 0.000000
# 5 0.000000 0.000000 0.000000 0.000000 0.053741 0.000000
# 6 0.000000 0.000000 0.000000 0.000000 0.000000 0.021887
#
#
# Mechanical properties :
#
#
# Convention : Reuss Voigt Hill
#
# Bulk Modulus (GPa) = 42.13384 45.35512 43.74448
# Shear Modulus (GPa) = 11.03261 27.21193 19.12227
#
# Velocity S-wave (km/s) = 2.30155 3.61461 3.03006
# Velocity P-wave (km/s) = 5.22425 6.26076 5.76584
#
# Compressibility (1/GPa) = 0.02373389
#
# Stress axis : x y z
#
# Youngs Moduli (GPa) = 106.26625 46.77098 78.73922
#
# Poissons Ratio (x) = 0.04734 0.10779
# Poissons Ratio (y) = 0.10757 0.59034
# Poissons Ratio (z) = 0.14548 0.35066
#
# Static dielectric constant tensor:
#      x y z
#    x 1.744460 0.000000 0.000000 
#    y 0.000000 1.757320 0.000000 
#    z 0.000000 0.000000 1.775610 
# 
# From -- ./inp_files/8282.got.cif
#   From: 2010.05.17/outbox.cif.g08.bks.cpg/sg51_5_cif.got.tgz:8282.got - 2010.06.03 11:52:47.
