data_PCOD9404599
_publ_section_title
;
Structure prediction by ZEFSAII (Michael W. Deem and Ramdas Pophale) SiO2 
 PCOD9404599
Probable space group: P M M A
;
_chemical_formula_sum "Si O2"
_cell_formula_units_Z 64
_cell_length_a 14.348443
_cell_length_b 18.185104
_cell_length_c 12.126136
_cell_angle_alpha 90.000000
_cell_angle_beta 90.000000
_cell_angle_gamma 90.000000
_cell_volume 3164.047543
_symmetry_space_group_name_H-M "P M M A"
_symmetry_group_IT_number 51
_symmetry_cell_setting 'orthorhombic'
loop_
_space_group_symop_operation_xyz
x,y,z
1/2-x,-y,z
1/2+x,-y,-z
-x,y,-z
-x,-y,-z
1/2+x,y,-z
1/2-x,y,z
x,-y,z
loop_
_atom_site_type_symbol
_atom_site_label
_atom_site_fract_x
_atom_site_fract_y
_atom_site_fract_z
Si Si1 0.646308 0.891496 0.834524
Si Si2 0.980106 0.583668 0.815704
Si Si3 0.353556 0.381341 0.976822
Si Si4 0.495188 0.295620 0.627715
Si Si5 0.431963 0.082262 0.851107
Si Si6 0.644003 0.168325 0.605461
Si Si7 0.639509 0.835328 0.356040
Si Si8 0.609750 0.782016 0.001732
O O1 0.750000 0.920182 0.865567
O O2 0.544246 0.919272 0.873557
O O3 0.640822 0.890866 0.702649
O O4 0.644104 0.808328 0.882592
O O5 0.964636 0.500000 0.778765
O O6 0.075027 0.587383 0.887403
O O7 0.989071 0.640693 0.715760
O O8 0.899805 0.605997 0.903154
O O9 0.250000 0.411997 0.970791
O O10 0.348282 0.293413 0.958431
O O11 0.500000 0.321226 0.500000
O O12 0.574888 0.233643 0.635644
O O13 0.402072 0.247442 0.651839
O O14 0.413334 0.111200 0.727922
O O15 0.381324 0.145167 0.923272
O O16 0.396079 0.000000 0.868875
O O17 0.750000 0.196461 0.601119
O O18 0.621861 0.141303 0.482648
O O19 0.750000 0.836902 0.334118
O O20 0.500000 0.766656 0.000000
#
# Coordination Sequence:
#
# PCOD9404599 Si02
#       8
#     8   8   8   8   8   8   8   8
#     4  10  20  35  58  85 114 149 189 243 298 351
#     4  11  24  39  58  92 128 158 195 240 294 363
#     4  11  22  39  64  89 116 158 203 250 298 344
#     4  10  20  37  63  89 119 158 198 244 294 352
#     4  11  24  39  57  83 119 158 194 243 303 357
#     4   9  18  35  62  91 112 140 194 251 292 337
#     4  10  21  38  60  85 114 151 201 250 290 344
#     4  10  20  36  59  87 115 147 196 243 288 351
#
# _framework density 20.227256000000001
#
# number of rings (size 3 to 8) (size 9 to 14) (size 15 to 20)
#    0.000    1.750    2.500    2.625    0.000    8.000 
#    0.000    1.250    0.000    2.250    0.000    5.250 
#    0.000    0.000    0.000    0.000    0.000    0.000 
#
# Total GULP energy -357066.324491 kJ/mol
# GULP energy per Si atom -5579.161320 kJ/mol
# Density = 2.018122 g / cm^3
# Si number density = 20.227256 Si / 1000 Ang^3
#
#
#
# Elastic Constant Matrix: (Units=GPa)
#
#
# Indices 1 2 3 4 5 6 
#
# 1 112.3020 10.2611 13.7946 0.0000 0.0000 0.0000
# 2 10.2611 84.0511 13.8023 0.0000 0.0000 0.0000
# 3 13.7946 13.8023 69.2021 0.0000 0.0000 0.0000
# 4 0.0000 0.0000 0.0000 -19.4224 0.0000 0.0000
# 5 0.0000 0.0000 0.0000 0.0000 -83.6825 0.0000
# 6 0.0000 0.0000 0.0000 0.0000 0.0000 -17.6016
#
#
#
# Elastic Compliance Matrix: (Units=1/GPa)
#
#
# Indices 1 2 3 4 5 6 
#
# 1 0.009186 -0.000849 -0.001662 0.000000 0.000000 0.000000
# 2 -0.000849 0.012379 -0.002300 0.000000 0.000000 0.000000
# 3 -0.001662 -0.002300 0.015240 0.000000 0.000000 0.000000
# 4 0.000000 0.000000 0.000000 -0.051487 0.000000 0.000000
# 5 0.000000 0.000000 0.000000 0.000000 -0.011950 0.000000
# 6 0.000000 0.000000 0.000000 0.000000 0.000000 -0.056813
#
#
# Mechanical properties :
#
#
# Convention : Reuss Voigt Hill
#
# Bulk Modulus (GPa) = 36.78515 37.91901 37.35208
# Shear Modulus (GPa) = -77.20541 -8.96150 -43.08345
#
# Velocity S-wave (km/s) = -6.18481 -2.10714 -4.62017
# Velocity P-wave (km/s) = 5.72513 3.58708 3.15515
#
# Compressibility (1/GPa) = 0.02718488
#
# Stress axis : x y z
#
# Youngs Moduli (GPa) = 108.85850 80.78347 65.61502
#
# Poissons Ratio (x) = 0.06855 0.10905
# Poissons Ratio (y) = 0.09237 0.15090
# Poissons Ratio (z) = 0.18091 0.18579
#
# Static dielectric constant tensor:
#      x y z
#    x 1.760340 0.000000 0.000000 
#    y 0.000000 1.698290 0.000000 
#    z 0.000000 0.000000 1.763820 
# 
# From -- ./inp_files/16882.got.cif
#   From: 2010.05.17/outbox.cif.g08.bks.cpg/sg51_9_cif.got.tgz:16882.got - 2010.06.03 11:52:47.
