data_PCOD9404457
_publ_section_title
;
Structure prediction by ZEFSAII (Michael W. Deem and Ramdas Pophale) SiO2 
 PCOD9404457
Probable space group: P M M A
;
_chemical_formula_sum "Si O2"
_cell_formula_units_Z 48
_cell_length_a 19.765356
_cell_length_b 14.072190
_cell_length_c 9.175439
_cell_angle_alpha 90.000000
_cell_angle_beta 90.000000
_cell_angle_gamma 90.000000
_cell_volume 2552.073533
_symmetry_space_group_name_H-M "P M M A"
_symmetry_group_IT_number 51
_symmetry_cell_setting 'orthorhombic'
loop_
_space_group_symop_operation_xyz
x,y,z
1/2-x,-y,z
1/2+x,-y,-z
-x,y,-z
-x,-y,-z
1/2+x,y,-z
1/2-x,y,z
x,-y,z
loop_
_atom_site_type_symbol
_atom_site_label
_atom_site_fract_x
_atom_site_fract_y
_atom_site_fract_z
Si Si1 0.075632 0.391929 0.439124
Si Si2 0.541358 0.894531 0.202515
Si Si3 0.626272 0.108232 0.481915
Si Si4 0.829422 0.810061 0.057302
Si Si5 0.089471 0.215447 0.229393
Si Si6 0.823923 0.703559 0.342863
O O1 0.090451 0.500000 0.395501
O O2 0.084882 0.316315 0.310027
O O3 0.122173 0.358499 0.572968
O O4 0.000000 0.386263 0.500000
O O5 0.561770 0.886966 0.373122
O O6 0.612610 0.881111 0.118410
O O7 0.483867 0.817640 0.170234
O O8 0.514663 0.000000 0.173895
O O9 0.608028 0.139233 0.644736
O O10 0.673114 0.190972 0.415742
O O11 0.651914 0.000000 0.475410
O O12 0.750000 0.840362 0.060901
O O13 0.835588 0.723055 0.172234
O O14 0.854567 0.785053 0.896331
O O15 0.750000 0.662291 0.364400
#
# Coordination Sequence:
#
# PCOD9404457 Si02
#       6
#     8   8   8   8   8   8
#     4  10  21  38  61  87 110 135 174 227 284 336
#     4  10  20  35  56  80 109 150 194 227 261 316
#     4   9  18  32  53  81 110 140 180 229 275 320
#     4  10  22  37  52  75 112 152 184 220 269 320
#     4  11  20  33  57  85 112 142 179 230 282 329
#     4   9  19  37  57  76 104 145 187 221 260 321
#
# _framework density 18.808235
#
# number of rings (size 3 to 8) (size 9 to 14) (size 15 to 20)
#    0.000    2.167    0.000    4.500    0.000    7.000 
#    0.000    4.167    0.000    5.000    0.000    0.000 
#    0.000    0.000    0.000    0.000    0.000    0.000 
#
# Total GULP energy -267646.509674 kJ/mol
# GULP energy per Si atom -5575.968952 kJ/mol
# Density = 1.876543 g / cm^3
# Si number density = 18.808235 Si / 1000 Ang^3
#
#
#
# Elastic Constant Matrix: (Units=GPa)
#
#
# Indices 1 2 3 4 5 6 
#
# 1 98.8555 26.0881 44.7412 0.0000 0.0000 0.0000
# 2 26.0881 80.2613 28.7966 0.0000 0.0000 0.0000
# 3 44.7412 28.7966 116.9749 0.0000 0.0000 0.0000
# 4 0.0000 0.0000 0.0000 4.1204 0.0000 0.0000
# 5 0.0000 0.0000 0.0000 0.0000 20.9346 0.0000
# 6 0.0000 0.0000 0.0000 0.0000 0.0000 -4.1264
#
#
#
# Elastic Compliance Matrix: (Units=1/GPa)
#
#
# Indices 1 2 3 4 5 6 
#
# 1 0.012717 -0.002620 -0.004219 0.000000 0.000000 0.000000
# 2 -0.002620 0.014206 -0.002495 0.000000 0.000000 0.000000
# 3 -0.004219 -0.002495 0.010777 0.000000 0.000000 0.000000
# 4 0.000000 0.000000 0.000000 0.242697 0.000000 0.000000
# 5 0.000000 0.000000 0.000000 0.000000 0.047768 0.000000
# 6 0.000000 0.000000 0.000000 0.000000 0.000000 -0.242343
#
#
# Mechanical properties :
#
#
# Convention : Reuss Voigt Hill
#
# Bulk Modulus (GPa) = 52.54404 55.03817 53.79110
# Shear Modulus (GPa) = 45.11320 17.28343 31.19831
#
# Velocity S-wave (km/s) = 4.90285 3.03467 4.07720
# Velocity P-wave (km/s) = 7.74906 6.45022 7.12928
#
# Compressibility (1/GPa) = 0.01903165
#
# Stress axis : x y z
#
# Youngs Moduli (GPa) = 78.63738 70.39247 92.79175
#
# Poissons Ratio (x) = 0.18441 0.39149
# Poissons Ratio (y) = 0.20600 0.23154
# Poissons Ratio (z) = 0.33177 0.17565
#
# Static dielectric constant tensor:
#      x y z
#    x 1.680960 0.000000 0.000000 
#    y 0.000000 1.635910 0.000000 
#    z 0.000000 0.000000 1.676970 
# 
# From -- ./inp_files/10784.got.cif
#   From: 2010.05.17/outbox.cif.g08.bks.cpg/sg51_6_cif.got.tgz:10784.got - 2010.06.03 11:52:47.
