data_PCOD9404311
_publ_section_title
;
Structure prediction by ZEFSAII (Michael W. Deem and Ramdas Pophale) SiO2 
 PCOD9404311
Probable space group: P M M A
;
_chemical_formula_sum "Si O2"
_cell_formula_units_Z 44
_cell_length_a 8.715765
_cell_length_b 28.222586
_cell_length_c 10.171481
_cell_angle_alpha 90.000000
_cell_angle_beta 90.000000
_cell_angle_gamma 90.000000
_cell_volume 2501.995414
_symmetry_space_group_name_H-M "P M M A"
_symmetry_group_IT_number 51
_symmetry_cell_setting 'orthorhombic'
loop_
_space_group_symop_operation_xyz
x,y,z
1/2-x,-y,z
1/2+x,-y,-z
-x,y,-z
-x,-y,-z
1/2+x,y,-z
1/2-x,y,z
x,-y,z
loop_
_atom_site_type_symbol
_atom_site_label
_atom_site_fract_x
_atom_site_fract_y
_atom_site_fract_z
Si Si1 0.435521 0.500000 0.852299
Si Si2 0.565121 0.235710 0.144040
Si Si3 0.565980 0.127331 0.145111
Si Si4 0.933691 0.945173 0.644127
Si Si5 0.064974 0.420932 0.643266
Si Si6 0.064844 0.311686 0.641992
O O1 0.250000 0.500000 0.861221
O O2 0.482551 0.545140 0.762875
O O3 0.500000 0.500000 0.000000
O O4 0.750000 0.237458 0.138164
O O5 0.522274 0.181668 0.180284
O O6 0.512142 0.274716 0.248217
O O7 0.500000 0.245539 0.000000
O O8 0.750000 0.124392 0.141507
O O9 0.500697 0.090372 0.248969
O O10 0.500000 0.117917 0.000000
O O11 0.750000 0.941575 0.640971
O O12 0.000000 0.934342 0.500000
O O13 0.974537 0.000000 0.674582
O O14 0.250000 0.423143 0.634739
O O15 0.019180 0.366283 0.668208
O O16 0.000000 0.435068 0.500000
O O17 0.250000 0.310528 0.637560
O O18 0.000000 0.298455 0.500000
#
# Coordination Sequence:
#
# PCOD9404311 Si02
#       6
#     4   8   8   8   8   8
#     4  10  21  34  48  72 102 130 163 204 248 294
#     4   9  19  34  51  73 101 132 166 204 247 294
#     4  10  20  35  54  76 103 135 171 210 251 298
#     4  10  21  37  56  78 104 134 168 207 252 301
#     4   9  18  33  52  72  97 129 165 205 247 293
#     4   9  18  33  51  73 100 129 164 205 247 293
#
# _framework density 17.585964000000001
#
# number of rings (size 3 to 8) (size 9 to 14) (size 15 to 20)
#    0.000    2.545    0.000    1.364    0.000    5.091 
#    0.000    1.818    0.000    0.000    0.000    0.000 
#    0.000    0.000    0.000    0.000    0.000    0.000 
#
# Total GULP energy -245455.413474 kJ/mol
# GULP energy per Si atom -5578.532124 kJ/mol
# Density = 1.754594 g / cm^3
# Si number density = 17.585964 Si / 1000 Ang^3
#
#
#
# Elastic Constant Matrix: (Units=GPa)
#
#
# Indices 1 2 3 4 5 6 
#
# 1 22.0626 39.1025 40.6341 0.0000 0.0000 0.0000
# 2 39.1025 137.1089 135.3753 0.0000 0.0000 0.0000
# 3 40.6341 135.3753 174.0174 0.0000 0.0000 0.0000
# 4 0.0000 0.0000 0.0000 47.4658 0.0000 0.0000
# 5 0.0000 0.0000 0.0000 0.0000 36.7779 0.0000
# 6 0.0000 0.0000 0.0000 0.0000 0.0000 35.8269
#
#
#
# Elastic Compliance Matrix: (Units=1/GPa)
#
#
# Indices 1 2 3 4 5 6 
#
# 1 0.092515 -0.021799 -0.004645 0.000000 0.000000 0.000000
# 2 -0.021799 0.036588 -0.023373 0.000000 0.000000 0.000000
# 3 -0.004645 -0.023373 0.025014 0.000000 0.000000 0.000000
# 4 0.000000 0.000000 0.000000 0.021068 0.000000 0.000000
# 5 0.000000 0.000000 0.000000 0.000000 0.027190 0.000000
# 6 0.000000 0.000000 0.000000 0.000000 0.000000 0.027912
#
#
# Mechanical properties :
#
#
# Convention : Reuss Voigt Hill
#
# Bulk Modulus (GPa) = 18.35412 84.82364 51.58888
# Shear Modulus (GPa) = 14.36449 31.88592 23.12520
#
# Velocity S-wave (km/s) = 2.86110 4.26272 3.63020
# Velocity P-wave (km/s) = 4.62320 8.51858 6.85347
#
# Compressibility (1/GPa) = 0.05448369
#
# Stress axis : x y z
#
# Youngs Moduli (GPa) = 10.80911 27.33142 39.97748
#
# Poissons Ratio (x) = 0.59578 0.18568
# Poissons Ratio (y) = 0.23562 0.93440
# Poissons Ratio (z) = 0.05021 0.63882
#
# Static dielectric constant tensor:
#      x y z
#    x 1.592680 0.000000 0.000000 
#    y 0.000000 1.611140 0.000000 
#    z 0.000000 0.000000 1.553360 
# 
# From -- ./inp_files/5773.got.cif
#   From: 2010.05.17/outbox.cif.g08.bks.cpg/sg51_3_cif.got.tgz:5773.got - 2010.06.03 11:52:47.
