data_PCOD9404843
_publ_section_title
;
Structure prediction by ZEFSAII (Michael W. Deem and Ramdas Pophale) SiO2 
 PCOD9404843
Probable space group: P M M A
;
_chemical_formula_sum "Si O2"
_cell_formula_units_Z 56
_cell_length_a 15.143508
_cell_length_b 8.950791
_cell_length_c 22.457190
_cell_angle_alpha 90.000000
_cell_angle_beta 90.000000
_cell_angle_gamma 90.000000
_cell_volume 3043.990700
_symmetry_space_group_name_H-M "P M M A"
_symmetry_group_IT_number 51
_symmetry_cell_setting 'orthorhombic'
loop_
_space_group_symop_operation_xyz
x,y,z
1/2-x,-y,z
1/2+x,-y,-z
-x,y,-z
-x,-y,-z
1/2+x,y,-z
1/2-x,y,z
x,-y,z
loop_
_atom_site_type_symbol
_atom_site_label
_atom_site_fract_x
_atom_site_fract_y
_atom_site_fract_z
Si Si1 0.750000 0.680481 0.387151
Si Si2 0.250000 0.180473 0.481457
Si Si3 0.555607 0.179888 0.559328
Si Si4 0.394149 0.673130 0.007270
Si Si5 0.440205 0.319875 0.663269
Si Si6 0.850319 0.175401 0.115541
Si Si7 0.991535 0.678983 0.202763
Si Si8 0.647753 0.176326 0.866455
O O1 0.750000 0.500000 0.391782
O O2 0.750000 0.750025 0.452802
O O3 0.840114 0.725376 0.353727
O O4 0.341745 0.223437 0.449355
O O5 0.250000 0.000000 0.486881
O O6 0.500000 0.221027 0.500000
O O7 0.507741 0.252050 0.615631
O O8 0.551980 0.000000 0.564718
O O9 0.366135 0.500000 0.006011
O O10 0.368821 0.747253 0.069647
O O11 0.500000 0.677225 0.000000
O O12 0.355837 0.761978 0.951338
O O13 0.444174 0.500000 0.659660
O O14 0.465350 0.276483 0.730355
O O15 0.750000 0.192865 0.137271
O O16 0.917621 0.264186 0.156865
O O17 0.872945 0.000000 0.115394
O O18 0.997080 0.500000 0.199515
O O19 0.082839 0.750235 0.181144
O O20 0.750000 0.195829 0.850238
O O21 0.629036 0.000000 0.871647
#
# Coordination Sequence:
#
# PCOD9404843 Si02
#       8
#     4   4   8   8   8   8   8   8
#     4  10  20  36  60  90 120 154 191 236 291 350
#     4  10  20  36  58  90 122 154 193 238 293 348
#     4  10  20  36  60  87 119 154 192 241 291 343
#     4  11  22  37  61  92 121 154 195 245 304 358
#     4  10  23  40  60  87 120 157 198 242 292 349
#     4  11  24  40  60  89 122 156 195 242 297 356
#     4  11  24  42  63  87 118 159 201 246 297 353
#     4  11  24  42  65  90 117 155 201 251 305 359
#
# _framework density 18.396902999999998
#
# number of rings (size 3 to 8) (size 9 to 14) (size 15 to 20)
#    0.000    1.429    2.857    2.143    1.000    6.571 
#    1.286    0.000    0.000    0.000    0.000    0.000 
#    0.000    0.000    0.000    0.000    0.000    0.000 
#
# Total GULP energy -312988.102919 kJ/mol
# GULP energy per Si atom -5589.073266 kJ/mol
# Density = 1.835503 g / cm^3
# Si number density = 18.396903 Si / 1000 Ang^3
#
#
#
# Elastic Constant Matrix: (Units=GPa)
#
#
# Indices 1 2 3 4 5 6 
#
# 1 147.7675 49.2390 77.4143 0.0000 0.0000 0.0000
# 2 49.2390 55.9054 39.3442 0.0000 0.0000 0.0000
# 3 77.4143 39.3442 136.5040 0.0000 0.0000 0.0000
# 4 0.0000 0.0000 0.0000 204.8479 0.0000 0.0000
# 5 0.0000 0.0000 0.0000 0.0000 -8.4656 0.0000
# 6 0.0000 0.0000 0.0000 0.0000 0.0000 35.2711
#
#
#
# Elastic Compliance Matrix: (Units=1/GPa)
#
#
# Indices 1 2 3 4 5 6 
#
# 1 0.011416 -0.006898 -0.004486 0.000000 0.000000 0.000000
# 2 -0.006898 0.026606 -0.003757 0.000000 0.000000 0.000000
# 3 -0.004486 -0.003757 0.010953 0.000000 0.000000 0.000000
# 4 0.000000 0.000000 0.000000 0.004882 0.000000 0.000000
# 5 0.000000 0.000000 0.000000 0.000000 -0.118125 0.000000
# 6 0.000000 0.000000 0.000000 0.000000 0.000000 0.028352
#
#
# Mechanical properties :
#
#
# Convention : Reuss Voigt Hill
#
# Bulk Modulus (GPa) = 53.49333 74.68574 64.08954
# Shear Modulus (GPa) = 8376.16622 57.94265 4217.05444
#
# Velocity S-wave (km/s) = 67.54935 5.61821 47.92953
# Velocity P-wave (km/s) = 78.18585 9.09784 55.65877
#
# Compressibility (1/GPa) = 0.01869392
#
# Stress axis : x y z
#
# Youngs Moduli (GPa) = 87.59573 37.58497 91.30004
#
# Poissons Ratio (x) = 0.25924 0.40959
# Poissons Ratio (y) = 0.60419 0.34301
# Poissons Ratio (z) = 0.39298 0.14121
#
# Static dielectric constant tensor:
#      x y z
#    x 1.653360 0.000000 0.000000 
#    y 0.000000 1.617510 0.000000 
#    z 0.000000 0.000000 1.587990 
# 
# From -- ./inp_files/33508.got.cif
#   From: 2010.05.17/outbox.cif.g08.bks.cpg/sg51_17_cif.got.tgz:33508.got - 2010.06.03 11:52:47.
