data_PCOD9404296
_publ_section_title
;
Structure prediction by ZEFSAII (Michael W. Deem and Ramdas Pophale) SiO2 
 PCOD9404296
Probable space group: P M M A
;
_chemical_formula_sum "Si O2"
_cell_formula_units_Z 64
_cell_length_a 8.464796
_cell_length_b 30.641367
_cell_length_c 15.099802
_cell_angle_alpha 90.000000
_cell_angle_beta 90.000000
_cell_angle_gamma 90.000000
_cell_volume 3916.479748
_symmetry_space_group_name_H-M "P M M A"
_symmetry_group_IT_number 51
_symmetry_cell_setting 'orthorhombic'
loop_
_space_group_symop_operation_xyz
x,y,z
1/2-x,-y,z
1/2+x,-y,-z
-x,y,-z
-x,-y,-z
1/2+x,y,-z
1/2-x,y,z
x,-y,z
loop_
_atom_site_type_symbol
_atom_site_label
_atom_site_fract_x
_atom_site_fract_y
_atom_site_fract_z
Si Si1 0.569994 0.634693 0.090679
Si Si2 0.932364 0.549527 0.867009
Si Si3 0.063289 0.234312 0.898662
Si Si4 0.433874 0.691974 0.232719
Si Si5 0.939678 0.141227 0.898794
Si Si6 0.060925 0.451153 0.668489
Si Si7 0.440924 0.047001 0.101657
Si Si8 0.559517 0.359555 0.596414
O O1 0.750000 0.648376 0.103555
O O2 0.553831 0.582793 0.089589
O O3 0.461361 0.650075 0.170616
O O4 0.500000 0.652897 0.000000
O O5 0.750000 0.562740 0.882362
O O6 0.952511 0.500000 0.896878
O O7 0.970955 0.550124 0.762259
O O8 0.750000 0.234321 0.093235
O O9 0.012443 0.270061 0.826100
O O10 0.006523 0.186813 0.864537
O O11 0.000000 0.241188 0.000000
O O12 0.250000 0.702699 0.241113
O O13 0.493511 0.675218 0.328152
O O14 0.750000 0.143710 0.897926
O O15 0.989564 0.094084 0.858990
O O16 0.000000 0.139986 0.000000
O O17 0.250000 0.447936 0.683469
O O18 0.030852 0.500000 0.629508
O O19 0.006201 0.408283 0.616008
O O20 0.250000 0.047173 0.100524
O O21 0.492333 0.000000 0.140767
O O22 0.500000 0.046859 0.000000
O O23 0.500000 0.346162 0.500000
O O24 0.750000 0.361586 0.599586
#
# Coordination Sequence:
#
# PCOD9404296 Si02
#       8
#     8   8   8   8   8   8   8   8
#     4  12  24  37  55  76 100 128 158 193 229 274
#     4  10  20  35  54  75 100 128 157 188 224 267
#     4  11  21  33  50  71  96 127 163 205 247 290
#     4  11  23  40  57  75  98 124 155 193 237 282
#     4   9  15  24  38  57  84 117 156 202 245 287
#     4  10  20  35  57  82 106 130 156 186 223 270
#     4   8  13  20  31  49  75 110 152 197 243 285
#     4  11  24  40  61  82 104 128 154 189 229 280
#
# _framework density 16.341204999999999
#
# number of rings (size 3 to 8) (size 9 to 14) (size 15 to 20)
#    0.000    1.750    1.250    5.250    0.000    4.000 
#    0.000    0.000    0.000    0.000    0.000    0.000 
#    0.000    0.000    0.000    0.000    0.000    0.625 
#
# Total GULP energy -356701.438871 kJ/mol
# GULP energy per Si atom -5573.459982 kJ/mol
# Density = 1.630401 g / cm^3
# Si number density = 16.341205 Si / 1000 Ang^3
#
#
#
# Elastic Constant Matrix: (Units=GPa)
#
#
# Indices 1 2 3 4 5 6 
#
# 1 56.8725 33.6606 14.0875 0.0000 0.0000 0.0000
# 2 33.6606 134.2149 32.7733 0.0000 0.0000 0.0000
# 3 14.0875 32.7733 77.9646 0.0000 0.0000 0.0000
# 4 0.0000 0.0000 0.0000 -1.2052 0.0000 0.0000
# 5 0.0000 0.0000 0.0000 0.0000 17.1578 0.0000
# 6 0.0000 0.0000 0.0000 0.0000 0.0000 51.2335
#
#
#
# Elastic Compliance Matrix: (Units=1/GPa)
#
#
# Indices 1 2 3 4 5 6 
#
# 1 0.020860 -0.004804 -0.001750 0.000000 0.000000 0.000000
# 2 -0.004804 0.009410 -0.003087 0.000000 0.000000 0.000000
# 3 -0.001750 -0.003087 0.014440 0.000000 0.000000 0.000000
# 4 0.000000 0.000000 0.000000 -0.829708 0.000000 0.000000
# 5 0.000000 0.000000 0.000000 0.000000 0.058283 0.000000
# 6 0.000000 0.000000 0.000000 0.000000 0.000000 0.019518
#
#
# Mechanical properties :
#
#
# Convention : Reuss Voigt Hill
#
# Bulk Modulus (GPa) = 39.32791 47.78831 43.55811
# Shear Modulus (GPa) = -7.35901 26.00591 9.32345
#
# Velocity S-wave (km/s) = -2.12441 3.99360 2.39121
# Velocity P-wave (km/s) = 4.25458 7.11145 5.85978
#
# Compressibility (1/GPa) = 0.02542723
#
# Stress axis : x y z
#
# Youngs Moduli (GPa) = 47.93835 106.27512 69.25079
#
# Poissons Ratio (x) = 0.51059 0.12116
# Poissons Ratio (y) = 0.23032 0.21380
# Poissons Ratio (z) = 0.08388 0.32810
#
# Static dielectric constant tensor:
#      x y z
#    x 1.556800 0.000000 0.000000 
#    y 0.000000 1.629990 0.000000 
#    z 0.000000 0.000000 1.545610 
# 
# From -- ./inp_files/22610.got.cif
#   From: 2010.05.17/outbox.cif.g08.bks.cpg/sg51_12_cif.got.tgz:22610.got - 2010.06.03 11:52:47.
