data_PCOD9404715
_publ_section_title
;
Structure prediction by ZEFSAII (Michael W. Deem and Ramdas Pophale) SiO2 
 PCOD9404715
Probable space group: P M M A
;
_chemical_formula_sum "Si O2"
_cell_formula_units_Z 40
_cell_length_a 8.656761
_cell_length_b 25.929959
_cell_length_c 9.846590
_cell_angle_alpha 90.000000
_cell_angle_beta 90.000000
_cell_angle_gamma 90.000000
_cell_volume 2210.258719
_symmetry_space_group_name_H-M "P M M A"
_symmetry_group_IT_number 51
_symmetry_cell_setting 'orthorhombic'
loop_
_space_group_symop_operation_xyz
x,y,z
1/2-x,-y,z
1/2+x,-y,-z
-x,y,-z
-x,-y,-z
1/2+x,y,-z
1/2-x,y,z
x,-y,z
loop_
_atom_site_type_symbol
_atom_site_label
_atom_site_fract_x
_atom_site_fract_y
_atom_site_fract_z
Si Si1 0.436469 0.940674 0.147797
Si Si2 0.435805 0.757441 0.150608
Si Si3 0.565015 0.440995 0.651622
Si Si4 0.936394 0.149289 0.651701
Si Si5 0.065652 0.354700 0.849829
O O1 0.250000 0.939257 0.141700
O O2 0.487205 0.901399 0.264570
O O3 0.484073 0.000000 0.173400
O O4 0.500000 0.925293 0.000000
O O5 0.250000 0.755297 0.143034
O O6 0.481426 0.801062 0.258412
O O7 0.500045 0.701384 0.190756
O O8 0.500000 0.769308 0.000000
O O9 0.500000 0.434380 0.500000
O O10 0.750000 0.435154 0.650414
O O11 0.529098 0.500000 0.694260
O O12 0.490615 0.399064 0.749489
O O13 0.750000 0.148582 0.645269
O O14 0.000000 0.150858 0.500000
O O15 0.250000 0.352395 0.854676
O O16 0.000000 0.365107 0.000000
#
# Coordination Sequence:
#
# PCOD9404715 Si02
#       5
#     8   8   8   8   8
#     4   9  18  34  55  79 106 137 176 219 263 314
#     4  10  20  36  56  78 105 137 178 223 268 320
#     4  10  21  38  59  83 112 146 183 222 267 321
#     4  10  22  36  52  77 108 141 176 218 265 316
#     4  11  22  37  58  83 111 143 181 225 273 321
#
# _framework density 18.097429000000002
#
# number of rings (size 3 to 8) (size 9 to 14) (size 15 to 20)
#    0.000    2.000    0.000    4.800    0.000    5.200 
#    0.000    2.000    0.000    0.000    0.000    0.000 
#    0.000    0.000    0.000    0.000    0.000    0.000 
#
# Total GULP energy -223401.558559 kJ/mol
# GULP energy per Si atom -5585.038964 kJ/mol
# Density = 1.805624 g / cm^3
# Si number density = 18.097429 Si / 1000 Ang^3
#
#
#
# Elastic Constant Matrix: (Units=GPa)
#
#
# Indices 1 2 3 4 5 6 
#
# 1 67.6673 54.6244 47.0793 0.0000 0.0000 0.0000
# 2 54.6244 154.5042 126.9523 0.0000 0.0000 0.0000
# 3 47.0793 126.9523 140.8464 0.0000 0.0000 0.0000
# 4 0.0000 0.0000 0.0000 -223.2796 0.0000 0.0000
# 5 0.0000 0.0000 0.0000 0.0000 37.1694 0.0000
# 6 0.0000 0.0000 0.0000 0.0000 0.0000 -57.7036
#
#
#
# Elastic Compliance Matrix: (Units=1/GPa)
#
#
# Indices 1 2 3 4 5 6 
#
# 1 0.020737 -0.006307 -0.001246 0.000000 0.000000 0.000000
# 2 -0.006307 0.026871 -0.022112 0.000000 0.000000 0.000000
# 3 -0.001246 -0.022112 0.027448 0.000000 0.000000 0.000000
# 4 0.000000 0.000000 0.000000 -0.004479 0.000000 0.000000
# 5 0.000000 0.000000 0.000000 0.000000 0.026904 0.000000
# 6 0.000000 0.000000 0.000000 0.000000 0.000000 -0.017330
#
#
# Mechanical properties :
#
#
# Convention : Reuss Voigt Hill
#
# Bulk Modulus (GPa) = 63.59786 91.14777 77.37282
# Shear Modulus (GPa) = 34.54844 -39.80530 -2.62843
#
# Velocity S-wave (km/s) = 4.37398 -4.69497 -1.20645
# Velocity P-wave (km/s) = 7.79276 4.59174 6.39575
#
# Compressibility (1/GPa) = 0.01572380
#
# Stress axis : x y z
#
# Youngs Moduli (GPa) = 48.22305 37.21435 36.43319
#
# Poissons Ratio (x) = 0.23472 0.04541
# Poissons Ratio (y) = 0.30416 0.80562
# Poissons Ratio (z) = 0.06010 0.82289
#
# Static dielectric constant tensor:
#      x y z
#    x 1.608160 0.000000 0.000000 
#    y 0.000000 1.622880 0.000000 
#    z 0.000000 0.000000 1.580510 
# 
# From -- ./inp_files/5467.got.cif
#   From: 2010.05.17/outbox.cif.g08.bks.cpg/sg51_3_cif.got.tgz:5467.got - 2010.06.03 11:52:47.
