data_PCOD9404642
_publ_section_title
;
Structure prediction by ZEFSAII (Michael W. Deem and Ramdas Pophale) SiO2 
 PCOD9404642
Probable space group: P M M A
;
_chemical_formula_sum "Si O2"
_cell_formula_units_Z 56
_cell_length_a 14.069816
_cell_length_b 20.566486
_cell_length_c 8.973811
_cell_angle_alpha 90.000000
_cell_angle_beta 90.000000
_cell_angle_gamma 90.000000
_cell_volume 2596.721840
_symmetry_space_group_name_H-M "P M M A"
_symmetry_group_IT_number 51
_symmetry_cell_setting 'orthorhombic'
loop_
_space_group_symop_operation_xyz
x,y,z
1/2-x,-y,z
1/2+x,-y,-z
-x,y,-z
-x,-y,-z
1/2+x,y,-z
1/2-x,y,z
x,-y,z
loop_
_atom_site_type_symbol
_atom_site_label
_atom_site_fract_x
_atom_site_fract_y
_atom_site_fract_z
Si Si1 0.137664 0.427877 0.497566
Si Si2 0.458050 0.846631 0.654527
Si Si3 0.637890 0.689537 0.051761
Si Si4 0.104797 0.072949 0.929219
Si Si5 0.922392 0.706605 0.369165
Si Si6 0.865611 0.427565 0.839172
Si Si7 0.353508 0.815337 0.156199
O O1 0.250000 0.434513 0.481615
O O2 0.104077 0.500000 0.550825
O O3 0.125631 0.362455 0.590901
O O4 0.098338 0.415934 0.329738
O O5 0.500000 0.873956 0.500000
O O6 0.405892 0.896205 0.764958
O O7 0.391883 0.783153 0.624061
O O8 0.554099 0.822876 0.740813
O O9 0.750000 0.684015 0.101452
O O10 0.569509 0.699304 0.191609
O O11 0.610733 0.626442 0.958228
O O12 0.634742 0.751127 0.943138
O O13 0.144112 0.000000 0.925925
O O14 0.150611 0.124659 0.041039
O O15 0.000000 0.068044 0.000000
O O16 0.000000 0.708317 0.500000
O O17 0.750000 0.426253 0.831633
O O18 0.894621 0.500000 0.883408
O O19 0.250000 0.810836 0.234474
#
# Coordination Sequence:
#
# PCOD9404642 Si02
#       7
#     8   8   8   8   8   8   8
#     4   9  19  38  60  81 113 157 204 253 308 371
#     4  10  22  39  58  91 129 165 202 247 303 367
#     4  10  20  35  59  86 112 148 200 254 298 349
#     4   9  18  37  65  92 123 163 201 242 294 356
#     4  11  23  36  53  84 121 160 193 243 302 364
#     4   8  16  32  55  82 108 141 191 246 297 350
#     4  10  21  39  62  89 120 161 208 253 300 358
#
# _framework density 21.565653000000001
#
# number of rings (size 3 to 8) (size 9 to 14) (size 15 to 20)
#    0.000    2.429    1.429    1.286    4.000    1.429 
#    0.000    5.000    0.000    1.714    0.000    0.000 
#    0.000    0.000    0.000    0.000    0.000    0.000 
#
# Total GULP energy -311891.490927 kJ/mol
# GULP energy per Si atom -5569.490909 kJ/mol
# Density = 2.151657 g / cm^3
# Si number density = 21.565653 Si / 1000 Ang^3
#
#
#
# Elastic Constant Matrix: (Units=GPa)
#
#
# Indices 1 2 3 4 5 6 
#
# 1 66.3494 15.8880 11.0380 0.0000 0.0000 0.0000
# 2 15.8880 129.4129 31.1671 0.0000 0.0000 0.0000
# 3 11.0380 31.1671 69.3624 0.0000 0.0000 0.0000
# 4 0.0000 0.0000 0.0000 30.4926 0.0000 0.0000
# 5 0.0000 0.0000 0.0000 0.0000 21.8899 0.0000
# 6 0.0000 0.0000 0.0000 0.0000 0.0000 20.0454
#
#
#
# Elastic Compliance Matrix: (Units=1/GPa)
#
#
# Indices 1 2 3 4 5 6 
#
# 1 0.015734 -0.001490 -0.001834 0.000000 0.000000 0.000000
# 2 -0.001490 0.008806 -0.003720 0.000000 0.000000 0.000000
# 3 -0.001834 -0.003720 0.016380 0.000000 0.000000 0.000000
# 4 0.000000 0.000000 0.000000 0.032795 0.000000 0.000000
# 5 0.000000 0.000000 0.000000 0.000000 0.045683 0.000000
# 6 0.000000 0.000000 0.000000 0.000000 0.000000 0.049887
#
#
# Mechanical properties :
#
#
# Convention : Reuss Voigt Hill
#
# Bulk Modulus (GPa) = 37.26878 42.36787 39.81833
# Shear Modulus (GPa) = 25.99880 28.28770 27.14325
#
# Velocity S-wave (km/s) = 3.47589 3.62567 3.55157
# Velocity P-wave (km/s) = 5.78171 6.10049 5.94324
#
# Compressibility (1/GPa) = 0.02683211
#
# Stress axis : x y z
#
# Youngs Moduli (GPa) = 63.55803 113.55950 61.04875
#
# Poissons Ratio (x) = 0.16919 0.11198
# Poissons Ratio (y) = 0.09469 0.22709
# Poissons Ratio (z) = 0.11659 0.42241
#
# Static dielectric constant tensor:
#      x y z
#    x 1.873060 0.000000 0.000000 
#    y 0.000000 1.795160 0.000000 
#    z 0.000000 0.000000 1.761130 
# 
# From -- ./inp_files/8472.got.cif
#   From: 2010.05.17/outbox.cif.g08.bks.cpg/sg51_5_cif.got.tgz:8472.got - 2010.06.03 11:52:47.
