data_PCOD9404455
_publ_section_title
;
Structure prediction by ZEFSAII (Michael W. Deem and Ramdas Pophale) SiO2 
 PCOD9404455
Probable space group: P M M A
;
_chemical_formula_sum "Si O2"
_cell_formula_units_Z 48
_cell_length_a 15.940098
_cell_length_b 18.507875
_cell_length_c 9.168505
_cell_angle_alpha 90.000000
_cell_angle_beta 90.000000
_cell_angle_gamma 90.000000
_cell_volume 2704.867969
_symmetry_space_group_name_H-M "P M M A"
_symmetry_group_IT_number 51
_symmetry_cell_setting 'orthorhombic'
loop_
_space_group_symop_operation_xyz
x,y,z
1/2-x,-y,z
1/2+x,-y,-z
-x,y,-z
-x,-y,-z
1/2+x,y,-z
1/2-x,y,z
x,-y,z
loop_
_atom_site_type_symbol
_atom_site_label
_atom_site_fract_x
_atom_site_fract_y
_atom_site_fract_z
Si Si1 0.750000 0.412821 0.078776
Si Si2 0.586576 0.820293 0.907512
Si Si3 0.841568 0.082717 0.144065
Si Si4 0.507876 0.084857 0.670353
Si Si5 0.417472 0.587343 0.410313
Si Si6 0.250000 0.587811 0.581407
Si Si7 0.588387 0.348793 0.913199
O O1 0.750000 0.500000 0.071409
O O2 0.750000 0.390278 0.249170
O O3 0.665990 0.383792 0.000660
O O4 0.569983 0.862668 0.757670
O O5 0.606153 0.736308 0.891993
O O6 0.500000 0.824537 0.000000
O O7 0.650450 0.863493 0.009035
O O8 0.750000 0.089772 0.213273
O O9 0.916597 0.094961 0.256458
O O10 0.851021 0.000000 0.090631
O O11 0.500000 0.100359 0.500000
O O12 0.531094 0.000000 0.689236
O O13 0.500000 0.610010 0.500000
O O14 0.416967 0.500000 0.405182
O O15 0.333622 0.610989 0.495903
O O16 0.419066 0.615886 0.246003
O O17 0.250000 0.500000 0.581266
O O18 0.500000 0.357312 0.000000
#
# Coordination Sequence:
#
# PCOD9404455 Si02
#       7
#     4   8   8   8   8   4   8
#     4  11  23  39  61  83 108 143 188 241 287 336
#     4   9  19  34  52  75 107 143 179 219 266 326
#     4   9  17  31  54  79 104 140 182 224 267 317
#     4   9  17  32  55  81 110 145 185 226 269 321
#     4  10  20  35  56  80 109 143 180 224 274 335
#     4   9  19  37  57  79 105 137 178 223 278 336
#     4  11  23  37  57  85 114 147 186 236 284 336
#
# _framework density 17.745784
#
# number of rings (size 3 to 8) (size 9 to 14) (size 15 to 20)
#    0.000    2.333    0.000    2.500    1.167    6.000 
#    0.000    2.500    0.000    3.000    0.000    0.000 
#    0.000    0.000    0.000    0.000    0.000    0.000 
#
# Total GULP energy -267700.877217 kJ/mol
# GULP energy per Si atom -5577.101609 kJ/mol
# Density = 1.770539 g / cm^3
# Si number density = 17.745784 Si / 1000 Ang^3
#
#
#
# Elastic Constant Matrix: (Units=GPa)
#
#
# Indices 1 2 3 4 5 6 
#
# 1 124.1408 49.0359 72.9967 0.0000 0.0000 0.0000
# 2 49.0359 71.5882 60.9121 0.0000 0.0000 0.0000
# 3 72.9967 60.9121 161.8100 0.0000 0.0000 0.0000
# 4 0.0000 0.0000 0.0000 11.5691 0.0000 0.0000
# 5 0.0000 0.0000 0.0000 0.0000 24.8404 0.0000
# 6 0.0000 0.0000 0.0000 0.0000 0.0000 5.1356
#
#
#
# Elastic Compliance Matrix: (Units=1/GPa)
#
#
# Indices 1 2 3 4 5 6 
#
# 1 0.012246 -0.005425 -0.003482 0.000000 0.000000 0.000000
# 2 -0.005425 0.022955 -0.006194 0.000000 0.000000 0.000000
# 3 -0.003482 -0.006194 0.010083 0.000000 0.000000 0.000000
# 4 0.000000 0.000000 0.000000 0.086437 0.000000 0.000000
# 5 0.000000 0.000000 0.000000 0.000000 0.040257 0.000000
# 6 0.000000 0.000000 0.000000 0.000000 0.000000 0.194719
#
#
# Mechanical properties :
#
#
# Convention : Reuss Voigt Hill
#
# Bulk Modulus (GPa) = 66.30794 80.38093 73.34444
# Shear Modulus (GPa) = 12.44011 19.94865 16.19438
#
# Velocity S-wave (km/s) = 2.65055 3.35645 3.02416
# Velocity P-wave (km/s) = 6.84206 7.77272 7.32219
#
# Compressibility (1/GPa) = 0.01508115
#
# Stress axis : x y z
#
# Youngs Moduli (GPa) = 81.65986 43.56353 99.18103
#
# Poissons Ratio (x) = 0.23634 0.34536
# Poissons Ratio (y) = 0.44302 0.61430
# Poissons Ratio (z) = 0.28435 0.26982
#
# Static dielectric constant tensor:
#      x y z
#    x 1.615580 0.000000 0.000000 
#    y 0.000000 1.603760 0.000000 
#    z 0.000000 0.000000 1.572410 
# 
# From -- ./inp_files/8320.got.cif
#   From: 2010.05.17/outbox.cif.g08.bks.cpg/sg51_5_cif.got.tgz:8320.got - 2010.06.03 11:52:47.
