data_PCOD9404204
_publ_section_title
;
Structure prediction by ZEFSAII (Michael W. Deem and Ramdas Pophale) SiO2 
 PCOD9404204
Probable space group: P M M A
;
_chemical_formula_sum "Si O2"
_cell_formula_units_Z 64
_cell_length_a 14.902569
_cell_length_b 19.361528
_cell_length_c 11.561327
_cell_angle_alpha 90.000000
_cell_angle_beta 90.000000
_cell_angle_gamma 90.000000
_cell_volume 3335.864908
_symmetry_space_group_name_H-M "P M M A"
_symmetry_group_IT_number 51
_symmetry_cell_setting 'orthorhombic'
loop_
_space_group_symop_operation_xyz
x,y,z
1/2-x,-y,z
1/2+x,-y,-z
-x,y,-z
-x,-y,-z
1/2+x,y,-z
1/2-x,y,z
x,-y,z
loop_
_atom_site_type_symbol
_atom_site_label
_atom_site_fract_x
_atom_site_fract_y
_atom_site_fract_z
Si Si1 0.858618 0.075496 0.585858
Si Si2 0.036550 0.078524 0.175622
Si Si3 0.899453 0.191271 0.210352
Si Si4 0.346351 0.814433 0.047730
Si Si5 0.139525 0.370457 0.520861
Si Si6 0.982777 0.580322 0.685096
Si Si7 0.539136 0.695777 0.871443
Si Si8 0.851460 0.786626 0.467852
O O1 0.750000 0.076292 0.585492
O O2 0.896582 0.078805 0.715120
O O3 0.892932 0.144078 0.521139
O O4 0.885636 0.000000 0.536328
O O5 0.080942 0.128157 0.080538
O O6 0.946195 0.116562 0.214786
O O7 0.023116 0.000000 0.138471
O O8 0.851033 0.205427 0.329795
O O9 0.974865 0.250167 0.195173
O O10 0.847152 0.194720 0.090011
O O11 0.250000 0.838229 0.089105
O O12 0.372443 0.741702 0.106091
O O13 0.250000 0.376892 0.531355
O O14 0.094912 0.409256 0.411911
O O15 0.113662 0.289514 0.504024
O O16 0.079230 0.396649 0.629438
O O17 0.988454 0.500000 0.715335
O O18 0.957430 0.628341 0.793464
O O19 0.500000 0.682392 0.000000
O O20 0.750000 0.785073 0.512477
#
# Coordination Sequence:
#
# PCOD9404204 Si02
#       8
#     8   8   8   8   8   8   8   8
#     4   9  19  34  50  75 111 145 183 231 280 333
#     4  10  21  35  53  78 109 147 189 234 287 343
#     4  10  20  36  55  77 110 141 183 237 281 336
#     4  10  21  36  58  81 106 144 188 237 291 342
#     4  10  22  38  60  90 123 159 198 242 292 350
#     4  11  23  39  62  90 121 157 195 239 295 354
#     4   9  20  39  58  83 114 148 187 235 288 344
#     4  10  20  34  57  82 108 148 192 234 284 340
#
# _framework density 19.185428000000002
#
# number of rings (size 3 to 8) (size 9 to 14) (size 15 to 20)
#    0.000    2.125    1.250    2.625    3.500    4.500 
#    0.000    1.250    0.000    2.250    0.000    1.750 
#    0.000    0.000    0.000    0.000    0.000    0.000 
#
# Total GULP energy -356742.877660 kJ/mol
# GULP energy per Si atom -5574.107463 kJ/mol
# Density = 1.914176 g / cm^3
# Si number density = 19.185428 Si / 1000 Ang^3
#
#
#
# Elastic Constant Matrix: (Units=GPa)
#
#
# Indices 1 2 3 4 5 6 
#
# 1 76.4013 23.2577 -2.6066 0.0000 0.0000 0.0000
# 2 23.2577 153.7541 32.1139 0.0000 0.0000 0.0000
# 3 -2.6066 32.1139 49.1032 0.0000 0.0000 0.0000
# 4 0.0000 0.0000 0.0000 -14.5096 0.0000 0.0000
# 5 0.0000 0.0000 0.0000 0.0000 4.8843 0.0000
# 6 0.0000 0.0000 0.0000 0.0000 0.0000 1.8810
#
#
#
# Elastic Compliance Matrix: (Units=1/GPa)
#
#
# Indices 1 2 3 4 5 6 
#
# 1 0.013973 -0.002627 0.002460 0.000000 0.000000 0.000000
# 2 -0.002627 0.008027 -0.005389 0.000000 0.000000 0.000000
# 3 0.002460 -0.005389 0.024020 0.000000 0.000000 0.000000
# 4 0.000000 0.000000 0.000000 -0.068920 0.000000 0.000000
# 5 0.000000 0.000000 0.000000 0.000000 0.204738 0.000000
# 6 0.000000 0.000000 0.000000 0.000000 0.000000 0.531631
#
#
# Mechanical properties :
#
#
# Convention : Reuss Voigt Hill
#
# Bulk Modulus (GPa) = 28.64761 42.75427 35.70094
# Shear Modulus (GPa) = 6.79147 13.55070 10.17109
#
# Velocity S-wave (km/s) = 1.88351 2.66052 2.30499
# Velocity P-wave (km/s) = 4.43785 5.63657 5.07274
#
# Compressibility (1/GPa) = 0.03490692
#
# Stress axis : x y z
#
# Youngs Moduli (GPa) = 71.56898 124.58057 41.63127
#
# Poissons Ratio (x) = 0.32732 -0.10242
# Poissons Ratio (y) = 0.18804 0.22436
# Poissons Ratio (z) = -0.17606 0.67138
#
# Static dielectric constant tensor:
#      x y z
#    x 1.705890 0.000000 0.000000 
#    y 0.000000 1.672070 0.000000 
#    z 0.000000 0.000000 1.664470 
# 
# From -- ./inp_files/16845.got.cif
#   From: 2010.05.17/outbox.cif.g08.bks.cpg/sg51_9_cif.got.tgz:16845.got - 2010.06.03 11:52:47.
