data_PCOD9404056
_publ_section_title
;
Structure prediction by ZEFSAII (Michael W. Deem and Ramdas Pophale) SiO2 
 PCOD9404056
Probable space group: P M M A
;
_chemical_formula_sum "Si O2"
_cell_formula_units_Z 64
_cell_length_a 18.951023
_cell_length_b 8.985277
_cell_length_c 21.601509
_cell_angle_alpha 90.000000
_cell_angle_beta 90.000000
_cell_angle_gamma 90.000000
_cell_volume 3678.309080
_symmetry_space_group_name_H-M "P M M A"
_symmetry_group_IT_number 51
_symmetry_cell_setting 'orthorhombic'
loop_
_space_group_symop_operation_xyz
x,y,z
1/2-x,-y,z
1/2+x,-y,-z
-x,y,-z
-x,-y,-z
1/2+x,y,-z
1/2-x,y,z
x,-y,z
loop_
_atom_site_type_symbol
_atom_site_label
_atom_site_fract_x
_atom_site_fract_y
_atom_site_fract_z
Si Si1 0.830225 0.821053 0.877914
Si Si2 0.667687 0.820161 0.618212
Si Si3 0.831521 0.177437 0.251357
Si Si4 0.582029 0.320488 0.505132
Si Si5 0.832956 0.324530 0.382551
Si Si6 0.962611 0.321138 0.936852
Si Si7 0.903682 0.178925 0.748311
Si Si8 0.463187 0.322393 0.807716
O O1 0.750000 0.772024 0.888067
O O2 0.886587 0.750109 0.924198
O O3 0.855191 0.784043 0.807879
O O4 0.832897 0.000000 0.883216
O O5 0.750000 0.774646 0.614751
O O6 0.622180 0.752083 0.562742
O O7 0.633679 0.777752 0.684360
O O8 0.665715 0.000000 0.614391
O O9 0.750000 0.219622 0.238676
O O10 0.848022 0.232118 0.320951
O O11 0.887470 0.253961 0.206712
O O12 0.837402 0.000000 0.247726
O O13 0.500000 0.277978 0.500000
O O14 0.585817 0.500000 0.511458
O O15 0.621201 0.279648 0.441407
O O16 0.750000 0.307151 0.397485
O O17 0.845518 0.500000 0.369766
O O18 0.955205 0.500000 0.938815
O O19 0.009713 0.283999 0.876626
O O20 0.000000 0.271976 0.000000
O O21 0.978609 0.256061 0.760687
O O22 0.913351 0.000000 0.747876
O O23 0.461267 0.500000 0.801699
#
# Coordination Sequence:
#
# PCOD9404056 Si02
#       8
#     8   8   8   8   8   8   8   8
#     4   9  17  31  53  80 109 141 177 215 257 307
#     4  10  21  36  54  77 105 137 172 211 257 309
#     4  10  21  36  55  79 105 134 171 217 266 313
#     4  10  22  37  52  74 104 137 173 215 261 310
#     4   9  18  34  54  73  97 134 175 215 261 311
#     4   9  19  36  55  77 107 143 180 216 256 303
#     4   9  18  33  53  78 108 140 171 209 258 310
#     4  10  20  34  55  80 106 137 173 214 257 305
#
# _framework density 17.399298000000002
#
# number of rings (size 3 to 8) (size 9 to 14) (size 15 to 20)
#    0.000    2.500    0.000    1.500    1.750    5.250 
#    0.000    1.875    0.000    6.000    0.000    0.000 
#    0.000    0.000    0.000    0.000    0.000    0.000 
#
# Total GULP energy -357111.550738 kJ/mol
# GULP energy per Si atom -5579.867980 kJ/mol
# Density = 1.735970 g / cm^3
# Si number density = 17.399298 Si / 1000 Ang^3
#
#
#
# Elastic Constant Matrix: (Units=GPa)
#
#
# Indices 1 2 3 4 5 6 
#
# 1 149.0187 48.1128 91.5247 0.0000 0.0000 0.0000
# 2 48.1128 21.9020 34.6214 0.0000 0.0000 0.0000
# 3 91.5247 34.6214 92.7548 0.0000 0.0000 0.0000
# 4 0.0000 0.0000 0.0000 25.1586 0.0000 0.0000
# 5 0.0000 0.0000 0.0000 0.0000 27.4052 0.0000
# 6 0.0000 0.0000 0.0000 0.0000 0.0000 18.8125
#
#
#
# Elastic Compliance Matrix: (Units=1/GPa)
#
#
# Indices 1 2 3 4 5 6 
#
# 1 0.027002 -0.041952 -0.010985 0.000000 0.000000 0.000000
# 2 -0.041952 0.176545 -0.024501 0.000000 0.000000 0.000000
# 3 -0.010985 -0.024501 0.030766 0.000000 0.000000 0.000000
# 4 0.000000 0.000000 0.000000 0.039748 0.000000 0.000000
# 5 0.000000 0.000000 0.000000 0.000000 0.036489 0.000000
# 6 0.000000 0.000000 0.000000 0.000000 0.000000 0.053156
#
#
# Mechanical properties :
#
#
# Convention : Reuss Voigt Hill
#
# Bulk Modulus (GPa) = 12.58871 68.02148 40.30509
# Shear Modulus (GPa) = 9.17327 20.23638 14.70483
#
# Velocity S-wave (km/s) = 2.29862 3.41406 2.91028
# Velocity P-wave (km/s) = 3.78097 7.39732 5.87436
#
# Compressibility (1/GPa) = 0.07943628
#
# Stress axis : x y z
#
# Youngs Moduli (GPa) = 37.03385 5.66429 32.50320
#
# Poissons Ratio (x) = 0.23763 0.35706
# Poissons Ratio (y) = 1.55363 0.79637
# Poissons Ratio (z) = 0.40683 0.13878
#
# Static dielectric constant tensor:
#      x y z
#    x 1.580470 0.000000 0.000000 
#    y 0.000000 1.582690 0.000000 
#    z 0.000000 0.000000 1.568430 
# 
# From -- ./inp_files/33848.got.cif
#   From: 2010.05.17/outbox.cif.g08.bks.cpg/sg51_17_cif.got.tgz:33848.got - 2010.06.03 11:52:47.
