data_PCOD9404849
_publ_section_title
;
Structure prediction by ZEFSAII (Michael W. Deem and Ramdas Pophale) SiO2 
 PCOD9404849
Probable space group: P M M A
;
_chemical_formula_sum "Si O2"
_cell_formula_units_Z 56
_cell_length_a 15.909161
_cell_length_b 8.187105
_cell_length_c 22.050980
_cell_angle_alpha 90.000000
_cell_angle_beta 90.000000
_cell_angle_gamma 90.000000
_cell_volume 2872.139518
_symmetry_space_group_name_H-M "P M M A"
_symmetry_group_IT_number 51
_symmetry_cell_setting 'orthorhombic'
loop_
_space_group_symop_operation_xyz
x,y,z
1/2-x,-y,z
1/2+x,-y,-z
-x,y,-z
-x,-y,-z
1/2+x,y,-z
1/2-x,y,z
x,-y,z
loop_
_atom_site_type_symbol
_atom_site_label
_atom_site_fract_x
_atom_site_fract_y
_atom_site_fract_z
Si Si1 0.497438 0.303154 0.849428
Si Si2 0.902170 0.199050 0.500782
Si Si3 0.657182 0.802626 0.632552
Si Si4 0.845438 0.195529 0.928339
Si Si5 0.000733 0.694868 0.711563
Si Si6 0.345408 0.302513 0.933964
Si Si7 0.842706 0.197438 0.369150
O O1 0.491375 0.500000 0.847560
O O2 0.583408 0.259918 0.883611
O O3 0.497082 0.241231 0.780457
O O4 0.417230 0.243193 0.888180
O O5 0.860866 0.253863 0.563591
O O6 0.859687 0.253209 0.438316
O O7 0.000000 0.246105 0.500000
O O8 0.898913 0.000000 0.500951
O O9 0.750000 0.747557 0.651892
O O10 0.582417 0.749966 0.676151
O O11 0.656939 0.000000 0.631231
O O12 0.750000 0.252675 0.914063
O O13 0.845793 0.000000 0.925939
O O14 0.864168 0.249062 0.997301
O O15 0.999990 0.500000 0.713990
O O16 0.082375 0.747909 0.673951
O O17 0.250000 0.247826 0.919103
O O18 0.345621 0.500000 0.932779
O O19 0.750000 0.252070 0.349368
O O20 0.843547 0.000000 0.370167
#
# Coordination Sequence:
#
# PCOD9404849 Si02
#       7
#     8   8   8   8   8   8   8
#     4  10  22  38  56  78 106 147 191 223 258 311
#     4   9  15  29  57  85 108 135 175 230 280 326
#     4  10  20  36  59  83 107 140 184 231 279 331
#     4  10  21  36  56  85 116 141 170 217 275 324
#     4  11  24  39  54  77 113 151 186 228 274 323
#     4   9  18  35  59  83 107 138 178 221 263 314
#     4  10  20  36  59  84 109 140 183 231 277 329
#
# _framework density 19.497661000000001
#
# number of rings (size 3 to 8) (size 9 to 14) (size 15 to 20)
#    0.000    2.143    1.429    1.714    0.000    7.714 
#    0.000    5.714    0.000    3.429    0.000    0.000 
#    0.000    0.000    0.000    0.000    0.000    0.000 
#
# Total GULP energy -312674.108247 kJ/mol
# GULP energy per Si atom -5583.466219 kJ/mol
# Density = 1.945328 g / cm^3
# Si number density = 19.497661 Si / 1000 Ang^3
#
#
#
# Elastic Constant Matrix: (Units=GPa)
#
#
# Indices 1 2 3 4 5 6 
#
# 1 185.7946 15.8619 114.0402 0.0000 0.0000 0.0000
# 2 15.8619 11.5165 12.7644 0.0000 0.0000 0.0000
# 3 114.0402 12.7644 162.0393 0.0000 0.0000 0.0000
# 4 0.0000 0.0000 0.0000 23.3838 0.0000 0.0000
# 5 0.0000 0.0000 0.0000 0.0000 -6.3894 0.0000
# 6 0.0000 0.0000 0.0000 0.0000 0.0000 15.6759
#
#
#
# Elastic Compliance Matrix: (Units=1/GPa)
#
#
# Indices 1 2 3 4 5 6 
#
# 1 0.009898 -0.006477 -0.006456 0.000000 0.000000 0.000000
# 2 -0.006477 0.099377 -0.003270 0.000000 0.000000 0.000000
# 3 -0.006456 -0.003270 0.010972 0.000000 0.000000 0.000000
# 4 0.000000 0.000000 0.000000 0.042765 0.000000 0.000000
# 5 0.000000 0.000000 0.000000 0.000000 -0.156508 0.000000
# 6 0.000000 0.000000 0.000000 0.000000 0.000000 0.063792
#
#
# Mechanical properties :
#
#
# Convention : Reuss Voigt Hill
#
# Bulk Modulus (GPa) = 11.38409 71.63148 41.50779
# Shear Modulus (GPa) = 37.88418 20.97964 29.43191
#
# Velocity S-wave (km/s) = 4.41274 3.28381 3.88946
# Velocity P-wave (km/s) = 5.64043 7.15515 6.44246
#
# Compressibility (1/GPa) = 0.08784189
#
# Stress axis : x y z
#
# Youngs Moduli (GPa) = 101.03391 10.06269 91.13925
#
# Poissons Ratio (x) = 0.06518 0.58836
# Poissons Ratio (y) = 0.65441 0.29801
# Poissons Ratio (z) = 0.65223 0.03290
#
# Static dielectric constant tensor:
#      x y z
#    x 1.679180 0.000000 0.000000 
#    y 0.000000 1.692360 0.000000 
#    z 0.000000 0.000000 1.660300 
# 
# From -- ./inp_files/33358.got.cif
#   From: 2010.05.17/outbox.cif.g08.bks.cpg/sg51_17_cif.got.tgz:33358.got - 2010.06.03 11:52:47.
