data_PCOD9404574
_publ_section_title
;
Structure prediction by ZEFSAII (Michael W. Deem and Ramdas Pophale) SiO2 
 PCOD9404574
Probable space group: P M M A
;
_chemical_formula_sum "Si O2"
_cell_formula_units_Z 64
_cell_length_a 8.791253
_cell_length_b 14.763680
_cell_length_c 25.750588
_cell_angle_alpha 90.000000
_cell_angle_beta 90.000000
_cell_angle_gamma 90.000000
_cell_volume 3342.200904
_symmetry_space_group_name_H-M "P M M A"
_symmetry_group_IT_number 51
_symmetry_cell_setting 'orthorhombic'
loop_
_space_group_symop_operation_xyz
x,y,z
1/2-x,-y,z
1/2+x,-y,-z
-x,y,-z
-x,-y,-z
1/2+x,y,-z
1/2-x,y,z
x,-y,z
loop_
_atom_site_type_symbol
_atom_site_label
_atom_site_fract_x
_atom_site_fract_y
_atom_site_fract_z
Si Si1 0.567670 0.598657 0.558422
Si Si2 0.068145 0.783967 0.945956
Si Si3 0.433447 0.105990 0.842539
Si Si4 0.569749 0.216876 0.442490
Si Si5 0.431257 0.397402 0.786856
Si Si6 0.431766 0.895404 0.353978
Si Si7 0.432322 0.602558 0.097428
Si Si8 0.067840 0.219271 0.253035
O O1 0.500000 0.596136 0.500000
O O2 0.750000 0.607757 0.555902
O O3 0.532139 0.500000 0.582340
O O4 0.496081 0.689246 0.581468
O O5 0.250000 0.781335 0.949070
O O6 0.024963 0.846677 0.897017
O O7 0.006129 0.683015 0.935103
O O8 0.000000 0.817758 0.000000
O O9 0.250000 0.112445 0.837272
O O10 0.509152 0.161109 0.795832
O O11 0.475210 0.000000 0.841541
O O12 0.500000 0.206173 0.500000
O O13 0.750000 0.223320 0.446786
O O14 0.517838 0.136813 0.405157
O O15 0.250000 0.386468 0.792952
O O16 0.461715 0.500000 0.768489
O O17 0.507983 0.387729 0.843515
O O18 0.496588 0.318774 0.751031
O O19 0.250000 0.885648 0.362387
O O20 0.475510 0.832855 0.305489
O O21 0.462765 0.000000 0.341757
O O22 0.250000 0.611127 0.096716
O O23 0.472347 0.500000 0.080229
O O24 0.250000 0.225632 0.250781
#
# Coordination Sequence:
#
# PCOD9404574 Si02
#       8
#     8   8   8   8   8   8   8   8
#     4   9  16  28  50  80 114 152 193 236 282 334
#     4  11  23  38  57  82 116 156 197 245 297 350
#     4  10  22  40  61  85 114 151 195 242 295 354
#     4  11  22  37  60  88 120 159 200 243 294 352
#     4  10  20  35  58  88 122 159 195 233 284 346
#     4  10  23  43  63  86 118 154 196 247 297 347
#     4  10  20  35  57  85 116 151 193 240 290 348
#     4  11  22  38  64  93 120 151 192 241 293 347
#
# _framework density 19.149059000000001
#
# number of rings (size 3 to 8) (size 9 to 14) (size 15 to 20)
#    0.000    1.750    1.250    4.125    0.000    5.500 
#    0.000    0.625    0.000    0.750    0.000    0.000 
#    0.000    0.000    0.000    0.000    0.000    0.000 
#
# Total GULP energy -357503.040952 kJ/mol
# GULP energy per Si atom -5585.985015 kJ/mol
# Density = 1.910547 g / cm^3
# Si number density = 19.149059 Si / 1000 Ang^3
#
#
#
# Elastic Constant Matrix: (Units=GPa)
#
#
# Indices 1 2 3 4 5 6 
#
# 1 62.0992 41.1053 39.3436 0.0000 0.0000 0.0000
# 2 41.1053 103.4124 48.9978 0.0000 0.0000 0.0000
# 3 39.3436 48.9978 87.3444 0.0000 0.0000 0.0000
# 4 0.0000 0.0000 0.0000 16.5318 0.0000 0.0000
# 5 0.0000 0.0000 0.0000 0.0000 26.3367 0.0000
# 6 0.0000 0.0000 0.0000 0.0000 0.0000 25.8646
#
#
#
# Elastic Compliance Matrix: (Units=1/GPa)
#
#
# Indices 1 2 3 4 5 6 
#
# 1 0.025249 -0.006330 -0.007822 0.000000 0.000000 0.000000
# 2 -0.006330 0.014758 -0.005427 0.000000 0.000000 0.000000
# 3 -0.007822 -0.005427 0.018017 0.000000 0.000000 0.000000
# 4 0.000000 0.000000 0.000000 0.060490 0.000000 0.000000
# 5 0.000000 0.000000 0.000000 0.000000 0.037970 0.000000
# 6 0.000000 0.000000 0.000000 0.000000 0.000000 0.038663
#
#
# Mechanical properties :
#
#
# Convention : Reuss Voigt Hill
#
# Bulk Modulus (GPa) = 53.00954 56.86104 54.93529
# Shear Modulus (GPa) = 20.78192 21.97390 21.37791
#
# Velocity S-wave (km/s) = 3.29792 3.39118 3.34487
# Velocity P-wave (km/s) = 6.49957 6.71505 6.60818
#
# Compressibility (1/GPa) = 0.01886453
#
# Stress axis : x y z
#
# Youngs Moduli (GPa) = 39.60517 67.76147 55.50302
#
# Poissons Ratio (x) = 0.42893 0.43416
# Poissons Ratio (y) = 0.25070 0.30123
# Poissons Ratio (z) = 0.30981 0.36776
#
# Static dielectric constant tensor:
#      x y z
#    x 1.639580 0.000000 0.000000 
#    y 0.000000 1.688880 0.000000 
#    z 0.000000 0.000000 1.646180 
# 
# From -- ./inp_files/34863.got.cif
#   From: 2010.05.17/outbox.cif.g08.bks.cpg/sg51_18_cif.got.tgz:34863.got - 2010.06.03 11:52:47.
