data_PCOD9404335
_publ_section_title
;
Structure prediction by ZEFSAII (Michael W. Deem and Ramdas Pophale) SiO2 
 PCOD9404335
Probable space group: P M M A
;
_chemical_formula_sum "Si O2"
_cell_formula_units_Z 48
_cell_length_a 8.626424
_cell_length_b 31.704844
_cell_length_c 9.548560
_cell_angle_alpha 90.000000
_cell_angle_beta 90.000000
_cell_angle_gamma 90.000000
_cell_volume 2611.525691
_symmetry_space_group_name_H-M "P M M A"
_symmetry_group_IT_number 51
_symmetry_cell_setting 'orthorhombic'
loop_
_space_group_symop_operation_xyz
x,y,z
1/2-x,-y,z
1/2+x,-y,-z
-x,y,-z
-x,-y,-z
1/2+x,y,-z
1/2-x,y,z
x,-y,z
loop_
_atom_site_type_symbol
_atom_site_label
_atom_site_fract_x
_atom_site_fract_y
_atom_site_fract_z
Si Si1 0.064019 0.000000 0.341319
Si Si2 0.063051 0.421158 0.156755
Si Si3 0.064275 0.747980 0.655519
Si Si4 0.562965 0.922540 0.157925
Si Si5 0.435678 0.673308 0.156370
Si Si6 0.936640 0.843260 0.343913
Si Si7 0.562365 0.500000 0.656415
O O1 0.000000 0.000000 0.500000
O O2 0.003229 0.040422 0.255537
O O3 0.250000 0.000000 0.345371
O O4 0.250000 0.422406 0.149750
O O5 0.018072 0.373956 0.205256
O O6 0.011078 0.458352 0.259018
O O7 0.000000 0.427547 0.000000
O O8 0.250000 0.746505 0.654471
O O9 0.016073 0.795667 0.697726
O O10 0.000000 0.741639 0.500000
O O11 0.000659 0.711135 0.752087
O O12 0.750000 0.925317 0.155080
O O13 0.516516 0.878501 0.232058
O O14 0.500000 0.925697 0.000000
O O15 0.250000 0.675314 0.154900
O O16 0.500000 0.677513 0.000000
O O17 0.750000 0.844068 0.352871
O O18 0.000000 0.852112 0.500000
O O19 0.750000 0.500000 0.653057
O O20 0.500000 0.500000 0.500000
#
# Coordination Sequence:
#
# PCOD9404335 Si02
#       7
#     4   8   8   8   8   8   4
#     4  12  25  42  63  88 116 150 188 228 273 328
#     4   9  19  35  55  77 103 135 176 218 263 318
#     4  10  20  36  56  81 111 146 184 226 273 324
#     4  11  23  40  60  86 117 150 186 229 277 325
#     4  10  20  35  54  79 108 141 179 223 270 323
#     4   9  20  37  58  82 110 144 186 228 272 325
#     4  10  21  36  52  76 106 136 171 216 264 316
#
# _framework density 18.380058999999999
#
# number of rings (size 3 to 8) (size 9 to 14) (size 15 to 20)
#    0.000    2.000    0.000    3.250    0.000    6.000 
#    0.000    3.333    0.000    0.000    0.000    0.000 
#    0.000    0.000    0.000    0.000    0.000    0.000 
#
# Total GULP energy -268020.568956 kJ/mol
# GULP energy per Si atom -5583.761853 kJ/mol
# Density = 1.833823 g / cm^3
# Si number density = 18.380059 Si / 1000 Ang^3
#
#
#
# Elastic Constant Matrix: (Units=GPa)
#
#
# Indices 1 2 3 4 5 6 
#
# 1 54.5514 56.3432 43.2773 0.0000 0.0000 0.0000
# 2 56.3432 199.5646 130.4553 0.0000 0.0000 0.0000
# 3 43.2773 130.4553 141.3964 0.0000 0.0000 0.0000
# 4 0.0000 0.0000 0.0000 40.4839 0.0000 0.0000
# 5 0.0000 0.0000 0.0000 0.0000 37.5946 0.0000
# 6 0.0000 0.0000 0.0000 0.0000 0.0000 24.0734
#
#
#
# Elastic Compliance Matrix: (Units=1/GPa)
#
#
# Indices 1 2 3 4 5 6 
#
# 1 0.026383 -0.005468 -0.003030 0.000000 0.000000 0.000000
# 2 -0.005468 0.013759 -0.011021 0.000000 0.000000 0.000000
# 3 -0.003030 -0.011021 0.018168 0.000000 0.000000 0.000000
# 4 0.000000 0.000000 0.000000 0.024701 0.000000 0.000000
# 5 0.000000 0.000000 0.000000 0.000000 0.026600 0.000000
# 6 0.000000 0.000000 0.000000 0.000000 0.000000 0.041540
#
#
# Mechanical properties :
#
#
# Convention : Reuss Voigt Hill
#
# Bulk Modulus (GPa) = 51.88929 95.07377 73.48153
# Shear Modulus (GPa) = 25.43090 31.45947 28.44518
#
# Velocity S-wave (km/s) = 3.72373 4.14165 3.93824
# Velocity P-wave (km/s) = 6.83965 8.64349 7.79393
#
# Compressibility (1/GPa) = 0.01927180
#
# Stress axis : x y z
#
# Youngs Moduli (GPa) = 37.90354 72.68064 55.04265
#
# Poissons Ratio (x) = 0.39740 0.16680
# Poissons Ratio (y) = 0.20725 0.60661
# Poissons Ratio (z) = 0.11486 0.80099
#
# Static dielectric constant tensor:
#      x y z
#    x 1.626810 0.000000 0.000000 
#    y 0.000000 1.652960 0.000000 
#    z 0.000000 0.000000 1.578730 
# 
# From -- ./inp_files/6109.got.cif
#   From: 2010.05.17/outbox.cif.g08.bks.cpg/sg51_4_cif.got.tgz:6109.got - 2010.06.03 11:52:47.
