data_PCOD9404224
_publ_section_title
;
Structure prediction by ZEFSAII (Michael W. Deem and Ramdas Pophale) SiO2 
 PCOD9404224
Probable space group: P M M A
;
_chemical_formula_sum "Si O2"
_cell_formula_units_Z 56
_cell_length_a 15.469340
_cell_length_b 19.151131
_cell_length_c 8.956814
_cell_angle_alpha 90.000000
_cell_angle_beta 90.000000
_cell_angle_gamma 90.000000
_cell_volume 2653.504128
_symmetry_space_group_name_H-M "P M M A"
_symmetry_group_IT_number 51
_symmetry_cell_setting 'orthorhombic'
loop_
_space_group_symop_operation_xyz
x,y,z
1/2-x,-y,z
1/2+x,-y,-z
-x,y,-z
-x,-y,-z
1/2+x,y,-z
1/2-x,y,z
x,-y,z
loop_
_atom_site_type_symbol
_atom_site_label
_atom_site_fract_x
_atom_site_fract_y
_atom_site_fract_z
Si Si1 0.156867 0.581785 0.336636
Si Si2 0.973634 0.201168 0.847814
Si Si3 0.986994 0.418237 0.175049
Si Si4 0.149885 0.215001 0.426569
Si Si5 0.349910 0.147299 0.713014
Si Si6 0.347652 0.652100 0.639570
Si Si7 0.850333 0.920589 0.983083
O O1 0.250000 0.613960 0.296631
O O2 0.160520 0.500000 0.301761
O O3 0.145547 0.592596 0.512478
O O4 0.074348 0.608860 0.251555
O O5 0.911921 0.224798 0.713604
O O6 0.918793 0.133618 0.911803
O O7 0.066532 0.188130 0.772715
O O8 0.000000 0.241770 0.000000
O O9 0.971485 0.500000 0.220131
O O10 0.911737 0.368471 0.231248
O O11 0.000000 0.418410 0.000000
O O12 0.250000 0.215915 0.379300
O O13 0.137058 0.146532 0.533256
O O14 0.135800 0.278446 0.543054
O O15 0.250000 0.175135 0.729075
O O16 0.352032 0.085200 0.835207
O O17 0.250000 0.654994 0.695655
O O18 0.750000 0.903995 0.940052
O O19 0.869631 0.000000 0.938671
#
# Coordination Sequence:
#
# PCOD9404224 Si02
#       7
#     8   8   8   8   8   8   8
#     4   9  18  34  55  79 109 147 190 235 284 338
#     4  10  20  34  58  86 115 149 190 240 298 354
#     4  10  21  36  56  85 119 152 189 240 297 348
#     4  10  21  39  59  81 114 154 197 241 289 348
#     4   9  19  34  52  77 113 154 192 235 286 342
#     4  10  21  37  59  84 112 151 196 241 288 345
#     4   9  18  35  59  86 117 154 197 244 296 355
#
# _framework density 21.104168999999999
#
# number of rings (size 3 to 8) (size 9 to 14) (size 15 to 20)
#    0.000    2.429    0.000    1.714    0.000    8.000 
#    0.000    7.857    0.000   17.143    0.000    0.000 
#    0.000    0.000    0.000    0.000    0.000    0.000 
#
# Total GULP energy -311785.306552 kJ/mol
# GULP energy per Si atom -5567.594760 kJ/mol
# Density = 2.105613 g / cm^3
# Si number density = 21.104169 Si / 1000 Ang^3
#
#
#
# Elastic Constant Matrix: (Units=GPa)
#
#
# Indices 1 2 3 4 5 6 
#
# 1 131.1608 36.0760 80.7291 0.0000 0.0000 0.0000
# 2 36.0760 52.1939 26.5438 0.0000 0.0000 0.0000
# 3 80.7291 26.5438 95.9646 0.0000 0.0000 0.0000
# 4 0.0000 0.0000 0.0000 27.9720 0.0000 0.0000
# 5 0.0000 0.0000 0.0000 0.0000 76.5553 0.0000
# 6 0.0000 0.0000 0.0000 0.0000 0.0000 13.3782
#
#
#
# Elastic Compliance Matrix: (Units=1/GPa)
#
#
# Indices 1 2 3 4 5 6 
#
# 1 0.016939 -0.005192 -0.012814 0.000000 0.000000 0.000000
# 2 -0.005192 0.023887 -0.002240 0.000000 0.000000 0.000000
# 3 -0.012814 -0.002240 0.021819 0.000000 0.000000 0.000000
# 4 0.000000 0.000000 0.000000 0.035750 0.000000 0.000000
# 5 0.000000 0.000000 0.000000 0.000000 0.013062 0.000000
# 6 0.000000 0.000000 0.000000 0.000000 0.000000 0.074748
#
#
# Mechanical properties :
#
#
# Convention : Reuss Voigt Hill
#
# Bulk Modulus (GPa) = 45.13636 62.89081 54.01358
# Shear Modulus (GPa) = 21.36011 32.64578 27.00294
#
# Velocity S-wave (km/s) = 3.18485 3.93732 3.58090
# Velocity P-wave (km/s) = 5.91254 7.10878 6.53808
#
# Compressibility (1/GPa) = 0.02215509
#
# Stress axis : x y z
#
# Youngs Moduli (GPa) = 59.03538 41.86422 45.83064
#
# Poissons Ratio (x) = 0.21734 0.58726
# Poissons Ratio (y) = 0.30648 0.10265
# Poissons Ratio (z) = 0.75647 0.09377
#
# Static dielectric constant tensor:
#      x y z
#    x 1.786680 0.000000 0.000000 
#    y 0.000000 1.849390 0.000000 
#    z 0.000000 0.000000 1.763330 
# 
# From -- ./inp_files/8518.got.cif
#   From: 2010.05.17/outbox.cif.g08.bks.cpg/sg51_5_cif.got.tgz:8518.got - 2010.06.03 11:52:47.
