data_PCOD9404145
_publ_section_title
;
Structure prediction by ZEFSAII (Michael W. Deem and Ramdas Pophale) SiO2 
 PCOD9404145
Probable space group: P M M A
;
_chemical_formula_sum "Si O2"
_cell_formula_units_Z 64
_cell_length_a 24.476832
_cell_length_b 8.254756
_cell_length_c 14.775025
_cell_angle_alpha 90.000000
_cell_angle_beta 90.000000
_cell_angle_gamma 90.000000
_cell_volume 2985.297876
_symmetry_space_group_name_H-M "P M M A"
_symmetry_group_IT_number 51
_symmetry_cell_setting 'orthorhombic'
loop_
_space_group_symop_operation_xyz
x,y,z
1/2-x,-y,z
1/2+x,-y,-z
-x,y,-z
-x,-y,-z
1/2+x,y,-z
1/2-x,y,z
x,-y,z
loop_
_atom_site_type_symbol
_atom_site_label
_atom_site_fract_x
_atom_site_fract_y
_atom_site_fract_z
Si Si1 0.311553 0.190004 0.360228
Si Si2 0.030465 0.305207 0.591058
Si Si3 0.690147 0.694367 0.247351
Si Si4 0.657252 0.692735 0.445912
Si Si5 0.626224 0.686849 0.802676
Si Si6 0.004442 0.806260 0.209426
Si Si7 0.311494 0.807978 0.031771
Si Si8 0.102725 0.189713 0.887565
O O1 0.250000 0.246039 0.338604
O O2 0.322271 0.216640 0.465956
O O3 0.355719 0.282791 0.300421
O O4 0.315679 0.000000 0.339343
O O5 0.023449 0.500000 0.596987
O O6 0.094195 0.271059 0.575898
O O7 0.000000 0.248136 0.500000
O O8 0.009753 0.235511 0.686228
O O9 0.750000 0.734771 0.209661
O O10 0.681114 0.500000 0.236970
O O11 0.688860 0.729001 0.353797
O O12 0.642366 0.789507 0.198356
O O13 0.662196 0.500000 0.463686
O O14 0.632403 0.500000 0.825568
O O15 0.563748 0.739053 0.814884
O O16 0.667440 0.784630 0.866595
O O17 0.955956 0.742972 0.143538
O O18 0.006085 0.000000 0.201455
O O19 0.250000 0.741248 0.019358
O O20 0.308496 0.000000 0.012093
O O21 0.359877 0.738517 0.967961
O O22 0.093785 0.000000 0.908463
#
# Coordination Sequence:
#
# PCOD9404145 Si02
#       8
#     8   8   8   8   8   8   8   8
#     4  11  24  41  62  90 124 162 207 261 317 372
#     4  10  20  35  57  85 119 163 212 258 305 358
#     4  10  20  34  55  85 122 164 205 247 298 357
#     4  10  20  35  56  85 124 166 207 252 304 366
#     4  12  26  43  65  91 122 161 206 258 314 375
#     4  11  23  40  63  92 126 163 206 256 310 370
#     4  10  22  43  69  95 125 161 203 253 310 371
#     4  10  22  40  64  93 125 163 204 250 306 364
#
# _framework density 21.438396000000001
#
# number of rings (size 3 to 8) (size 9 to 14) (size 15 to 20)
#    0.000    1.500    1.250    3.750    0.000    7.750 
#    0.000    2.500    0.000    0.000    0.000    0.000 
#    0.000    0.000    0.000    0.000    0.000    0.000 
#
# Total GULP energy -357664.019945 kJ/mol
# GULP energy per Si atom -5588.500312 kJ/mol
# Density = 2.138960 g / cm^3
# Si number density = 21.438396 Si / 1000 Ang^3
#
#
#
# Elastic Constant Matrix: (Units=GPa)
#
#
# Indices 1 2 3 4 5 6 
#
# 1 82.8395 14.7780 5.6469 0.0000 0.0000 0.0000
# 2 14.7780 11.1512 -6.0361 0.0000 0.0000 0.0000
# 3 5.6469 -6.0361 53.4026 0.0000 0.0000 0.0000
# 4 0.0000 0.0000 0.0000 46.9124 0.0000 0.0000
# 5 0.0000 0.0000 0.0000 0.0000 7.3721 0.0000
# 6 0.0000 0.0000 0.0000 0.0000 0.0000 -1.5896
#
#
#
# Elastic Compliance Matrix: (Units=1/GPa)
#
#
# Indices 1 2 3 4 5 6 
#
# 1 0.016795 -0.024732 -0.004571 0.000000 0.000000 0.000000
# 2 -0.024732 0.131940 0.017529 0.000000 0.000000 0.000000
# 3 -0.004571 0.017529 0.021190 0.000000 0.000000 0.000000
# 4 0.000000 0.000000 0.000000 0.021316 0.000000 0.000000
# 5 0.000000 0.000000 0.000000 0.000000 0.135647 0.000000
# 6 0.000000 0.000000 0.000000 0.000000 0.000000 -0.629102
#
#
# Mechanical properties :
#
#
# Convention : Reuss Voigt Hill
#
# Bulk Modulus (GPa) = 6.83173 19.57454 13.20313
# Shear Modulus (GPa) = -21.75128 19.40595 -1.17266
#
# Velocity S-wave (km/s) = -3.18873 3.01191 -0.74039
# Velocity P-wave (km/s) = 3.21927 4.60933 2.33262
#
# Compressibility (1/GPa) = 0.14637581
#
# Stress axis : x y z
#
# Youngs Moduli (GPa) = 59.54097 7.57919 47.19133
#
# Poissons Ratio (x) = 0.18745 0.21573
# Poissons Ratio (y) = 1.47257 -0.82719
# Poissons Ratio (z) = 0.27219 -0.13285
#
# Static dielectric constant tensor:
#      x y z
#    x 1.878790 0.000000 0.000000 
#    y 0.000000 1.764020 0.000000 
#    z 0.000000 0.000000 1.769980 
# 
# From -- ./inp_files/26189.got.cif
#   From: 2010.05.17/outbox.cif.g08.bks.cpg/sg51_14_cif.got.tgz:26189.got - 2010.06.03 11:52:47.
