data_PCOD9404171
_publ_section_title
;
Structure prediction by ZEFSAII (Michael W. Deem and Ramdas Pophale) SiO2 
 PCOD9404171
Probable space group: P M M A
;
_chemical_formula_sum "Si O2"
_cell_formula_units_Z 44
_cell_length_a 10.204585
_cell_length_b 7.866834
_cell_length_c 29.130955
_cell_angle_alpha 90.000000
_cell_angle_beta 90.000000
_cell_angle_gamma 90.000000
_cell_volume 2338.568287
_symmetry_space_group_name_H-M "P M M A"
_symmetry_group_IT_number 51
_symmetry_cell_setting 'orthorhombic'
loop_
_space_group_symop_operation_xyz
x,y,z
1/2-x,-y,z
1/2+x,-y,-z
-x,y,-z
-x,-y,-z
1/2+x,y,-z
1/2-x,y,z
x,-y,z
loop_
_atom_site_type_symbol
_atom_site_label
_atom_site_fract_x
_atom_site_fract_y
_atom_site_fract_z
Si Si1 0.398588 0.204043 0.284791
Si Si2 0.750000 0.707178 0.034550
Si Si3 0.031813 0.299285 0.894827
Si Si4 0.750000 0.801741 0.928487
Si Si5 0.408989 0.500000 0.455334
Si Si6 0.091345 0.805185 0.386512
Si Si7 0.896875 0.705086 0.206418
O O1 0.250000 0.269595 0.277129
O O2 0.448006 0.256225 0.335441
O O3 0.496111 0.248506 0.244116
O O4 0.390195 0.000000 0.287266
O O5 0.750000 0.500000 0.030823
O O6 0.624349 0.764913 0.064155
O O7 0.750000 0.774029 0.983119
O O8 0.060384 0.500000 0.892739
O O9 0.881309 0.275015 0.907281
O O10 0.066457 0.229846 0.844536
O O11 0.750000 0.000000 0.918195
O O12 0.250000 0.500000 0.464330
O O13 0.500000 0.500000 0.500000
O O14 0.440759 0.332481 0.425045
O O15 0.250000 0.812499 0.384468
O O16 0.045506 0.000000 0.394871
O O17 0.750000 0.763730 0.218281
O O18 0.894576 0.500000 0.204333
#
# Coordination Sequence:
#
# PCOD9404171 Si02
#       7
#     8   4   8   4   4   8   8
#     4   9  19  35  56  83 112 144 187 231 275 332
#     4  10  20  40  66  82 100 140 182 222 266 331
#     4  10  21  40  61  80 106 140 181 222 270 329
#     4  12  26  38  54  84 114 136 174 226 274 323
#     4  10  20  34  56  84 116 154 196 242 291 340
#     4   8  16  33  55  80 113 152 195 241 285 340
#     4  10  21  37  56  81 110 141 179 225 276 333
#
# _framework density 18.814931000000001
#
# number of rings (size 3 to 8) (size 9 to 14) (size 15 to 20)
#    0.000    2.364    0.909    2.455    2.545    4.727 
#    0.000    0.909    0.000    1.091    0.000    0.000 
#    0.000    0.000    0.000    0.000    0.000    0.000 
#
# Total GULP energy -245442.814634 kJ/mol
# GULP energy per Si atom -5578.245787 kJ/mol
# Density = 1.877211 g / cm^3
# Si number density = 18.814931 Si / 1000 Ang^3
#
#
#
# Elastic Constant Matrix: (Units=GPa)
#
#
# Indices 1 2 3 4 5 6 
#
# 1 99.8471 2.6294 57.6735 0.0000 0.0000 0.0000
# 2 2.6294 36.7365 24.5285 0.0000 0.0000 0.0000
# 3 57.6735 24.5285 133.6253 0.0000 0.0000 0.0000
# 4 0.0000 0.0000 0.0000 60.6690 0.0000 0.0000
# 5 0.0000 0.0000 0.0000 0.0000 68.9850 0.0000
# 6 0.0000 0.0000 0.0000 0.0000 0.0000 -19.6255
#
#
#
# Elastic Compliance Matrix: (Units=1/GPa)
#
#
# Indices 1 2 3 4 5 6 
#
# 1 0.013700 0.003382 -0.006534 0.000000 0.000000 0.000000
# 2 0.003382 0.031858 -0.007308 0.000000 0.000000 0.000000
# 3 -0.006534 -0.007308 0.011645 0.000000 0.000000 0.000000
# 4 0.000000 0.000000 0.000000 0.016483 0.000000 0.000000
# 5 0.000000 0.000000 0.000000 0.000000 0.014496 0.000000
# 6 0.000000 0.000000 0.000000 0.000000 0.000000 -0.050954
#
#
# Mechanical properties :
#
#
# Convention : Reuss Voigt Hill
#
# Bulk Modulus (GPa) = 27.56002 48.87462 38.21732
# Shear Modulus (GPa) = 71.18233 34.36419 52.77326
#
# Velocity S-wave (km/s) = 6.15752 4.27831 5.30184
# Velocity P-wave (km/s) = 8.07670 7.10199 7.60498
#
# Compressibility (1/GPa) = 0.03628444
#
# Stress axis : x y z
#
# Youngs Moduli (GPa) = 72.99055 31.38924 85.87282
#
# Poissons Ratio (x) = -0.10616 0.56109
# Poissons Ratio (y) = -0.24686 0.62753
# Poissons Ratio (z) = 0.47692 0.22938
#
# Static dielectric constant tensor:
#      x y z
#    x 1.623080 0.000000 0.000000 
#    y 0.000000 1.689420 0.000000 
#    z 0.000000 0.000000 1.647490 
# 
# From -- ./inp_files/36840.got.cif
#   From: 2010.05.17/outbox.cif.g08.bks.cpg/sg51_19_cif.got.tgz:36840.got - 2010.06.03 11:52:47.
