data_PCOD9404285
_publ_section_title
;
Structure prediction by ZEFSAII (Michael W. Deem and Ramdas Pophale) SiO2 
 PCOD9404285
Probable space group: P M M A
;
_chemical_formula_sum "Si O2"
_cell_formula_units_Z 48
_cell_length_a 8.984949
_cell_length_b 18.195505
_cell_length_c 16.257631
_cell_angle_alpha 90.000000
_cell_angle_beta 90.000000
_cell_angle_gamma 90.000000
_cell_volume 2657.889932
_symmetry_space_group_name_H-M "P M M A"
_symmetry_group_IT_number 51
_symmetry_cell_setting 'orthorhombic'
loop_
_space_group_symop_operation_xyz
x,y,z
1/2-x,-y,z
1/2+x,-y,-z
-x,y,-z
-x,-y,-z
1/2+x,y,-z
1/2-x,y,z
x,-y,z
loop_
_atom_site_type_symbol
_atom_site_label
_atom_site_fract_x
_atom_site_fract_y
_atom_site_fract_z
Si Si1 0.576686 0.088689 0.763972
Si Si2 0.571893 0.912818 0.582427
Si Si3 0.427411 0.837159 0.916707
Si Si4 0.922457 0.589532 0.416052
Si Si5 0.071843 0.585711 0.247366
Si Si6 0.429436 0.675602 0.083735
O O1 0.750000 0.110628 0.777222
O O2 0.528966 0.115733 0.672897
O O3 0.475560 0.117941 0.836772
O O4 0.573963 0.000000 0.762757
O O5 0.500000 0.880590 0.500000
O O6 0.750000 0.907407 0.576751
O O7 0.533956 0.000000 0.583596
O O8 0.250000 0.832453 0.925284
O O9 0.499675 0.756355 0.907925
O O10 0.500000 0.869447 0.000000
O O11 0.750000 0.609282 0.417010
O O12 0.933343 0.500000 0.416004
O O13 0.000000 0.615188 0.500000
O O14 0.998028 0.614271 0.331252
O O15 0.250000 0.589115 0.257647
O O16 0.030302 0.500000 0.237064
O O17 0.033256 0.629685 0.165139
O O18 0.250000 0.680240 0.076099
O O19 0.500000 0.643452 0.000000
#
# Coordination Sequence:
#
# PCOD9404285 Si02
#       6
#     8   8   8   8   8   8
#     4   9  18  33  52  75 103 132 163 202 247 291
#     4   8  14  25  43  68  98 130 160 192 232 279
#     4  11  22  36  54  73  96 128 166 205 245 294
#     4   9  16  26  43  68  98 131 164 199 240 288
#     4   9  18  32  50  74 102 130 162 202 247 291
#     4  10  20  35  54  73  97 130 165 201 243 293
#
# _framework density 18.059438
#
# number of rings (size 3 to 8) (size 9 to 14) (size 15 to 20)
#    0.000    2.667    0.000    4.500    0.000    5.000 
#    0.000    1.667    0.000    1.000    0.000    4.667 
#    0.000    0.000    0.000    0.000    0.000    0.000 
#
# Total GULP energy -267524.306624 kJ/mol
# GULP energy per Si atom -5573.423055 kJ/mol
# Density = 1.801833 g / cm^3
# Si number density = 18.059438 Si / 1000 Ang^3
#
#
#
# Elastic Constant Matrix: (Units=GPa)
#
#
# Indices 1 2 3 4 5 6 
#
# 1 71.6186 15.5903 73.1962 0.0000 0.0000 0.0000
# 2 15.5903 9.4750 30.5579 0.0000 0.0000 0.0000
# 3 73.1962 30.5579 196.5540 0.0000 0.0000 0.0000
# 4 0.0000 0.0000 0.0000 -46.9325 0.0000 0.0000
# 5 0.0000 0.0000 0.0000 0.0000 39.3198 0.0000
# 6 0.0000 0.0000 0.0000 0.0000 0.0000 17.4817
#
#
#
# Elastic Compliance Matrix: (Units=1/GPa)
#
#
# Indices 1 2 3 4 5 6 
#
# 1 0.024626 -0.021948 -0.005758 0.000000 0.000000 0.000000
# 2 -0.021948 0.231239 -0.027777 0.000000 0.000000 0.000000
# 3 -0.005758 -0.027777 0.011550 0.000000 0.000000 0.000000
# 4 0.000000 0.000000 0.000000 -0.021307 0.000000 0.000000
# 5 0.000000 0.000000 0.000000 0.000000 0.025432 0.000000
# 6 0.000000 0.000000 0.000000 0.000000 0.000000 0.057203
#
#
# Mechanical properties :
#
#
# Convention : Reuss Voigt Hill
#
# Bulk Modulus (GPa) = 6.39190 57.37072 31.88131
# Shear Modulus (GPa) = 10.16551 12.52736 11.34643
#
# Velocity S-wave (km/s) = 2.37511 2.63663 2.50928
# Velocity P-wave (km/s) = 3.32695 6.41138 5.10756
#
# Compressibility (1/GPa) = 0.15644805
#
# Stress axis : x y z
#
# Youngs Moduli (GPa) = 40.60778 4.32453 86.57669
#
# Poissons Ratio (x) = 0.09492 0.49854
# Poissons Ratio (y) = 0.89128 2.40482
# Poissons Ratio (z) = 0.23383 0.12012
#
# Static dielectric constant tensor:
#      x y z
#    x 1.603740 0.000000 0.000000 
#    y 0.000000 1.615590 0.000000 
#    z 0.000000 0.000000 1.646680 
# 
# From -- ./inp_files/21413.got.cif
#   From: 2010.05.17/outbox.cif.g08.bks.cpg/sg51_11_cif.got.tgz:21413.got - 2010.06.03 11:52:47.
