data_PCOD9404619
_publ_section_title
;
Structure prediction by ZEFSAII (Michael W. Deem and Ramdas Pophale) SiO2 
 PCOD9404619
Probable space group: P M M A
;
_chemical_formula_sum "Si O2"
_cell_formula_units_Z 48
_cell_length_a 8.082189
_cell_length_b 16.972155
_cell_length_c 17.087898
_cell_angle_alpha 90.000000
_cell_angle_beta 90.000000
_cell_angle_gamma 90.000000
_cell_volume 2343.983955
_symmetry_space_group_name_H-M "P M M A"
_symmetry_group_IT_number 51
_symmetry_cell_setting 'orthorhombic'
loop_
_space_group_symop_operation_xyz
x,y,z
1/2-x,-y,z
1/2+x,-y,-z
-x,y,-z
-x,-y,-z
1/2+x,y,-z
1/2-x,y,z
x,-y,z
loop_
_atom_site_type_symbol
_atom_site_label
_atom_site_fract_x
_atom_site_fract_y
_atom_site_fract_z
Si Si1 0.949659 0.000000 0.204737
Si Si2 0.934409 0.693006 0.881609
Si Si3 0.566068 0.692500 0.692782
Si Si4 0.059473 0.000000 0.379805
Si Si5 0.750000 0.590333 0.305895
Si Si6 0.556524 0.826236 0.414076
Si Si7 0.250000 0.409441 0.885345
Si Si8 0.552543 0.134729 0.082630
O O1 0.989946 0.923319 0.153364
O O2 0.750000 0.000000 0.218902
O O3 0.042041 0.000000 0.286244
O O4 0.750000 0.665350 0.903345
O O5 0.942315 0.698324 0.786899
O O6 0.084121 0.637338 0.908551
O O7 0.964220 0.781371 0.910788
O O8 0.750000 0.663045 0.672530
O O9 0.415212 0.636121 0.668431
O O10 0.538246 0.776771 0.652015
O O11 0.977470 0.080778 0.407858
O O12 0.250000 0.000000 0.404709
O O13 0.750000 0.500000 0.331669
O O14 0.750000 0.590109 0.210385
O O15 0.500000 0.799514 0.500000
O O16 0.750000 0.812115 0.403256
O O17 0.250000 0.500000 0.911592
O O18 0.750000 0.147024 0.084430
O O19 0.500000 0.098319 0.000000
#
# Coordination Sequence:
#
# PCOD9404619 Si02
#       8
#     4   8   8   4   4   8   4   8
#     4  10  23  40  60  84 117 158 196 245 296 339
#     4  10  20  35  58  87 118 153 197 242 292 351
#     4  10  20  36  59  89 119 155 200 244 295 354
#     4  12  25  40  59  86 119 154 199 247 292 346
#     4   9  18  34  58  89 121 155 191 243 301 349
#     4  12  24  40  60  85 117 158 198 246 294 350
#     4   9  18  34  58  87 119 151 189 241 297 349
#     4  11  22  37  57  84 117 157 199 244 291 348
#
# _framework density 20.477955999999999
#
# number of rings (size 3 to 8) (size 9 to 14) (size 15 to 20)
#    0.000    1.500    1.667    4.250    0.000    4.667 
#    0.000    3.333    0.000    1.000    0.000    0.000 
#    0.000    0.000    0.000    0.000    0.000    0.000 
#
# Total GULP energy -268409.259677 kJ/mol
# GULP energy per Si atom -5591.859577 kJ/mol
# Density = 2.043135 g / cm^3
# Si number density = 20.477956 Si / 1000 Ang^3
#
#
#
# Elastic Constant Matrix: (Units=GPa)
#
#
# Indices 1 2 3 4 5 6 
#
# 1 146.4504 49.1012 27.7957 0.0000 0.0000 0.0000
# 2 49.1012 104.3946 9.6122 0.0000 0.0000 0.0000
# 3 27.7957 9.6122 49.4517 0.0000 0.0000 0.0000
# 4 0.0000 0.0000 0.0000 -79.1499 0.0000 0.0000
# 5 0.0000 0.0000 0.0000 0.0000 26.4026 0.0000
# 6 0.0000 0.0000 0.0000 0.0000 0.0000 -17.4167
#
#
#
# Elastic Compliance Matrix: (Units=1/GPa)
#
#
# Indices 1 2 3 4 5 6 
#
# 1 0.008912 -0.003799 -0.004271 0.000000 0.000000 0.000000
# 2 -0.003799 0.011373 -0.000075 0.000000 0.000000 0.000000
# 3 -0.004271 -0.000075 0.022637 0.000000 0.000000 0.000000
# 4 0.000000 0.000000 0.000000 -0.012634 0.000000 0.000000
# 5 0.000000 0.000000 0.000000 0.000000 0.037875 0.000000
# 6 0.000000 0.000000 0.000000 0.000000 0.000000 -0.057416
#
#
# Mechanical properties :
#
#
# Convention : Reuss Voigt Hill
#
# Bulk Modulus (GPa) = 37.54907 52.59054 45.06981
# Shear Modulus (GPa) = 139.21905 0.21970 69.71938
#
# Velocity S-wave (km/s) = 8.25424 0.32790 5.84123
# Velocity P-wave (km/s) = 10.45081 5.08730 8.21888
#
# Compressibility (1/GPa) = 0.02663181
#
# Stress axis : x y z
#
# Youngs Moduli (GPa) = 112.20214 87.93025 44.17522
#
# Poissons Ratio (x) = 0.33402 0.18868
# Poissons Ratio (y) = 0.42622 0.00333
# Poissons Ratio (z) = 0.47923 0.00663
#
# Static dielectric constant tensor:
#      x y z
#    x 1.727720 0.000000 0.000000 
#    y 0.000000 1.691950 0.000000 
#    z 0.000000 0.000000 1.717910 
# 
# From -- ./inp_files/27720.got.cif
#   From: 2010.05.17/outbox.cif.g08.bks.cpg/sg51_14_cif.got.tgz:27720.got - 2010.06.03 11:52:47.
