data_PCOD9404063
_publ_section_title
;
Structure prediction by ZEFSAII (Michael W. Deem and Ramdas Pophale) SiO2 
 PCOD9404063
Probable space group: P M M A
;
_chemical_formula_sum "Si O2"
_cell_formula_units_Z 40
_cell_length_a 8.751500
_cell_length_b 26.390981
_cell_length_c 9.887074
_cell_angle_alpha 90.000000
_cell_angle_beta 90.000000
_cell_angle_gamma 90.000000
_cell_volume 2283.525238
_symmetry_space_group_name_H-M "P M M A"
_symmetry_group_IT_number 51
_symmetry_cell_setting 'orthorhombic'
loop_
_space_group_symop_operation_xyz
x,y,z
1/2-x,-y,z
1/2+x,-y,-z
-x,y,-z
-x,-y,-z
1/2+x,y,-z
1/2-x,y,z
x,-y,z
loop_
_atom_site_type_symbol
_atom_site_label
_atom_site_fract_x
_atom_site_fract_y
_atom_site_fract_z
Si Si1 0.932381 0.357951 0.348217
Si Si2 0.067071 0.141448 0.348686
Si Si3 0.067084 0.941690 0.851032
Si Si4 0.932636 0.440837 0.851038
Si Si5 0.433033 0.746038 0.348159
O O1 0.750000 0.357183 0.355893
O O2 0.000000 0.362623 0.500000
O O3 0.991461 0.403754 0.256864
O O4 0.992436 0.304390 0.287659
O O5 0.250000 0.137327 0.356523
O O6 0.031297 0.198050 0.291850
O O7 0.000000 0.137561 0.500000
O O8 0.999932 0.097980 0.254657
O O9 0.250000 0.937526 0.855293
O O10 0.027766 0.000000 0.814602
O O11 0.000000 0.932085 0.000000
O O12 0.750000 0.433614 0.852342
O O13 0.963666 0.500000 0.819139
O O14 0.000000 0.430887 0.000000
O O15 0.500000 0.747731 0.500000
O O16 0.250000 0.739964 0.352541
#
# Coordination Sequence:
#
# PCOD9404063 Si02
#       5
#     8   8   8   8   8
#     4  11  21  34  55  81 109 141 177 218 262 309
#     4  10  20  34  55  81 108 139 175 217 261 309
#     4  10  21  37  56  77 104 139 176 216 264 316
#     4  10  21  38  58  79 106 140 176 216 264 316
#     4   9  17  31  51  76 106 138 173 213 261 312
#
# _framework density 17.516777000000001
#
# number of rings (size 3 to 8) (size 9 to 14) (size 15 to 20)
#    0.000    2.000    0.000    5.400    0.000    5.600 
#    0.000    1.000    0.000    4.800    0.000    0.000 
#    0.000    0.000    0.000    0.000    0.000    0.000 
#
# Total GULP energy -223187.424059 kJ/mol
# GULP energy per Si atom -5579.685601 kJ/mol
# Density = 1.747691 g / cm^3
# Si number density = 17.516777 Si / 1000 Ang^3
#
#
#
# Elastic Constant Matrix: (Units=GPa)
#
#
# Indices 1 2 3 4 5 6 
#
# 1 114.5619 88.0866 53.4729 0.0000 0.0000 0.0000
# 2 88.0866 167.5589 95.2361 0.0000 0.0000 0.0000
# 3 53.4729 95.2361 77.8457 0.0000 0.0000 0.0000
# 4 0.0000 0.0000 0.0000 -56.3856 0.0000 0.0000
# 5 0.0000 0.0000 0.0000 0.0000 31.6637 0.0000
# 6 0.0000 0.0000 0.0000 0.0000 0.0000 41.4656
#
#
#
# Elastic Compliance Matrix: (Units=1/GPa)
#
#
# Indices 1 2 3 4 5 6 
#
# 1 0.014757 -0.006553 -0.002120 0.000000 0.000000 0.000000
# 2 -0.006553 0.022499 -0.023024 0.000000 0.000000 0.000000
# 3 -0.002120 -0.023024 0.042470 0.000000 0.000000 0.000000
# 4 0.000000 0.000000 0.000000 -0.017735 0.000000 0.000000
# 5 0.000000 0.000000 0.000000 0.000000 0.031582 0.000000
# 6 0.000000 0.000000 0.000000 0.000000 0.000000 0.024116
#
#
# Mechanical properties :
#
#
# Convention : Reuss Voigt Hill
#
# Bulk Modulus (GPa) = 61.22949 92.61754 76.92351
# Shear Modulus (GPa) = 26.80560 11.56014 19.18287
#
# Velocity S-wave (km/s) = 3.91613 2.57173 3.31284
# Velocity P-wave (km/s) = 7.44840 7.86173 7.65786
#
# Compressibility (1/GPa) = 0.01633200
#
# Stress axis : x y z
#
# Youngs Moduli (GPa) = 67.76495 44.44544 23.54599
#
# Poissons Ratio (x) = 0.29125 0.04991
# Poissons Ratio (y) = 0.44406 0.54213
# Poissons Ratio (z) = 0.14365 1.02333
#
# Static dielectric constant tensor:
#      x y z
#    x 1.581780 0.000000 0.000000 
#    y 0.000000 1.625850 0.000000 
#    z 0.000000 0.000000 1.546080 
# 
# From -- ./inp_files/5276.got.cif
#   From: 2010.05.17/outbox.cif.g08.bks.cpg/sg51_3_cif.got.tgz:5276.got - 2010.06.03 11:52:47.
