data_PCOD9404101
_publ_section_title
;
Structure prediction by ZEFSAII (Michael W. Deem and Ramdas Pophale) SiO2 
 PCOD9404101
Probable space group: P M M A
;
_chemical_formula_sum "Si O2"
_cell_formula_units_Z 40
_cell_length_a 7.621276
_cell_length_b 16.314491
_cell_length_c 14.782723
_cell_angle_alpha 90.000000
_cell_angle_beta 90.000000
_cell_angle_gamma 90.000000
_cell_volume 1838.042958
_symmetry_space_group_name_H-M "P M M A"
_symmetry_group_IT_number 51
_symmetry_cell_setting 'orthorhombic'
loop_
_space_group_symop_operation_xyz
x,y,z
1/2-x,-y,z
1/2+x,-y,-z
-x,y,-z
-x,-y,-z
1/2+x,y,-z
1/2-x,y,z
x,-y,z
loop_
_atom_site_type_symbol
_atom_site_label
_atom_site_fract_x
_atom_site_fract_y
_atom_site_fract_z
Si Si1 0.965654 0.160656 0.211934
Si Si2 0.455323 0.339563 0.793437
Si Si3 0.040215 0.093923 0.598644
Si Si4 0.461472 0.500000 0.893972
Si Si5 0.458801 0.594655 0.398654
Si Si6 0.539941 0.000000 0.105358
O O1 0.750000 0.161817 0.210238
O O2 0.028634 0.250261 0.182745
O O3 0.022239 0.143766 0.315071
O O4 0.024454 0.083258 0.152772
O O5 0.250000 0.336856 0.817258
O O6 0.531385 0.418245 0.844887
O O7 0.468209 0.355068 0.685750
O O8 0.250000 0.089043 0.606311
O O9 0.000000 0.128723 0.500000
O O10 0.971922 0.000000 0.602229
O O11 0.250000 0.500000 0.881892
O O12 0.500000 0.500000 0.000000
O O13 0.500000 0.624741 0.500000
O O14 0.250000 0.593228 0.388764
O O15 0.524482 0.500000 0.392647
O O16 0.750000 0.000000 0.117926
O O17 0.500000 0.000000 0.000000
#
# Coordination Sequence:
#
# PCOD9404101 Si02
#       6
#     8   8   8   4   8   4
#     4   9  18  34  57  79 106 143 181 217 266 327
#     4  10  20  36  57  82 109 143 184 227 273 325
#     4   9  16  29  50  75 102 137 174 209 250 302
#     4  10  22  38  57  78 105 138 177 224 278 330
#     4  10  20  34  55  82 113 150 186 224 268 320
#     4  10  20  38  59  80 106 140 181 226 277 330
#
# _framework density 21.762277999999998
#
# number of rings (size 3 to 8) (size 9 to 14) (size 15 to 20)
#    0.000    2.400    2.000    0.600    0.000    3.200 
#    0.000    5.000    0.000    0.000    0.000    0.000 
#    0.000    0.000    0.000    0.000    0.000    0.000 
#
# Total GULP energy -223357.583298 kJ/mol
# GULP energy per Si atom -5583.939582 kJ/mol
# Density = 2.171275 g / cm^3
# Si number density = 21.762278 Si / 1000 Ang^3
#
#
#
# Elastic Constant Matrix: (Units=GPa)
#
#
# Indices 1 2 3 4 5 6 
#
# 1 44.3760 8.9134 -11.1898 0.0000 0.0000 0.0000
# 2 8.9134 196.3686 99.4581 0.0000 0.0000 0.0000
# 3 -11.1898 99.4581 137.8171 0.0000 0.0000 0.0000
# 4 0.0000 0.0000 0.0000 -5.7060 0.0000 0.0000
# 5 0.0000 0.0000 0.0000 0.0000 27.9065 0.0000
# 6 0.0000 0.0000 0.0000 0.0000 0.0000 -1.2383
#
#
#
# Elastic Compliance Matrix: (Units=1/GPa)
#
#
# Indices 1 2 3 4 5 6 
#
# 1 0.024301 -0.003314 0.004364 0.000000 0.000000 0.000000
# 2 -0.003314 0.008478 -0.006387 0.000000 0.000000 0.000000
# 3 0.004364 -0.006387 0.012220 0.000000 0.000000 0.000000
# 4 0.000000 0.000000 0.000000 -0.175255 0.000000 0.000000
# 5 0.000000 0.000000 0.000000 0.000000 0.035834 0.000000
# 6 0.000000 0.000000 0.000000 0.000000 0.000000 -0.807533
#
#
# Mechanical properties :
#
#
# Convention : Reuss Voigt Hill
#
# Bulk Modulus (GPa) = 29.13279 63.65835 46.39557
# Shear Modulus (GPa) = -5.68284 22.95111 8.63414
#
# Velocity S-wave (km/s) = -1.61771 3.25103 1.99401
# Velocity P-wave (km/s) = 3.15064 6.58843 5.16401
#
# Compressibility (1/GPa) = 0.03432559
#
# Stress axis : x y z
#
# Youngs Moduli (GPa) = 41.15096 117.95306 81.83404
#
# Poissons Ratio (x) = 0.39084 -0.35715
# Poissons Ratio (y) = 0.13635 0.52270
# Poissons Ratio (z) = -0.17960 0.75340
#
# Static dielectric constant tensor:
#      x y z
#    x 1.820790 0.000000 0.000000 
#    y 0.000000 1.822060 0.000000 
#    z 0.000000 0.000000 1.750900 
# 
# From -- ./inp_files/20546.got.cif
#   From: 2010.05.17/outbox.cif.g08.bks.cpg/sg51_11_cif.got.tgz:20546.got - 2010.06.03 11:52:47.
