data_PCOD9404979
_publ_section_title
;
Structure prediction by ZEFSAII (Michael W. Deem and Ramdas Pophale) SiO2 
 PCOD9404979
Probable space group: P M M A
;
_chemical_formula_sum "Si O2"
_cell_formula_units_Z 48
_cell_length_a 19.791797
_cell_length_b 7.745965
_cell_length_c 16.970956
_cell_angle_alpha 90.000000
_cell_angle_beta 90.000000
_cell_angle_gamma 90.000000
_cell_volume 2601.759001
_symmetry_space_group_name_H-M "P M M A"
_symmetry_group_IT_number 51
_symmetry_cell_setting 'orthorhombic'
loop_
_space_group_symop_operation_xyz
x,y,z
1/2-x,-y,z
1/2+x,-y,-z
-x,y,-z
-x,-y,-z
1/2+x,y,-z
1/2-x,y,z
x,-y,z
loop_
_atom_site_type_symbol
_atom_site_label
_atom_site_fract_x
_atom_site_fract_y
_atom_site_fract_z
Si Si1 0.570681 0.500000 0.046952
Si Si2 0.173053 0.500000 0.096085
Si Si3 0.546505 0.803633 0.165061
Si Si4 0.067540 0.290745 0.657203
Si Si5 0.414218 0.290742 0.372749
Si Si6 0.328036 0.711148 0.524367
Si Si7 0.613105 0.803848 0.803741
O O1 0.573822 0.666098 0.103424
O O2 0.500000 0.500000 0.000000
O O3 0.627132 0.500000 0.980799
O O4 0.250000 0.500000 0.072579
O O5 0.156029 0.334509 0.149475
O O6 0.573603 0.774823 0.253599
O O7 0.465527 0.776844 0.172508
O O8 0.558948 0.000000 0.140274
O O9 0.067422 0.500000 0.660054
O O10 0.127761 0.235162 0.599886
O O11 0.993349 0.238174 0.624381
O O12 0.413553 0.500000 0.371077
O O13 0.369305 0.234422 0.446551
O O14 0.384822 0.225917 0.290026
O O15 0.250000 0.767781 0.525147
O O16 0.327443 0.500000 0.524055
O O17 0.631856 0.000000 0.822156
#
# Coordination Sequence:
#
# PCOD9404979 Si02
#       7
#     4   4   8   8   8   8   8
#     4  12  22  40  68  89 115 146 189 236 285 349
#     4  12  26  42  60  87 121 155 185 228 288 350
#     4  10  20  36  63  94 116 143 190 244 292 339
#     4   9  16  30  53  78 111 148 191 240 286 337
#     4   9  16  29  52  80 112 147 192 241 288 331
#     4   9  17  28  46  77 111 152 200 240 283 335
#     4  10  20  37  60  88 117 151 191 236 288 345
#
# _framework density 18.449058000000001
#
# number of rings (size 3 to 8) (size 9 to 14) (size 15 to 20)
#    0.000    2.167    3.333    0.500    0.000    4.000 
#    0.000    1.667    0.000    6.500    0.000    0.000 
#    0.000    0.000    0.000    0.000    0.000    0.000 
#
# Total GULP energy -268038.035824 kJ/mol
# GULP energy per Si atom -5584.125746 kJ/mol
# Density = 1.840707 g / cm^3
# Si number density = 18.449058 Si / 1000 Ang^3
#
#
#
# Elastic Constant Matrix: (Units=GPa)
#
#
# Indices 1 2 3 4 5 6 
#
# 1 118.5108 41.8297 85.3528 0.0000 0.0000 0.0000
# 2 41.8297 62.6152 44.6759 0.0000 0.0000 0.0000
# 3 85.3528 44.6759 118.4463 0.0000 0.0000 0.0000
# 4 0.0000 0.0000 0.0000 -16.5807 0.0000 0.0000
# 5 0.0000 0.0000 0.0000 0.0000 16.9658 0.0000
# 6 0.0000 0.0000 0.0000 0.0000 0.0000 0.4384
#
#
#
# Elastic Compliance Matrix: (Units=1/GPa)
#
#
# Indices 1 2 3 4 5 6 
#
# 1 0.018190 -0.003830 -0.011663 0.000000 0.000000 0.000000
# 2 -0.003830 0.022658 -0.005786 0.000000 0.000000 0.000000
# 3 -0.011663 -0.005786 0.019029 0.000000 0.000000 0.000000
# 4 0.000000 0.000000 0.000000 -0.060311 0.000000 0.000000
# 5 0.000000 0.000000 0.000000 0.000000 0.058942 0.000000
# 6 0.000000 0.000000 0.000000 0.000000 0.000000 2.281219
#
#
# Mechanical properties :
#
#
# Convention : Reuss Voigt Hill
#
# Bulk Modulus (GPa) = 57.74158 71.47656 64.60907
# Shear Modulus (GPa) = 2.09375 8.67893 5.38634
#
# Velocity S-wave (km/s) = 1.06646 2.17129 1.71053
# Velocity P-wave (km/s) = 5.73431 6.71660 6.24480
#
# Compressibility (1/GPa) = 0.01731854
#
# Stress axis : x y z
#
# Youngs Moduli (GPa) = 54.97628 44.13531 52.55029
#
# Poissons Ratio (x) = 0.16904 0.61289
# Poissons Ratio (y) = 0.21056 0.30406
# Poissons Ratio (z) = 0.64118 0.25537
#
# Static dielectric constant tensor:
#      x y z
#    x 1.610860 0.000000 0.000000 
#    y 0.000000 1.658870 0.000000 
#    z 0.000000 0.000000 1.604860 
# 
# From -- ./inp_files/24917.got.cif
#   From: 2010.05.17/outbox.cif.g08.bks.cpg/sg51_13_cif.got.tgz:24917.got - 2010.06.03 11:52:47.
