data_PCOD9404563
_publ_section_title
;
Structure prediction by ZEFSAII (Michael W. Deem and Ramdas Pophale) SiO2 
 PCOD9404563
Probable space group: P M M A
;
_chemical_formula_sum "Si O2"
_cell_formula_units_Z 48
_cell_length_a 9.262926
_cell_length_b 7.883750
_cell_length_c 34.836282
_cell_angle_alpha 90.000000
_cell_angle_beta 90.000000
_cell_angle_gamma 90.000000
_cell_volume 2543.974982
_symmetry_space_group_name_H-M "P M M A"
_symmetry_group_IT_number 51
_symmetry_cell_setting 'orthorhombic'
loop_
_space_group_symop_operation_xyz
x,y,z
1/2-x,-y,z
1/2+x,-y,-z
-x,y,-z
-x,-y,-z
1/2+x,y,-z
1/2-x,y,z
x,-y,z
loop_
_atom_site_type_symbol
_atom_site_label
_atom_site_fract_x
_atom_site_fract_y
_atom_site_fract_z
Si Si1 0.417909 0.205798 0.674227
Si Si2 0.078661 0.809541 0.096177
Si Si3 0.576292 0.500000 0.959133
Si Si4 0.416037 0.701682 0.828044
Si Si5 0.915827 0.794689 0.750976
Si Si6 0.076523 0.000000 0.459162
Si Si7 0.078420 0.307410 0.403017
O O1 0.250000 0.253787 0.676277
O O2 0.501933 0.261248 0.712494
O O3 0.492688 0.276685 0.636213
O O4 0.425771 0.000000 0.672316
O O5 0.250000 0.788562 0.104083
O O6 0.036629 0.665525 0.065846
O O7 0.993635 0.786248 0.135761
O O8 0.055710 0.000000 0.081265
O O9 0.750000 0.500000 0.964069
O O10 0.500000 0.500000 0.000000
O O11 0.250000 0.758296 0.824555
O O12 0.417577 0.500000 0.834758
O O13 0.500917 0.738333 0.788951
O O14 0.750000 0.736276 0.751228
O O15 0.915052 0.000000 0.750763
O O16 0.037395 0.834055 0.434184
O O17 0.000000 0.000000 0.500000
O O18 0.250000 0.000000 0.464233
O O19 0.250000 0.286422 0.395293
O O20 0.054584 0.500000 0.416573
#
# Coordination Sequence:
#
# PCOD9404563 Si02
#       7
#     8   8   4   8   8   4   8
#     4  10  20  35  57  84 116 154 196 244 298 349
#     4  10  21  39  63  88 116 156 200 240 292 355
#     4  10  22  40  62  90 124 156 194 246 294 352
#     4  11  23  37  55  82 117 155 197 246 299 350
#     4  10  21  36  56  82 113 154 201 246 293 349
#     4  10  22  40  62  88 120 154 194 244 294 354
#     4  10  21  38  61  87 116 155 198 239 290 352
#
# _framework density 18.868110000000001
#
# number of rings (size 3 to 8) (size 9 to 14) (size 15 to 20)
#    0.000    1.833    1.667    2.000    0.000    8.000 
#    0.000    0.000    0.000    0.000    0.000    0.000 
#    0.000    0.000    0.000    0.000    0.000    0.000 
#
# Total GULP energy -268230.095389 kJ/mol
# GULP energy per Si atom -5588.126987 kJ/mol
# Density = 1.882517 g / cm^3
# Si number density = 18.868110 Si / 1000 Ang^3
#
#
#
# Elastic Constant Matrix: (Units=GPa)
#
#
# Indices 1 2 3 4 5 6 
#
# 1 92.7031 59.8489 78.6922 0.0000 0.0000 0.0000
# 2 59.8489 105.3303 74.4466 0.0000 0.0000 0.0000
# 3 78.6922 74.4466 167.6076 0.0000 0.0000 0.0000
# 4 0.0000 0.0000 0.0000 28.0417 0.0000 0.0000
# 5 0.0000 0.0000 0.0000 0.0000 42.9579 0.0000
# 6 0.0000 0.0000 0.0000 0.0000 0.0000 15.5269
#
#
#
# Elastic Compliance Matrix: (Units=1/GPa)
#
#
# Indices 1 2 3 4 5 6 
#
# 1 0.021196 -0.007302 -0.006708 0.000000 0.000000 0.000000
# 2 -0.007302 0.016354 -0.003836 0.000000 0.000000 0.000000
# 3 -0.006708 -0.003836 0.010819 0.000000 0.000000 0.000000
# 4 0.000000 0.000000 0.000000 0.035661 0.000000 0.000000
# 5 0.000000 0.000000 0.000000 0.000000 0.023279 0.000000
# 6 0.000000 0.000000 0.000000 0.000000 0.000000 0.064404
#
#
# Mechanical properties :
#
#
# Convention : Reuss Voigt Hill
#
# Bulk Modulus (GPa) = 78.88019 87.95739 83.41879
# Shear Modulus (GPa) = 23.62609 27.48219 25.55414
#
# Velocity S-wave (km/s) = 3.54244 3.82061 3.68415
# Velocity P-wave (km/s) = 7.65694 8.13516 7.89967
#
# Compressibility (1/GPa) = 0.01267745
#
# Stress axis : x y z
#
# Youngs Moduli (GPa) = 47.17976 61.14688 92.42701
#
# Poissons Ratio (x) = 0.44651 0.61999
# Poissons Ratio (y) = 0.34452 0.35451
# Poissons Ratio (z) = 0.31648 0.23453
#
# Static dielectric constant tensor:
#      x y z
#    x 1.637590 0.000000 0.000000 
#    y 0.000000 1.688780 0.000000 
#    z 0.000000 0.000000 1.589820 
# 
# From -- ./inp_files/37150.got.cif
#   From: 2010.05.17/outbox.cif.g08.bks.cpg/sg51_19_cif.got.tgz:37150.got - 2010.06.03 11:52:47.
