data_PCOD9404280
_publ_section_title
;
Structure prediction by ZEFSAII (Michael W. Deem and Ramdas Pophale) SiO2 
 PCOD9404280
Probable space group: P M M A
;
_chemical_formula_sum "Si O2"
_cell_formula_units_Z 56
_cell_length_a 22.859908
_cell_length_b 9.130846
_cell_length_c 15.009264
_cell_angle_alpha 90.000000
_cell_angle_beta 90.000000
_cell_angle_gamma 90.000000
_cell_volume 3132.888170
_symmetry_space_group_name_H-M "P M M A"
_symmetry_group_IT_number 51
_symmetry_cell_setting 'orthorhombic'
loop_
_space_group_symop_operation_xyz
x,y,z
1/2-x,-y,z
1/2+x,-y,-z
-x,y,-z
-x,-y,-z
1/2+x,y,-z
1/2-x,y,z
x,-y,z
loop_
_atom_site_type_symbol
_atom_site_label
_atom_site_fract_x
_atom_site_fract_y
_atom_site_fract_z
Si Si1 0.946556 0.824744 0.381497
Si Si2 0.683609 0.675069 0.696240
Si Si3 0.022733 0.329316 0.099622
Si Si4 0.595577 0.329032 0.210648
Si Si5 0.817722 0.174949 0.073937
Si Si6 0.142948 0.825309 0.125933
Si Si7 0.579607 0.824055 0.587037
O O1 0.909093 0.747306 0.306018
O O2 0.924304 0.792892 0.481357
O O3 0.015313 0.781708 0.375695
O O4 0.944388 0.000000 0.369994
O O5 0.750000 0.707227 0.665061
O O6 0.676483 0.500000 0.700008
O O7 0.675336 0.743150 0.794381
O O8 0.632957 0.744178 0.635030
O O9 0.042392 0.500000 0.100209
O O10 0.075572 0.225244 0.126723
O O11 0.968025 0.314433 0.164883
O O12 0.000000 0.296062 0.000000
O O13 0.608812 0.500000 0.219996
O O14 0.641226 0.255268 0.143910
O O15 0.750000 0.207538 0.090844
O O16 0.826641 0.000000 0.081572
O O17 0.833103 0.214612 0.971961
O O18 0.148331 0.000000 0.137512
O O19 0.585605 0.000000 0.598184
#
# Coordination Sequence:
#
# PCOD9404280 Si02
#       7
#     8   8   8   8   8   8   8
#     4   9  19  37  61  88 116 143 178 228 285 337
#     4  11  24  39  56  82 117 154 189 230 283 340
#     4  10  20  35  53  79 117 151 182 225 278 332
#     4  11  22  35  55  83 113 148 186 225 271 327
#     4  10  22  39  56  75 104 144 189 235 277 320
#     4  11  22  36  58  84 111 146 192 236 278 332
#     4   9  19  38  63  88 112 143 183 229 280 335
#
# _framework density 17.874880000000001
#
# number of rings (size 3 to 8) (size 9 to 14) (size 15 to 20)
#    0.000    1.857    1.429    3.429    0.000    7.429 
#    0.000    2.143    0.000    0.857    0.000    0.000 
#    0.000    0.000    0.000    0.000    0.000    0.000 
#
# Total GULP energy -312801.799896 kJ/mol
# GULP energy per Si atom -5585.746427 kJ/mol
# Density = 1.783420 g / cm^3
# Si number density = 17.874880 Si / 1000 Ang^3
#
#
#
# Elastic Constant Matrix: (Units=GPa)
#
#
# Indices 1 2 3 4 5 6 
#
# 1 110.2811 61.6188 70.3197 0.0000 0.0000 0.0000
# 2 61.6188 56.0804 59.9379 0.0000 0.0000 0.0000
# 3 70.3197 59.9379 115.5694 0.0000 0.0000 0.0000
# 4 0.0000 0.0000 0.0000 17.9205 0.0000 0.0000
# 5 0.0000 0.0000 0.0000 0.0000 16.1993 0.0000
# 6 0.0000 0.0000 0.0000 0.0000 0.0000 23.9075
#
#
#
# Elastic Compliance Matrix: (Units=1/GPa)
#
#
# Indices 1 2 3 4 5 6 
#
# 1 0.023702 -0.023848 -0.002053 0.000000 0.000000 0.000000
# 2 -0.023848 0.064004 -0.018684 0.000000 0.000000 0.000000
# 3 -0.002053 -0.018684 0.019592 0.000000 0.000000 0.000000
# 4 0.000000 0.000000 0.000000 0.055802 0.000000 0.000000
# 5 0.000000 0.000000 0.000000 0.000000 0.061731 0.000000
# 6 0.000000 0.000000 0.000000 0.000000 0.000000 0.041828
#
#
# Mechanical properties :
#
#
# Convention : Reuss Voigt Hill
#
# Bulk Modulus (GPa) = 55.16481 73.96485 64.56483
# Shear Modulus (GPa) = 13.81707 17.60911 15.71309
#
# Velocity S-wave (km/s) = 2.78328 3.14209 2.96811
# Velocity P-wave (km/s) = 6.42320 7.39139 6.92424
#
# Compressibility (1/GPa) = 0.01812750
#
# Stress axis : x y z
#
# Youngs Moduli (GPa) = 42.19045 15.62414 51.04093
#
# Poissons Ratio (x) = 0.37261 0.10481
# Poissons Ratio (y) = 1.00616 0.95363
# Poissons Ratio (z) = 0.08663 0.29191
#
# Static dielectric constant tensor:
#      x y z
#    x 1.558730 0.000000 0.000000 
#    y 0.000000 1.593960 0.000000 
#    z 0.000000 0.000000 1.601870 
# 
# From -- ./inp_files/25713.got.cif
#   From: 2010.05.17/outbox.cif.g08.bks.cpg/sg51_13_cif.got.tgz:25713.got - 2010.06.03 11:52:47.
