data_PCOD9404266
_publ_section_title
;
Structure prediction by ZEFSAII (Michael W. Deem and Ramdas Pophale) SiO2 
 PCOD9404266
Probable space group: P M M A
;
_chemical_formula_sum "Si O2"
_cell_formula_units_Z 64
_cell_length_a 23.001171
_cell_length_b 8.986773
_cell_length_c 17.865637
_cell_angle_alpha 90.000000
_cell_angle_beta 90.000000
_cell_angle_gamma 90.000000
_cell_volume 3692.939766
_symmetry_space_group_name_H-M "P M M A"
_symmetry_group_IT_number 51
_symmetry_cell_setting 'orthorhombic'
loop_
_space_group_symop_operation_xyz
x,y,z
1/2-x,-y,z
1/2+x,-y,-z
-x,y,-z
-x,-y,-z
1/2+x,y,-z
1/2-x,y,z
x,-y,z
loop_
_atom_site_type_symbol
_atom_site_label
_atom_site_fract_x
_atom_site_fract_y
_atom_site_fract_z
Si Si1 0.069314 0.669615 0.516400
Si Si2 0.089224 0.323378 0.814650
Si Si3 0.354300 0.176584 0.091695
Si Si4 0.476274 0.327005 0.084216
Si Si5 0.453034 0.823304 0.666700
Si Si6 0.580180 0.319663 0.649861
Si Si7 0.182385 0.821620 0.923852
Si Si8 0.814271 0.320967 0.757493
O O1 0.087367 0.500000 0.533695
O O2 0.075711 0.772397 0.588355
O O3 0.095472 0.716996 0.436624
O O4 0.000000 0.665986 0.500000
O O5 0.095694 0.500000 0.804043
O O6 0.083026 0.241459 0.735876
O O7 0.140519 0.260501 0.866139
O O8 0.028960 0.298144 0.859497
O O9 0.421765 0.221823 0.097151
O O10 0.322202 0.255750 0.159863
O O11 0.346490 0.000000 0.097926
O O12 0.332463 0.222977 0.009315
O O13 0.457752 0.500000 0.093360
O O14 0.500000 0.309224 0.000000
O O15 0.518141 0.752999 0.669276
O O16 0.457379 0.000000 0.670496
O O17 0.573062 0.500000 0.653369
O O18 0.631809 0.273781 0.705332
O O19 0.250000 0.791678 0.909038
O O20 0.172786 0.000000 0.918648
O O21 0.750000 0.279544 0.728539
O O22 0.816895 0.500000 0.761403
#
# Coordination Sequence:
#
# PCOD9404266 Si02
#       8
#     8   8   8   8   8   8   8   8
#     4   8  15  30  52  76 104 137 169 204 253 309
#     4  11  22  36  55  77 104 137 175 218 262 310
#     4  11  22  35  54  78 107 140 176 217 263 316
#     4  10  20  35  53  76 105 135 172 218 266 311
#     4  11  21  32  51  81 112 138 170 212 265 323
#     4   9  18  34  54  77 107 141 175 214 262 313
#     4  10  22  39  55  72  99 135 174 218 265 309
#     4  10  21  36  54  76 104 141 183 222 260 307
#
# _framework density 17.330366000000001
#
# number of rings (size 3 to 8) (size 9 to 14) (size 15 to 20)
#    0.000    2.000    1.250    3.750    0.000    8.500 
#    0.000    0.000    0.000    0.750    0.000    1.750 
#    0.000    0.000    0.000    0.000    0.000    0.000 
#
# Total GULP energy -357240.310120 kJ/mol
# GULP energy per Si atom -5581.879846 kJ/mol
# Density = 1.729092 g / cm^3
# Si number density = 17.330366 Si / 1000 Ang^3
#
#
#
# Elastic Constant Matrix: (Units=GPa)
#
#
# Indices 1 2 3 4 5 6 
#
# 1 72.5593 33.8577 47.4812 0.0000 0.0000 0.0000
# 2 33.8577 45.9420 50.0845 0.0000 0.0000 0.0000
# 3 47.4812 50.0845 133.9425 0.0000 0.0000 0.0000
# 4 0.0000 0.0000 0.0000 21.2673 0.0000 0.0000
# 5 0.0000 0.0000 0.0000 0.0000 8.6572 0.0000
# 6 0.0000 0.0000 0.0000 0.0000 0.0000 10.5328
#
#
#
# Elastic Compliance Matrix: (Units=1/GPa)
#
#
# Indices 1 2 3 4 5 6 
#
# 1 0.021646 -0.012808 -0.002884 0.000000 0.000000 0.000000
# 2 -0.012808 0.044324 -0.012034 0.000000 0.000000 0.000000
# 3 -0.002884 -0.012034 0.012988 0.000000 0.000000 0.000000
# 4 0.000000 0.000000 0.000000 0.047021 0.000000 0.000000
# 5 0.000000 0.000000 0.000000 0.000000 0.115511 0.000000
# 6 0.000000 0.000000 0.000000 0.000000 0.000000 0.094942
#
#
# Mechanical properties :
#
#
# Convention : Reuss Voigt Hill
#
# Bulk Modulus (GPa) = 42.54137 57.25450 49.89794
# Shear Modulus (GPa) = 12.50883 16.15948 14.33415
#
# Velocity S-wave (km/s) = 2.68952 3.05690 2.87908
# Velocity P-wave (km/s) = 5.85195 6.75043 6.31718
#
# Compressibility (1/GPa) = 0.02350653
#
# Stress axis : x y z
#
# Youngs Moduli (GPa) = 46.19898 22.56089 76.99498
#
# Poissons Ratio (x) = 0.28896 0.22204
# Poissons Ratio (y) = 0.59173 0.92653
# Poissons Ratio (z) = 0.13323 0.27149
#
# Static dielectric constant tensor:
#      x y z
#    x 1.353450 0.000000 0.000000 
#    y 0.000000 1.579570 0.000000 
#    z 0.000000 0.000000 1.598450 
# 
# From -- ./inp_files/30679.got.cif
#   From: 2010.05.17/outbox.cif.g08.bks.cpg/sg51_16_cif.got.tgz:30679.got - 2010.06.03 11:52:47.
