data_PCOD9404298
_publ_section_title
;
Structure prediction by ZEFSAII (Michael W. Deem and Ramdas Pophale) SiO2 
 PCOD9404298
Probable space group: P M M A
;
_chemical_formula_sum "Si O2"
_cell_formula_units_Z 64
_cell_length_a 7.913390
_cell_length_b 21.126695
_cell_length_c 19.167795
_cell_angle_alpha 90.000000
_cell_angle_beta 90.000000
_cell_angle_gamma 90.000000
_cell_volume 3204.544364
_symmetry_space_group_name_H-M "P M M A"
_symmetry_group_IT_number 51
_symmetry_cell_setting 'orthorhombic'
loop_
_space_group_symop_operation_xyz
x,y,z
1/2-x,-y,z
1/2+x,-y,-z
-x,y,-z
-x,-y,-z
1/2+x,y,-z
1/2-x,y,z
x,-y,z
loop_
_atom_site_type_symbol
_atom_site_label
_atom_site_fract_x
_atom_site_fract_y
_atom_site_fract_z
Si Si1 0.452556 0.687692 0.828586
Si Si2 0.453557 0.428623 0.579748
Si Si3 0.043606 0.928196 0.168347
Si Si4 0.546660 0.071112 0.672233
Si Si5 0.048323 0.190942 0.080643
Si Si6 0.453983 0.571554 0.920306
Si Si7 0.957802 0.309458 0.330469
Si Si8 0.949996 0.809953 0.419453
O O1 0.250000 0.681057 0.824200
O O2 0.488752 0.749054 0.874923
O O3 0.518241 0.625070 0.867843
O O4 0.515213 0.694481 0.749514
O O5 0.500000 0.412767 0.500000
O O6 0.250000 0.430243 0.583974
O O7 0.516444 0.500000 0.594443
O O8 0.512401 0.374371 0.632225
O O9 0.250000 0.928080 0.167590
O O10 0.990839 0.914340 0.248289
O O11 0.983516 0.873895 0.116201
O O12 0.990552 0.000000 0.150883
O O13 0.750000 0.069262 0.673800
O O14 0.496338 0.124781 0.618363
O O15 0.486851 0.000000 0.654411
O O16 0.250000 0.189728 0.084756
O O17 0.000000 0.195969 0.000000
O O18 0.250000 0.570478 0.915989
O O19 0.515189 0.500000 0.905902
O O20 0.500000 0.587557 0.000000
O O21 0.750000 0.308970 0.330521
O O22 0.018817 0.249558 0.375436
O O23 0.750000 0.804277 0.417093
O O24 0.000000 0.808527 0.500000
#
# Coordination Sequence:
#
# PCOD9404298 Si02
#       8
#     8   8   8   8   8   8   8   8
#     4  10  20  35  54  75 102 133 168 212 258 304
#     4   9  17  31  52  76 103 136 172 209 251 301
#     4   8  16  33  56  79 103 133 168 206 249 298
#     4   9  18  35  58  80 102 130 166 208 253 301
#     4  11  22  35  53  77 105 136 171 209 250 299
#     4   9  18  32  51  74  99 130 166 203 245 294
#     4   9  19  34  52  76 103 132 168 212 258 301
#     4  11  22  35  52  74 103 136 170 209 252 300
#
# _framework density 19.971637999999999
#
# number of rings (size 3 to 8) (size 9 to 14) (size 15 to 20)
#    0.000    2.500    0.000    3.000    0.000    2.750 
#    0.000    5.000    0.000    2.625    0.000    3.500 
#    0.000    0.000    0.000    0.000    0.000    0.000 
#
# Total GULP energy -357264.726355 kJ/mol
# GULP energy per Si atom -5582.261349 kJ/mol
# Density = 1.992618 g / cm^3
# Si number density = 19.971638 Si / 1000 Ang^3
#
#
#
# Elastic Constant Matrix: (Units=GPa)
#
#
# Indices 1 2 3 4 5 6 
#
# 1 17.2799 5.9084 5.5231 0.0000 0.0000 0.0000
# 2 5.9084 170.6308 145.6163 0.0000 0.0000 0.0000
# 3 5.5231 145.6163 196.3311 0.0000 0.0000 0.0000
# 4 0.0000 0.0000 0.0000 46.4689 0.0000 0.0000
# 5 0.0000 0.0000 0.0000 0.0000 5.1914 0.0000
# 6 0.0000 0.0000 0.0000 0.0000 0.0000 16.3668
#
#
#
# Elastic Compliance Matrix: (Units=1/GPa)
#
#
# Indices 1 2 3 4 5 6 
#
# 1 0.058575 -0.001695 -0.000391 0.000000 0.000000 0.000000
# 2 -0.001695 0.016016 -0.011831 0.000000 0.000000 0.000000
# 3 -0.000391 -0.011831 0.013880 0.000000 0.000000 0.000000
# 4 0.000000 0.000000 0.000000 0.021520 0.000000 0.000000
# 5 0.000000 0.000000 0.000000 0.000000 0.192625 0.000000
# 6 0.000000 0.000000 0.000000 0.000000 0.000000 0.061099
#
#
# Mechanical properties :
#
#
# Convention : Reuss Voigt Hill
#
# Bulk Modulus (GPa) = 16.49154 77.59306 47.04230
# Shear Modulus (GPa) = 12.14296 28.75167 20.44732
#
# Velocity S-wave (km/s) = 2.46846 3.79836 3.20319
# Velocity P-wave (km/s) = 4.04967 7.62710 6.10624
#
# Compressibility (1/GPa) = 0.06063715
#
# Stress axis : x y z
#
# Youngs Moduli (GPa) = 17.07206 62.43724 72.04860
#
# Poissons Ratio (x) = 0.10581 0.02816
# Poissons Ratio (y) = 0.02893 0.85243
# Poissons Ratio (z) = 0.00667 0.73871
#
# Static dielectric constant tensor:
#      x y z
#    x 1.735900 0.000000 0.000000 
#    y 0.000000 1.713320 0.000000 
#    z 0.000000 0.000000 1.510860 
# 
# From -- ./inp_files/28472.got.cif
#   From: 2010.05.17/outbox.cif.g08.bks.cpg/sg51_15_cif.got.tgz:28472.got - 2010.06.03 11:52:47.
