data_PCOD9404407
_publ_section_title
;
Structure prediction by ZEFSAII (Michael W. Deem and Ramdas Pophale) SiO2 
 PCOD9404407
Probable space group: P M M A
;
_chemical_formula_sum "Si O2"
_cell_formula_units_Z 56
_cell_length_a 8.264441
_cell_length_b 21.070842
_cell_length_c 15.932532
_cell_angle_alpha 90.000000
_cell_angle_beta 90.000000
_cell_angle_gamma 90.000000
_cell_volume 2774.470897
_symmetry_space_group_name_H-M "P M M A"
_symmetry_group_IT_number 51
_symmetry_cell_setting 'orthorhombic'
loop_
_space_group_symop_operation_xyz
x,y,z
1/2-x,-y,z
1/2+x,-y,-z
-x,y,-z
-x,-y,-z
1/2+x,y,-z
1/2-x,y,z
x,-y,z
loop_
_atom_site_type_symbol
_atom_site_label
_atom_site_fract_x
_atom_site_fract_y
_atom_site_fract_z
Si Si1 0.441631 0.659338 0.097196
Si Si2 0.553924 0.068209 0.673362
Si Si3 0.555756 0.340799 0.597058
Si Si4 0.441919 0.932421 0.862501
Si Si5 0.443415 0.206692 0.905750
Si Si6 0.555312 0.200372 0.595273
Si Si7 0.056191 0.427272 0.750714
O O1 0.250000 0.659777 0.093109
O O2 0.495979 0.728112 0.134906
O O3 0.498903 0.607332 0.164145
O O4 0.500000 0.649632 0.000000
O O5 0.750000 0.070969 0.682443
O O6 0.472204 0.064977 0.763707
O O7 0.496930 0.134512 0.634855
O O8 0.518007 0.000000 0.629780
O O9 0.500000 0.351364 0.500000
O O10 0.750000 0.341043 0.595490
O O11 0.500262 0.269804 0.625950
O O12 0.498401 0.390577 0.666524
O O13 0.250000 0.931604 0.881257
O O14 0.510416 0.863483 0.885838
O O15 0.508438 0.000000 0.897057
O O16 0.250000 0.205011 0.897289
O O17 0.500000 0.216786 0.000000
O O18 0.500000 0.198561 0.500000
O O19 0.750000 0.199502 0.601070
O O20 0.250000 0.427233 0.751560
O O21 0.997858 0.500000 0.748812
#
# Coordination Sequence:
#
# PCOD9404407 Si02
#       7
#     8   8   8   8   8   8   8
#     4  11  23  41  65  92 125 161 200 247 296 354
#     4   9  18  32  49  72 105 143 185 233 284 338
#     4  10  21  39  62  90 124 162 203 252 301 356
#     4   9  19  34  50  73 106 144 188 236 286 340
#     4  10  20  35  55  81 111 147 190 238 289 343
#     4   9  19  34  52  78 108 142 186 233 284 337
#     4  11  25  44  66  94 125 158 198 242 295 361
#
# _framework density 20.184027
#
# number of rings (size 3 to 8) (size 9 to 14) (size 15 to 20)
#    0.000    2.143    0.000    3.429    2.000    4.571 
#    0.000    0.000    0.000    0.000    0.000    0.000 
#    0.000    0.000    0.000    0.000    0.000    0.000 
#
# Total GULP energy -311920.595399 kJ/mol
# GULP energy per Si atom -5570.010632 kJ/mol
# Density = 2.013809 g / cm^3
# Si number density = 20.184027 Si / 1000 Ang^3
#
#
#
# Elastic Constant Matrix: (Units=GPa)
#
#
# Indices 1 2 3 4 5 6 
#
# 1 43.2303 28.5762 12.4677 0.0000 0.0000 0.0000
# 2 28.5762 211.3443 79.1226 0.0000 0.0000 0.0000
# 3 12.4677 79.1226 77.3358 0.0000 0.0000 0.0000
# 4 0.0000 0.0000 0.0000 64.3371 0.0000 0.0000
# 5 0.0000 0.0000 0.0000 0.0000 28.1398 0.0000
# 6 0.0000 0.0000 0.0000 0.0000 0.0000 430.2956
#
#
#
# Elastic Compliance Matrix: (Units=1/GPa)
#
#
# Indices 1 2 3 4 5 6 
#
# 1 0.025445 -0.003087 -0.000944 0.000000 0.000000 0.000000
# 2 -0.003087 0.008044 -0.007732 0.000000 0.000000 0.000000
# 3 -0.000944 -0.007732 0.020993 0.000000 0.000000 0.000000
# 4 0.000000 0.000000 0.000000 0.015543 0.000000 0.000000
# 5 0.000000 0.000000 0.000000 0.000000 0.035537 0.000000
# 6 0.000000 0.000000 0.000000 0.000000 0.000000 0.002324
#
#
# Mechanical properties :
#
#
# Convention : Reuss Voigt Hill
#
# Bulk Modulus (GPa) = 32.30340 63.58259 47.94300
# Shear Modulus (GPa) = 35.27847 118.67076 76.97462
#
# Velocity S-wave (km/s) = 4.18525 7.67607 6.18217
# Velocity P-wave (km/s) = 6.27649 10.49440 8.64658
#
# Compressibility (1/GPa) = 0.03095649
#
# Stress axis : x y z
#
# Youngs Moduli (GPa) = 39.30086 124.32167 47.63454
#
# Poissons Ratio (x) = 0.38380 0.04495
# Poissons Ratio (y) = 0.12133 0.36830
# Poissons Ratio (z) = 0.03708 0.96123
#
# Static dielectric constant tensor:
#      x y z
#    x 1.701750 0.000000 0.000000 
#    y 0.000000 1.840680 0.000000 
#    z 0.000000 0.000000 1.697460 
# 
# From -- ./inp_files/21699.got.cif
#   From: 2010.05.17/outbox.cif.g08.bks.cpg/sg51_11_cif.got.tgz:21699.got - 2010.06.03 11:52:47.
