data_PCOD9404436
_publ_section_title
;
Structure prediction by ZEFSAII (Michael W. Deem and Ramdas Pophale) SiO2 
 PCOD9404436
Probable space group: P M M A
;
_chemical_formula_sum "Si O2"
_cell_formula_units_Z 64
_cell_length_a 18.776556
_cell_length_b 8.994616
_cell_length_c 21.192722
_cell_angle_alpha 90.000000
_cell_angle_beta 90.000000
_cell_angle_gamma 90.000000
_cell_volume 3579.194547
_symmetry_space_group_name_H-M "P M M A"
_symmetry_group_IT_number 51
_symmetry_cell_setting 'orthorhombic'
loop_
_space_group_symop_operation_xyz
x,y,z
1/2-x,-y,z
1/2+x,-y,-z
-x,y,-z
-x,-y,-z
1/2+x,y,-z
1/2-x,y,z
x,-y,z
loop_
_atom_site_type_symbol
_atom_site_label
_atom_site_fract_x
_atom_site_fract_y
_atom_site_fract_z
Si Si1 0.421671 0.821419 0.134095
Si Si2 0.835429 0.325801 0.754090
Si Si3 0.665844 0.322815 0.379058
Si Si4 0.664675 0.825292 0.245629
Si Si5 0.922032 0.676886 0.133096
Si Si6 0.586490 0.829091 0.005071
Si Si7 0.916434 0.821453 0.495152
Si Si8 0.834166 0.177091 0.622508
O O1 0.373222 0.764983 0.190736
O O2 0.498972 0.746008 0.139566
O O3 0.389648 0.782672 0.064938
O O4 0.430072 0.000000 0.135131
O O5 0.750000 0.308937 0.758944
O O6 0.852920 0.500000 0.759262
O O7 0.856435 0.263386 0.685432
O O8 0.750000 0.291313 0.389998
O O9 0.657349 0.500000 0.373867
O O10 0.645294 0.245770 0.313098
O O11 0.620465 0.258807 0.436555
O O12 0.750000 0.810423 0.238767
O O13 0.625764 0.742486 0.188833
O O14 0.646749 0.000000 0.244898
O O15 0.925401 0.500000 0.136231
O O16 0.893776 0.729069 0.064457
O O17 0.607829 0.000000 0.017178
O O18 0.500000 0.827435 0.000000
O O19 0.877654 0.779887 0.560449
O O20 0.000000 0.787708 0.500000
O O21 0.908421 0.000000 0.487190
O O22 0.750000 0.204148 0.611799
O O23 0.843383 0.000000 0.632863
#
# Coordination Sequence:
#
# PCOD9404436 Si02
#       8
#     8   8   8   8   8   8   8   8
#     4  10  20  35  56  79 106 142 183 223 263 317
#     4  10  21  36  54  78 108 139 175 224 278 325
#     4  10  21  37  57  80 107 141 180 221 267 319
#     4  10  21  38  59  80 106 143 184 223 263 314
#     4  11  21  33  54  82 111 141 175 221 273 320
#     4   8  16  32  52  75 104 140 181 220 260 314
#     4  10  21  36  55  81 111 141 175 218 265 313
#     4   9  18  34  55  75  99 138 183 219 257 315
#
# _framework density 17.881119000000002
#
# number of rings (size 3 to 8) (size 9 to 14) (size 15 to 20)
#    0.000    2.250    0.000    3.750    0.000    7.250 
#    0.000    5.625    0.000    0.750    0.000    0.000 
#    0.000    0.000    0.000    0.000    0.000    0.000 
#
# Total GULP energy -357250.424709 kJ/mol
# GULP energy per Si atom -5582.037886 kJ/mol
# Density = 1.784042 g / cm^3
# Si number density = 17.881119 Si / 1000 Ang^3
#
#
#
# Elastic Constant Matrix: (Units=GPa)
#
#
# Indices 1 2 3 4 5 6 
#
# 1 41.0321 52.3905 69.9170 0.0000 0.0000 0.0000
# 2 52.3905 107.3779 100.0025 0.0000 0.0000 0.0000
# 3 69.9170 100.0025 195.5710 0.0000 0.0000 0.0000
# 4 0.0000 0.0000 0.0000 -4.9183 0.0000 0.0000
# 5 0.0000 0.0000 0.0000 0.0000 34.0738 0.0000
# 6 0.0000 0.0000 0.0000 0.0000 0.0000 22.8243
#
#
#
# Elastic Compliance Matrix: (Units=1/GPa)
#
#
# Indices 1 2 3 4 5 6 
#
# 1 0.089977 -0.026620 -0.018555 0.000000 0.000000 0.000000
# 2 -0.026620 0.025655 -0.003602 0.000000 0.000000 0.000000
# 3 -0.018555 -0.003602 0.013589 0.000000 0.000000 0.000000
# 4 0.000000 0.000000 0.000000 -0.203324 0.000000 0.000000
# 5 0.000000 0.000000 0.000000 0.000000 0.029348 0.000000
# 6 0.000000 0.000000 0.000000 0.000000 0.000000 0.043813
#
#
# Mechanical properties :
#
#
# Convention : Reuss Voigt Hill
#
# Bulk Modulus (GPa) = 31.57841 87.62233 59.60037
# Shear Modulus (GPa) = 46.65568 18.50739 32.58154
#
# Velocity S-wave (km/s) = 5.11359 3.22067 4.27326
# Velocity P-wave (km/s) = 7.25008 7.93343 7.59944
#
# Compressibility (1/GPa) = 0.03166721
#
# Stress axis : x y z
#
# Youngs Moduli (GPa) = 11.11392 38.97827 73.59087
#
# Poissons Ratio (x) = 1.03759 1.36551
# Poissons Ratio (y) = 0.29585 0.26507
# Poissons Ratio (z) = 0.20622 0.14040
#
# Static dielectric constant tensor:
#      x y z
#    x 1.594670 0.000000 0.000000 
#    y 0.000000 1.595590 0.000000 
#    z 0.000000 0.000000 1.598630 
# 
# From -- ./inp_files/33866.got.cif
#   From: 2010.05.17/outbox.cif.g08.bks.cpg/sg51_17_cif.got.tgz:33866.got - 2010.06.03 11:52:47.
