data_PCOD9404915
_publ_section_title
;
Structure prediction by ZEFSAII (Michael W. Deem and Ramdas Pophale) SiO2 
 PCOD9404915
Probable space group: P M M A
;
_chemical_formula_sum "Si O2"
_cell_formula_units_Z 48
_cell_length_a 15.466162
_cell_length_b 8.642878
_cell_length_c 19.483123
_cell_angle_alpha 90.000000
_cell_angle_beta 90.000000
_cell_angle_gamma 90.000000
_cell_volume 2604.350965
_symmetry_space_group_name_H-M "P M M A"
_symmetry_group_IT_number 51
_symmetry_cell_setting 'orthorhombic'
loop_
_space_group_symop_operation_xyz
x,y,z
1/2-x,-y,z
1/2+x,-y,-z
-x,y,-z
-x,-y,-z
1/2+x,y,-z
1/2-x,y,z
x,-y,z
loop_
_atom_site_type_symbol
_atom_site_label
_atom_site_fract_x
_atom_site_fract_y
_atom_site_fract_z
Si Si1 0.750000 0.811787 0.579826
Si Si2 0.504892 0.812956 0.920717
Si Si3 0.401292 0.684227 0.672225
Si Si4 0.848871 0.186674 0.178938
Si Si5 0.250000 0.813987 0.578106
Si Si6 0.590765 0.185890 0.674926
Si Si7 0.350374 0.314930 0.178074
O O1 0.750000 0.761600 0.501010
O O2 0.835143 0.763492 0.621645
O O3 0.750000 0.000000 0.579989
O O4 0.418794 0.768186 0.878388
O O5 0.587134 0.743353 0.881860
O O6 0.511227 0.000000 0.918416
O O7 0.500000 0.765487 0.000000
O O8 0.397954 0.500000 0.670096
O O9 0.374535 0.741037 0.748216
O O10 0.333663 0.753579 0.618353
O O11 0.497890 0.743181 0.658361
O O12 0.750000 0.228699 0.161597
O O13 0.852603 0.000000 0.186102
O O14 0.250000 0.000000 0.579813
O O15 0.618828 0.238755 0.750806
O O16 0.584532 0.000000 0.673833
O O17 0.250000 0.275072 0.165782
O O18 0.357450 0.500000 0.184631
#
# Coordination Sequence:
#
# PCOD9404915 Si02
#       7
#     4   8   8   8   4   8   8
#     4   9  22  41  65  93 120 155 206 255 301 354
#     4  10  22  39  61  91 124 159 203 255 305 356
#     4  12  24  38  59  92 125 159 201 248 303 366
#     4  10  20  36  60  87 117 158 204 248 298 358
#     4  11  23  43  65  89 122 161 202 253 303 356
#     4  11  21  39  65  92 119 157 206 254 300 358
#     4  11  23  38  59  90 125 162 201 247 305 367
#
# _framework density 18.430696000000001
#
# number of rings (size 3 to 8) (size 9 to 14) (size 15 to 20)
#    0.000    1.333    3.333    2.750    0.000    2.667 
#    0.000    8.333    0.000    0.000    0.000    0.000 
#    0.000    0.000    0.000    0.000    0.000    0.000 
#
# Total GULP energy -268315.591759 kJ/mol
# GULP energy per Si atom -5589.908162 kJ/mol
# Density = 1.838875 g / cm^3
# Si number density = 18.430696 Si / 1000 Ang^3
#
#
#
# Elastic Constant Matrix: (Units=GPa)
#
#
# Indices 1 2 3 4 5 6 
#
# 1 198.4803 52.4520 101.2208 0.0000 0.0000 0.0000
# 2 52.4520 46.1594 44.0192 0.0000 0.0000 0.0000
# 3 101.2208 44.0192 175.4740 0.0000 0.0000 0.0000
# 4 0.0000 0.0000 0.0000 -22.5178 0.0000 0.0000
# 5 0.0000 0.0000 0.0000 0.0000 38.9885 0.0000
# 6 0.0000 0.0000 0.0000 0.0000 0.0000 24.4033
#
#
#
# Elastic Compliance Matrix: (Units=1/GPa)
#
#
# Indices 1 2 3 4 5 6 
#
# 1 0.008386 -0.006462 -0.003217 0.000000 0.000000 0.000000
# 2 -0.006462 0.033456 -0.004665 0.000000 0.000000 0.000000
# 3 -0.003217 -0.004665 0.008725 0.000000 0.000000 0.000000
# 4 0.000000 0.000000 0.000000 -0.044409 0.000000 0.000000
# 5 0.000000 0.000000 0.000000 0.000000 0.025649 0.000000
# 6 0.000000 0.000000 0.000000 0.000000 0.000000 0.040978
#
#
# Mechanical properties :
#
#
# Convention : Reuss Voigt Hill
#
# Bulk Modulus (GPa) = 45.70528 90.61086 68.15807
# Shear Modulus (GPa) = 45.97062 23.00290 34.48676
#
# Velocity S-wave (km/s) = 4.99966 3.53664 4.33038
# Velocity P-wave (km/s) = 7.62765 8.12077 7.87807
#
# Compressibility (1/GPa) = 0.02187931
#
# Stress axis : x y z
#
# Youngs Moduli (GPa) = 119.24050 29.89000 114.61938
#
# Poissons Ratio (x) = 0.19316 0.36867
# Poissons Ratio (y) = 0.77057 0.53470
# Poissons Ratio (z) = 0.38354 0.13944
#
# Static dielectric constant tensor:
#      x y z
#    x 1.621360 0.000000 0.000000 
#    y 0.000000 1.619890 0.000000 
#    z 0.000000 0.000000 1.599210 
# 
# From -- ./inp_files/29538.got.cif
#   From: 2010.05.17/outbox.cif.g08.bks.cpg/sg51_15_cif.got.tgz:29538.got - 2010.06.03 11:52:47.
