data_PCOD9404544
_publ_section_title
;
Structure prediction by ZEFSAII (Michael W. Deem and Ramdas Pophale) SiO2 
 PCOD9404544
Probable space group: P M M A
;
_chemical_formula_sum "Si O2"
_cell_formula_units_Z 64
_cell_length_a 8.729956
_cell_length_b 14.794595
_cell_length_c 25.910141
_cell_angle_alpha 90.000000
_cell_angle_beta 90.000000
_cell_angle_gamma 90.000000
_cell_volume 3346.454404
_symmetry_space_group_name_H-M "P M M A"
_symmetry_group_IT_number 51
_symmetry_cell_setting 'orthorhombic'
loop_
_space_group_symop_operation_xyz
x,y,z
1/2-x,-y,z
1/2+x,-y,-z
-x,y,-z
-x,-y,-z
1/2+x,y,-z
1/2-x,y,z
x,-y,z
loop_
_atom_site_type_symbol
_atom_site_label
_atom_site_fract_x
_atom_site_fract_y
_atom_site_fract_z
Si Si1 0.933302 0.789446 0.750971
Si Si2 0.432731 0.397572 0.590821
Si Si3 0.566354 0.598208 0.941753
Si Si4 0.934729 0.102619 0.154095
Si Si5 0.566615 0.600960 0.705436
Si Si6 0.433672 0.106538 0.652050
Si Si7 0.567124 0.784105 0.057290
Si Si8 0.567853 0.212652 0.554247
O O1 0.750000 0.796289 0.750922
O O2 0.974705 0.684311 0.741936
O O3 0.998116 0.831451 0.803055
O O4 0.998755 0.845491 0.702608
O O5 0.250000 0.386581 0.585506
O O6 0.474073 0.500000 0.574331
O O7 0.479806 0.389759 0.651033
O O8 0.517621 0.316930 0.561970
O O9 0.750000 0.606455 0.943828
O O10 0.529034 0.500000 0.917921
O O11 0.495073 0.689330 0.919604
O O12 0.500000 0.595821 0.000000
O O13 0.750000 0.104490 0.157962
O O14 0.975293 0.137297 0.097007
O O15 0.986504 0.000000 0.162976
O O16 0.750000 0.607047 0.694997
O O17 0.536080 0.500000 0.726031
O O18 0.250000 0.115886 0.652432
O O19 0.500109 0.156105 0.601830
O O20 0.471257 0.000000 0.651900
O O21 0.750000 0.778452 0.053026
O O22 0.500000 0.796635 0.000000
O O23 0.500000 0.180027 0.500000
O O24 0.750000 0.206253 0.554262
#
# Coordination Sequence:
#
# PCOD9404544 Si02
#       8
#     8   8   8   8   8   8   8   8
#     4  11  22  37  62  93 120 151 192 241 289 341
#     4  10  20  35  58  88 120 156 198 241 288 348
#     4   9  16  27  47  76 109 145 184 226 273 328
#     4  10  23  42  60  81 113 153 194 240 295 351
#     4   9  18  34  57  86 120 156 190 229 284 345
#     4  11  24  42  64  88 116 153 195 242 299 358
#     4  10  20  35  57  83 113 151 194 239 290 347
#     4  12  25  41  61  86 119 158 199 248 299 352
#
# _framework density 19.124718999999999
#
# number of rings (size 3 to 8) (size 9 to 14) (size 15 to 20)
#    0.000    1.750    1.250    4.125    0.000    6.500 
#    0.000    0.625    0.000    2.250    0.000    0.000 
#    0.000    0.000    0.000    0.000    0.000    0.000 
#
# Total GULP energy -357420.755787 kJ/mol
# GULP energy per Si atom -5584.699309 kJ/mol
# Density = 1.908119 g / cm^3
# Si number density = 19.124719 Si / 1000 Ang^3
#
#
#
# Elastic Constant Matrix: (Units=GPa)
#
#
# Indices 1 2 3 4 5 6 
#
# 1 48.7742 38.0707 31.1737 0.0000 0.0000 0.0000
# 2 38.0707 109.5917 53.4365 0.0000 0.0000 0.0000
# 3 31.1737 53.4365 98.3932 0.0000 0.0000 0.0000
# 4 0.0000 0.0000 0.0000 2.4307 0.0000 0.0000
# 5 0.0000 0.0000 0.0000 0.0000 27.8357 0.0000
# 6 0.0000 0.0000 0.0000 0.0000 0.0000 -12.9470
#
#
#
# Elastic Compliance Matrix: (Units=1/GPa)
#
#
# Indices 1 2 3 4 5 6 
#
# 1 0.029984 -0.007867 -0.005227 0.000000 0.000000 0.000000
# 2 -0.007867 0.014476 -0.005369 0.000000 0.000000 0.000000
# 3 -0.005227 -0.005369 0.014735 0.000000 0.000000 0.000000
# 4 0.000000 0.000000 0.000000 0.411411 0.000000 0.000000
# 5 0.000000 0.000000 0.000000 0.000000 0.035925 0.000000
# 6 0.000000 0.000000 0.000000 0.000000 0.000000 -0.077238
#
#
# Mechanical properties :
#
#
# Convention : Reuss Voigt Hill
#
# Bulk Modulus (GPa) = 44.90707 55.79122 50.34914
# Shear Modulus (GPa) = 10.55646 12.40242 11.47944
#
# Velocity S-wave (km/s) = 2.35197 2.54933 2.45264
# Velocity P-wave (km/s) = 5.55948 6.15639 5.86553
#
# Compressibility (1/GPa) = 0.02226821
#
# Stress axis : x y z
#
# Youngs Moduli (GPa) = 33.35059 69.08104 67.86429
#
# Poissons Ratio (x) = 0.54349 0.35474
# Poissons Ratio (y) = 0.26238 0.36437
# Poissons Ratio (z) = 0.17433 0.37090
#
# Static dielectric constant tensor:
#      x y z
#    x 1.640650 0.000000 0.000000 
#    y 0.000000 1.696500 0.000000 
#    z 0.000000 0.000000 1.642270 
# 
# From -- ./inp_files/34824.got.cif
#   From: 2010.05.17/outbox.cif.g08.bks.cpg/sg51_18_cif.got.tgz:34824.got - 2010.06.03 11:52:47.
