data_PCOD9404366
_publ_section_title
;
Structure prediction by ZEFSAII (Michael W. Deem and Ramdas Pophale) SiO2 
 PCOD9404366
Probable space group: P M M A
;
_chemical_formula_sum "Si O2"
_cell_formula_units_Z 32
_cell_length_a 13.609438
_cell_length_b 11.048647
_cell_length_c 9.838310
_cell_angle_alpha 90.000000
_cell_angle_beta 90.000000
_cell_angle_gamma 90.000000
_cell_volume 1479.346105
_symmetry_space_group_name_H-M "P M M A"
_symmetry_group_IT_number 51
_symmetry_cell_setting 'orthorhombic'
loop_
_space_group_symop_operation_xyz
x,y,z
1/2-x,-y,z
1/2+x,-y,-z
-x,y,-z
-x,-y,-z
1/2+x,y,-z
1/2-x,y,z
x,-y,z
loop_
_atom_site_type_symbol
_atom_site_label
_atom_site_fract_x
_atom_site_fract_y
_atom_site_fract_z
Si Si1 0.131961 0.636511 0.984533
Si Si2 0.069496 0.365536 0.674378
Si Si3 0.638173 0.718677 0.594123
Si Si4 0.366462 0.868792 0.155829
O O1 0.250000 0.636578 0.986463
O O2 0.102532 0.500000 0.030465
O O3 0.097968 0.654430 0.829609
O O4 0.098646 0.749869 0.075352
O O5 0.106066 0.500000 0.637928
O O6 0.118929 0.274667 0.566734
O O7 0.952574 0.361153 0.648543
O O8 0.750000 0.675280 0.619867
O O9 0.625535 0.839229 0.683926
O O10 0.250000 0.875137 0.126422
O O11 0.410318 0.000000 0.122956
#
# Coordination Sequence:
#
# PCOD9404366 Si02
#       4
#     8   8   8   8
#     4   9  18  34  56  82 113 148 185 226 272 322
#     4  10  21  35  53  82 115 145 183 229 275 327
#     4  10  20  35  55  78 108 146 184 225 276 330
#     4   9  19  37  59  83 113 148 186 229 275 325
#
# _framework density 21.631177999999998
#
# number of rings (size 3 to 8) (size 9 to 14) (size 15 to 20)
#    0.000    2.500    0.000    2.250    0.000    6.000 
#    0.000   13.750    0.000    6.000    0.000    0.000 
#    0.000    0.000    0.000    0.000    0.000    0.000 
#
# Total GULP energy -178398.971143 kJ/mol
# GULP energy per Si atom -5574.967848 kJ/mol
# Density = 2.158194 g / cm^3
# Si number density = 21.631178 Si / 1000 Ang^3
#
#
#
# Elastic Constant Matrix: (Units=GPa)
#
#
# Indices 1 2 3 4 5 6 
#
# 1 100.3338 23.9447 11.9673 0.0000 0.0000 0.0000
# 2 23.9447 161.1103 92.8489 0.0000 0.0000 0.0000
# 3 11.9673 92.8489 111.6677 0.0000 0.0000 0.0000
# 4 0.0000 0.0000 0.0000 21.4859 0.0000 0.0000
# 5 0.0000 0.0000 0.0000 0.0000 29.2702 0.0000
# 6 0.0000 0.0000 0.0000 0.0000 0.0000 1.4919
#
#
#
# Elastic Compliance Matrix: (Units=1/GPa)
#
#
# Indices 1 2 3 4 5 6 
#
# 1 0.010339 -0.001724 0.000326 0.000000 0.000000 0.000000
# 2 -0.001724 0.012205 -0.009964 0.000000 0.000000 0.000000
# 3 0.000326 -0.009964 0.017205 0.000000 0.000000 0.000000
# 4 0.000000 0.000000 0.000000 0.046542 0.000000 0.000000
# 5 0.000000 0.000000 0.000000 0.000000 0.034164 0.000000
# 6 0.000000 0.000000 0.000000 0.000000 0.000000 0.670281
#
#
# Mechanical properties :
#
#
# Convention : Reuss Voigt Hill
#
# Bulk Modulus (GPa) = 58.73752 70.07041 64.40397
# Shear Modulus (GPa) = 6.10399 26.73966 16.42182
#
# Velocity S-wave (km/s) = 1.68166 3.51973 2.75830
# Velocity P-wave (km/s) = 5.56630 6.99868 6.32318
#
# Compressibility (1/GPa) = 0.01702489
#
# Stress axis : x y z
#
# Youngs Moduli (GPa) = 96.71733 81.93161 58.12361
#
# Poissons Ratio (x) = 0.14128 -0.01893
# Poissons Ratio (y) = 0.16678 0.57912
# Poissons Ratio (z) = -0.03150 0.81633
#
# Static dielectric constant tensor:
#      x y z
#    x 1.804590 0.000000 0.000000 
#    y 0.000000 1.783410 0.000000 
#    z 0.000000 0.000000 1.817880 
# 
# From -- ./inp_files/7452.got.cif
#   From: 2010.05.17/outbox.cif.g08.bks.cpg/sg51_4_cif.got.tgz:7452.got - 2010.06.03 11:52:47.
