data_PCOD9404537
_publ_section_title
;
Structure prediction by ZEFSAII (Michael W. Deem and Ramdas Pophale) SiO2 
 PCOD9404537
Probable space group: P M M A
;
_chemical_formula_sum "Si O2"
_cell_formula_units_Z 64
_cell_length_a 18.053634
_cell_length_b 17.864838
_cell_length_c 10.532041
_cell_angle_alpha 90.000000
_cell_angle_beta 90.000000
_cell_angle_gamma 90.000000
_cell_volume 3396.849122
_symmetry_space_group_name_H-M "P M M A"
_symmetry_group_IT_number 51
_symmetry_cell_setting 'orthorhombic'
loop_
_space_group_symop_operation_xyz
x,y,z
1/2-x,-y,z
1/2+x,-y,-z
-x,y,-z
-x,-y,-z
1/2+x,y,-z
1/2-x,y,z
x,-y,z
loop_
_atom_site_type_symbol
_atom_site_label
_atom_site_fract_x
_atom_site_fract_y
_atom_site_fract_z
Si Si1 0.337769 0.410150 0.465637
Si Si2 0.666246 0.161017 0.007008
Si Si3 0.063555 0.165937 0.226636
Si Si4 0.410085 0.410531 0.734470
Si Si5 0.403612 0.089612 0.754326
Si Si6 0.835999 0.339964 0.020592
Si Si7 0.410745 0.914137 0.476041
Si Si8 0.426814 0.655205 0.230668
O O1 0.250000 0.395752 0.473640
O O2 0.348050 0.500000 0.449486
O O3 0.377723 0.387870 0.597119
O O4 0.374387 0.368609 0.346837
O O5 0.518032 0.130450 0.222795
O O6 0.649911 0.116277 0.134994
O O7 0.657592 0.249904 0.031929
O O8 0.608801 0.140996 0.896808
O O9 0.102549 0.137171 0.355162
O O10 0.060288 0.255560 0.229458
O O11 0.406162 0.500000 0.741005
O O12 0.362857 0.376238 0.849065
O O13 0.494411 0.384299 0.751419
O O14 0.250000 0.148108 0.036634
O O15 0.377368 0.109143 0.611481
O O16 0.414495 0.000000 0.756201
O O17 0.750000 0.357912 0.995014
O O18 0.887155 0.364370 0.902492
O O19 0.500000 0.913103 0.500000
O O20 0.390272 0.000000 0.447958
#
# Coordination Sequence:
#
# PCOD9404537 Si02
#       8
#     8   8   8   8   8   8   8   8
#     4  10  22  40  59  81 113 151 188 228 280 343
#     4  10  22  38  54  78 112 145 180 227 277 324
#     4  10  20  35  58  83 109 143 184 226 274 331
#     4  11  23  38  57  84 115 146 185 234 284 335
#     4  10  20  35  57  83 110 144 186 227 270 326
#     4  10  22  40  58  78 110 150 189 231 283 343
#     4   8  16  32  53  78 106 135 174 223 265 308
#     4  11  22  36  58  87 115 144 186 238 287 332
#
# _framework density 18.840990000000001
#
# number of rings (size 3 to 8) (size 9 to 14) (size 15 to 20)
#    0.000    2.000    0.000    4.125    0.000   11.500 
#    0.000    0.625    0.000    0.750    0.000    0.000 
#    0.000    0.000    0.000    0.000    0.000    0.000 
#
# Total GULP energy -357432.117956 kJ/mol
# GULP energy per Si atom -5584.876843 kJ/mol
# Density = 1.879811 g / cm^3
# Si number density = 18.840990 Si / 1000 Ang^3
#
#
#
# Elastic Constant Matrix: (Units=GPa)
#
#
# Indices 1 2 3 4 5 6 
#
# 1 46.1572 6.7190 -2.5137 0.0000 0.0000 0.0000
# 2 6.7190 15.4270 10.0017 0.0000 0.0000 0.0000
# 3 -2.5137 10.0017 72.8700 0.0000 0.0000 0.0000
# 4 0.0000 0.0000 0.0000 37.0754 0.0000 0.0000
# 5 0.0000 0.0000 0.0000 0.0000 24.9663 0.0000
# 6 0.0000 0.0000 0.0000 0.0000 0.0000 -52.4026
#
#
#
# Elastic Compliance Matrix: (Units=1/GPa)
#
#
# Indices 1 2 3 4 5 6 
#
# 1 0.023518 -0.011821 0.002434 0.000000 0.000000 0.000000
# 2 -0.011821 0.077095 -0.010989 0.000000 0.000000 0.000000
# 3 0.002434 -0.010989 0.015315 0.000000 0.000000 0.000000
# 4 0.000000 0.000000 0.000000 0.026972 0.000000 0.000000
# 5 0.000000 0.000000 0.000000 0.000000 0.040054 0.000000
# 6 0.000000 0.000000 0.000000 0.000000 0.000000 -0.019083
#
#
# Mechanical properties :
#
#
# Convention : Reuss Voigt Hill
#
# Bulk Modulus (GPa) = 13.30224 18.09646 15.69935
# Shear Modulus (GPa) = 21.76916 9.94431 15.85674
#
# Velocity S-wave (km/s) = 3.40283 2.29989 2.90420
# Velocity P-wave (km/s) = 4.74495 4.08391 4.42679
#
# Compressibility (1/GPa) = 0.07517531
#
# Stress axis : x y z
#
# Youngs Moduli (GPa) = 42.51997 12.97108 65.29390
#
# Poissons Ratio (x) = 0.15333 -0.15891
# Poissons Ratio (y) = 0.50262 0.71754
# Poissons Ratio (z) = -0.10348 0.14254
#
# Static dielectric constant tensor:
#      x y z
#    x 1.608920 0.000000 0.000000 
#    y 0.000000 1.630770 0.000000 
#    z 0.000000 0.000000 1.647950 
# 
# From -- ./inp_files/10095.got.cif
#   From: 2010.05.17/outbox.cif.g08.bks.cpg/sg51_6_cif.got.tgz:10095.got - 2010.06.03 11:52:47.
