data_PCOD9404241
_publ_section_title
;
Structure prediction by ZEFSAII (Michael W. Deem and Ramdas Pophale) SiO2 
 PCOD9404241
Probable space group: P M M A
;
_chemical_formula_sum "Si O2"
_cell_formula_units_Z 64
_cell_length_a 27.586218
_cell_length_b 14.062989
_cell_length_c 9.539941
_cell_angle_alpha 90.000000
_cell_angle_beta 90.000000
_cell_angle_gamma 90.000000
_cell_volume 3700.969361
_symmetry_space_group_name_H-M "P M M A"
_symmetry_group_IT_number 51
_symmetry_cell_setting 'orthorhombic'
loop_
_space_group_symop_operation_xyz
x,y,z
1/2-x,-y,z
1/2+x,-y,-z
-x,y,-z
-x,-y,-z
1/2+x,y,-z
1/2-x,y,z
x,-y,z
loop_
_atom_site_type_symbol
_atom_site_label
_atom_site_fract_x
_atom_site_fract_y
_atom_site_fract_z
Si Si1 0.632405 0.886652 0.240949
Si Si2 0.114960 0.250803 0.180863
Si Si3 0.456223 0.608641 0.608512
Si Si4 0.308103 0.257682 0.937579
Si Si5 0.975721 0.610927 0.848858
Si Si6 0.307832 0.391925 0.683303
Si Si7 0.944589 0.113331 0.006426
Si Si8 0.630213 0.742715 0.491563
O O1 0.673977 0.836424 0.146270
O O2 0.631063 0.835154 0.391443
O O3 0.638764 0.000000 0.251324
O O4 0.583024 0.866732 0.152790
O O5 0.074677 0.333958 0.166032
O O6 0.086986 0.160647 0.115515
O O7 0.128943 0.238608 0.343105
O O8 0.161321 0.267093 0.080301
O O9 0.500000 0.603341 0.500000
O O10 0.438374 0.500000 0.631456
O O11 0.482088 0.647562 0.746827
O O12 0.415956 0.678790 0.551183
O O13 0.250000 0.257605 0.957982
O O14 0.322463 0.342720 0.830281
O O15 0.967359 0.500000 0.811734
O O16 0.000000 0.615304 0.000000
O O17 0.250000 0.393415 0.682737
O O18 0.325412 0.500000 0.671891
O O19 0.325949 0.324610 0.558871
O O20 0.945092 0.000000 0.988806
O O21 0.000000 0.148151 0.000000
#
# Coordination Sequence:
#
# PCOD9404241 Si02
#       8
#     8   8   8   8   8   8   8   8
#     4   9  20  37  57  81 105 137 178 220 267 324
#     4  11  22  34  54  80 112 143 176 227 274 324
#     4  10  20  35  51  73 110 150 187 224 264 317
#     4   9  20  38  59  81 103 137 179 223 273 323
#     4  10  22  35  51  77 108 146 190 230 264 310
#     4   9  19  37  58  79 105 139 181 223 267 325
#     4   9  19  36  56  77 104 140 181 223 266 315
#     4  11  22  33  54  82 111 147 178 221 273 330
#
# _framework density 17.292766
#
# number of rings (size 3 to 8) (size 9 to 14) (size 15 to 20)
#    0.000    2.250    1.250    0.750    7.000    2.250 
#    0.000    0.000    0.000    4.125    0.000    3.500 
#    0.000    0.000    0.000    0.000    0.000    0.000 
#
# Total GULP energy -356809.990557 kJ/mol
# GULP energy per Si atom -5575.156102 kJ/mol
# Density = 1.725341 g / cm^3
# Si number density = 17.292766 Si / 1000 Ang^3
#
#
#
# Elastic Constant Matrix: (Units=GPa)
#
#
# Indices 1 2 3 4 5 6 
#
# 1 65.9920 23.2722 43.1437 0.0000 0.0000 0.0000
# 2 23.2722 88.7473 42.4811 0.0000 0.0000 0.0000
# 3 43.1437 42.4811 148.3599 0.0000 0.0000 0.0000
# 4 0.0000 0.0000 0.0000 -1.3960 0.0000 0.0000
# 5 0.0000 0.0000 0.0000 0.0000 23.8297 0.0000
# 6 0.0000 0.0000 0.0000 0.0000 0.0000 23.5412
#
#
#
# Elastic Compliance Matrix: (Units=1/GPa)
#
#
# Indices 1 2 3 4 5 6 
#
# 1 0.019272 -0.002748 -0.004818 0.000000 0.000000 0.000000
# 2 -0.002748 0.013449 -0.003052 0.000000 0.000000 0.000000
# 3 -0.004818 -0.003052 0.009015 0.000000 0.000000 0.000000
# 4 0.000000 0.000000 0.000000 -0.716313 0.000000 0.000000
# 5 0.000000 0.000000 0.000000 0.000000 0.041964 0.000000
# 6 0.000000 0.000000 0.000000 0.000000 0.000000 0.042479
#
#
# Mechanical properties :
#
#
# Convention : Reuss Voigt Hill
#
# Bulk Modulus (GPa) = 48.77563 57.87701 53.32632
# Shear Modulus (GPa) = -8.89578 22.14178 6.62300
#
# Velocity S-wave (km/s) = -2.27055 3.58216 1.95914
# Velocity P-wave (km/s) = 4.62528 7.11693 6.00183
#
# Compressibility (1/GPa) = 0.02050204
#
# Stress axis : x y z
#
# Youngs Moduli (GPa) = 51.88897 74.35282 110.92287
#
# Poissons Ratio (x) = 0.20429 0.53438
# Poissons Ratio (y) = 0.14257 0.33854
# Poissons Ratio (z) = 0.24998 0.22693
#
# Static dielectric constant tensor:
#      x y z
#    x 1.590010 0.000000 0.000000 
#    y 0.000000 1.599430 0.000000 
#    z 0.000000 0.000000 1.549610 
# 
# From -- ./inp_files/11889.got.cif
#   From: 2010.05.17/outbox.cif.g08.bks.cpg/sg51_6_cif.got.tgz:11889.got - 2010.06.03 11:52:47.
