data_PCOD9404317
_publ_section_title
;
Structure prediction by ZEFSAII (Michael W. Deem and Ramdas Pophale) SiO2 
 PCOD9404317
Probable space group: P M M A
;
_chemical_formula_sum "Si O2"
_cell_formula_units_Z 56
_cell_length_a 8.874491
_cell_length_b 13.970005
_cell_length_c 22.806253
_cell_angle_alpha 90.000000
_cell_angle_beta 90.000000
_cell_angle_gamma 90.000000
_cell_volume 2827.443613
_symmetry_space_group_name_H-M "P M M A"
_symmetry_group_IT_number 51
_symmetry_cell_setting 'orthorhombic'
loop_
_space_group_symop_operation_xyz
x,y,z
1/2-x,-y,z
1/2+x,-y,-z
-x,y,-z
-x,-y,-z
1/2+x,y,-z
1/2-x,y,z
x,-y,z
loop_
_atom_site_type_symbol
_atom_site_label
_atom_site_fract_x
_atom_site_fract_y
_atom_site_fract_z
Si Si1 0.075142 0.150445 0.687528
Si Si2 0.072642 0.000000 0.230640
Si Si3 0.066371 0.000000 0.098331
Si Si4 0.931545 0.394070 0.854661
Si Si5 0.429495 0.804130 0.559663
Si Si6 0.075531 0.338636 0.278013
Si Si7 0.425591 0.603432 0.409702
Si Si8 0.932921 0.216577 0.937295
O O1 0.250000 0.124354 0.690015
O O2 0.023280 0.143803 0.619934
O O3 0.045804 0.257414 0.708900
O O4 0.980796 0.088714 0.731925
O O5 0.250000 0.000000 0.224851
O O6 0.011123 0.000000 0.165231
O O7 0.019974 0.104838 0.073672
O O8 0.250000 0.000000 0.095555
O O9 0.750000 0.395628 0.861637
O O10 0.987704 0.500000 0.874399
O O11 0.958420 0.385051 0.784678
O O12 0.981300 0.297683 0.889411
O O13 0.500000 0.842677 0.500000
O O14 0.250000 0.807414 0.556481
O O15 0.482895 0.694338 0.567956
O O16 0.250000 0.301514 0.273686
O O17 0.072505 0.397039 0.338548
O O18 0.250000 0.615636 0.426842
O O19 0.481015 0.500000 0.430184
O O20 0.750000 0.216661 0.938201
O O21 0.000000 0.245031 0.000000
#
# Coordination Sequence:
#
# PCOD9404317 Si02
#       8
#     8   4   4   8   8   8   8   8
#     4  10  21  36  53  78 111 139 164 207 269 321
#     4  11  21  36  61  87 106 130 168 209 254 315
#     4   9  19  36  58  83 107 134 173 219 266 317
#     4   9  17  30  51  78 106 140 183 229 274 319
#     4  10  21  36  53  71  97 136 177 214 254 306
#     4   9  16  30  53  77 101 134 177 218 258 315
#     4   9  17  29  48  75 103 130 166 216 268 315
#     4  10  20  35  54  76 106 142 180 222 266 315
#
# _framework density 19.805878
#
# number of rings (size 3 to 8) (size 9 to 14) (size 15 to 20)
#    0.000    2.429    0.000    2.571    0.000    6.571 
#    0.000    3.929    0.000    2.143    0.000    0.000 
#    0.000    0.000    0.000    0.000    0.000    0.000 
#
# Total GULP energy -311990.219274 kJ/mol
# GULP energy per Si atom -5571.253916 kJ/mol
# Density = 1.976080 g / cm^3
# Si number density = 19.805878 Si / 1000 Ang^3
#
#
#
# Elastic Constant Matrix: (Units=GPa)
#
#
# Indices 1 2 3 4 5 6 
#
# 1 10.1859 1.1500 14.7599 0.0000 0.0000 0.0000
# 2 1.1500 59.9393 27.8299 0.0000 0.0000 0.0000
# 3 14.7599 27.8299 118.9809 0.0000 0.0000 0.0000
# 4 0.0000 0.0000 0.0000 -5.1267 0.0000 0.0000
# 5 0.0000 0.0000 0.0000 0.0000 25.7370 0.0000
# 6 0.0000 0.0000 0.0000 0.0000 0.0000 1.7458
#
#
#
# Elastic Compliance Matrix: (Units=1/GPa)
#
#
# Indices 1 2 3 4 5 6 
#
# 1 0.121129 0.005220 -0.016247 0.000000 0.000000 0.000000
# 2 0.005220 0.018941 -0.005078 0.000000 0.000000 0.000000
# 3 -0.016247 -0.005078 0.011608 0.000000 0.000000 0.000000
# 4 0.000000 0.000000 0.000000 -0.195056 0.000000 0.000000
# 5 0.000000 0.000000 0.000000 0.000000 0.038855 0.000000
# 6 0.000000 0.000000 0.000000 0.000000 0.000000 0.572790
#
#
# Mechanical properties :
#
#
# Convention : Reuss Voigt Hill
#
# Bulk Modulus (GPa) = 8.37053 30.73175 19.55114
# Shear Modulus (GPa) = 7.80884 14.16231 10.98557
#
# Velocity S-wave (km/s) = 1.98777 2.67695 2.35768
# Velocity P-wave (km/s) = 3.08282 5.01048 4.15985
#
# Compressibility (1/GPa) = 0.11946681
#
# Stress axis : x y z
#
# Youngs Moduli (GPa) = 8.25567 52.79540 86.14800
#
# Poissons Ratio (x) = -0.27557 1.39966
# Poissons Ratio (y) = -0.04309 0.43745
# Poissons Ratio (z) = 0.13413 0.26809
#
# Static dielectric constant tensor:
#      x y z
#    x 1.662710 0.000000 0.000000 
#    y 0.000000 2.418530 0.000000 
#    z 0.000000 0.000000 1.700350 
# 
# From -- ./inp_files/32076.got.cif
#   From: 2010.05.17/outbox.cif.g08.bks.cpg/sg51_17_cif.got.tgz:32076.got - 2010.06.03 11:52:47.
