data_PCOD9404025
_publ_section_title
;
Structure prediction by ZEFSAII (Michael W. Deem and Ramdas Pophale) SiO2 
 PCOD9404025
Probable space group: P M M A
;
_chemical_formula_sum "Si O2"
_cell_formula_units_Z 56
_cell_length_a 8.957511
_cell_length_b 14.588432
_cell_length_c 24.284687
_cell_angle_alpha 90.000000
_cell_angle_beta 90.000000
_cell_angle_gamma 90.000000
_cell_volume 3173.426733
_symmetry_space_group_name_H-M "P M M A"
_symmetry_group_IT_number 51
_symmetry_cell_setting 'orthorhombic'
loop_
_space_group_symop_operation_xyz
x,y,z
1/2-x,-y,z
1/2+x,-y,-z
-x,y,-z
-x,-y,-z
1/2+x,y,-z
1/2-x,y,z
x,-y,z
loop_
_atom_site_type_symbol
_atom_site_label
_atom_site_fract_x
_atom_site_fract_y
_atom_site_fract_z
Si Si1 0.928954 0.759909 0.144144
Si Si2 0.923571 0.110054 0.942188
Si Si3 0.428422 0.258687 0.559980
Si Si4 0.429108 0.394330 0.942273
Si Si5 0.570660 0.893540 0.350711
Si Si6 0.570555 0.606437 0.646544
Si Si7 0.928476 0.241259 0.735789
O O1 0.750000 0.764792 0.147794
O O2 0.971228 0.670562 0.108145
O O3 0.991654 0.843980 0.108429
O O4 0.998678 0.756869 0.204427
O O5 0.750000 0.137711 0.942516
O O6 0.930771 0.000000 0.937934
O O7 0.000000 0.136257 0.000000
O O8 0.500000 0.255686 0.500000
O O9 0.250000 0.265757 0.555874
O O10 0.465002 0.167278 0.595399
O O11 0.492038 0.343385 0.595458
O O12 0.250000 0.390989 0.947766
O O13 0.473771 0.500000 0.932850
O O14 0.500000 0.363994 0.000000
O O15 0.750000 0.888432 0.342702
O O16 0.490772 0.843562 0.299884
O O17 0.529084 0.000000 0.356192
O O18 0.750000 0.611227 0.638956
O O19 0.528356 0.500000 0.651891
O O20 0.534308 0.667376 0.700370
O O21 0.750000 0.234959 0.740255
#
# Coordination Sequence:
#
# PCOD9404025 Si02
#       7
#     8   8   8   8   8   8   8
#     4  11  22  35  54  78 105 139 176 215 260 310
#     4  10  21  37  56  78 105 136 171 214 264 317
#     4  10  20  34  54  82 113 142 175 215 258 306
#     4   9  19  35  53  75 103 134 169 209 255 308
#     4   9  19  37  58  78 104 140 178 215 258 308
#     4   9  19  37  58  78 104 140 179 219 264 311
#     4  10  21  36  54  78 106 135 173 220 265 311
#
# _framework density 17.646539000000001
#
# number of rings (size 3 to 8) (size 9 to 14) (size 15 to 20)
#    0.000    2.286    0.000    2.143    0.000    6.571 
#    0.000    0.000    0.000    0.000    0.000    0.000 
#    0.000    0.000    0.000    0.000    0.000    0.000 
#
# Total GULP energy -312614.498482 kJ/mol
# GULP energy per Si atom -5582.401759 kJ/mol
# Density = 1.760637 g / cm^3
# Si number density = 17.646539 Si / 1000 Ang^3
#
#
#
# Elastic Constant Matrix: (Units=GPa)
#
#
# Indices 1 2 3 4 5 6 
#
# 1 54.8447 50.5851 70.5045 0.0000 0.0000 0.0000
# 2 50.5851 127.2565 78.0194 0.0000 0.0000 0.0000
# 3 70.5045 78.0194 186.7703 0.0000 0.0000 0.0000
# 4 0.0000 0.0000 0.0000 13.6879 0.0000 0.0000
# 5 0.0000 0.0000 0.0000 0.0000 31.2693 0.0000
# 6 0.0000 0.0000 0.0000 0.0000 0.0000 34.7286
#
#
#
# Elastic Compliance Matrix: (Units=1/GPa)
#
#
# Indices 1 2 3 4 5 6 
#
# 1 0.042532 -0.009495 -0.012089 0.000000 0.000000 0.000000
# 2 -0.009495 0.012683 -0.001714 0.000000 0.000000 0.000000
# 3 -0.012089 -0.001714 0.010634 0.000000 0.000000 0.000000
# 4 0.000000 0.000000 0.000000 0.073057 0.000000 0.000000
# 5 0.000000 0.000000 0.000000 0.000000 0.031980 0.000000
# 6 0.000000 0.000000 0.000000 0.000000 0.000000 0.028795
#
#
# Mechanical properties :
#
#
# Convention : Reuss Voigt Hill
#
# Bulk Modulus (GPa) = 51.94061 85.23214 68.58637
# Shear Modulus (GPa) = 19.78679 27.25468 23.52074
#
# Velocity S-wave (km/s) = 3.35219 3.93425 3.65482
# Velocity P-wave (km/s) = 6.66938 8.30917 7.53402
#
# Compressibility (1/GPa) = 0.01925276
#
# Stress axis : x y z
#
# Youngs Moduli (GPa) = 23.51193 78.84477 94.04097
#
# Poissons Ratio (x) = 0.74862 1.13687
# Poissons Ratio (y) = 0.22324 0.16118
# Poissons Ratio (z) = 0.28424 0.13513
#
# Static dielectric constant tensor:
#      x y z
#    x 1.595340 0.000000 0.000000 
#    y 0.000000 1.604740 0.000000 
#    z 0.000000 0.000000 1.559540 
# 
# From -- ./inp_files/31874.got.cif
#   From: 2010.05.17/outbox.cif.g08.bks.cpg/sg51_16_cif.got.tgz:31874.got - 2010.06.03 11:52:47.
