data_PCOD9404866
_publ_section_title
;
Structure prediction by ZEFSAII (Michael W. Deem and Ramdas Pophale) SiO2 
 PCOD9404866
Probable space group: P M M A
;
_chemical_formula_sum "Si O2"
_cell_formula_units_Z 56
_cell_length_a 16.139651
_cell_length_b 32.390463
_cell_length_c 5.172668
_cell_angle_alpha 90.000000
_cell_angle_beta 90.000000
_cell_angle_gamma 90.000000
_cell_volume 2704.119626
_symmetry_space_group_name_H-M "P M M A"
_symmetry_group_IT_number 51
_symmetry_cell_setting 'orthorhombic'
loop_
_space_group_symop_operation_xyz
x,y,z
1/2-x,-y,z
1/2+x,-y,-z
-x,y,-z
-x,-y,-z
1/2+x,y,-z
1/2-x,y,z
x,-y,z
loop_
_atom_site_type_symbol
_atom_site_label
_atom_site_fract_x
_atom_site_fract_y
_atom_site_fract_z
Si Si1 0.055052 0.180913 0.250822
Si Si2 0.351064 0.047000 0.623989
Si Si3 0.591029 0.408608 0.114621
Si Si4 0.649856 0.097658 0.879874
Si Si5 0.849718 0.735991 0.608454
Si Si6 0.346010 0.547639 0.382196
Si Si7 0.349940 0.315623 0.887384
O O1 0.111200 0.142018 0.173571
O O2 0.108373 0.220601 0.331839
O O3 0.000000 0.169781 0.500000
O O4 0.000000 0.191087 0.000000
O O5 0.250000 0.045852 0.634952
O O6 0.373403 0.066371 0.349544
O O7 0.380071 0.000000 0.656349
O O8 0.378372 0.077441 0.851655
O O9 0.646821 0.428771 0.889621
O O10 0.500000 0.413531 0.000000
O O11 0.603355 0.430961 0.388059
O O12 0.611786 0.360506 0.147702
O O13 0.750000 0.101203 0.883489
O O14 0.750000 0.741198 0.605583
O O15 0.875921 0.716111 0.336812
O O16 0.870445 0.703824 0.835773
O O17 0.250000 0.548578 0.464638
O O18 0.371497 0.500000 0.347661
O O19 0.250000 0.319852 0.870789
#
# Coordination Sequence:
#
# PCOD9404866 Si02
#       7
#     8   8   8   8   8   8   8
#     4  12  25  40  59  85 119 155 191 238 293 348
#     4   9  17  31  56  88 114 142 190 247 292 332
#     4  12  25  40  63  96 130 163 201 254 312 365
#     4  10  20  36  59  84 114 152 193 238 286 345
#     4  10  22  41  64  88 114 151 198 243 290 347
#     4  11  24  43  66  90 122 168 216 257 302 362
#     4  10  21  39  64  90 119 155 195 241 292 355
#
# _framework density 20.709143000000001
#
# number of rings (size 3 to 8) (size 9 to 14) (size 15 to 20)
#    0.000    1.429    0.000    5.571    0.000    7.429 
#    0.000    5.714    0.000    8.571    0.000    0.000 
#    0.000    0.000    0.000    0.000    0.000    0.000 
#
# Total GULP energy -313332.299476 kJ/mol
# GULP energy per Si atom -5595.219633 kJ/mol
# Density = 2.066201 g / cm^3
# Si number density = 20.709143 Si / 1000 Ang^3
#
#
#
# Elastic Constant Matrix: (Units=GPa)
#
#
# Indices 1 2 3 4 5 6 
#
# 1 23.4920 19.1346 7.6544 0.0000 0.0000 0.0000
# 2 19.1346 87.3704 -14.1193 0.0000 0.0000 0.0000
# 3 7.6544 -14.1193 79.4854 0.0000 0.0000 0.0000
# 4 0.0000 0.0000 0.0000 36.3794 0.0000 0.0000
# 5 0.0000 0.0000 0.0000 0.0000 23.0371 0.0000
# 6 0.0000 0.0000 0.0000 0.0000 0.0000 21.7002
#
#
#
# Elastic Compliance Matrix: (Units=1/GPa)
#
#
# Indices 1 2 3 4 5 6 
#
# 1 0.056162 -0.013563 -0.007818 0.000000 0.000000 0.000000
# 2 -0.013563 0.015059 0.003981 0.000000 0.000000 0.000000
# 3 -0.007818 0.003981 0.014041 0.000000 0.000000 0.000000
# 4 0.000000 0.000000 0.000000 0.027488 0.000000 0.000000
# 5 0.000000 0.000000 0.000000 0.000000 0.043408 0.000000
# 6 0.000000 0.000000 0.000000 0.000000 0.000000 0.046083
#
#
# Mechanical properties :
#
#
# Convention : Reuss Voigt Hill
#
# Bulk Modulus (GPa) = 19.81646 23.96525 21.89085
# Shear Modulus (GPa) = 19.69574 28.06856 23.88215
#
# Velocity S-wave (km/s) = 3.08728 3.68553 3.39959
# Velocity P-wave (km/s) = 4.72209 5.45053 5.09933
#
# Compressibility (1/GPa) = 0.05046311
#
# Stress axis : x y z
#
# Youngs Moduli (GPa) = 17.80551 66.40402 71.22017
#
# Poissons Ratio (x) = 0.90065 0.55678
# Poissons Ratio (y) = 0.24150 -0.28354
# Poissons Ratio (z) = 0.13920 -0.26437
#
# Static dielectric constant tensor:
#      x y z
#    x 1.758460 0.000000 0.000000 
#    y 0.000000 1.684150 0.000000 
#    z 0.000000 0.000000 1.703140 
# 
# From -- ./inp_files/1477.got.cif
#   From: 2010.05.17/outbox.cif.g08.bks.cpg/sg51_1_cif.got.tgz:1477.got - 2010.06.03 11:52:47.
