data_PCOD9404589
_publ_section_title
;
Structure prediction by ZEFSAII (Michael W. Deem and Ramdas Pophale) SiO2 
 PCOD9404589
Probable space group: P M M A
;
_chemical_formula_sum "Si O2"
_cell_formula_units_Z 40
_cell_length_a 16.332956
_cell_length_b 14.913075
_cell_length_c 7.854981
_cell_angle_alpha 90.000000
_cell_angle_beta 90.000000
_cell_angle_gamma 90.000000
_cell_volume 1913.273838
_symmetry_space_group_name_H-M "P M M A"
_symmetry_group_IT_number 51
_symmetry_cell_setting 'orthorhombic'
loop_
_space_group_symop_operation_xyz
x,y,z
1/2-x,-y,z
1/2+x,-y,-z
-x,y,-z
-x,-y,-z
1/2+x,y,-z
1/2-x,y,z
x,-y,z
loop_
_atom_site_type_symbol
_atom_site_label
_atom_site_fract_x
_atom_site_fract_y
_atom_site_fract_z
Si Si1 0.650772 0.207420 0.376321
Si Si2 0.411872 0.400244 0.090282
Si Si3 0.844936 0.597591 0.275164
Si Si4 0.904463 0.103473 0.048555
Si Si5 0.345355 0.771498 0.249862
O O1 0.750000 0.204633 0.351521
O O2 0.621523 0.310325 0.350220
O O3 0.611040 0.145981 0.233138
O O4 0.632038 0.183154 0.571025
O O5 0.404557 0.500000 0.165755
O O6 0.350580 0.393505 0.929558
O O7 0.500000 0.392253 0.000000
O O8 0.395595 0.319014 0.215554
O O9 0.750000 0.594367 0.326249
O O10 0.882761 0.500000 0.317662
O O11 0.878207 0.000000 0.045053
O O12 0.858328 0.162900 0.908433
O O13 0.000000 0.108212 0.000000
O O14 0.250000 0.745963 0.262280
#
# Coordination Sequence:
#
# PCOD9404589 Si02
#       5
#     8   8   8   8   8
#     4  10  22  39  62  93 126 160 202 254 306 361
#     4  10  20  35  57  88 127 169 211 250 295 355
#     4   9  17  32  55  82 117 161 202 240 287 346
#     4  11  25  45  66  88 119 158 199 251 316 378
#     4  11  23  39  63  94 123 159 208 255 308 369
#
# _framework density 20.906573000000002
#
# number of rings (size 3 to 8) (size 9 to 14) (size 15 to 20)
#    0.000    1.800    2.000    1.800    0.000    5.200 
#    0.000    6.000    0.000    3.600    0.000    0.000 
#    0.000    0.000    0.000    0.000    0.000    0.000 
#
# Total GULP energy -223407.740334 kJ/mol
# GULP energy per Si atom -5585.193508 kJ/mol
# Density = 2.085899 g / cm^3
# Si number density = 20.906573 Si / 1000 Ang^3
#
#
#
# Elastic Constant Matrix: (Units=GPa)
#
#
# Indices 1 2 3 4 5 6 
#
# 1 37.2539 28.2938 18.6085 0.0000 0.0000 0.0000
# 2 28.2938 127.7055 59.0124 0.0000 0.0000 0.0000
# 3 18.6085 59.0124 122.6503 0.0000 0.0000 0.0000
# 4 0.0000 0.0000 0.0000 -6.1116 0.0000 0.0000
# 5 0.0000 0.0000 0.0000 0.0000 15.0984 0.0000
# 6 0.0000 0.0000 0.0000 0.0000 0.0000 -4.0334
#
#
#
# Elastic Compliance Matrix: (Units=1/GPa)
#
#
# Indices 1 2 3 4 5 6 
#
# 1 0.032611 -0.006351 -0.001892 0.000000 0.000000 0.000000
# 2 -0.006351 0.011306 -0.004476 0.000000 0.000000 0.000000
# 3 -0.001892 -0.004476 0.010594 0.000000 0.000000 0.000000
# 4 0.000000 0.000000 0.000000 -0.163622 0.000000 0.000000
# 5 0.000000 0.000000 0.000000 0.000000 0.066232 0.000000
# 6 0.000000 0.000000 0.000000 0.000000 0.000000 -0.247932
#
#
# Mechanical properties :
#
#
# Convention : Reuss Voigt Hill
#
# Bulk Modulus (GPa) = 34.39624 55.49322 44.94473
# Shear Modulus (GPa) = -19.55561 13.10369 -3.22596
#
# Velocity S-wave (km/s) = -3.06172 2.50626 -1.24354
# Velocity P-wave (km/s) = 1.99731 5.91407 4.41392
#
# Compressibility (1/GPa) = 0.02907295
#
# Stress axis : x y z
#
# Youngs Moduli (GPa) = 30.66419 88.44810 94.39242
#
# Poissons Ratio (x) = 0.56172 0.17860
# Poissons Ratio (y) = 0.19474 0.42253
# Poissons Ratio (z) = 0.05802 0.39592
#
# Static dielectric constant tensor:
#      x y z
#    x 1.788280 0.000000 0.000000 
#    y 0.000000 1.744550 0.000000 
#    z 0.000000 0.000000 1.741270 
# 
# From -- ./inp_files/7945.got.cif
#   From: 2010.05.17/outbox.cif.g08.bks.cpg/sg51_4_cif.got.tgz:7945.got - 2010.06.03 11:52:47.
