data_PCOD9404933
_publ_section_title
;
Structure prediction by ZEFSAII (Michael W. Deem and Ramdas Pophale) SiO2 
 PCOD9404933
Probable space group: P M M A
;
_chemical_formula_sum "Si O2"
_cell_formula_units_Z 64
_cell_length_a 14.555766
_cell_length_b 23.348499
_cell_length_c 7.448991
_cell_angle_alpha 90.000000
_cell_angle_beta 90.000000
_cell_angle_gamma 90.000000
_cell_volume 2531.578981
_symmetry_space_group_name_H-M "P M M A"
_symmetry_group_IT_number 51
_symmetry_cell_setting 'orthorhombic'
loop_
_space_group_symop_operation_xyz
x,y,z
1/2-x,-y,z
1/2+x,-y,-z
-x,y,-z
-x,-y,-z
1/2+x,y,-z
1/2-x,y,z
x,-y,z
loop_
_atom_site_type_symbol
_atom_site_label
_atom_site_fract_x
_atom_site_fract_y
_atom_site_fract_z
Si Si1 0.859220 0.436170 0.557167
Si Si2 0.350216 0.877124 0.796273
Si Si3 0.353512 0.837778 0.380418
Si Si4 0.053413 0.649527 0.726848
Si Si5 0.140821 0.433913 0.011151
Si Si6 0.022812 0.937529 0.285123
Si Si7 0.103824 0.247683 0.924311
Si Si8 0.145362 0.290822 0.294026
O O1 0.750000 0.434092 0.526177
O O2 0.891347 0.500000 0.509042
O O3 0.906823 0.391027 0.427404
O O4 0.871657 0.430430 0.772920
O O5 0.250000 0.900452 0.837717
O O6 0.354333 0.859809 0.584717
O O7 0.430182 0.922815 0.821105
O O8 0.364417 0.816232 0.890280
O O9 0.250000 0.840023 0.311691
O O10 0.414497 0.881494 0.267584
O O11 0.380468 0.771430 0.374520
O O12 0.948609 0.671774 0.700327
O O13 0.080615 0.611134 0.900515
O O14 0.106562 0.709856 0.754556
O O15 0.250000 0.424332 0.976775
O O16 0.119695 0.500000 0.959667
O O17 0.000000 0.940042 0.500000
O O18 0.061059 0.000000 0.238384
O O19 0.156416 0.278386 0.083708
O O20 0.000000 0.245231 0.000000
O O21 0.250000 0.308745 0.357300
#
# Coordination Sequence:
#
# PCOD9404933 Si02
#       8
#     8   8   8   8   8   8   8   8
#     4   9  19  38  66 102 141 180 224 279 348 421
#     4  10  20  36  60  89 126 173 222 273 333 406
#     4   9  19  38  62  88 123 173 228 281 339 397
#     4  11  21  37  64 103 136 175 227 282 349 418
#     4   9  19  38  66 102 142 180 223 280 347 421
#     4   9  17  30  53  89 129 167 214 275 337 398
#     4  10  22  40  61  92 126 166 219 278 344 408
#     4  10  22  42  63  89 132 179 227 280 341 411
#
# _framework density 25.280664999999999
#
# number of rings (size 3 to 8) (size 9 to 14) (size 15 to 20)
#    0.000    2.375    0.000    3.375    0.000    3.500 
#    6.750    2.500    0.000   18.375    0.000   21.000 
#    0.000    0.000    0.000    0.000    0.000    0.000 
#
# Total GULP energy -357988.987554 kJ/mol
# GULP energy per Si atom -5593.577931 kJ/mol
# Density = 2.522312 g / cm^3
# Si number density = 25.280665 Si / 1000 Ang^3
#
#
#
# Elastic Constant Matrix: (Units=GPa)
#
#
# Indices 1 2 3 4 5 6 
#
# 1 149.7697 66.5906 43.0499 0.0000 0.0000 0.0000
# 2 66.5906 130.3251 42.0574 0.0000 0.0000 0.0000
# 3 43.0499 42.0574 87.6742 0.0000 0.0000 0.0000
# 4 0.0000 0.0000 0.0000 28.2482 0.0000 0.0000
# 5 0.0000 0.0000 0.0000 0.0000 25.9742 0.0000
# 6 0.0000 0.0000 0.0000 0.0000 0.0000 25.7923
#
#
#
# Elastic Compliance Matrix: (Units=1/GPa)
#
#
# Indices 1 2 3 4 5 6 
#
# 1 0.009135 -0.003810 -0.002658 0.000000 0.000000 0.000000
# 2 -0.003810 0.010667 -0.003246 0.000000 0.000000 0.000000
# 3 -0.002658 -0.003246 0.014268 0.000000 0.000000 0.000000
# 4 0.000000 0.000000 0.000000 0.035400 0.000000 0.000000
# 5 0.000000 0.000000 0.000000 0.000000 0.038500 0.000000
# 6 0.000000 0.000000 0.000000 0.000000 0.000000 0.038771
#
#
# Mechanical properties :
#
#
# Convention : Reuss Voigt Hill
#
# Bulk Modulus (GPa) = 68.29533 74.57386 71.43459
# Shear Modulus (GPa) = 29.23105 30.40767 29.81936
#
# Velocity S-wave (km/s) = 3.40407 3.47191 3.43816
# Velocity P-wave (km/s) = 6.52103 6.75534 6.63922
#
# Compressibility (1/GPa) = 0.01464229
#
# Stress axis : x y z
#
# Youngs Moduli (GPa) = 109.47157 93.74317 70.08567
#
# Poissons Ratio (x) = 0.35714 0.18627
# Poissons Ratio (y) = 0.41706 0.22753
# Poissons Ratio (z) = 0.29096 0.30434
#
# Static dielectric constant tensor:
#      x y z
#    x 2.024370 0.000000 0.000000 
#    y 0.000000 2.000250 0.000000 
#    z 0.000000 0.000000 2.081540 
# 
# From -- ./inp_files/8667.got.cif
#   From: 2010.05.17/outbox.cif.g08.bks.cpg/sg51_5_cif.got.tgz:8667.got - 2010.06.03 11:52:47.
