data_PCOD9404741
_publ_section_title
;
Structure prediction by ZEFSAII (Michael W. Deem and Ramdas Pophale) SiO2 
 PCOD9404741
Probable space group: P M M A
;
_chemical_formula_sum "Si O2"
_cell_formula_units_Z 48
_cell_length_a 16.393656
_cell_length_b 7.688639
_cell_length_c 17.451154
_cell_angle_alpha 90.000000
_cell_angle_beta 90.000000
_cell_angle_gamma 90.000000
_cell_volume 2199.629011
_symmetry_space_group_name_H-M "P M M A"
_symmetry_group_IT_number 51
_symmetry_cell_setting 'orthorhombic'
loop_
_space_group_symop_operation_xyz
x,y,z
1/2-x,-y,z
1/2+x,-y,-z
-x,y,-z
-x,-y,-z
1/2+x,y,-z
1/2-x,y,z
x,-y,z
loop_
_atom_site_type_symbol
_atom_site_label
_atom_site_fract_x
_atom_site_fract_y
_atom_site_fract_z
Si Si1 0.341061 0.295043 0.508482
Si Si2 0.425123 0.288581 0.661414
Si Si3 0.891198 0.199379 0.659326
Si Si4 0.340566 0.290753 0.816442
Si Si5 0.001598 0.791771 0.086744
Si Si6 0.339135 0.786817 0.178363
O O1 0.250000 0.220090 0.509681
O O2 0.334622 0.500000 0.524722
O O3 0.395455 0.226402 0.578070
O O4 0.376637 0.280045 0.423578
O O5 0.433275 0.500000 0.661383
O O6 0.513445 0.212087 0.678424
O O7 0.363376 0.240101 0.729252
O O8 0.846084 0.273676 0.733456
O O9 0.865459 0.000000 0.651289
O O10 0.250000 0.225709 0.837871
O O11 0.337527 0.500000 0.817602
O O12 0.416503 0.240588 0.869870
O O13 0.081329 0.725663 0.132300
O O14 0.011330 0.000000 0.082846
O O15 0.000000 0.723673 0.000000
O O16 0.250000 0.738293 0.146801
O O17 0.342347 0.000000 0.180082
#
# Coordination Sequence:
#
# PCOD9404741 Si02
#       6
#     8   8   8   8   8   8
#     4  10  21  36  53  76 108 146 191 238 280 330
#     4  10  20  36  57  79 108 149 194 234 280 334
#     4  11  21  34  54  79 110 148 190 233 285 338
#     4  10  21  38  61  87 117 154 193 234 285 341
#     4  10  21  38  61  88 116 148 189 236 286 344
#     4   9  18  34  55  79 111 149 186 227 280 338
#
# _framework density 21.821861999999999
#
# number of rings (size 3 to 8) (size 9 to 14) (size 15 to 20)
#    0.000    2.000    1.667    2.000    0.000    7.000 
#    0.000    1.667    0.000    4.500    0.000    0.000 
#    0.000    0.000    0.000    0.000    0.000    0.000 
#
# Total GULP energy -268045.160629 kJ/mol
# GULP energy per Si atom -5584.274180 kJ/mol
# Density = 2.177219 g / cm^3
# Si number density = 21.821862 Si / 1000 Ang^3
#
#
#
# Elastic Constant Matrix: (Units=GPa)
#
#
# Indices 1 2 3 4 5 6 
#
# 1 166.3867 -5.9441 65.1335 0.0000 0.0000 0.0000
# 2 -5.9441 32.7888 1.7724 0.0000 0.0000 0.0000
# 3 65.1335 1.7724 134.4224 0.0000 0.0000 0.0000
# 4 0.0000 0.0000 0.0000 14.7556 0.0000 0.0000
# 5 0.0000 0.0000 0.0000 0.0000 9.4934 0.0000
# 6 0.0000 0.0000 0.0000 0.0000 0.0000 14.5645
#
#
#
# Elastic Compliance Matrix: (Units=1/GPa)
#
#
# Indices 1 2 3 4 5 6 
#
# 1 0.007495 0.001556 -0.003652 0.000000 0.000000 0.000000
# 2 0.001556 0.030843 -0.001161 0.000000 0.000000 0.000000
# 3 -0.003652 -0.001161 0.009224 0.000000 0.000000 0.000000
# 4 0.000000 0.000000 0.000000 0.067771 0.000000 0.000000
# 5 0.000000 0.000000 0.000000 0.000000 0.105337 0.000000
# 6 0.000000 0.000000 0.000000 0.000000 0.000000 0.068660
#
#
# Mechanical properties :
#
#
# Convention : Reuss Voigt Hill
#
# Bulk Modulus (GPa) = 24.36111 50.61351 37.48731
# Shear Modulus (GPa) = 16.15366 25.93842 21.04604
#
# Velocity S-wave (km/s) = 2.72371 3.45141 3.10892
# Velocity P-wave (km/s) = 4.59122 6.25518 5.48665
#
# Compressibility (1/GPa) = 0.04104903
#
# Stress axis : x y z
#
# Youngs Moduli (GPa) = 133.41413 32.42217 108.40941
#
# Poissons Ratio (x) = -0.05046 0.39595
# Poissons Ratio (y) = -0.20763 0.12584
# Poissons Ratio (z) = 0.48728 0.03763
#
# Static dielectric constant tensor:
#      x y z
#    x 1.795720 0.000000 0.000000 
#    y 0.000000 1.812550 0.000000 
#    z 0.000000 0.000000 1.789220 
# 
# From -- ./inp_files/29413.got.cif
#   From: 2010.05.17/outbox.cif.g08.bks.cpg/sg51_15_cif.got.tgz:29413.got - 2010.06.03 11:52:47.
