data_PCOD9404547
_publ_section_title
;
Structure prediction by ZEFSAII (Michael W. Deem and Ramdas Pophale) SiO2 
 PCOD9404547
Probable space group: P M M A
;
_chemical_formula_sum "Si O2"
_cell_formula_units_Z 64
_cell_length_a 17.820255
_cell_length_b 14.550573
_cell_length_c 12.051147
_cell_angle_alpha 90.000000
_cell_angle_beta 90.000000
_cell_angle_gamma 90.000000
_cell_volume 3124.801212
_symmetry_space_group_name_H-M "P M M A"
_symmetry_group_IT_number 51
_symmetry_cell_setting 'orthorhombic'
loop_
_space_group_symop_operation_xyz
x,y,z
1/2-x,-y,z
1/2+x,-y,-z
-x,y,-z
-x,-y,-z
1/2+x,y,-z
1/2-x,y,z
x,-y,z
loop_
_atom_site_type_symbol
_atom_site_label
_atom_site_fract_x
_atom_site_fract_y
_atom_site_fract_z
Si Si1 0.933015 0.900220 0.911302
Si Si2 0.832047 0.846118 0.349463
Si Si3 0.995139 0.898525 0.662705
Si Si4 0.889835 0.605527 0.728888
Si Si5 0.944007 0.598855 0.375188
Si Si6 0.388184 0.253688 0.447633
Si Si7 0.411569 0.699423 0.035210
Si Si8 0.834578 0.333664 0.195859
O O1 0.970475 0.891393 0.790664
O O2 0.891190 0.805415 0.936050
O O3 0.893229 0.000000 0.916607
O O4 0.000000 0.903442 0.000000
O O5 0.750000 0.892079 0.334076
O O6 0.832945 0.802892 0.473104
O O7 0.836100 0.766639 0.255275
O O8 0.914398 0.892293 0.343185
O O9 0.949527 0.817543 0.601847
O O10 0.971841 0.000000 0.622011
O O11 0.861955 0.500000 0.720756
O O12 0.853195 0.683714 0.650265
O O13 0.895179 0.638909 0.855939
O O14 0.974532 0.606869 0.679484
O O15 0.934579 0.500000 0.430331
O O16 0.924434 0.676286 0.463376
O O17 0.887191 0.606892 0.273839
O O18 0.500000 0.695405 0.000000
O O19 0.365607 0.670117 0.927747
O O20 0.750000 0.367262 0.197857
#
# Coordination Sequence:
#
# PCOD9404547 Si02
#       8
#     8   8   8   8   8   8   8   8
#     4   9  18  31  54  85 113 148 194 238 284 342
#     4  10  21  37  57  80 114 155 195 238 288 347
#     4  11  21  35  59  90 120 151 192 244 299 352
#     4  11  21  33  55  86 113 147 193 243 294 346
#     4  10  20  35  57  83 115 154 197 245 289 339
#     4  11  21  37  58  84 118 153 196 245 290 347
#     4  11  19  34  59  81 117 154 187 241 295 351
#     4  10  21  37  57  84 116 154 196 239 295 353
#
# _framework density 20.481301999999999
#
# number of rings (size 3 to 8) (size 9 to 14) (size 15 to 20)
#    0.000    1.625    2.500    4.875    0.000    3.250 
#    0.000    0.625    0.000    3.750    0.000    1.750 
#    0.000    0.000    0.000    0.000    0.000    0.000 
#
# Total GULP energy -357012.515246 kJ/mol
# GULP energy per Si atom -5578.320551 kJ/mol
# Density = 2.043469 g / cm^3
# Si number density = 20.481302 Si / 1000 Ang^3
#
#
#
# Elastic Constant Matrix: (Units=GPa)
#
#
# Indices 1 2 3 4 5 6 
#
# 1 39.3305 3.8515 7.1807 0.0000 0.0000 0.0000
# 2 3.8515 113.7771 33.7397 0.0000 0.0000 0.0000
# 3 7.1807 33.7397 146.0802 0.0000 0.0000 0.0000
# 4 0.0000 0.0000 0.0000 64.5901 0.0000 0.0000
# 5 0.0000 0.0000 0.0000 0.0000 11.9118 0.0000
# 6 0.0000 0.0000 0.0000 0.0000 0.0000 9.6811
#
#
#
# Elastic Compliance Matrix: (Units=1/GPa)
#
#
# Indices 1 2 3 4 5 6 
#
# 1 0.025686 -0.000531 -0.001140 0.000000 0.000000 0.000000
# 2 -0.000531 0.009446 -0.002156 0.000000 0.000000 0.000000
# 3 -0.001140 -0.002156 0.007399 0.000000 0.000000 0.000000
# 4 0.000000 0.000000 0.000000 0.015482 0.000000 0.000000
# 5 0.000000 0.000000 0.000000 0.000000 0.083951 0.000000
# 6 0.000000 0.000000 0.000000 0.000000 0.000000 0.103294
#
#
# Mechanical properties :
#
#
# Convention : Reuss Voigt Hill
#
# Bulk Modulus (GPa) = 28.67177 43.19241 35.93209
# Shear Modulus (GPa) = 18.90088 34.19767 26.54927
#
# Velocity S-wave (km/s) = 3.04112 4.09063 3.60428
# Velocity P-wave (km/s) = 5.13426 6.59132 5.90788
#
# Compressibility (1/GPa) = 0.03487751
#
# Stress axis : x y z
#
# Youngs Moduli (GPa) = 38.93219 105.86099 135.14474
#
# Poissons Ratio (x) = 0.05626 0.15404
# Poissons Ratio (y) = 0.02069 0.29133
# Poissons Ratio (z) = 0.04438 0.22820
#
# Static dielectric constant tensor:
#      x y z
#    x 1.644850 0.000000 0.000000 
#    y 0.000000 1.806850 0.000000 
#    z 0.000000 0.000000 1.729650 
# 
# From -- ./inp_files/17554.got.cif
#   From: 2010.05.17/outbox.cif.g08.bks.cpg/sg51_9_cif.got.tgz:17554.got - 2010.06.03 11:52:47.
