data_PCOD9404949
_publ_section_title
;
Structure prediction by ZEFSAII (Michael W. Deem and Ramdas Pophale) SiO2 
 PCOD9404949
Probable space group: P M M A
;
_chemical_formula_sum "Si O2"
_cell_formula_units_Z 64
_cell_length_a 29.543119
_cell_length_b 8.611905
_cell_length_c 12.651577
_cell_angle_alpha 90.000000
_cell_angle_beta 90.000000
_cell_angle_gamma 90.000000
_cell_volume 3218.846282
_symmetry_space_group_name_H-M "P M M A"
_symmetry_group_IT_number 51
_symmetry_cell_setting 'orthorhombic'
loop_
_space_group_symop_operation_xyz
x,y,z
1/2-x,-y,z
1/2+x,-y,-z
-x,y,-z
-x,-y,-z
1/2+x,y,-z
1/2-x,y,z
x,-y,z
loop_
_atom_site_type_symbol
_atom_site_label
_atom_site_fract_x
_atom_site_fract_y
_atom_site_fract_z
Si Si1 0.475034 0.686167 0.390916
Si Si2 0.298975 0.812901 0.216375
Si Si3 0.697725 0.186658 0.436051
Si Si4 0.492011 0.182932 0.829629
Si Si5 0.659117 0.180664 0.999846
Si Si6 0.126912 0.187624 0.379050
Si Si7 0.563536 0.320086 0.986098
Si Si8 0.195660 0.676561 0.791689
O O1 0.500000 0.733236 0.500000
O O2 0.476597 0.500000 0.383621
O O3 0.499880 0.756423 0.288247
O O4 0.422648 0.739839 0.388844
O O5 0.250000 0.752671 0.253525
O O6 0.343689 0.758893 0.277656
O O7 0.298123 0.000000 0.233460
O O8 0.304756 0.786608 0.091922
O O9 0.750000 0.231992 0.462588
O O10 0.660608 0.225290 0.523993
O O11 0.684712 0.262404 0.324819
O O12 0.697926 0.000000 0.425047
O O13 0.453484 0.269196 0.897637
O O14 0.483167 0.000000 0.828990
O O15 0.536650 0.219707 0.899468
O O16 0.615979 0.285909 0.978226
O O17 0.677077 0.216459 0.115775
O O18 0.646032 0.000000 0.990554
O O19 0.121215 0.000000 0.374330
O O20 0.552956 0.500000 0.968092
O O21 0.250000 0.676946 0.798856
O O22 0.179402 0.500000 0.806323
#
# Coordination Sequence:
#
# PCOD9404949 Si02
#       8
#     8   8   8   8   8   8   8   8
#     4  11  25  43  61  83 116 158 199 244 304 365
#     4   9  18  33  56  87 120 152 186 229 283 342
#     4   9  18  34  57  84 114 149 191 239 292 355
#     4  11  22  40  64  88 115 147 191 240 286 344
#     4  11  21  34  55  84 116 152 195 237 280 336
#     4  10  20  36  61  89 115 146 189 241 294 352
#     4  11  22  38  61  88 119 153 189 234 290 346
#     4  10  21  36  53  75 108 150 192 237 290 342
#
# _framework density 19.882901
#
# number of rings (size 3 to 8) (size 9 to 14) (size 15 to 20)
#    0.000    1.750    0.000    5.625    0.000    6.250 
#    0.000    3.125    0.000    2.625    0.000    0.000 
#    0.000    0.000    0.000    0.000    0.000    0.000 
#
# Total GULP energy -357465.060074 kJ/mol
# GULP energy per Si atom -5585.391564 kJ/mol
# Density = 1.983765 g / cm^3
# Si number density = 19.882901 Si / 1000 Ang^3
#
#
#
# Elastic Constant Matrix: (Units=GPa)
#
#
# Indices 1 2 3 4 5 6 
#
# 1 63.9499 6.2230 18.9168 0.0000 0.0000 0.0000
# 2 6.2230 31.9014 12.9859 0.0000 0.0000 0.0000
# 3 18.9168 12.9859 94.5617 0.0000 0.0000 0.0000
# 4 0.0000 0.0000 0.0000 20.2679 0.0000 0.0000
# 5 0.0000 0.0000 0.0000 0.0000 22.7126 0.0000
# 6 0.0000 0.0000 0.0000 0.0000 0.0000 180.2074
#
#
#
# Elastic Compliance Matrix: (Units=1/GPa)
#
#
# Indices 1 2 3 4 5 6 
#
# 1 0.016742 -0.002015 -0.003072 0.000000 0.000000 0.000000
# 2 -0.002015 0.033445 -0.004190 0.000000 0.000000 0.000000
# 3 -0.003072 -0.004190 0.011765 0.000000 0.000000 0.000000
# 4 0.000000 0.000000 0.000000 0.049339 0.000000 0.000000
# 5 0.000000 0.000000 0.000000 0.000000 0.044029 0.000000
# 6 0.000000 0.000000 0.000000 0.000000 0.000000 0.005549
#
#
# Mechanical properties :
#
#
# Convention : Reuss Voigt Hill
#
# Bulk Modulus (GPa) = 23.04279 29.62938 26.33608
# Shear Modulus (GPa) = 25.78780 54.79005 40.28892
#
# Velocity S-wave (km/s) = 3.60527 5.25511 4.50634
# Velocity P-wave (km/s) = 5.38006 7.19416 6.35220
#
# Compressibility (1/GPa) = 0.04339753
#
# Stress axis : x y z
#
# Youngs Moduli (GPa) = 59.72929 29.89969 84.99695
#
# Poissons Ratio (x) = 0.06025 0.26115
# Poissons Ratio (y) = 0.12037 0.35612
# Poissons Ratio (z) = 0.18352 0.12527
#
# Static dielectric constant tensor:
#      x y z
#    x 1.695680 0.000000 0.000000 
#    y 0.000000 1.684530 0.000000 
#    z 0.000000 0.000000 1.695730 
# 
# From -- ./inp_files/19572.got.cif
#   From: 2010.05.17/outbox.cif.g08.bks.cpg/sg51_10_cif.got.tgz:19572.got - 2010.06.03 11:52:47.
