data_PCOD9404664
_publ_section_title
;
Structure prediction by ZEFSAII (Michael W. Deem and Ramdas Pophale) SiO2 
 PCOD9404664
Probable space group: P M M A
;
_chemical_formula_sum "Si O2"
_cell_formula_units_Z 48
_cell_length_a 29.115078
_cell_length_b 7.814576
_cell_length_c 10.386928
_cell_angle_alpha 90.000000
_cell_angle_beta 90.000000
_cell_angle_gamma 90.000000
_cell_volume 2363.254526
_symmetry_space_group_name_H-M "P M M A"
_symmetry_group_IT_number 51
_symmetry_cell_setting 'orthorhombic'
loop_
_space_group_symop_operation_xyz
x,y,z
1/2-x,-y,z
1/2+x,-y,-z
-x,y,-z
-x,-y,-z
1/2+x,y,-z
1/2-x,y,z
x,-y,z
loop_
_atom_site_type_symbol
_atom_site_label
_atom_site_fract_x
_atom_site_fract_y
_atom_site_fract_z
Si Si1 0.901003 0.699726 0.754894
Si Si2 0.847444 0.793072 0.007977
Si Si3 0.593181 0.206638 0.260114
Si Si4 0.651783 0.701912 0.507242
Si Si5 0.499684 0.201957 0.146149
Si Si6 0.750000 0.706305 0.412264
Si Si7 0.250000 0.793455 0.889661
O O1 0.910085 0.500000 0.730561
O O2 0.874710 0.774555 0.631104
O O3 0.950077 0.778925 0.790445
O O4 0.868620 0.719196 0.878775
O O5 0.878952 0.750501 0.130538
O O6 0.796163 0.733870 0.040634
O O7 0.847699 0.000000 0.995969
O O8 0.619534 0.278795 0.382821
O O9 0.541251 0.268379 0.234498
O O10 0.593907 0.000000 0.275114
O O11 0.658384 0.500000 0.532793
O O12 0.702563 0.772513 0.474907
O O13 0.509662 0.000000 0.132038
O O14 0.500000 0.274227 0.000000
O O15 0.750000 0.500000 0.423620
O O16 0.750000 0.745413 0.260325
O O17 0.250000 0.000000 0.894006
#
# Coordination Sequence:
#
# PCOD9404664 Si02
#       7
#     8   8   8   8   8   4   4
#     4  11  24  39  57  85 119 157 195 236 287 342
#     4  10  20  37  59  86 117 147 186 239 290 339
#     4  10  20  36  62  88 111 148 193 236 288 345
#     4  10  23  40  57  83 120 155 191 237 286 338
#     4  10  20  38  61  85 115 151 191 240 294 345
#     4  10  20  37  60  82 112 156 194 229 282 342
#     4  10  20  35  60  90 116 142 186 245 292 336
#
# _framework density 20.310973000000001
#
# number of rings (size 3 to 8) (size 9 to 14) (size 15 to 20)
#    0.000    1.833    3.333    0.500    0.000    5.000 
#    0.000    4.167    0.000    0.000    0.000    0.000 
#    0.000    0.000    0.000    0.000    0.000    0.000 
#
# Total GULP energy -268058.522218 kJ/mol
# GULP energy per Si atom -5584.552546 kJ/mol
# Density = 2.026474 g / cm^3
# Si number density = 20.310973 Si / 1000 Ang^3
#
#
#
# Elastic Constant Matrix: (Units=GPa)
#
#
# Indices 1 2 3 4 5 6 
#
# 1 171.3306 -9.3515 55.8716 0.0000 0.0000 0.0000
# 2 -9.3515 14.4100 -14.5980 0.0000 0.0000 0.0000
# 3 55.8716 -14.5980 103.1042 0.0000 0.0000 0.0000
# 4 0.0000 0.0000 0.0000 20.5004 0.0000 0.0000
# 5 0.0000 0.0000 0.0000 0.0000 28.1557 0.0000
# 6 0.0000 0.0000 0.0000 0.0000 0.0000 17.0196
#
#
#
# Elastic Compliance Matrix: (Units=1/GPa)
#
#
# Indices 1 2 3 4 5 6 
#
# 1 0.007098 0.000829 -0.003729 0.000000 0.000000 0.000000
# 2 0.000829 0.081113 0.011035 0.000000 0.000000 0.000000
# 3 -0.003729 0.011035 0.013282 0.000000 0.000000 0.000000
# 4 0.000000 0.000000 0.000000 0.048780 0.000000 0.000000
# 5 0.000000 0.000000 0.000000 0.000000 0.035517 0.000000
# 6 0.000000 0.000000 0.000000 0.000000 0.000000 0.058756
#
#
# Mechanical properties :
#
#
# Convention : Reuss Voigt Hill
#
# Bulk Modulus (GPa) = 8.49160 39.18768 23.83964
# Shear Modulus (GPa) = 18.68950 30.26334 24.47642
#
# Velocity S-wave (km/s) = 3.03672 3.86424 3.47520
# Velocity P-wave (km/s) = 4.06022 6.26462 5.27877
#
# Compressibility (1/GPa) = 0.11776347
#
# Stress axis : x y z
#
# Youngs Moduli (GPa) = 140.88588 12.32842 75.28925
#
# Poissons Ratio (x) = -0.01022 0.28076
# Poissons Ratio (y) = -0.11674 -0.83085
# Poissons Ratio (z) = 0.52537 -0.13605
#
# Static dielectric constant tensor:
#      x y z
#    x 1.724500 0.000000 0.000000 
#    y 0.000000 1.753500 0.000000 
#    z 0.000000 0.000000 1.679420 
# 
# From -- ./inp_files/12964.got.cif
#   From: 2010.05.17/outbox.cif.g08.bks.cpg/sg51_7_cif.got.tgz:12964.got - 2010.06.03 11:52:47.
