data_PCOD9404832
_publ_section_title
;
Structure prediction by ZEFSAII (Michael W. Deem and Ramdas Pophale) SiO2 
 PCOD9404832
Probable space group: P M M A
;
_chemical_formula_sum "Si O2"
_cell_formula_units_Z 64
_cell_length_a 24.312902
_cell_length_b 7.891589
_cell_length_c 15.928899
_cell_angle_alpha 90.000000
_cell_angle_beta 90.000000
_cell_angle_gamma 90.000000
_cell_volume 3056.236914
_symmetry_space_group_name_H-M "P M M A"
_symmetry_group_IT_number 51
_symmetry_cell_setting 'orthorhombic'
loop_
_space_group_symop_operation_xyz
x,y,z
1/2-x,-y,z
1/2+x,-y,-z
-x,y,-z
-x,-y,-z
1/2+x,y,-z
1/2-x,y,z
x,-y,z
loop_
_atom_site_type_symbol
_atom_site_label
_atom_site_fract_x
_atom_site_fract_y
_atom_site_fract_z
Si Si1 0.010946 0.701009 0.346228
Si Si2 0.627100 0.197217 0.587556
Si Si3 0.878859 0.301438 0.099469
Si Si4 0.999275 0.704962 0.151546
Si Si5 0.311472 0.799296 0.742888
Si Si6 0.609077 0.793720 0.404546
Si Si7 0.813578 0.207624 0.753816
Si Si8 0.383280 0.799956 0.086168
O O1 0.021437 0.500000 0.347670
O O2 0.063025 0.790015 0.387716
O O3 0.005123 0.755439 0.249018
O O4 0.953603 0.737278 0.391740
O O5 0.632396 0.268207 0.493853
O O6 0.661217 0.270094 0.665676
O O7 0.643171 0.000000 0.581990
O O8 0.880020 0.500000 0.118885
O O9 0.836534 0.222864 0.164842
O O10 0.940658 0.234089 0.116783
O O11 0.865368 0.276851 0.002227
O O12 0.999894 0.500000 0.147118
O O13 0.052201 0.767530 0.101449
O O14 0.250000 0.727379 0.736565
O O15 0.354103 0.732144 0.673409
O O16 0.307845 0.000000 0.726848
O O17 0.608619 0.000000 0.405233
O O18 0.750000 0.254627 0.762838
O O19 0.850171 0.265666 0.832638
O O20 0.816584 0.000000 0.753103
O O21 0.373832 0.000000 0.080849
#
# Coordination Sequence:
#
# PCOD9404832 Si02
#       8
#     8   8   8   8   8   8   8   8
#     4  11  21  35  57  84 116 152 188 230 282 340
#     4  10  20  36  58  86 115 148 189 233 282 338
#     4  11  23  40  60  84 115 151 191 233 284 345
#     4  10  21  37  57  82 114 151 187 232 285 339
#     4  10  22  40  60  84 114 149 192 241 287 333
#     4  10  21  36  58  86 117 148 185 235 286 336
#     4   9  19  36  57  81 111 147 187 230 276 329
#     4  11  22  36  59  89 116 148 189 234 287 342
#
# _framework density 20.940785999999999
#
# number of rings (size 3 to 8) (size 9 to 14) (size 15 to 20)
#    0.000    1.750    2.500    1.875    0.000    6.250 
#    0.000    3.750    0.000    3.000    0.000    1.750 
#    0.000    0.000    0.000    0.000    0.000    0.000 
#
# Total GULP energy -357632.235418 kJ/mol
# GULP energy per Si atom -5588.003678 kJ/mol
# Density = 2.089312 g / cm^3
# Si number density = 20.940786 Si / 1000 Ang^3
#
#
#
# Elastic Constant Matrix: (Units=GPa)
#
#
# Indices 1 2 3 4 5 6 
#
# 1 75.0686 -12.5629 2.6627 0.0000 0.0000 0.0000
# 2 -12.5629 19.4352 -10.0328 0.0000 0.0000 0.0000
# 3 2.6627 -10.0328 97.9832 0.0000 0.0000 0.0000
# 4 0.0000 0.0000 0.0000 -30.7101 0.0000 0.0000
# 5 0.0000 0.0000 0.0000 0.0000 0.5973 0.0000
# 6 0.0000 0.0000 0.0000 0.0000 0.0000 -205.8455
#
#
#
# Elastic Compliance Matrix: (Units=1/GPa)
#
#
# Indices 1 2 3 4 5 6 
#
# 1 0.014972 0.009996 0.000617 0.000000 0.000000 0.000000
# 2 0.009996 0.060999 0.005974 0.000000 0.000000 0.000000
# 3 0.000617 0.005974 0.010801 0.000000 0.000000 0.000000
# 4 0.000000 0.000000 0.000000 -0.032563 0.000000 0.000000
# 5 0.000000 0.000000 0.000000 0.000000 1.674110 0.000000
# 6 0.000000 0.000000 0.000000 0.000000 0.000000 -0.004858
#
#
# Mechanical properties :
#
#
# Convention : Reuss Voigt Hill
#
# Bulk Modulus (GPa) = 8.33709 16.95789 12.64749
# Shear Modulus (GPa) = 2.88973 -33.03031 -15.07029
#
# Velocity S-wave (km/s) = 1.17599 -3.97586 -2.68556
# Velocity P-wave (km/s) = 2.41533 3.60014 1.88774
#
# Compressibility (1/GPa) = 0.11994591
#
# Stress axis : x y z
#
# Youngs Moduli (GPa) = 66.79056 16.39383 92.58586
#
# Poissons Ratio (x) = -0.16388 -0.05710
# Poissons Ratio (y) = -0.66766 -0.55312
# Poissons Ratio (z) = -0.04119 -0.09794
#
# Static dielectric constant tensor:
#      x y z
#    x 1.716320 0.000000 0.000000 
#    y 0.000000 1.765980 0.000000 
#    z 0.000000 0.000000 1.748990 
# 
# From -- ./inp_files/26294.got.cif
#   From: 2010.05.17/outbox.cif.g08.bks.cpg/sg51_14_cif.got.tgz:26294.got - 2010.06.03 11:52:47.
