data_PCOD9404316
_publ_section_title
;
Structure prediction by ZEFSAII (Michael W. Deem and Ramdas Pophale) SiO2 
 PCOD9404316
Probable space group: P M M A
;
_chemical_formula_sum "Si O2"
_cell_formula_units_Z 44
_cell_length_a 8.740981
_cell_length_b 28.214929
_cell_length_c 10.065026
_cell_angle_alpha 90.000000
_cell_angle_beta 90.000000
_cell_angle_gamma 90.000000
_cell_volume 2482.298696
_symmetry_space_group_name_H-M "P M M A"
_symmetry_group_IT_number 51
_symmetry_cell_setting 'orthorhombic'
loop_
_space_group_symop_operation_xyz
x,y,z
1/2-x,-y,z
1/2+x,-y,-z
-x,y,-z
-x,-y,-z
1/2+x,y,-z
1/2-x,y,z
x,-y,z
loop_
_atom_site_type_symbol
_atom_site_label
_atom_site_fract_x
_atom_site_fract_y
_atom_site_fract_z
Si Si1 0.932219 0.686481 0.356485
Si Si2 0.066586 0.424923 0.645777
Si Si3 0.433182 0.759167 0.146553
Si Si4 0.565350 0.946145 0.646196
Si Si5 0.433458 0.500000 0.149764
Si Si6 0.434446 0.866923 0.146307
O O1 0.750000 0.691673 0.358629
O O2 0.966512 0.630846 0.332736
O O3 0.000000 0.698884 0.500000
O O4 0.002567 0.720440 0.246489
O O5 0.250000 0.431918 0.644285
O O6 0.000000 0.437849 0.500000
O O7 0.992760 0.455500 0.763139
O O8 0.250000 0.756403 0.142060
O O9 0.476566 0.813124 0.186623
O O10 0.500000 0.751327 0.000000
O O11 0.500000 0.937134 0.500000
O O12 0.750000 0.944405 0.639909
O O13 0.512800 0.906614 0.750220
O O14 0.521684 0.000000 0.685127
O O15 0.250000 0.500000 0.143520
O O16 0.500000 0.500000 0.000000
O O17 0.250000 0.868861 0.139352
O O18 0.500000 0.875519 0.000000
#
# Coordination Sequence:
#
# PCOD9404316 Si02
#       6
#     8   8   8   8   4   8
#     4  10  21  37  58  83 110 141 179 221 264 313
#     4  10  21  39  61  84 111 144 181 220 264 315
#     4  10  20  35  54  76 106 141 177 218 265 317
#     4   9  18  33  51  72 100 132 168 211 258 309
#     4  12  25  40  59  84 114 146 182 224 267 314
#     4   9  19  34  51  74 102 134 172 213 258 309
#
# _framework density 17.725505999999999
#
# number of rings (size 3 to 8) (size 9 to 14) (size 15 to 20)
#    0.000    2.182    0.000    2.727    0.000    5.455 
#    0.000    1.818    0.000    0.000    0.000    0.000 
#    0.000    0.000    0.000    0.000    0.000    0.000 
#
# Total GULP energy -245625.214873 kJ/mol
# GULP energy per Si atom -5582.391247 kJ/mol
# Density = 1.768516 g / cm^3
# Si number density = 17.725506 Si / 1000 Ang^3
#
#
#
# Elastic Constant Matrix: (Units=GPa)
#
#
# Indices 1 2 3 4 5 6 
#
# 1 58.9050 61.4676 61.7600 0.0000 0.0000 0.0000
# 2 61.4676 140.3869 122.4245 0.0000 0.0000 0.0000
# 3 61.7600 122.4245 152.7614 0.0000 0.0000 0.0000
# 4 0.0000 0.0000 0.0000 46.5458 0.0000 0.0000
# 5 0.0000 0.0000 0.0000 0.0000 37.9026 0.0000
# 6 0.0000 0.0000 0.0000 0.0000 0.0000 33.7738
#
#
#
# Elastic Compliance Matrix: (Units=1/GPa)
#
#
# Indices 1 2 3 4 5 6 
#
# 1 0.032738 -0.009272 -0.005805 0.000000 0.000000 0.000000
# 2 -0.009272 0.026281 -0.017313 0.000000 0.000000 0.000000
# 3 -0.005805 -0.017313 0.022768 0.000000 0.000000 0.000000
# 4 0.000000 0.000000 0.000000 0.021484 0.000000 0.000000
# 5 0.000000 0.000000 0.000000 0.000000 0.026383 0.000000
# 6 0.000000 0.000000 0.000000 0.000000 0.000000 0.029609
#
#
# Mechanical properties :
#
#
# Convention : Reuss Voigt Hill
#
# Bulk Modulus (GPa) = 58.80040 93.70639 76.25340
# Shear Modulus (GPa) = 21.76634 30.73785 26.25210
#
# Velocity S-wave (km/s) = 3.50804 4.16877 3.85260
# Velocity P-wave (km/s) = 7.04650 8.72649 7.93110
#
# Compressibility (1/GPa) = 0.01700669
#
# Stress axis : x y z
#
# Youngs Moduli (GPa) = 30.54536 38.05080 43.92111
#
# Poissons Ratio (x) = 0.35280 0.25498
# Poissons Ratio (y) = 0.28321 0.76041
# Poissons Ratio (z) = 0.17733 0.65878
#
# Static dielectric constant tensor:
#      x y z
#    x 1.597440 0.000000 0.000000 
#    y 0.000000 1.615360 0.000000 
#    z 0.000000 0.000000 1.554650 
# 
# From -- ./inp_files/5743.got.cif
#   From: 2010.05.17/outbox.cif.g08.bks.cpg/sg51_3_cif.got.tgz:5743.got - 2010.06.03 11:52:47.
