data_PCOD9404070
_publ_section_title
;
Structure prediction by ZEFSAII (Michael W. Deem and Ramdas Pophale) SiO2 
 PCOD9404070
Probable space group: P M M A
;
_chemical_formula_sum "Si O2"
_cell_formula_units_Z 32
_cell_length_a 18.250214
_cell_length_b 10.780145
_cell_length_c 7.526617
_cell_angle_alpha 90.000000
_cell_angle_beta 90.000000
_cell_angle_gamma 90.000000
_cell_volume 1480.786276
_symmetry_space_group_name_H-M "P M M A"
_symmetry_group_IT_number 51
_symmetry_cell_setting 'orthorhombic'
loop_
_space_group_symop_operation_xyz
x,y,z
1/2-x,-y,z
1/2+x,-y,-z
-x,y,-z
-x,-y,-z
1/2+x,y,-z
1/2-x,y,z
x,-y,z
loop_
_atom_site_type_symbol
_atom_site_label
_atom_site_fract_x
_atom_site_fract_y
_atom_site_fract_z
Si Si1 0.665371 0.790777 0.049424
Si Si2 0.952887 0.632715 0.178072
Si Si3 0.171291 0.858315 0.550694
Si Si4 0.444116 0.854540 0.270428
O O1 0.750000 0.786803 0.988832
O O2 0.629560 0.661297 0.113611
O O3 0.663703 0.861873 0.237453
O O4 0.609953 0.844001 0.901284
O O5 0.957205 0.500000 0.275548
O O6 0.989294 0.757904 0.255913
O O7 0.000000 0.620365 0.000000
O O8 0.250000 0.796869 0.512885
O O9 0.105069 0.808127 0.435321
O O10 0.174797 0.000000 0.487070
O O11 0.467217 0.000000 0.288269
#
# Coordination Sequence:
#
# PCOD9404070 Si02
#       4
#     8   8   8   8
#     4  10  20  34  55  81 109 142 179 222 272 322
#     4   9  20  38  57  79 109 144 182 224 270 321
#     4   9  18  32  51  80 114 142 175 221 269 319
#     4  10  20  35  57  82 109 143 181 221 267 320
#
# _framework density 21.610140000000001
#
# number of rings (size 3 to 8) (size 9 to 14) (size 15 to 20)
#    0.000    2.500    0.000    1.500    0.000    9.500 
#    0.000    5.000    0.000    3.750    0.000    0.000 
#    0.000    0.000    0.000    0.000    0.000    0.000 
#
# Total GULP energy -178138.836282 kJ/mol
# GULP energy per Si atom -5566.838634 kJ/mol
# Density = 2.156095 g / cm^3
# Si number density = 21.610140 Si / 1000 Ang^3
#
#
#
# Elastic Constant Matrix: (Units=GPa)
#
#
# Indices 1 2 3 4 5 6 
#
# 1 91.1888 55.1656 23.4773 0.0000 0.0000 0.0000
# 2 55.1656 119.6739 13.2224 0.0000 0.0000 0.0000
# 3 23.4773 13.2224 85.2133 0.0000 0.0000 0.0000
# 4 0.0000 0.0000 0.0000 -6.7436 0.0000 0.0000
# 5 0.0000 0.0000 0.0000 0.0000 37.8073 0.0000
# 6 0.0000 0.0000 0.0000 0.0000 0.0000 28.5305
#
#
#
# Elastic Compliance Matrix: (Units=1/GPa)
#
#
# Indices 1 2 3 4 5 6 
#
# 1 0.016090 -0.007048 -0.003339 0.000000 0.000000 0.000000
# 2 -0.007048 0.011589 0.000144 0.000000 0.000000 0.000000
# 3 -0.003339 0.000144 0.012633 0.000000 0.000000 0.000000
# 4 0.000000 0.000000 0.000000 -0.148288 0.000000 0.000000
# 5 0.000000 0.000000 0.000000 0.000000 0.026450 0.000000
# 6 0.000000 0.000000 0.000000 0.000000 0.000000 0.035050
#
#
# Mechanical properties :
#
#
# Convention : Reuss Voigt Hill
#
# Bulk Modulus (GPa) = 50.44280 53.31184 51.87732
# Shear Modulus (GPa) = -257.98442 25.53289 -116.22576
#
# Velocity S-wave (km/s) = -10.93802 3.44106 -7.34164
# Velocity P-wave (km/s) = 11.66737 6.36484 6.91435
#
# Compressibility (1/GPa) = 0.01982443
#
# Stress axis : x y z
#
# Youngs Moduli (GPa) = 62.15185 86.28883 79.15777
#
# Poissons Ratio (x) = 0.60815 0.26433
# Poissons Ratio (y) = 0.43803 -0.01136
# Poissons Ratio (z) = 0.20754 -0.01238
#
# Static dielectric constant tensor:
#      x y z
#    x 1.863320 0.000000 0.000000 
#    y 0.000000 1.863700 0.000000 
#    z 0.000000 0.000000 1.809320 
# 
# From -- ./inp_files/7571.got.cif
#   From: 2010.05.17/outbox.cif.g08.bks.cpg/sg51_4_cif.got.tgz:7571.got - 2010.06.03 11:52:47.
