data_PCOD9404100
_publ_section_title
;
Structure prediction by ZEFSAII (Michael W. Deem and Ramdas Pophale) SiO2 
 PCOD9404100
Probable space group: P M M A
;
_chemical_formula_sum "Si O2"
_cell_formula_units_Z 64
_cell_length_a 22.158254
_cell_length_b 9.428586
_cell_length_c 15.247863
_cell_angle_alpha 90.000000
_cell_angle_beta 90.000000
_cell_angle_gamma 90.000000
_cell_volume 3185.598838
_symmetry_space_group_name_H-M "P M M A"
_symmetry_group_IT_number 51
_symmetry_cell_setting 'orthorhombic'
loop_
_space_group_symop_operation_xyz
x,y,z
1/2-x,-y,z
1/2+x,-y,-z
-x,y,-z
-x,-y,-z
1/2+x,y,-z
1/2-x,y,z
x,-y,z
loop_
_atom_site_type_symbol
_atom_site_label
_atom_site_fract_x
_atom_site_fract_y
_atom_site_fract_z
Si Si1 0.322091 0.665237 0.259426
Si Si2 0.004909 0.161138 0.601546
Si Si3 0.648377 0.842002 0.378178
Si Si4 0.677868 0.655658 0.540783
Si Si5 0.597373 0.169063 0.874643
Si Si6 0.000553 0.666208 0.226272
Si Si7 0.318589 0.831298 0.961930
Si Si8 0.144829 0.334755 0.789164
O O1 0.250000 0.684378 0.253999
O O2 0.334531 0.500000 0.235994
O O3 0.341675 0.685442 0.360245
O O4 0.355927 0.774083 0.197842
O O5 0.075894 0.150140 0.622079
O O6 0.000000 0.211040 0.500000
O O7 0.982421 0.261619 0.680057
O O8 0.979008 0.000000 0.605690
O O9 0.663167 0.773905 0.471076
O O10 0.667760 0.741325 0.298891
O O11 0.672907 0.000000 0.368191
O O12 0.750000 0.645398 0.544760
O O13 0.653879 0.500000 0.513434
O O14 0.536146 0.251319 0.850183
O O15 0.588384 0.000000 0.869367
O O16 0.629964 0.202707 0.966718
O O17 0.016408 0.500000 0.227510
O O18 0.928442 0.676566 0.212114
O O19 0.250000 0.803105 0.994819
O O20 0.330084 0.744327 0.873964
O O21 0.322376 0.000000 0.944037
O O22 0.160781 0.500000 0.789487
#
# Coordination Sequence:
#
# PCOD9404100 Si02
#       8
#     8   8   8   8   8   8   8   8
#     4   9  19  36  56  80 114 155 196 242 295 350
#     4   9  19  35  54  80 115 151 191 239 286 336
#     4  10  20  34  55  82 113 149 187 235 288 338
#     4   9  19  35  53  76 110 151 193 236 284 340
#     4  11  23  38  60  88 120 155 194 242 295 354
#     4  10  22  39  58  86 120 156 199 241 292 352
#     4  10  23  43  65  90 118 150 192 242 298 359
#     4  10  22  41  63  86 116 153 195 244 295 351
#
# _framework density 20.090415
#
# number of rings (size 3 to 8) (size 9 to 14) (size 15 to 20)
#    0.000    2.250    0.000    2.625    1.750    6.000 
#    0.000    3.750    0.000    0.000    0.000    0.000 
#    0.000    0.000    0.000    0.000    0.000    0.000 
#
# Total GULP energy -357297.442396 kJ/mol
# GULP energy per Si atom -5582.772537 kJ/mol
# Density = 2.004469 g / cm^3
# Si number density = 20.090415 Si / 1000 Ang^3
#
#
#
# Elastic Constant Matrix: (Units=GPa)
#
#
# Indices 1 2 3 4 5 6 
#
# 1 31.4775 5.7005 -9.1589 0.0000 0.0000 0.0000
# 2 5.7005 66.2008 36.2568 0.0000 0.0000 0.0000
# 3 -9.1589 36.2568 52.7024 0.0000 0.0000 0.0000
# 4 0.0000 0.0000 0.0000 39.8447 0.0000 0.0000
# 5 0.0000 0.0000 0.0000 0.0000 30.3702 0.0000
# 6 0.0000 0.0000 0.0000 0.0000 0.0000 22.6758
#
#
#
# Elastic Compliance Matrix: (Units=1/GPa)
#
#
# Indices 1 2 3 4 5 6 
#
# 1 0.037886 -0.011021 0.014166 0.000000 0.000000 0.000000
# 2 -0.011021 0.027444 -0.020795 0.000000 0.000000 0.000000
# 3 0.014166 -0.020795 0.035742 0.000000 0.000000 0.000000
# 4 0.000000 0.000000 0.000000 0.025097 0.000000 0.000000
# 5 0.000000 0.000000 0.000000 0.000000 0.032927 0.000000
# 6 0.000000 0.000000 0.000000 0.000000 0.000000 0.044100
#
#
# Mechanical properties :
#
#
# Convention : Reuss Voigt Hill
#
# Bulk Modulus (GPa) = 15.20401 23.99752 19.60076
# Shear Modulus (GPa) = 19.19968 26.41695 22.80832
#
# Velocity S-wave (km/s) = 3.09474 3.63009 3.37305
# Velocity P-wave (km/s) = 4.51155 5.43514 4.99474
#
# Compressibility (1/GPa) = 0.06577213
#
# Stress axis : x y z
#
# Youngs Moduli (GPa) = 26.39480 36.43830 27.97795
#
# Poissons Ratio (x) = 0.40157 -0.39633
# Poissons Ratio (y) = 0.29089 0.58181
# Poissons Ratio (z) = -0.37390 0.75774
#
# Static dielectric constant tensor:
#      x y z
#    x 1.743050 0.000000 0.000000 
#    y 0.000000 1.831790 0.000000 
#    z 0.000000 0.000000 1.691900 
# 
# From -- ./inp_files/26193.got.cif
#   From: 2010.05.17/outbox.cif.g08.bks.cpg/sg51_14_cif.got.tgz:26193.got - 2010.06.03 11:52:47.
