data_PCOD9404958
_publ_section_title
;
Structure prediction by ZEFSAII (Michael W. Deem and Ramdas Pophale) SiO2 
 PCOD9404958
Probable space group: P M M A
;
_chemical_formula_sum "Si O2"
_cell_formula_units_Z 58
_cell_length_a 20.194581
_cell_length_b 7.729040
_cell_length_c 17.824971
_cell_angle_alpha 90.000000
_cell_angle_beta 90.000000
_cell_angle_gamma 90.000000
_cell_volume 2782.205685
_symmetry_space_group_name_H-M "P M M A"
_symmetry_group_IT_number 51
_symmetry_cell_setting 'orthorhombic'
loop_
_space_group_symop_operation_xyz
x,y,z
1/2-x,-y,z
1/2+x,-y,-z
-x,y,-z
-x,-y,-z
1/2+x,y,-z
1/2-x,y,z
x,-y,z
loop_
_atom_site_type_symbol
_atom_site_label
_atom_site_fract_x
_atom_site_fract_y
_atom_site_fract_z
Si Si1 0.324571 0.790315 0.377212
Si Si2 0.857328 0.809439 0.339947
Si Si3 0.439814 0.706600 0.949203
Si Si4 0.115511 0.209218 0.220223
Si Si5 0.924463 0.296220 0.491511
Si Si6 0.325232 0.790978 0.061507
Si Si7 0.961911 0.705147 0.218654
Si Si8 0.750000 0.500000 0.324800
O O1 0.250000 0.733812 0.398089
O O2 0.342139 0.735870 0.292389
O O3 0.380787 0.726632 0.433868
O O4 0.325455 0.000000 0.379276
O O5 0.886481 0.793377 0.423590
O O6 0.918330 0.791185 0.282499
O O7 0.807319 0.652838 0.326441
O O8 0.827654 0.000000 0.330455
O O9 0.449485 0.500000 0.943622
O O10 0.442920 0.772584 0.864366
O O11 0.500000 0.777116 0.000000
O O12 0.372266 0.739439 0.993197
O O13 0.144151 0.271004 0.140554
O O14 0.039892 0.265817 0.229218
O O15 0.116976 0.000000 0.218648
O O16 0.928150 0.500000 0.473166
O O17 0.000000 0.232876 0.500000
O O18 0.250000 0.730075 0.052919
O O19 0.324248 0.000000 0.064311
O O20 0.948825 0.500000 0.221704
#
# Coordination Sequence:
#
# PCOD9404958 Si02
#       8
#     8   8   8   8   8   8   8   2
#     4  10  22  38  59  90 126 166 213 265 328 403
#     4  12  26  46  74 100 133 183 228 279 350 411
#     4  10  21  39  62  90 123 167 213 267 330 396
#     4  10  20  36  61  90 125 167 214 266 330 405
#     4  11  24  43  66  96 136 175 221 281 340 395
#     4  10  21  37  58  88 128 168 210 269 331 396
#     4  11  22  41  65  92 130 166 219 283 333 390
#     4  12  26  52  70 102 138 172 230 296 336 412
#
# _framework density 20.846771
#
# number of rings (size 3 to 8) (size 9 to 14) (size 15 to 20)
#    0.000    1.379    2.759    2.276    0.966    7.448 
#    1.241    0.000    0.000    2.483    0.000    0.000 
#    0.000    0.000    0.000    0.000    0.000    0.000 
#
# Total GULP energy -323786.434723 kJ/mol
# GULP energy per Si atom -5582.524737 kJ/mol
# Density = 2.079932 g / cm^3
# Si number density = 20.846771 Si / 1000 Ang^3
#
#
#
# Elastic Constant Matrix: (Units=GPa)
#
#
# Indices 1 2 3 4 5 6 
#
# 1 130.9582 6.5858 15.6260 0.0000 0.0000 0.0000
# 2 6.5858 80.1713 -3.2582 0.0000 0.0000 0.0000
# 3 15.6260 -3.2582 64.3452 0.0000 0.0000 0.0000
# 4 0.0000 0.0000 0.0000 13.6317 0.0000 0.0000
# 5 0.0000 0.0000 0.0000 0.0000 7.7797 0.0000
# 6 0.0000 0.0000 0.0000 0.0000 0.0000 22.6600
#
#
#
# Elastic Compliance Matrix: (Units=1/GPa)
#
#
# Indices 1 2 3 4 5 6 
#
# 1 0.007906 -0.000729 -0.001957 0.000000 0.000000 0.000000
# 2 -0.000729 0.012566 0.000813 0.000000 0.000000 0.000000
# 3 -0.001957 0.000813 0.016058 0.000000 0.000000 0.000000
# 4 0.000000 0.000000 0.000000 0.073359 0.000000 0.000000
# 5 0.000000 0.000000 0.000000 0.000000 0.128540 0.000000
# 6 0.000000 0.000000 0.000000 0.000000 0.000000 0.044131
#
#
# Mechanical properties :
#
#
# Convention : Reuss Voigt Hill
#
# Bulk Modulus (GPa) = 30.50184 34.82019 32.66102
# Shear Modulus (GPa) = 16.82185 25.91568 21.36876
#
# Velocity S-wave (km/s) = 2.84373 3.52966 3.20510
# Velocity P-wave (km/s) = 5.04436 5.77499 5.42200
#
# Compressibility (1/GPa) = 0.03278490
#
# Stress axis : x y z
#
# Youngs Moduli (GPa) = 126.48329 79.57834 62.27586
#
# Poissons Ratio (x) = 0.05801 0.12187
# Poissons Ratio (y) = 0.09221 -0.05065
# Poissons Ratio (z) = 0.24751 -0.06472
#
# Static dielectric constant tensor:
#      x y z
#    x 1.700660 0.000000 0.000000 
#    y 0.000000 1.775140 0.000000 
#    z 0.000000 0.000000 1.723590 
# 
# From -- ./inp_files/30207.got.cif
#   From: 2010.05.17/outbox.cif.g08.bks.cpg/sg51_16_cif.got.tgz:30207.got - 2010.06.03 11:52:47.
