data_PCOD9404383
_publ_section_title
;
Structure prediction by ZEFSAII (Michael W. Deem and Ramdas Pophale) SiO2 
 PCOD9404383
Probable space group: P M M A
;
_chemical_formula_sum "Si O2"
_cell_formula_units_Z 64
_cell_length_a 7.820170
_cell_length_b 19.786060
_cell_length_c 20.079239
_cell_angle_alpha 90.000000
_cell_angle_beta 90.000000
_cell_angle_gamma 90.000000
_cell_volume 3106.867735
_symmetry_space_group_name_H-M "P M M A"
_symmetry_group_IT_number 51
_symmetry_cell_setting 'orthorhombic'
loop_
_space_group_symop_operation_xyz
x,y,z
1/2-x,-y,z
1/2+x,-y,-z
-x,y,-z
-x,-y,-z
1/2+x,y,-z
1/2-x,y,z
x,-y,z
loop_
_atom_site_type_symbol
_atom_site_label
_atom_site_fract_x
_atom_site_fract_y
_atom_site_fract_z
Si Si1 0.546585 0.078467 0.426714
Si Si2 0.456085 0.695297 0.422848
Si Si3 0.044752 0.423535 0.929114
Si Si4 0.945678 0.813827 0.674829
Si Si5 0.456437 0.922817 0.923107
Si Si6 0.454773 0.577090 0.332302
Si Si7 0.948513 0.810290 0.180175
Si Si8 0.042333 0.341767 0.801743
O O1 0.500000 0.104303 0.500000
O O2 0.750000 0.083811 0.417148
O O3 0.452299 0.121894 0.372401
O O4 0.497164 0.000000 0.423710
O O5 0.500000 0.706878 0.500000
O O6 0.250000 0.697559 0.419040
O O7 0.518625 0.752445 0.370400
O O8 0.516272 0.622779 0.394399
O O9 0.250000 0.426405 0.924919
O O10 0.976356 0.500000 0.929159
O O11 0.982781 0.385192 0.864528
O O12 0.000000 0.391363 0.000000
O O13 0.750000 0.796903 0.692268
O O14 0.040922 0.831660 0.742785
O O15 0.250000 0.924754 0.917527
O O16 0.520914 0.866038 0.870954
O O17 0.518332 0.000000 0.909785
O O18 0.500000 0.906470 0.000000
O O19 0.250000 0.572105 0.338336
O O20 0.522421 0.500000 0.328453
O O21 0.489775 0.621055 0.266046
O O22 0.750000 0.802556 0.160590
O O23 0.021572 0.734305 0.185193
O O24 0.250000 0.339592 0.800304
#
# Coordination Sequence:
#
# PCOD9404383 Si02
#       8
#     8   8   8   8   8   8   8   8
#     4  10  21  37  57  82 113 148 187 230 277 333
#     4  10  22  38  56  81 110 143 184 229 281 336
#     4   9  18  32  49  72 103 137 175 219 269 328
#     4  11  22  37  57  82 114 150 189 235 282 335
#     4   9  19  37  59  83 114 151 191 233 278 330
#     4  10  21  38  58  80 109 144 183 230 285 342
#     4  10  21  36  56  82 112 147 187 231 282 334
#     4  10  20  35  55  79 109 144 184 232 280 334
#
# _framework density 20.599526000000001
#
# number of rings (size 3 to 8) (size 9 to 14) (size 15 to 20)
#    0.000    2.125    1.250    1.500    0.000    6.250 
#    0.000    2.500    0.000    0.000    0.000    0.000 
#    0.000    0.000    0.000    0.000    0.000    0.000 
#
# Total GULP energy -357052.526769 kJ/mol
# GULP energy per Si atom -5578.945731 kJ/mol
# Density = 2.055264 g / cm^3
# Si number density = 20.599526 Si / 1000 Ang^3
#
#
#
# Elastic Constant Matrix: (Units=GPa)
#
#
# Indices 1 2 3 4 5 6 
#
# 1 24.7669 9.9524 -2.2525 0.0000 0.0000 0.0000
# 2 9.9524 114.3790 67.9810 0.0000 0.0000 0.0000
# 3 -2.2525 67.9810 126.7095 0.0000 0.0000 0.0000
# 4 0.0000 0.0000 0.0000 40.5539 0.0000 0.0000
# 5 0.0000 0.0000 0.0000 0.0000 28.4937 0.0000
# 6 0.0000 0.0000 0.0000 0.0000 0.0000 13.2576
#
#
#
# Elastic Compliance Matrix: (Units=1/GPa)
#
#
# Indices 1 2 3 4 5 6 
#
# 1 0.043238 -0.006194 0.004092 0.000000 0.000000 0.000000
# 2 -0.006194 0.013723 -0.007473 0.000000 0.000000 0.000000
# 3 0.004092 -0.007473 0.011974 0.000000 0.000000 0.000000
# 4 0.000000 0.000000 0.000000 0.024659 0.000000 0.000000
# 5 0.000000 0.000000 0.000000 0.000000 0.035095 0.000000
# 6 0.000000 0.000000 0.000000 0.000000 0.000000 0.075428
#
#
# Mechanical properties :
#
#
# Convention : Reuss Voigt Hill
#
# Bulk Modulus (GPa) = 20.08644 46.35748 33.22196
# Shear Modulus (GPa) = 20.84526 29.13933 24.99230
#
# Velocity S-wave (km/s) = 3.18453 3.76515 3.48695
# Velocity P-wave (km/s) = 4.82636 6.43854 5.68984
#
# Compressibility (1/GPa) = 0.04978483
#
# Stress axis : x y z
#
# Youngs Moduli (GPa) = 23.12791 72.86878 83.51388
#
# Poissons Ratio (x) = 0.45137 -0.34173
# Poissons Ratio (y) = 0.14326 0.62408
# Poissons Ratio (z) = -0.09464 0.54453
#
# Static dielectric constant tensor:
#      x y z
#    x 1.771270 0.000000 0.000000 
#    y 0.000000 1.763100 0.000000 
#    z 0.000000 0.000000 1.716540 
# 
# From -- ./inp_files/32445.got.cif
#   From: 2010.05.17/outbox.cif.g08.bks.cpg/sg51_17_cif.got.tgz:32445.got - 2010.06.03 11:52:47.
