data_PCOD9404552
_publ_section_title
;
Structure prediction by ZEFSAII (Michael W. Deem and Ramdas Pophale) SiO2 
 PCOD9404552
Probable space group: P M M A
;
_chemical_formula_sum "Si O2"
_cell_formula_units_Z 48
_cell_length_a 18.351520
_cell_length_b 14.200457
_cell_length_c 9.674757
_cell_angle_alpha 90.000000
_cell_angle_beta 90.000000
_cell_angle_gamma 90.000000
_cell_volume 2521.241390
_symmetry_space_group_name_H-M "P M M A"
_symmetry_group_IT_number 51
_symmetry_cell_setting 'orthorhombic'
loop_
_space_group_symop_operation_xyz
x,y,z
1/2-x,-y,z
1/2+x,-y,-z
-x,y,-z
-x,-y,-z
1/2+x,y,-z
1/2-x,y,z
x,-y,z
loop_
_atom_site_type_symbol
_atom_site_label
_atom_site_fract_x
_atom_site_fract_y
_atom_site_fract_z
Si Si1 0.107792 0.719030 0.774042
Si Si2 0.336557 0.111686 0.258036
Si Si3 0.828837 0.612567 0.984115
Si Si4 0.414176 0.891458 0.967642
Si Si5 0.453978 0.387371 0.232724
Si Si6 0.583620 0.748148 0.533811
O O1 0.103414 0.820779 0.844853
O O2 0.122064 0.729301 0.611967
O O3 0.030010 0.665845 0.790100
O O4 0.162413 0.659182 0.867004
O O5 0.250000 0.128362 0.259235
O O6 0.376850 0.175045 0.371511
O O7 0.349233 0.000000 0.283123
O O8 0.369628 0.132592 0.106536
O O9 0.750000 0.638625 0.922864
O O10 0.831450 0.500000 0.997765
O O11 0.896245 0.638644 0.886262
O O12 0.398115 0.000000 0.932048
O O13 0.500000 0.883917 0.000000
O O14 0.463881 0.500000 0.233794
O O15 0.423280 0.347260 0.376670
O O16 0.500000 0.778000 0.500000
#
# Coordination Sequence:
#
# PCOD9404552 Si02
#       6
#     8   8   8   8   8   8
#     4  11  21  34  56  84 111 143 181 227 285 333
#     4  10  22  41  63  85 113 153 196 235 280 340
#     4  10  21  36  55  80 108 142 186 233 281 334
#     4  10  20  35  57  84 112 143 184 232 280 333
#     4  10  21  38  58  80 110 150 193 233 275 333
#     4  10  22  36  56  86 116 150 189 230 282 340
#
# _framework density 19.038240999999999
#
# number of rings (size 3 to 8) (size 9 to 14) (size 15 to 20)
#    0.000    1.833    0.000    5.000    0.000    9.333 
#    0.000    0.000    0.000    4.000    0.000    0.000 
#    0.000    0.000    0.000    0.000    0.000    0.000 
#
# Total GULP energy -268157.518547 kJ/mol
# GULP energy per Si atom -5586.614970 kJ/mol
# Density = 1.899491 g / cm^3
# Si number density = 19.038241 Si / 1000 Ang^3
#
#
#
# Elastic Constant Matrix: (Units=GPa)
#
#
# Indices 1 2 3 4 5 6 
#
# 1 58.6165 32.4635 36.6413 0.0000 0.0000 0.0000
# 2 32.4635 89.4786 46.4725 0.0000 0.0000 0.0000
# 3 36.6413 46.4725 120.9608 0.0000 0.0000 0.0000
# 4 0.0000 0.0000 0.0000 15.0019 0.0000 0.0000
# 5 0.0000 0.0000 0.0000 0.0000 18.3876 0.0000
# 6 0.0000 0.0000 0.0000 0.0000 0.0000 -13.7673
#
#
#
# Elastic Compliance Matrix: (Units=1/GPa)
#
#
# Indices 1 2 3 4 5 6 
#
# 1 0.023366 -0.005998 -0.004774 0.000000 0.000000 0.000000
# 2 -0.005998 0.015502 -0.004139 0.000000 0.000000 0.000000
# 3 -0.004774 -0.004139 0.011303 0.000000 0.000000 0.000000
# 4 0.000000 0.000000 0.000000 0.066658 0.000000 0.000000
# 5 0.000000 0.000000 0.000000 0.000000 0.054384 0.000000
# 6 0.000000 0.000000 0.000000 0.000000 0.000000 -0.072636
#
#
# Mechanical properties :
#
#
# Convention : Reuss Voigt Hill
#
# Bulk Modulus (GPa) = 49.14004 55.57896 52.35950
# Shear Modulus (GPa) = 36.98735 14.15634 25.57185
#
# Velocity S-wave (km/s) = 4.41249 2.72981 3.66892
# Velocity P-wave (km/s) = 7.19912 6.26040 6.74611
#
# Compressibility (1/GPa) = 0.02035001
#
# Stress axis : x y z
#
# Youngs Moduli (GPa) = 42.79742 64.50985 88.47059
#
# Poissons Ratio (x) = 0.38694 0.42232
# Poissons Ratio (y) = 0.25670 0.36615
# Poissons Ratio (z) = 0.20429 0.26698
#
# Static dielectric constant tensor:
#      x y z
#    x 1.676950 0.000000 0.000000 
#    y 0.000000 1.658050 0.000000 
#    z 0.000000 0.000000 1.644380 
# 
# From -- ./inp_files/9602.got.cif
#   From: 2010.05.17/outbox.cif.g08.bks.cpg/sg51_5_cif.got.tgz:9602.got - 2010.06.03 11:52:47.
