data_PCOD9404103
_publ_section_title
;
Structure prediction by ZEFSAII (Michael W. Deem and Ramdas Pophale) SiO2 
 PCOD9404103
Probable space group: P M M A
;
_chemical_formula_sum "Si O2"
_cell_formula_units_Z 64
_cell_length_a 14.478341
_cell_length_b 8.640320
_cell_length_c 27.247185
_cell_angle_alpha 90.000000
_cell_angle_beta 90.000000
_cell_angle_gamma 90.000000
_cell_volume 3408.554707
_symmetry_space_group_name_H-M "P M M A"
_symmetry_group_IT_number 51
_symmetry_cell_setting 'orthorhombic'
loop_
_space_group_symop_operation_xyz
x,y,z
1/2-x,-y,z
1/2+x,-y,-z
-x,y,-z
-x,-y,-z
1/2+x,y,-z
1/2-x,y,z
x,-y,z
loop_
_atom_site_type_symbol
_atom_site_label
_atom_site_fract_x
_atom_site_fract_y
_atom_site_fract_z
Si Si1 0.643833 0.814942 0.861637
Si Si2 0.147647 0.320019 0.874065
Si Si3 0.964843 0.813255 0.576670
Si Si4 0.145103 0.188443 0.521455
Si Si5 0.354054 0.686736 0.333142
Si Si6 0.452025 0.315626 0.234924
Si Si7 0.521379 0.314321 0.944989
Si Si8 0.352440 0.182301 0.767788
O O1 0.750000 0.763339 0.854626
O O2 0.580536 0.752554 0.817137
O O3 0.604426 0.758310 0.913859
O O4 0.640992 0.000000 0.860294
O O5 0.250000 0.308553 0.896074
O O6 0.134943 0.500000 0.857898
O O7 0.144549 0.214142 0.826232
O O8 0.069313 0.283112 0.912556
O O9 0.897021 0.768191 0.531603
O O10 0.925416 0.747266 0.626737
O O11 0.068357 0.763414 0.561362
O O12 0.964577 0.000000 0.579060
O O13 0.250000 0.243295 0.528363
O O14 0.146951 0.000000 0.522357
O O15 0.250000 0.740253 0.344432
O O16 0.354878 0.500000 0.334148
O O17 0.383843 0.734943 0.278480
O O18 0.449063 0.500000 0.230396
O O19 0.555358 0.265604 0.250218
O O20 0.535681 0.500000 0.946957
O O21 0.500000 0.259325 0.000000
O O22 0.250000 0.236761 0.751146
O O23 0.358834 0.000000 0.757926
#
# Coordination Sequence:
#
# PCOD9404103 Si02
#       8
#     8   8   8   8   8   8   8   8
#     4  11  24  40  58  82 112 145 181 225 277 328
#     4   9  17  31  52  77 104 136 173 210 252 307
#     4   9  17  30  52  80 107 141 186 230 270 318
#     4   8  14  27  49  78 111 145 182 225 273 323
#     4  10  22  38  54  76 108 143 179 224 279 330
#     4  11  22  38  60  82 107 144 186 226 271 327
#     4  10  21  36  56  83 112 144 180 218 262 317
#     4  10  20  34  55  83 110 135 167 212 265 317
#
# _framework density 18.776287
#
# number of rings (size 3 to 8) (size 9 to 14) (size 15 to 20)
#    0.000    2.250    1.250    2.625    0.000    4.750 
#    0.000    3.125    0.000    4.875    0.000    0.000 
#    0.000    0.000    0.000    0.000    0.000    0.000 
#
# Total GULP energy -356953.420286 kJ/mol
# GULP energy per Si atom -5577.397192 kJ/mol
# Density = 1.873355 g / cm^3
# Si number density = 18.776287 Si / 1000 Ang^3
#
#
#
# Elastic Constant Matrix: (Units=GPa)
#
#
# Indices 1 2 3 4 5 6 
#
# 1 129.7415 17.3063 33.0586 0.0000 0.0000 0.0000
# 2 17.3063 12.9249 10.9656 0.0000 0.0000 0.0000
# 3 33.0586 10.9656 77.3113 0.0000 0.0000 0.0000
# 4 0.0000 0.0000 0.0000 27.0116 0.0000 0.0000
# 5 0.0000 0.0000 0.0000 0.0000 20.0255 0.0000
# 6 0.0000 0.0000 0.0000 0.0000 0.0000 23.6315
#
#
#
# Elastic Compliance Matrix: (Units=1/GPa)
#
#
# Indices 1 2 3 4 5 6 
#
# 1 0.009842 -0.010922 -0.002659 0.000000 0.000000 0.000000
# 2 -0.010922 0.100075 -0.009524 0.000000 0.000000 0.000000
# 3 -0.002659 -0.009524 0.015423 0.000000 0.000000 0.000000
# 4 0.000000 0.000000 0.000000 0.037021 0.000000 0.000000
# 5 0.000000 0.000000 0.000000 0.000000 0.049936 0.000000
# 6 0.000000 0.000000 0.000000 0.000000 0.000000 0.042316
#
#
# Mechanical properties :
#
#
# Convention : Reuss Voigt Hill
#
# Bulk Modulus (GPa) = 12.63762 38.07095 25.35428
# Shear Modulus (GPa) = 15.28111 24.71021 19.99566
#
# Velocity S-wave (km/s) = 2.85590 3.63165 3.26689
# Velocity P-wave (km/s) = 4.19764 6.15673 5.26903
#
# Compressibility (1/GPa) = 0.07912884
#
# Stress axis : x y z
#
# Youngs Moduli (GPa) = 101.60347 9.99249 64.83942
#
# Poissons Ratio (x) = 0.10914 0.17243
# Poissons Ratio (y) = 1.10975 0.61753
# Poissons Ratio (z) = 0.27020 0.09517
#
# Static dielectric constant tensor:
#      x y z
#    x 1.685810 0.000000 0.000000 
#    y 0.000000 1.644300 0.000000 
#    z 0.000000 0.000000 1.624290 
# 
# From -- ./inp_files/35738.got.cif
#   From: 2010.05.17/outbox.cif.g08.bks.cpg/sg51_18_cif.got.tgz:35738.got - 2010.06.03 11:52:47.
