data_PCOD9404982
_publ_section_title
;
Structure prediction by ZEFSAII (Michael W. Deem and Ramdas Pophale) SiO2 
 PCOD9404982
Probable space group: P M M A
;
_chemical_formula_sum "Si O2"
_cell_formula_units_Z 56
_cell_length_a 17.481471
_cell_length_b 15.018083
_cell_length_c 12.705023
_cell_angle_alpha 90.000000
_cell_angle_beta 90.000000
_cell_angle_gamma 90.000000
_cell_volume 3335.553646
_symmetry_space_group_name_H-M "P M M A"
_symmetry_group_IT_number 51
_symmetry_cell_setting 'orthorhombic'
loop_
_space_group_symop_operation_xyz
x,y,z
1/2-x,-y,z
1/2+x,-y,-z
-x,y,-z
-x,-y,-z
1/2+x,y,-z
1/2-x,y,z
x,-y,z
loop_
_atom_site_type_symbol
_atom_site_label
_atom_site_fract_x
_atom_site_fract_y
_atom_site_fract_z
Si Si1 0.914327 0.895344 0.160809
Si Si2 0.092862 0.103070 0.213875
Si Si3 0.842737 0.402408 0.034763
Si Si4 0.842747 0.598073 0.282139
Si Si5 0.158892 0.211297 0.645249
Si Si6 0.912056 0.896837 0.537730
Si Si7 0.659503 0.210852 0.968596
O O1 0.877768 0.847643 0.262084
O O2 0.005715 0.889073 0.173067
O O3 0.894122 0.000000 0.158294
O O4 0.884248 0.846301 0.056906
O O5 0.093731 0.121882 0.338300
O O6 0.143699 0.167782 0.144059
O O7 0.116635 0.000000 0.198867
O O8 0.750000 0.404735 0.029087
O O9 0.870546 0.500000 0.998847
O O10 0.867426 0.313521 0.975206
O O11 0.862073 0.392093 0.158406
O O12 0.750000 0.596662 0.287577
O O13 0.869587 0.500000 0.317812
O O14 0.868508 0.686455 0.342225
O O15 0.250000 0.210217 0.659172
O O16 0.136405 0.168408 0.534664
O O17 0.000000 0.889908 0.500000
O O18 0.888637 0.000000 0.520370
O O19 0.750000 0.208491 0.993140
#
# Coordination Sequence:
#
# PCOD9404982 Si02
#       7
#     8   8   8   8   8   8   8
#     4  11  21  34  51  75 107 141 173 209 259 314
#     4  10  22  38  54  70 100 149 186 203 246 322
#     4   8  14  27  48  73 102 135 169 207 256 312
#     4   8  14  27  48  76 108 134 161 205 263 320
#     4  11  20  31  54  85 105 126 171 228 269 294
#     4  10  20  37  55  72  99 140 182 214 252 307
#     4  11  21  33  52  80 109 135 170 217 262 305
#
# _framework density 16.788817000000002
#
# number of rings (size 3 to 8) (size 9 to 14) (size 15 to 20)
#    0.000    2.143    2.857    2.571    0.000    4.571 
#    0.000    1.429    0.000    3.857    0.000    4.000 
#    0.000    0.000    0.000    0.000    0.000    0.000 
#
# Total GULP energy -312261.689914 kJ/mol
# GULP energy per Si atom -5576.101606 kJ/mol
# Density = 1.675060 g / cm^3
# Si number density = 16.788817 Si / 1000 Ang^3
#
#
#
# Elastic Constant Matrix: (Units=GPa)
#
#
# Indices 1 2 3 4 5 6 
#
# 1 6.0401 18.3038 -2.5130 0.0000 0.0000 0.0000
# 2 18.3038 146.1447 57.4983 0.0000 0.0000 0.0000
# 3 -2.5130 57.4983 73.9563 0.0000 0.0000 0.0000
# 4 0.0000 0.0000 0.0000 -1.5848 0.0000 0.0000
# 5 0.0000 0.0000 0.0000 0.0000 27.9964 0.0000
# 6 0.0000 0.0000 0.0000 0.0000 0.0000 -59.7632
#
#
#
# Elastic Compliance Matrix: (Units=1/GPa)
#
#
# Indices 1 2 3 4 5 6 
#
# 1 0.523730 -0.104587 0.099109 0.000000 0.000000 0.000000
# 2 -0.104587 0.030744 -0.027456 0.000000 0.000000 0.000000
# 3 0.099109 -0.027456 0.038235 0.000000 0.000000 0.000000
# 4 0.000000 0.000000 0.000000 -0.630997 0.000000 0.000000
# 5 0.000000 0.000000 0.000000 0.000000 0.035719 0.000000
# 6 0.000000 0.000000 0.000000 0.000000 0.000000 -0.016733
#
#
# Mechanical properties :
#
#
# Convention : Reuss Voigt Hill
#
# Bulk Modulus (GPa) = 1.89811 41.41328 21.65570
# Shear Modulus (GPa) = 22.50423 3.51980 13.01201
#
# Velocity S-wave (km/s) = 3.66516 1.44951 2.78698
# Velocity P-wave (km/s) = 4.36397 5.24616 4.82527
#
# Compressibility (1/GPa) = 0.52684069
#
# Stress axis : x y z
#
# Youngs Moduli (GPa) = 1.90938 32.52712 26.15400
#
# Poissons Ratio (x) = 3.40192 -2.59209
# Poissons Ratio (y) = 0.19970 0.71808
# Poissons Ratio (z) = -0.18924 0.89306
#
# Static dielectric constant tensor:
#      x y z
#    x 1.568490 0.000000 0.000000 
#    y 0.000000 1.590860 0.000000 
#    z 0.000000 0.000000 1.546510 
# 
# From -- ./inp_files/16575.got.cif
#   From: 2010.05.17/outbox.cif.g08.bks.cpg/sg51_9_cif.got.tgz:16575.got - 2010.06.03 11:52:47.
