data_PCOD9404618
_publ_section_title
;
Structure prediction by ZEFSAII (Michael W. Deem and Ramdas Pophale) SiO2 
 PCOD9404618
Probable space group: P M M A
;
_chemical_formula_sum "Si O2"
_cell_formula_units_Z 44
_cell_length_a 9.775776
_cell_length_b 7.472629
_cell_length_c 29.234607
_cell_angle_alpha 90.000000
_cell_angle_beta 90.000000
_cell_angle_gamma 90.000000
_cell_volume 2135.609886
_symmetry_space_group_name_H-M "P M M A"
_symmetry_group_IT_number 51
_symmetry_cell_setting 'orthorhombic'
loop_
_space_group_symop_operation_xyz
x,y,z
1/2-x,-y,z
1/2+x,-y,-z
-x,y,-z
-x,-y,-z
1/2+x,y,-z
1/2-x,y,z
x,-y,z
loop_
_atom_site_type_symbol
_atom_site_label
_atom_site_fract_x
_atom_site_fract_y
_atom_site_fract_z
Si Si1 0.507897 0.281607 0.385981
Si Si2 0.579993 0.000000 0.951618
Si Si3 0.588499 0.295909 0.103342
Si Si4 0.592635 0.790907 0.813623
Si Si5 0.250000 0.719151 0.549338
Si Si6 0.907734 0.716032 0.709124
Si Si7 0.250000 0.718208 0.444751
O O1 0.512888 0.500000 0.384090
O O2 0.625633 0.222708 0.419504
O O3 0.498999 0.221842 0.333452
O O4 0.376124 0.227769 0.414177
O O5 0.514905 0.170788 0.925252
O O6 0.750000 0.000000 0.953512
O O7 0.500000 0.000000 0.000000
O O8 0.750000 0.238291 0.103039
O O9 0.585533 0.500000 0.086199
O O10 0.521723 0.293257 0.153975
O O11 0.750000 0.721049 0.819338
O O12 0.556376 0.774942 0.760160
O O13 0.597217 0.000000 0.825629
O O14 0.250000 0.500000 0.547156
O O15 0.250000 0.780606 0.497033
O O16 0.750000 0.770740 0.700518
O O17 0.909693 0.500000 0.709496
O O18 0.250000 0.500000 0.446871
#
# Coordination Sequence:
#
# PCOD9404618 Si02
#       7
#     8   4   8   8   4   8   4
#     4   9  15  24  36  54  83 121 161 211 275 345
#     4  12  26  46  74 106 144 190 234 284 333 378
#     4  11  24  43  68 100 139 182 228 279 336 396
#     4  10  20  35  58  87 117 156 207 262 319 379
#     4   9  16  22  32  54  83 115 155 213 271 340
#     4   9  16  28  46  68  99 139 182 229 289 363
#     4   9  14  22  36  52  77 117 163 203 267 348
#
# _framework density 20.603013000000001
#
# number of rings (size 3 to 8) (size 9 to 14) (size 15 to 20)
#    0.000    2.182    1.818    2.455    0.000    4.727 
#    1.636    0.000    0.000    0.000    0.000    0.000 
#    0.000    4.364    0.000    0.000    0.000    0.000 
#
# Total GULP energy -245297.611755 kJ/mol
# GULP energy per Si atom -5574.945722 kJ/mol
# Density = 2.055612 g / cm^3
# Si number density = 20.603013 Si / 1000 Ang^3
#
#
#
# Elastic Constant Matrix: (Units=GPa)
#
#
# Indices 1 2 3 4 5 6 
#
# 1 144.5150 22.4199 58.6855 0.0000 0.0000 0.0000
# 2 22.4199 79.3655 17.7564 0.0000 0.0000 0.0000
# 3 58.6855 17.7564 139.8796 0.0000 0.0000 0.0000
# 4 0.0000 0.0000 0.0000 23.0715 0.0000 0.0000
# 5 0.0000 0.0000 0.0000 0.0000 64.1888 0.0000
# 6 0.0000 0.0000 0.0000 0.0000 0.0000 5.6666
#
#
#
# Elastic Compliance Matrix: (Units=1/GPa)
#
#
# Indices 1 2 3 4 5 6 
#
# 1 0.008548 -0.001659 -0.003376 0.000000 0.000000 0.000000
# 2 -0.001659 0.013290 -0.000991 0.000000 0.000000 0.000000
# 3 -0.003376 -0.000991 0.008691 0.000000 0.000000 0.000000
# 4 0.000000 0.000000 0.000000 0.043344 0.000000 0.000000
# 5 0.000000 0.000000 0.000000 0.000000 0.015579 0.000000
# 6 0.000000 0.000000 0.000000 0.000000 0.000000 0.176473
#
#
# Mechanical properties :
#
#
# Convention : Reuss Voigt Hill
#
# Bulk Modulus (GPa) = 54.11997 62.38711 58.25354
# Shear Modulus (GPa) = 17.59724 36.24525 26.92125
#
# Velocity S-wave (km/s) = 2.92569 4.19886 3.61870
# Velocity P-wave (km/s) = 6.14312 7.33850 6.76725
#
# Compressibility (1/GPa) = 0.01847747
#
# Stress axis : x y z
#
# Youngs Moduli (GPa) = 116.98760 75.24228 115.06180
#
# Poissons Ratio (x) = 0.12486 0.38840
# Poissons Ratio (y) = 0.19414 0.11401
# Poissons Ratio (z) = 0.39490 0.07456
#
# Static dielectric constant tensor:
#      x y z
#    x 1.678680 0.000000 0.000000 
#    y 0.000000 1.808180 0.000000 
#    z 0.000000 0.000000 1.726970 
# 
# From -- ./inp_files/36857.got.cif
#   From: 2010.05.17/outbox.cif.g08.bks.cpg/sg51_19_cif.got.tgz:36857.got - 2010.06.03 11:52:47.
