data_PCOD9404760
_publ_section_title
;
Structure prediction by ZEFSAII (Michael W. Deem and Ramdas Pophale) SiO2 
 PCOD9404760
Probable space group: P M M A
;
_chemical_formula_sum "Si O2"
_cell_formula_units_Z 48
_cell_length_a 8.645138
_cell_length_b 30.670393
_cell_length_c 9.772461
_cell_angle_alpha 90.000000
_cell_angle_beta 90.000000
_cell_angle_gamma 90.000000
_cell_volume 2591.165884
_symmetry_space_group_name_H-M "P M M A"
_symmetry_group_IT_number 51
_symmetry_cell_setting 'orthorhombic'
loop_
_space_group_symop_operation_xyz
x,y,z
1/2-x,-y,z
1/2+x,-y,-z
-x,y,-z
-x,-y,-z
1/2+x,y,-z
1/2-x,y,z
x,-y,z
loop_
_atom_site_type_symbol
_atom_site_label
_atom_site_fract_x
_atom_site_fract_y
_atom_site_fract_z
Si Si1 0.434129 0.551558 0.649754
Si Si2 0.436770 0.049915 0.349906
Si Si3 0.934387 0.376398 0.847050
Si Si4 0.063746 0.794113 0.350921
Si Si5 0.064954 0.697651 0.650301
Si Si6 0.563507 0.127216 0.847565
O O1 0.500000 0.563099 0.500000
O O2 0.250000 0.559180 0.651264
O O3 0.462147 0.500000 0.670937
O O4 0.513704 0.580598 0.764734
O O5 0.500000 0.061283 0.500000
O O6 0.250000 0.051109 0.355498
O O7 0.488733 0.084666 0.237298
O O8 0.483992 0.000000 0.319122
O O9 0.750000 0.373402 0.850294
O O10 0.003004 0.335880 0.762117
O O11 0.000000 0.376995 0.000000
O O12 0.250000 0.791122 0.357663
O O13 0.019376 0.829888 0.238658
O O14 0.000000 0.807296 0.500000
O O15 0.994843 0.746509 0.320421
O O16 0.250000 0.697086 0.646026
O O17 0.000000 0.685657 0.500000
O O18 0.750000 0.126243 0.852981
O O19 0.500000 0.127890 0.000000
#
# Coordination Sequence:
#
# PCOD9404760 Si02
#       6
#     8   8   8   8   8   8
#     4  10  21  39  63  90 119 153 194 238 283 332
#     4   9  18  34  55  79 106 138 179 225 271 321
#     4  12  25  41  60  85 118 154 192 234 284 339
#     4  10  20  36  57  82 109 140 183 230 276 326
#     4  11  22  39  62  87 114 147 188 232 280 332
#     4  10  22  36  52  77 110 145 180 222 271 327
#
# _framework density 18.524480000000001
#
# number of rings (size 3 to 8) (size 9 to 14) (size 15 to 20)
#    0.000    1.667    0.000    6.000    0.000    4.333 
#    0.000    1.667    0.000    0.000    0.000    0.000 
#    0.000    0.000    0.000    0.000    0.000    0.000 
#
# Total GULP energy -268306.647494 kJ/mol
# GULP energy per Si atom -5589.721823 kJ/mol
# Density = 1.848232 g / cm^3
# Si number density = 18.524480 Si / 1000 Ang^3
#
#
#
# Elastic Constant Matrix: (Units=GPa)
#
#
# Indices 1 2 3 4 5 6 
#
# 1 104.9833 63.7033 72.6326 0.0000 0.0000 0.0000
# 2 63.7033 109.5663 117.5986 0.0000 0.0000 0.0000
# 3 72.6326 117.5986 187.9825 0.0000 0.0000 0.0000
# 4 0.0000 0.0000 0.0000 -28.0291 0.0000 0.0000
# 5 0.0000 0.0000 0.0000 0.0000 38.3501 0.0000
# 6 0.0000 0.0000 0.0000 0.0000 0.0000 20.9394
#
#
#
# Elastic Compliance Matrix: (Units=1/GPa)
#
#
# Indices 1 2 3 4 5 6 
#
# 1 0.014782 -0.007500 -0.001019 0.000000 0.000000 0.000000
# 2 -0.007500 0.031584 -0.016861 0.000000 0.000000 0.000000
# 3 -0.001019 -0.016861 0.016261 0.000000 0.000000 0.000000
# 4 0.000000 0.000000 0.000000 -0.035677 0.000000 0.000000
# 5 0.000000 0.000000 0.000000 0.000000 0.026076 0.000000
# 6 0.000000 0.000000 0.000000 0.000000 0.000000 0.047757
#
#
# Mechanical properties :
#
#
# Convention : Reuss Voigt Hill
#
# Bulk Modulus (GPa) = 84.26868 101.15568 92.71218
# Shear Modulus (GPa) = 32.15463 16.15859 24.15661
#
# Velocity S-wave (km/s) = 4.17080 2.95665 3.61506
# Velocity P-wave (km/s) = 8.29357 8.14744 8.22083
#
# Compressibility (1/GPa) = 0.01186680
#
# Stress axis : x y z
#
# Youngs Moduli (GPa) = 67.65168 31.66122 61.49571
#
# Poissons Ratio (x) = 0.23746 0.06269
# Poissons Ratio (y) = 0.50740 1.03686
# Poissons Ratio (z) = 0.06896 0.53383
#
# Static dielectric constant tensor:
#      x y z
#    x 1.624320 0.000000 0.000000 
#    y 0.000000 1.641350 0.000000 
#    z 0.000000 0.000000 1.594420 
# 
# From -- ./inp_files/6037.got.cif
#   From: 2010.05.17/outbox.cif.g08.bks.cpg/sg51_4_cif.got.tgz:6037.got - 2010.06.03 11:52:47.
