data_PCOD9404853
_publ_section_title
;
Structure prediction by ZEFSAII (Michael W. Deem and Ramdas Pophale) SiO2 
 PCOD9404853
Probable space group: P M M A
;
_chemical_formula_sum "Si O2"
_cell_formula_units_Z 48
_cell_length_a 10.369796
_cell_length_b 8.804689
_cell_length_c 29.776953
_cell_angle_alpha 90.000000
_cell_angle_beta 90.000000
_cell_angle_gamma 90.000000
_cell_volume 2718.720041
_symmetry_space_group_name_H-M "P M M A"
_symmetry_group_IT_number 51
_symmetry_cell_setting 'orthorhombic'
loop_
_space_group_symop_operation_xyz
x,y,z
1/2-x,-y,z
1/2+x,-y,-z
-x,y,-z
-x,-y,-z
1/2+x,y,-z
1/2-x,y,z
x,-y,z
loop_
_atom_site_type_symbol
_atom_site_label
_atom_site_fract_x
_atom_site_fract_y
_atom_site_fract_z
Si Si1 0.750000 0.818703 0.943998
Si Si2 0.398140 0.816731 0.462463
Si Si3 0.596958 0.819678 0.191070
Si Si4 0.750000 0.181385 0.050645
Si Si5 0.003527 0.681082 0.899182
Si Si6 0.898287 0.316888 0.635414
Si Si7 0.899542 0.683173 0.288371
O O1 0.624555 0.747110 0.921444
O O2 0.750000 0.000000 0.937522
O O3 0.750000 0.789882 0.997413
O O4 0.500000 0.766089 0.500000
O O5 0.250000 0.773590 0.473628
O O6 0.428231 0.750855 0.413418
O O7 0.403165 0.000000 0.460105
O O8 0.750000 0.791389 0.183254
O O9 0.519342 0.736743 0.151977
O O10 0.567527 0.757437 0.240596
O O11 0.575834 0.000000 0.188833
O O12 0.624616 0.252557 0.073495
O O13 0.750000 0.000000 0.058183
O O14 0.004220 0.500000 0.901052
O O15 0.750000 0.274135 0.646799
O O16 0.903079 0.500000 0.632513
O O17 0.001163 0.268893 0.672935
O O18 0.750000 0.721746 0.299094
O O19 0.906652 0.500000 0.283958
#
# Coordination Sequence:
#
# PCOD9404853 Si02
#       7
#     4   8   8   4   8   8   8
#     4  11  25  43  61  85 121 155 189 235 286 339
#     4   9  18  32  49  70  99 135 173 214 259 310
#     4  10  20  36  59  83 110 145 187 230 276 333
#     4  11  23  41  65  89 115 155 195 231 282 341
#     4  12  24  39  62  89 118 152 191 237 286 338
#     4   9  18  33  51  73 103 138 172 213 267 323
#     4   9  18  33  53  76 103 134 174 222 269 319
#
# _framework density 17.655366999999998
#
# number of rings (size 3 to 8) (size 9 to 14) (size 15 to 20)
#    0.000    2.000    0.833    3.000    0.000    5.667 
#    1.500    0.000    0.000    0.000    0.000    0.000 
#    0.000    0.000    0.000    0.000    0.000    0.000 
#
# Total GULP energy -268044.891040 kJ/mol
# GULP energy per Si atom -5584.268563 kJ/mol
# Density = 1.761518 g / cm^3
# Si number density = 17.655367 Si / 1000 Ang^3
#
#
#
# Elastic Constant Matrix: (Units=GPa)
#
#
# Indices 1 2 3 4 5 6 
#
# 1 145.5790 55.8591 117.2847 0.0000 0.0000 0.0000
# 2 55.8591 51.3201 67.7116 0.0000 0.0000 0.0000
# 3 117.2847 67.7116 167.5596 0.0000 0.0000 0.0000
# 4 0.0000 0.0000 0.0000 36.0641 0.0000 0.0000
# 5 0.0000 0.0000 0.0000 0.0000 29.7664 0.0000
# 6 0.0000 0.0000 0.0000 0.0000 0.0000 22.8632
#
#
#
# Elastic Compliance Matrix: (Units=1/GPa)
#
#
# Indices 1 2 3 4 5 6 
#
# 1 0.016530 -0.005840 -0.009211 0.000000 0.000000 0.000000
# 2 -0.005840 0.043804 -0.013614 0.000000 0.000000 0.000000
# 3 -0.009211 -0.013614 0.017916 0.000000 0.000000 0.000000
# 4 0.000000 0.000000 0.000000 0.027728 0.000000 0.000000
# 5 0.000000 0.000000 0.000000 0.000000 0.033595 0.000000
# 6 0.000000 0.000000 0.000000 0.000000 0.000000 0.043738
#
#
# Mechanical properties :
#
#
# Convention : Reuss Voigt Hill
#
# Bulk Modulus (GPa) = 47.79606 94.01885 70.90745
# Shear Modulus (GPa) = 20.19264 25.97895 23.08580
#
# Velocity S-wave (km/s) = 3.38555 3.84011 3.61997
# Velocity P-wave (km/s) = 6.51253 8.54575 7.59746
#
# Compressibility (1/GPa) = 0.02092223
#
# Stress axis : x y z
#
# Youngs Moduli (GPa) = 60.49446 22.82908 55.81467
#
# Poissons Ratio (x) = 0.13332 0.51409
# Poissons Ratio (y) = 0.35328 0.75984
# Poissons Ratio (z) = 0.55719 0.31079
#
# Static dielectric constant tensor:
#      x y z
#    x 1.588110 0.000000 0.000000 
#    y 0.000000 1.587320 0.000000 
#    z 0.000000 0.000000 1.572270 
# 
# From -- ./inp_files/37161.got.cif
#   From: 2010.05.17/outbox.cif.g08.bks.cpg/sg51_19_cif.got.tgz:37161.got - 2010.06.03 11:52:47.
