data_PCOD9404783
_publ_section_title
;
Structure prediction by ZEFSAII (Michael W. Deem and Ramdas Pophale) SiO2 
 PCOD9404783
Probable space group: P M M A
;
_chemical_formula_sum "Si O2"
_cell_formula_units_Z 48
_cell_length_a 8.958369
_cell_length_b 16.963804
_cell_length_c 16.271373
_cell_angle_alpha 90.000000
_cell_angle_beta 90.000000
_cell_angle_gamma 90.000000
_cell_volume 2472.728270
_symmetry_space_group_name_H-M "P M M A"
_symmetry_group_IT_number 51
_symmetry_cell_setting 'orthorhombic'
loop_
_space_group_symop_operation_xyz
x,y,z
1/2-x,-y,z
1/2+x,-y,-z
-x,y,-z
-x,-y,-z
1/2+x,y,-z
1/2-x,y,z
x,-y,z
loop_
_atom_site_type_symbol
_atom_site_label
_atom_site_fract_x
_atom_site_fract_y
_atom_site_fract_z
Si Si1 0.572005 0.827558 0.585721
Si Si2 0.926900 0.906068 0.756918
Si Si3 0.427585 0.176121 0.914508
Si Si4 0.571741 0.500000 0.909959
Si Si5 0.571382 0.333865 0.668721
Si Si6 0.927164 0.342618 0.158686
Si Si7 0.570815 0.500000 0.589313
O O1 0.500000 0.852592 0.500000
O O2 0.750000 0.838343 0.579459
O O3 0.521469 0.872500 0.668509
O O4 0.541839 0.735082 0.603410
O O5 0.750000 0.886920 0.763671
O O6 0.008597 0.868281 0.834847
O O7 0.944017 0.000000 0.757856
O O8 0.250000 0.165903 0.917836
O O9 0.459371 0.269230 0.900982
O O10 0.500000 0.149390 0.000000
O O11 0.750000 0.500000 0.914260
O O12 0.514476 0.578541 0.865149
O O13 0.500000 0.500000 0.000000
O O14 0.750000 0.333090 0.685765
O O15 0.481799 0.317097 0.751383
O O16 0.528726 0.420149 0.636397
O O17 0.750000 0.357677 0.157720
O O18 0.750000 0.500000 0.581943
O O19 0.500000 0.500000 0.500000
#
# Coordination Sequence:
#
# PCOD9404783 Si02
#       7
#     8   8   8   4   8   8   4
#     4  10  21  37  60  89 123 163 207 255 310 369
#     4  10  22  42  66  91 123 163 206 255 313 376
#     4  11  24  41  65  95 126 163 205 253 310 372
#     4  12  25  40  59  85 121 163 207 255 304 357
#     4  10  20  36  57  83 117 160 204 251 306 366
#     4  11  23  39  61  90 121 159 207 254 306 364
#     4  10  21  34  51  79 113 153 201 245 300 357
#
# _framework density 19.411757000000001
#
# number of rings (size 3 to 8) (size 9 to 14) (size 15 to 20)
#    0.000    1.500    1.667    3.250    0.000    7.000 
#    0.000    0.000    0.000    0.000    0.000    0.000 
#    0.000    0.000    0.000    0.000    0.000    0.000 
#
# Total GULP energy -268265.896390 kJ/mol
# GULP energy per Si atom -5588.872841 kJ/mol
# Density = 1.936757 g / cm^3
# Si number density = 19.411757 Si / 1000 Ang^3
#
#
#
# Elastic Constant Matrix: (Units=GPa)
#
#
# Indices 1 2 3 4 5 6 
#
# 1 48.9865 43.1927 56.1744 0.0000 0.0000 0.0000
# 2 43.1927 73.1156 47.8682 0.0000 0.0000 0.0000
# 3 56.1744 47.8682 167.3175 0.0000 0.0000 0.0000
# 4 0.0000 0.0000 0.0000 11.0370 0.0000 0.0000
# 5 0.0000 0.0000 0.0000 0.0000 40.4125 0.0000
# 6 0.0000 0.0000 0.0000 0.0000 0.0000 21.3278
#
#
#
# Elastic Compliance Matrix: (Units=1/GPa)
#
#
# Indices 1 2 3 4 5 6 
#
# 1 0.056346 -0.025718 -0.011560 0.000000 0.000000 0.000000
# 2 -0.025718 0.028568 0.000462 0.000000 0.000000 0.000000
# 3 -0.011560 0.000462 0.009726 0.000000 0.000000 0.000000
# 4 0.000000 0.000000 0.000000 0.090605 0.000000 0.000000
# 5 0.000000 0.000000 0.000000 0.000000 0.024745 0.000000
# 6 0.000000 0.000000 0.000000 0.000000 0.000000 0.046887
#
#
# Mechanical properties :
#
#
# Convention : Reuss Voigt Hill
#
# Bulk Modulus (GPa) = 47.60362 64.87668 56.24015
# Shear Modulus (GPa) = 14.81436 24.03441 19.42438
#
# Velocity S-wave (km/s) = 2.76554 3.52253 3.16674
# Velocity P-wave (km/s) = 5.89694 7.07377 6.51199
#
# Compressibility (1/GPa) = 0.02100681
#
# Stress axis : x y z
#
# Youngs Moduli (GPa) = 17.74752 35.00464 102.82157
#
# Poissons Ratio (x) = 0.90025 1.18857
# Poissons Ratio (y) = 0.45643 -0.04745
# Poissons Ratio (z) = 0.20515 -0.01615
#
# Static dielectric constant tensor:
#      x y z
#    x 1.650470 0.000000 0.000000 
#    y 0.000000 1.725520 0.000000 
#    z 0.000000 0.000000 1.661970 
# 
# From -- ./inp_files/21209.got.cif
#   From: 2010.05.17/outbox.cif.g08.bks.cpg/sg51_11_cif.got.tgz:21209.got - 2010.06.03 11:52:47.
