data_PCOD9404948
_publ_section_title
;
Structure prediction by ZEFSAII (Michael W. Deem and Ramdas Pophale) SiO2 
 PCOD9404948
Probable space group: P M M A
;
_chemical_formula_sum "Si O2"
_cell_formula_units_Z 64
_cell_length_a 30.138735
_cell_length_b 16.976339
_cell_length_c 6.752571
_cell_angle_alpha 90.000000
_cell_angle_beta 90.000000
_cell_angle_gamma 90.000000
_cell_volume 3454.921771
_symmetry_space_group_name_H-M "P M M A"
_symmetry_group_IT_number 51
_symmetry_cell_setting 'orthorhombic'
loop_
_space_group_symop_operation_xyz
x,y,z
1/2-x,-y,z
1/2+x,-y,-z
-x,y,-z
-x,-y,-z
1/2+x,y,-z
1/2-x,y,z
x,-y,z
loop_
_atom_site_type_symbol
_atom_site_label
_atom_site_fract_x
_atom_site_fract_y
_atom_site_fract_z
Si Si1 0.398991 0.693376 0.803980
Si Si2 0.881639 0.909411 0.723292
Si Si3 0.701526 0.708856 0.735213
Si Si4 0.124008 0.590418 0.156268
Si Si5 0.454675 0.348517 0.417033
Si Si6 0.043666 0.207274 0.116799
Si Si7 0.200686 0.863516 0.011173
Si Si8 0.831779 0.185960 0.388373
O O1 0.425855 0.670137 0.610019
O O2 0.360941 0.751704 0.732147
O O3 0.381820 0.619325 0.930215
O O4 0.429161 0.741642 0.957314
O O5 0.923447 0.860021 0.804071
O O6 0.863274 0.867832 0.525050
O O7 0.893077 0.000000 0.690132
O O8 0.840607 0.903705 0.878741
O O9 0.750000 0.670252 0.741294
O O10 0.660699 0.648983 0.750228
O O11 0.697202 0.762759 0.539980
O O12 0.698905 0.772831 0.911747
O O13 0.137441 0.500000 0.169189
O O14 0.077276 0.602926 0.270484
O O15 0.500000 0.385552 0.500000
O O16 0.466669 0.268269 0.295971
O O17 0.000000 0.178994 0.000000
O O18 0.250000 0.893462 0.064844
O O19 0.194228 0.863609 0.775593
#
# Coordination Sequence:
#
# PCOD9404948 Si02
#       8
#     8   8   8   8   8   8   8   8
#     4  11  19  38  63  86 110 153 201 240 281 343
#     4  11  24  38  55  88 128 154 186 244 303 351
#     4  10  20  36  61  89 114 149 201 248 283 338
#     4  11  24  38  56  89 126 156 189 238 303 360
#     4  11  21  38  65  89 113 151 198 248 288 340
#     4  11  21  36  64  90 112 151 204 241 282 351
#     4  10  20  37  62  86 111 151 200 245 288 342
#     4  11  18  38  64  86 111 153 209 242 280 341
#
# _framework density 18.524298000000002
#
# number of rings (size 3 to 8) (size 9 to 14) (size 15 to 20)
#    0.000    1.250    6.250    1.875    0.000    2.500 
#    0.000    0.625    0.000    1.125    0.000    0.000 
#    0.000    0.000    0.000    0.000    0.000    0.000 
#
# Total GULP energy -357113.194811 kJ/mol
# GULP energy per Si atom -5579.893669 kJ/mol
# Density = 1.848214 g / cm^3
# Si number density = 18.524298 Si / 1000 Ang^3
#
#
#
# Elastic Constant Matrix: (Units=GPa)
#
#
# Indices 1 2 3 4 5 6 
#
# 1 78.1188 14.5845 16.2401 0.0000 0.0000 0.0000
# 2 14.5845 71.3029 15.4152 0.0000 0.0000 0.0000
# 3 16.2401 15.4152 105.1124 0.0000 0.0000 0.0000
# 4 0.0000 0.0000 0.0000 8.1351 0.0000 0.0000
# 5 0.0000 0.0000 0.0000 0.0000 17.3836 0.0000
# 6 0.0000 0.0000 0.0000 0.0000 0.0000 -2.1683
#
#
#
# Elastic Compliance Matrix: (Units=1/GPa)
#
#
# Indices 1 2 3 4 5 6 
#
# 1 0.013614 -0.002406 -0.001751 0.000000 0.000000 0.000000
# 2 -0.002406 0.014909 -0.001815 0.000000 0.000000 0.000000
# 3 -0.001751 -0.001815 0.010050 0.000000 0.000000 0.000000
# 4 0.000000 0.000000 0.000000 0.122925 0.000000 0.000000
# 5 0.000000 0.000000 0.000000 0.000000 0.057526 0.000000
# 6 0.000000 0.000000 0.000000 0.000000 0.000000 -0.461197
#
#
# Mechanical properties :
#
#
# Convention : Reuss Voigt Hill
#
# Bulk Modulus (GPa) = 37.55083 38.55710 38.05396
# Shear Modulus (GPa) = -22.58829 18.55636 -2.01597
#
# Velocity S-wave (km/s) = -3.49576 3.16845 -1.04434
# Velocity P-wave (km/s) = 2.00533 5.85192 4.37414
#
# Compressibility (1/GPa) = 0.02663057
#
# Stress axis : x y z
#
# Youngs Moduli (GPa) = 73.45289 67.07273 99.50024
#
# Poissons Ratio (x) = 0.16139 0.17418
# Poissons Ratio (y) = 0.17674 0.18057
# Poissons Ratio (z) = 0.12858 0.12172
#
# Static dielectric constant tensor:
#      x y z
#    x 1.678260 0.000000 0.000000 
#    y 0.000000 1.618600 0.000000 
#    z 0.000000 0.000000 1.657010 
# 
# From -- ./inp_files/4105.got.cif
#   From: 2010.05.17/outbox.cif.g08.bks.cpg/sg51_3_cif.got.tgz:4105.got - 2010.06.03 11:52:47.
