data_PCOD9404470
_publ_section_title
;
Structure prediction by ZEFSAII (Michael W. Deem and Ramdas Pophale) SiO2 
 PCOD9404470
Probable space group: P M M A
;
_chemical_formula_sum "Si O2"
_cell_formula_units_Z 48
_cell_length_a 18.260205
_cell_length_b 7.617995
_cell_length_c 15.934731
_cell_angle_alpha 90.000000
_cell_angle_beta 90.000000
_cell_angle_gamma 90.000000
_cell_volume 2216.619087
_symmetry_space_group_name_H-M "P M M A"
_symmetry_group_IT_number 51
_symmetry_cell_setting 'orthorhombic'
loop_
_space_group_symop_operation_xyz
x,y,z
1/2-x,-y,z
1/2+x,-y,-z
-x,y,-z
-x,-y,-z
1/2+x,y,-z
1/2-x,y,z
x,-y,z
loop_
_atom_site_type_symbol
_atom_site_label
_atom_site_fract_x
_atom_site_fract_y
_atom_site_fract_z
Si Si1 0.068758 0.294225 0.832805
Si Si2 0.334050 0.213018 0.993558
Si Si3 0.165702 0.715211 0.675734
Si Si4 0.098789 0.203771 0.167207
Si Si5 0.918574 0.292938 0.489252
Si Si6 0.334658 0.212695 0.340766
O O1 0.055964 0.500000 0.818383
O O2 0.117405 0.227395 0.755133
O O3 0.988685 0.211559 0.838433
O O4 0.114305 0.271179 0.917857
O O5 0.250000 0.268603 0.981215
O O6 0.364939 0.278225 0.082902
O O7 0.335497 0.000000 0.993853
O O8 0.250000 0.772501 0.681388
O O9 0.167089 0.500000 0.676413
O O10 0.127454 0.776083 0.589743
O O11 0.126521 0.277964 0.255704
O O12 0.121803 0.000000 0.168490
O O13 0.927440 0.500000 0.471546
O O14 0.875245 0.273242 0.575671
O O15 0.000000 0.216907 0.500000
O O16 0.250000 0.266480 0.341231
O O17 0.337289 0.000000 0.341796
#
# Coordination Sequence:
#
# PCOD9404470 Si02
#       6
#     8   8   8   8   8   8
#     4  11  22  36  56  82 111 142 180 228 276 319
#     4  10  21  38  59  81 107 143 184 221 263 323
#     4   9  18  33  52  74 104 143 180 214 262 324
#     4  10  21  38  58  79 108 146 183 220 269 329
#     4  10  20  35  56  81 109 143 183 224 269 327
#     4  10  21  37  57  82 111 143 182 229 277 321
#
# _framework density 21.654602000000001
#
# number of rings (size 3 to 8) (size 9 to 14) (size 15 to 20)
#    0.000    2.000    0.000    3.500    0.000    9.000 
#    0.000    1.667    0.000    7.000    0.000    0.000 
#    0.000    0.000    0.000    0.000    0.000    0.000 
#
# Total GULP energy -268329.625120 kJ/mol
# GULP energy per Si atom -5590.200523 kJ/mol
# Density = 2.160531 g / cm^3
# Si number density = 21.654602 Si / 1000 Ang^3
#
#
#
# Elastic Constant Matrix: (Units=GPa)
#
#
# Indices 1 2 3 4 5 6 
#
# 1 92.9510 -21.9450 17.3468 0.0000 0.0000 0.0000
# 2 -21.9450 39.7609 -21.4200 0.0000 0.0000 0.0000
# 3 17.3468 -21.4200 122.9770 0.0000 0.0000 0.0000
# 4 0.0000 0.0000 0.0000 21.7799 0.0000 0.0000
# 5 0.0000 0.0000 0.0000 0.0000 48.0700 0.0000
# 6 0.0000 0.0000 0.0000 0.0000 0.0000 31.5374
#
#
#
# Elastic Compliance Matrix: (Units=1/GPa)
#
#
# Indices 1 2 3 4 5 6 
#
# 1 0.012412 0.006519 -0.000615 0.000000 0.000000 0.000000
# 2 0.006519 0.031179 0.004511 0.000000 0.000000 0.000000
# 3 -0.000615 0.004511 0.009004 0.000000 0.000000 0.000000
# 4 0.000000 0.000000 0.000000 0.045914 0.000000 0.000000
# 5 0.000000 0.000000 0.000000 0.000000 0.020803 0.000000
# 6 0.000000 0.000000 0.000000 0.000000 0.000000 0.031708
#
#
# Mechanical properties :
#
#
# Convention : Reuss Voigt Hill
#
# Bulk Modulus (GPa) = 13.61933 22.62802 18.12367
# Shear Modulus (GPa) = 32.32783 39.05794 35.69288
#
# Velocity S-wave (km/s) = 3.86798 4.25158 4.06431
# Velocity P-wave (km/s) = 5.12361 5.87992 5.51474
#
# Compressibility (1/GPa) = 0.07342507
#
# Stress axis : x y z
#
# Youngs Moduli (GPa) = 80.56508 32.07318 111.06000
#
# Poissons Ratio (x) = -0.20909 0.06834
# Poissons Ratio (y) = -0.52522 -0.50100
# Poissons Ratio (z) = 0.04957 -0.14469
#
# Static dielectric constant tensor:
#      x y z
#    x 1.733060 0.000000 0.000000 
#    y 0.000000 1.820740 0.000000 
#    z 0.000000 0.000000 1.747750 
# 
# From -- ./inp_files/24784.got.cif
#   From: 2010.05.17/outbox.cif.g08.bks.cpg/sg51_13_cif.got.tgz:24784.got - 2010.06.03 11:52:47.
