data_PCOD9404829
_publ_section_title
;
Structure prediction by ZEFSAII (Michael W. Deem and Ramdas Pophale) SiO2 
 PCOD9404829
Probable space group: P M M A
;
_chemical_formula_sum "Si O2"
_cell_formula_units_Z 64
_cell_length_a 18.269280
_cell_length_b 9.608869
_cell_length_c 20.264595
_cell_angle_alpha 90.000000
_cell_angle_beta 90.000000
_cell_angle_gamma 90.000000
_cell_volume 3557.391255
_symmetry_space_group_name_H-M "P M M A"
_symmetry_group_IT_number 51
_symmetry_cell_setting 'orthorhombic'
loop_
_space_group_symop_operation_xyz
x,y,z
1/2-x,-y,z
1/2+x,-y,-z
-x,y,-z
-x,-y,-z
1/2+x,y,-z
1/2-x,y,z
x,-y,z
loop_
_atom_site_type_symbol
_atom_site_label
_atom_site_fract_x
_atom_site_fract_y
_atom_site_fract_z
Si Si1 0.164047 0.158762 0.793353
Si Si2 0.403899 0.667908 0.282908
Si Si3 0.080028 0.841167 0.532530
Si Si4 0.837089 0.660231 0.573656
Si Si5 0.663529 0.834746 0.838678
Si Si6 0.583389 0.164561 0.975790
Si Si7 0.161938 0.341814 0.915741
Si Si8 0.453265 0.835874 0.680722
O O1 0.250000 0.181577 0.780100
O O2 0.138003 0.264328 0.849195
O O3 0.116362 0.171725 0.728208
O O4 0.155969 0.000000 0.818489
O O5 0.407736 0.500000 0.274621
O O6 0.365724 0.698211 0.353492
O O7 0.360292 0.740140 0.223020
O O8 0.482821 0.741070 0.289600
O O9 0.130174 0.752303 0.484500
O O10 0.069111 0.790029 0.607226
O O11 0.000000 0.842486 0.500000
O O12 0.107499 0.000000 0.536060
O O13 0.750000 0.669468 0.573788
O O14 0.859081 0.500000 0.562270
O O15 0.750000 0.811158 0.855395
O O16 0.608924 0.806781 0.900505
O O17 0.656365 0.000000 0.822625
O O18 0.596335 0.000000 0.986109
O O19 0.500000 0.191983 0.000000
O O20 0.634073 0.255585 0.022573
O O21 0.250000 0.341792 0.915452
O O22 0.135695 0.500000 0.917855
O O23 0.476455 0.000000 0.677052
#
# Coordination Sequence:
#
# PCOD9404829 Si02
#       8
#     8   8   8   8   8   8   8   8
#     4   9  19  36  58  82 110 149 192 233 280 338
#     4  11  23  38  59  86 118 156 195 238 289 345
#     4  10  20  36  58  85 114 147 189 238 289 338
#     4  10  22  39  58  83 116 154 196 238 284 345
#     4  10  22  40  61  85 116 154 196 242 290 342
#     4  10  22  39  60  87 117 151 191 235 284 340
#     4  10  21  37  58  84 115 149 185 229 279 332
#     4  10  21  37  59  85 117 151 191 239 288 346
#
# _framework density 17.99071
#
# number of rings (size 3 to 8) (size 9 to 14) (size 15 to 20)
#    0.000    2.000    1.250    1.500    1.750    5.250 
#    0.000    1.250    0.000    1.500    0.000    0.000 
#    0.000    0.000    0.000    0.000    0.000    0.000 
#
# Total GULP energy -357077.951336 kJ/mol
# GULP energy per Si atom -5579.342990 kJ/mol
# Density = 1.794976 g / cm^3
# Si number density = 17.990710 Si / 1000 Ang^3
#
#
#
# Elastic Constant Matrix: (Units=GPa)
#
#
# Indices 1 2 3 4 5 6 
#
# 1 49.2719 38.7800 38.4649 0.0000 0.0000 0.0000
# 2 38.7800 49.4605 53.7832 0.0000 0.0000 0.0000
# 3 38.4649 53.7832 105.9874 0.0000 0.0000 0.0000
# 4 0.0000 0.0000 0.0000 -53.9712 0.0000 0.0000
# 5 0.0000 0.0000 0.0000 0.0000 33.5784 0.0000
# 6 0.0000 0.0000 0.0000 0.0000 0.0000 18.5850
#
#
#
# Elastic Compliance Matrix: (Units=1/GPa)
#
#
# Indices 1 2 3 4 5 6 
#
# 1 0.053830 -0.046770 0.004198 0.000000 0.000000 0.000000
# 2 -0.046770 0.085746 -0.026538 0.000000 0.000000 0.000000
# 3 0.004198 -0.026538 0.021378 0.000000 0.000000 0.000000
# 4 0.000000 0.000000 0.000000 -0.018528 0.000000 0.000000
# 5 0.000000 0.000000 0.000000 0.000000 0.029781 0.000000
# 6 0.000000 0.000000 0.000000 0.000000 0.000000 0.053807
#
#
# Mechanical properties :
#
#
# Convention : Reuss Voigt Hill
#
# Bulk Modulus (GPa) = 43.98876 51.86399 47.92638
# Shear Modulus (GPa) = 13.44766 4.55123 8.99944
#
# Velocity S-wave (km/s) = 2.73697 1.59225 2.23900
# Velocity P-wave (km/s) = 5.87298 5.68077 5.77767
#
# Compressibility (1/GPa) = 0.02273308
#
# Stress axis : x y z
#
# Youngs Moduli (GPa) = 18.57716 11.66234 46.77638
#
# Poissons Ratio (x) = 0.54545 -0.19635
# Poissons Ratio (y) = 0.86886 1.24135
# Poissons Ratio (z) = -0.07798 0.30949
#
# Static dielectric constant tensor:
#      x y z
#    x 1.608720 0.000000 0.000000 
#    y 0.000000 1.615040 0.000000 
#    z 0.000000 0.000000 1.607590 
# 
# From -- ./inp_files/33829.got.cif
#   From: 2010.05.17/outbox.cif.g08.bks.cpg/sg51_17_cif.got.tgz:33829.got - 2010.06.03 11:52:47.
