data_PCOD9404942
_publ_section_title
;
Structure prediction by ZEFSAII (Michael W. Deem and Ramdas Pophale) SiO2 
 PCOD9404942
Probable space group: P M M A
;
_chemical_formula_sum "Si O2"
_cell_formula_units_Z 48
_cell_length_a 15.402502
_cell_length_b 8.901271
_cell_length_c 19.314642
_cell_angle_alpha 90.000000
_cell_angle_beta 90.000000
_cell_angle_gamma 90.000000
_cell_volume 2648.073042
_symmetry_space_group_name_H-M "P M M A"
_symmetry_group_IT_number 51
_symmetry_cell_setting 'orthorhombic'
loop_
_space_group_symop_operation_xyz
x,y,z
1/2-x,-y,z
1/2+x,-y,-z
-x,y,-z
-x,-y,-z
1/2+x,y,-z
1/2-x,y,z
x,-y,z
loop_
_atom_site_type_symbol
_atom_site_label
_atom_site_fract_x
_atom_site_fract_y
_atom_site_fract_z
Si Si1 0.610919 0.334558 0.806263
Si Si2 0.148645 0.179202 0.810619
Si Si3 0.041446 0.669672 0.694185
Si Si4 0.019250 0.321623 0.922748
Si Si5 0.438963 0.821305 0.433160
Si Si6 0.250000 0.832500 0.270228
Si Si7 0.250000 0.678209 0.415064
O O1 0.653147 0.500000 0.804970
O O2 0.531542 0.342784 0.753181
O O3 0.570439 0.307504 0.880694
O O4 0.669272 0.202267 0.778188
O O5 0.250000 0.214032 0.820810
O O6 0.116890 0.245686 0.736513
O O7 0.091807 0.243875 0.874541
O O8 0.136800 0.000000 0.808546
O O9 0.067340 0.500000 0.673467
O O10 0.993489 0.752783 0.631016
O O11 0.040649 0.500000 0.926223
O O12 0.000000 0.265447 0.000000
O O13 0.500000 0.797738 0.500000
O O14 0.342434 0.748231 0.440254
O O15 0.427255 0.000000 0.422680
O O16 0.250000 0.715787 0.333168
O O17 0.250000 0.000000 0.298689
O O18 0.250000 0.500000 0.427081
#
# Coordination Sequence:
#
# PCOD9404942 Si02
#       7
#     8   8   8   8   8   4   4
#     4   9  18  33  54  80 110 142 181 233 285 337
#     4  10  21  37  58  84 116 155 196 243 296 353
#     4  10  20  36  61  87 113 148 192 241 288 343
#     4   9  19  37  59  82 110 148 193 241 295 350
#     4  11  24  42  64  91 124 161 198 245 304 363
#     4  12  22  32  54  84 114 147 188 235 286 340
#     4  12  24  40  64  90 120 159 202 247 296 358
#
# _framework density 18.126387999999999
#
# number of rings (size 3 to 8) (size 9 to 14) (size 15 to 20)
#    0.000    1.833    1.667    4.000    0.000    5.667 
#    3.000    0.000    0.000    0.000    0.000    0.000 
#    0.000    0.000    0.000    0.000    0.000    0.000 
#
# Total GULP energy -267475.045699 kJ/mol
# GULP energy per Si atom -5572.396785 kJ/mol
# Density = 1.808513 g / cm^3
# Si number density = 18.126388 Si / 1000 Ang^3
#
#
#
# Elastic Constant Matrix: (Units=GPa)
#
#
# Indices 1 2 3 4 5 6 
#
# 1 108.7523 57.7923 44.2009 0.0000 0.0000 0.0000
# 2 57.7923 94.6052 42.9774 0.0000 0.0000 0.0000
# 3 44.2009 42.9774 111.9999 0.0000 0.0000 0.0000
# 4 0.0000 0.0000 0.0000 14.8945 0.0000 0.0000
# 5 0.0000 0.0000 0.0000 0.0000 12.0558 0.0000
# 6 0.0000 0.0000 0.0000 0.0000 0.0000 69.4320
#
#
#
# Elastic Compliance Matrix: (Units=1/GPa)
#
#
# Indices 1 2 3 4 5 6 
#
# 1 0.014293 -0.007471 -0.002774 0.000000 0.000000 0.000000
# 2 -0.007471 0.016707 -0.003463 0.000000 0.000000 0.000000
# 3 -0.002774 -0.003463 0.011352 0.000000 0.000000 0.000000
# 4 0.000000 0.000000 0.000000 0.067139 0.000000 0.000000
# 5 0.000000 0.000000 0.000000 0.000000 0.082948 0.000000
# 6 0.000000 0.000000 0.000000 0.000000 0.000000 0.014403
#
#
# Mechanical properties :
#
#
# Convention : Reuss Voigt Hill
#
# Bulk Modulus (GPa) = 66.94761 67.25539 67.10150
# Shear Modulus (GPa) = 20.89996 30.63557 25.76777
#
# Velocity S-wave (km/s) = 3.39929 4.11555 3.77445
# Velocity P-wave (km/s) = 7.24022 7.73097 7.48962
#
# Compressibility (1/GPa) = 0.01493705
#
# Stress axis : x y z
#
# Youngs Moduli (GPa) = 69.96518 59.85468 88.09079
#
# Poissons Ratio (x) = 0.44718 0.24435
# Poissons Ratio (y) = 0.52272 0.30501
# Poissons Ratio (z) = 0.19407 0.20725
#
# Static dielectric constant tensor:
#      x y z
#    x 1.630270 0.000000 0.000000 
#    y 0.000000 1.647610 0.000000 
#    z 0.000000 0.000000 1.613910 
# 
# From -- ./inp_files/29615.got.cif
#   From: 2010.05.17/outbox.cif.g08.bks.cpg/sg51_15_cif.got.tgz:29615.got - 2010.06.03 11:52:47.
