data_PCOD9404633
_publ_section_title
;
Structure prediction by ZEFSAII (Michael W. Deem and Ramdas Pophale) SiO2 
 PCOD9404633
Probable space group: P M M A
;
_chemical_formula_sum "Si O2"
_cell_formula_units_Z 40
_cell_length_a 8.807510
_cell_length_b 14.585266
_cell_length_c 15.919291
_cell_angle_alpha 90.000000
_cell_angle_beta 90.000000
_cell_angle_gamma 90.000000
_cell_volume 2044.990150
_symmetry_space_group_name_H-M "P M M A"
_symmetry_group_IT_number 51
_symmetry_cell_setting 'orthorhombic'
loop_
_space_group_symop_operation_xyz
x,y,z
1/2-x,-y,z
1/2+x,-y,-z
-x,y,-z
-x,-y,-z
1/2+x,y,-z
1/2-x,y,z
x,-y,z
loop_
_atom_site_type_symbol
_atom_site_label
_atom_site_fract_x
_atom_site_fract_y
_atom_site_fract_z
Si Si1 0.068386 0.215223 0.586375
Si Si2 0.430304 0.213965 0.086520
Si Si3 0.931635 0.604100 0.154776
Si Si4 0.068165 0.107929 0.756072
Si Si5 0.931685 0.603938 0.657717
O O1 0.250000 0.218350 0.580858
O O2 0.025934 0.155851 0.668196
O O3 0.000000 0.177885 0.500000
O O4 0.003317 0.316928 0.601694
O O5 0.250000 0.214724 0.081708
O O6 0.492304 0.316902 0.100550
O O7 0.485473 0.156133 0.166512
O O8 0.500000 0.177075 0.000000
O O9 0.750000 0.616955 0.156783
O O10 0.963872 0.500000 0.126131
O O11 0.996645 0.612767 0.249282
O O12 0.250000 0.120403 0.766888
O O13 0.035983 0.000000 0.753481
O O14 0.750000 0.615444 0.663091
O O15 0.963293 0.500000 0.628228
#
# Coordination Sequence:
#
# PCOD9404633 Si02
#       5
#     8   8   8   8   8
#     4  11  23  39  63  92 126 165 207 256 309 367
#     4  12  25  41  65  94 127 165 208 256 308 368
#     4  10  20  36  60  90 126 167 208 251 303 363
#     4  10  23  45  69  92 122 160 204 258 317 374
#     4  10  20  35  58  89 125 165 208 253 303 362
#
# _framework density 19.559996999999999
#
# number of rings (size 3 to 8) (size 9 to 14) (size 15 to 20)
#    0.000    1.400    2.000    3.600    0.000    5.200 
#    0.000    0.000    0.000    0.000    0.000    0.000 
#    0.000    0.000    0.000    0.000    0.000    0.000 
#
# Total GULP energy -223684.880709 kJ/mol
# GULP energy per Si atom -5592.122018 kJ/mol
# Density = 1.951548 g / cm^3
# Si number density = 19.559997 Si / 1000 Ang^3
#
#
#
# Elastic Constant Matrix: (Units=GPa)
#
#
# Indices 1 2 3 4 5 6 
#
# 1 97.2333 65.2127 72.9578 0.0000 0.0000 0.0000
# 2 65.2127 100.2299 68.2034 0.0000 0.0000 0.0000
# 3 72.9578 68.2034 151.9717 0.0000 0.0000 0.0000
# 4 0.0000 0.0000 0.0000 -4.2432 0.0000 0.0000
# 5 0.0000 0.0000 0.0000 0.0000 36.0987 0.0000
# 6 0.0000 0.0000 0.0000 0.0000 0.0000 19.9693
#
#
#
# Elastic Compliance Matrix: (Units=1/GPa)
#
#
# Indices 1 2 3 4 5 6 
#
# 1 0.021247 -0.009909 -0.005753 0.000000 0.000000 0.000000
# 2 -0.009909 0.018985 -0.003763 0.000000 0.000000 0.000000
# 3 -0.005753 -0.003763 0.011031 0.000000 0.000000 0.000000
# 4 0.000000 0.000000 0.000000 -0.235669 0.000000 0.000000
# 5 0.000000 0.000000 0.000000 0.000000 0.027702 0.000000
# 6 0.000000 0.000000 0.000000 0.000000 0.000000 0.050077
#
#
# Mechanical properties :
#
#
# Convention : Reuss Voigt Hill
#
# Bulk Modulus (GPa) = 80.56552 84.68698 82.62625
# Shear Modulus (GPa) = -78.56847 19.90235 -29.33306
#
# Velocity S-wave (km/s) = -6.34469 3.19329 -3.87673
# Velocity P-wave (km/s) = 3.52068 7.54892 4.72181
#
# Compressibility (1/GPa) = 0.01241226
#
# Stress axis : x y z
#
# Youngs Moduli (GPa) = 47.06472 52.67297 90.65428
#
# Poissons Ratio (x) = 0.52196 0.52154
# Poissons Ratio (y) = 0.46638 0.34114
# Poissons Ratio (z) = 0.27077 0.19821
#
# Static dielectric constant tensor:
#      x y z
#    x 1.648810 0.000000 0.000000 
#    y 0.000000 1.675120 0.000000 
#    z 0.000000 0.000000 1.689510 
# 
# From -- ./inp_files/20472.got.cif
#   From: 2010.05.17/outbox.cif.g08.bks.cpg/sg51_11_cif.got.tgz:20472.got - 2010.06.03 11:52:47.
