data_PCOD9404597
_publ_section_title
;
Structure prediction by ZEFSAII (Michael W. Deem and Ramdas Pophale) SiO2 
 PCOD9404597
Probable space group: P M M A
;
_chemical_formula_sum "Si O2"
_cell_formula_units_Z 32
_cell_length_a 24.833882
_cell_length_b 9.199434
_cell_length_c 7.240756
_cell_angle_alpha 90.000000
_cell_angle_beta 90.000000
_cell_angle_gamma 90.000000
_cell_volume 1654.206161
_symmetry_space_group_name_H-M "P M M A"
_symmetry_group_IT_number 51
_symmetry_cell_setting 'orthorhombic'
loop_
_space_group_symop_operation_xyz
x,y,z
1/2-x,-y,z
1/2+x,-y,-z
-x,y,-z
-x,-y,-z
1/2+x,y,-z
1/2-x,y,z
x,-y,z
loop_
_atom_site_type_symbol
_atom_site_label
_atom_site_fract_x
_atom_site_fract_y
_atom_site_fract_z
Si Si1 0.687820 0.827695 0.540679
Si Si2 0.986446 0.334447 0.779363
Si Si3 0.884103 0.829429 0.878973
Si Si4 0.105464 0.325818 0.730992
O O1 0.750000 0.786391 0.517181
O O2 0.667760 0.808450 0.750598
O O3 0.647820 0.738207 0.411697
O O4 0.682448 0.000000 0.498299
O O5 0.972346 0.500000 0.724175
O O6 0.935867 0.229127 0.765873
O O7 0.042751 0.289296 0.686894
O O8 0.000000 0.338417 0.000000
O O9 0.890837 0.000000 0.918584
O O10 0.881732 0.741096 0.068496
O O11 0.107976 0.500000 0.739550
#
# Coordination Sequence:
#
# PCOD9404597 Si02
#       4
#     8   8   8   8
#     4  10  23  41  57  77 108 146 188 230 272 322
#     4   8  16  32  53  80 114 146 176 217 272 330
#     4  10  20  35  58  85 112 145 184 226 274 328
#     4  10  21  37  58  84 113 145 181 224 276 329
#
# _framework density 19.344625000000001
#
# number of rings (size 3 to 8) (size 9 to 14) (size 15 to 20)
#    0.000    2.500    0.000    3.000    0.000   10.000 
#    0.000    7.500    0.000    0.000    0.000    0.000 
#    0.000    0.000    0.000    0.000    0.000    0.000 
#
# Total GULP energy -178685.431208 kJ/mol
# GULP energy per Si atom -5583.919725 kJ/mol
# Density = 1.930060 g / cm^3
# Si number density = 19.344625 Si / 1000 Ang^3
#
#
#
# Elastic Constant Matrix: (Units=GPa)
#
#
# Indices 1 2 3 4 5 6 
#
# 1 96.0613 38.5591 22.3207 0.0000 0.0000 0.0000
# 2 38.5591 49.4507 29.6829 0.0000 0.0000 0.0000
# 3 22.3207 29.6829 55.3340 0.0000 0.0000 0.0000
# 4 0.0000 0.0000 0.0000 -8.0643 0.0000 0.0000
# 5 0.0000 0.0000 0.0000 0.0000 25.8395 0.0000
# 6 0.0000 0.0000 0.0000 0.0000 0.0000 23.7549
#
#
#
# Elastic Compliance Matrix: (Units=1/GPa)
#
#
# Indices 1 2 3 4 5 6 
#
# 1 0.015157 -0.012018 0.000333 0.000000 0.000000 0.000000
# 2 -0.012018 0.039356 -0.016264 0.000000 0.000000 0.000000
# 3 0.000333 -0.016264 0.026662 0.000000 0.000000 0.000000
# 4 0.000000 0.000000 0.000000 -0.124003 0.000000 0.000000
# 5 0.000000 0.000000 0.000000 0.000000 0.038700 0.000000
# 6 0.000000 0.000000 0.000000 0.000000 0.000000 0.042097
#
#
# Mechanical properties :
#
#
# Convention : Reuss Voigt Hill
#
# Bulk Modulus (GPa) = 39.56222 42.44125 41.00173
# Shear Modulus (GPa) = 48.87973 15.65824 32.26898
#
# Velocity S-wave (km/s) = 5.03217 2.84815 4.08868
# Velocity P-wave (km/s) = 7.36609 5.72740 6.59782
#
# Compressibility (1/GPa) = 0.02527664
#
# Stress axis : x y z
#
# Youngs Moduli (GPa) = 65.97688 25.40925 37.50653
#
# Poissons Ratio (x) = 0.30538 -0.01249
# Poissons Ratio (y) = 0.79294 0.60999
# Poissons Ratio (z) = -0.02198 0.41325
#
# Static dielectric constant tensor:
#      x y z
#    x 1.669090 0.000000 0.000000 
#    y 0.000000 1.641700 0.000000 
#    z 0.000000 0.000000 1.713520 
# 
# From -- ./inp_files/10276.got.cif
#   From: 2010.05.17/outbox.cif.g08.bks.cpg/sg51_6_cif.got.tgz:10276.got - 2010.06.03 11:52:47.
