data_PCOD9404242
_publ_section_title
;
Structure prediction by ZEFSAII (Michael W. Deem and Ramdas Pophale) SiO2 
 PCOD9404242
Probable space group: P M M A
;
_chemical_formula_sum "Si O2"
_cell_formula_units_Z 32
_cell_length_a 7.493232
_cell_length_b 8.088366
_cell_length_c 24.540120
_cell_angle_alpha 90.000000
_cell_angle_beta 90.000000
_cell_angle_gamma 90.000000
_cell_volume 1487.327665
_symmetry_space_group_name_H-M "P M M A"
_symmetry_group_IT_number 51
_symmetry_cell_setting 'orthorhombic'
loop_
_space_group_symop_operation_xyz
x,y,z
1/2-x,-y,z
1/2+x,-y,-z
-x,y,-z
-x,-y,-z
1/2+x,y,-z
1/2-x,y,z
x,-y,z
loop_
_atom_site_type_symbol
_atom_site_label
_atom_site_fract_x
_atom_site_fract_y
_atom_site_fract_z
Si Si1 0.031616 0.318135 0.324466
Si Si2 0.036752 0.189519 0.440137
Si Si3 0.536071 0.314999 0.063626
Si Si4 0.463701 0.000000 0.870222
Si Si5 0.463851 0.000000 0.257577
O O1 0.250000 0.317290 0.323769
O O2 0.974420 0.500000 0.306131
O O3 0.974223 0.285803 0.386890
O O4 0.970418 0.165739 0.287464
O O5 0.250000 0.180190 0.435241
O O6 0.000000 0.260411 0.500000
O O7 0.967495 0.000000 0.438839
O O8 0.750000 0.320951 0.070314
O O9 0.466999 0.500000 0.076061
O O10 0.466733 0.166232 0.100793
O O11 0.500000 0.280814 0.000000
O O12 0.497431 0.000000 0.806148
O O13 0.250000 0.000000 0.878375
O O14 0.250000 0.000000 0.264456
#
# Coordination Sequence:
#
# PCOD9404242 Si02
#       5
#     8   8   8   4   4
#     4   9  17  31  51  71  93 124 161 202 246 288
#     4   9  16  28  47  70  95 122 152 191 241 294
#     4   9  18  33  53  77 105 134 163 197 238 285
#     4  10  21  35  51  73 103 136 164 196 245 292
#     4  10  20  35  52  71  94 124 169 212 239 276
#
# _framework density 21.515097999999998
#
# number of rings (size 3 to 8) (size 9 to 14) (size 15 to 20)
#    0.000    2.750    1.250    0.375    0.000    2.500 
#    0.000    1.250    0.000    1.500    0.000    0.000 
#    0.000    0.000    0.000    0.000    0.000    0.000 
#
# Total GULP energy -178628.848237 kJ/mol
# GULP energy per Si atom -5582.151507 kJ/mol
# Density = 2.146613 g / cm^3
# Si number density = 21.515098 Si / 1000 Ang^3
#
#
#
# Elastic Constant Matrix: (Units=GPa)
#
#
# Indices 1 2 3 4 5 6 
#
# 1 58.1088 8.6438 -4.8273 0.0000 0.0000 0.0000
# 2 8.6438 209.9163 135.8126 0.0000 0.0000 0.0000
# 3 -4.8273 135.8126 162.4689 0.0000 0.0000 0.0000
# 4 0.0000 0.0000 0.0000 0.7115 0.0000 0.0000
# 5 0.0000 0.0000 0.0000 0.0000 25.2976 0.0000
# 6 0.0000 0.0000 0.0000 0.0000 0.0000 -13.5724
#
#
#
# Elastic Compliance Matrix: (Units=1/GPa)
#
#
# Indices 1 2 3 4 5 6 
#
# 1 0.017763 -0.002337 0.002481 0.000000 0.000000 0.000000
# 2 -0.002337 0.010682 -0.008999 0.000000 0.000000 0.000000
# 3 0.002481 -0.008999 0.013751 0.000000 0.000000 0.000000
# 4 0.000000 0.000000 0.000000 1.405537 0.000000 0.000000
# 5 0.000000 0.000000 0.000000 0.000000 0.039529 0.000000
# 6 0.000000 0.000000 0.000000 0.000000 0.000000 -0.073679
#
#
# Mechanical properties :
#
#
# Convention : Reuss Voigt Hill
#
# Bulk Modulus (GPa) = 40.83789 78.86136 59.84962
# Shear Modulus (GPa) = 3.47353 21.87834 12.67594
#
# Velocity S-wave (km/s) = 1.27199 3.19232 2.42990
# Velocity P-wave (km/s) = 4.60212 7.09376 5.97917
#
# Compressibility (1/GPa) = 0.02448706
#
# Stress axis : x y z
#
# Youngs Moduli (GPa) = 56.29753 93.61322 72.72041
#
# Poissons Ratio (x) = 0.21873 -0.18042
# Poissons Ratio (y) = 0.13154 0.65441
# Poissons Ratio (z) = -0.13967 0.84243
#
# Static dielectric constant tensor:
#      x y z
#    x 1.806350 0.000000 0.000000 
#    y 0.000000 1.795670 0.000000 
#    z 0.000000 0.000000 1.727860 
# 
# From -- ./inp_files/28762.got.cif
#   From: 2010.05.17/outbox.cif.g08.bks.cpg/sg51_15_cif.got.tgz:28762.got - 2010.06.03 11:52:47.
