data_PCOD9404798
_publ_section_title
;
Structure prediction by ZEFSAII (Michael W. Deem and Ramdas Pophale) SiO2 
 PCOD9404798
Probable space group: P M M A
;
_chemical_formula_sum "Si O2"
_cell_formula_units_Z 40
_cell_length_a 13.966063
_cell_length_b 8.557720
_cell_length_c 18.908468
_cell_angle_alpha 90.000000
_cell_angle_beta 90.000000
_cell_angle_gamma 90.000000
_cell_volume 2259.895786
_symmetry_space_group_name_H-M "P M M A"
_symmetry_group_IT_number 51
_symmetry_cell_setting 'orthorhombic'
loop_
_space_group_symop_operation_xyz
x,y,z
1/2-x,-y,z
1/2+x,-y,-z
-x,y,-z
-x,-y,-z
1/2+x,y,-z
1/2-x,y,z
x,-y,z
loop_
_atom_site_type_symbol
_atom_site_label
_atom_site_fract_x
_atom_site_fract_y
_atom_site_fract_z
Si Si1 0.143388 0.309962 0.539582
Si Si2 0.948534 0.689154 0.609847
Si Si3 0.361664 0.186798 0.245297
Si Si4 0.952677 0.315039 0.896709
Si Si5 0.140622 0.186878 0.962443
O O1 0.250000 0.254277 0.556833
O O2 0.144053 0.500000 0.541108
O O3 0.113653 0.267487 0.459454
O O4 0.057387 0.261920 0.591272
O O5 0.946071 0.500000 0.615635
O O6 0.907752 0.761849 0.680759
O O7 0.250000 0.234003 0.243922
O O8 0.416366 0.263248 0.179611
O O9 0.366517 0.000000 0.238298
O O10 0.943835 0.500000 0.905331
O O11 0.061910 0.264758 0.911984
O O12 0.889852 0.233241 0.957962
O O13 0.250000 0.234714 0.948818
O O14 0.133671 0.000000 0.955662
#
# Coordination Sequence:
#
# PCOD9404798 Si02
#       5
#     8   8   8   8   8
#     4   8  14  27  49  76 104 132 164 206 255 305
#     4   9  17  30  51  77 101 130 170 211 252 303
#     4  11  23  37  52  72 102 137 170 211 265 316
#     4  11  22  35  55  81 107 136 174 218 256 299
#     4  10  20  36  58  81 108 141 172 207 255 308
#
# _framework density 17.699930999999999
#
# number of rings (size 3 to 8) (size 9 to 14) (size 15 to 20)
#    0.000    2.200    0.000    6.600    0.000    6.400 
#    0.000    3.000    0.000    5.400    0.000    0.000 
#    0.000    0.000    0.000    0.000    0.000    0.000 
#
# Total GULP energy -223275.583324 kJ/mol
# GULP energy per Si atom -5581.889583 kJ/mol
# Density = 1.765965 g / cm^3
# Si number density = 17.699931 Si / 1000 Ang^3
#
#
#
# Elastic Constant Matrix: (Units=GPa)
#
#
# Indices 1 2 3 4 5 6 
#
# 1 131.3541 11.4372 49.6709 0.0000 0.0000 0.0000
# 2 11.4372 22.7618 8.8408 0.0000 0.0000 0.0000
# 3 49.6709 8.8408 95.6034 0.0000 0.0000 0.0000
# 4 0.0000 0.0000 0.0000 42.5142 0.0000 0.0000
# 5 0.0000 0.0000 0.0000 0.0000 13.3241 0.0000
# 6 0.0000 0.0000 0.0000 0.0000 0.0000 10.2378
#
#
#
# Elastic Compliance Matrix: (Units=1/GPa)
#
#
# Indices 1 2 3 4 5 6 
#
# 1 0.009670 -0.003016 -0.004745 0.000000 0.000000 0.000000
# 2 -0.003016 0.046511 -0.002734 0.000000 0.000000 0.000000
# 3 -0.004745 -0.002734 0.013178 0.000000 0.000000 0.000000
# 4 0.000000 0.000000 0.000000 0.023522 0.000000 0.000000
# 5 0.000000 0.000000 0.000000 0.000000 0.075052 0.000000
# 6 0.000000 0.000000 0.000000 0.000000 0.000000 0.097678
#
#
# Mechanical properties :
#
#
# Convention : Reuss Voigt Hill
#
# Bulk Modulus (GPa) = 20.67470 43.29080 31.98275
# Shear Modulus (GPa) = 16.51678 25.19992 20.85835
#
# Velocity S-wave (km/s) = 3.05807 3.77733 3.43657
# Velocity P-wave (km/s) = 4.91682 6.59815 5.81853
#
# Compressibility (1/GPa) = 0.04836830
#
# Stress axis : x y z
#
# Youngs Moduli (GPa) = 103.41305 21.50051 75.88369
#
# Poissons Ratio (x) = 0.06484 0.36008
# Poissons Ratio (y) = 0.31188 0.20748
# Poissons Ratio (z) = 0.49071 0.05879
#
# Static dielectric constant tensor:
#      x y z
#    x 1.616780 0.000000 0.000000 
#    y 0.000000 1.599660 0.000000 
#    z 0.000000 0.000000 1.561570 
# 
# From -- ./inp_files/29254.got.cif
#   From: 2010.05.17/outbox.cif.g08.bks.cpg/sg51_15_cif.got.tgz:29254.got - 2010.06.03 11:52:47.
