data_PCOD9404565
_publ_section_title
;
Structure prediction by ZEFSAII (Michael W. Deem and Ramdas Pophale) SiO2 
 PCOD9404565
Probable space group: P M M A
;
_chemical_formula_sum "Si O2"
_cell_formula_units_Z 56
_cell_length_a 18.755310
_cell_length_b 24.132319
_cell_length_c 7.081770
_cell_angle_alpha 90.000000
_cell_angle_beta 90.000000
_cell_angle_gamma 90.000000
_cell_volume 3205.273715
_symmetry_space_group_name_H-M "P M M A"
_symmetry_group_IT_number 51
_symmetry_cell_setting 'orthorhombic'
loop_
_space_group_symop_operation_xyz
x,y,z
1/2-x,-y,z
1/2+x,-y,-z
-x,y,-z
-x,-y,-z
1/2+x,y,-z
1/2-x,y,z
x,-y,z
loop_
_atom_site_type_symbol
_atom_site_label
_atom_site_fract_x
_atom_site_fract_y
_atom_site_fract_z
Si Si1 0.165630 0.649918 0.180250
Si Si2 0.334908 0.062579 0.199296
Si Si3 0.834141 0.434399 0.146155
Si Si4 0.920128 0.938012 0.418202
Si Si5 0.918818 0.857691 0.072767
Si Si6 0.921572 0.727807 0.092645
Si Si7 0.419799 0.642685 0.569217
O O1 0.250000 0.656158 0.205361
O O2 0.126843 0.650128 0.381002
O O3 0.152489 0.594002 0.057555
O O4 0.133721 0.697529 0.045987
O O5 0.250000 0.065988 0.197034
O O6 0.365503 0.067450 0.409964
O O7 0.355593 0.000000 0.133254
O O8 0.369008 0.110954 0.075986
O O9 0.750000 0.424156 0.191016
O O10 0.845704 0.500000 0.140953
O O11 0.883996 0.404592 0.300036
O O12 0.910217 0.890911 0.265830
O O13 0.000000 0.934210 0.500000
O O14 0.912231 0.000000 0.335458
O O15 0.904892 0.792795 0.101656
O O16 0.000000 0.863419 0.000000
O O17 0.920931 0.696863 0.294753
O O18 0.000000 0.720945 0.000000
O O19 0.500000 0.630239 0.500000
#
# Coordination Sequence:
#
# PCOD9404565 Si02
#       7
#     8   8   8   8   8   8   8
#     4  10  21  39  61  83 113 156 196 235 288 344
#     4  10  22  39  57  82 117 150 183 234 296 350
#     4   9  20  38  59  87 122 155 193 240 285 338
#     4  10  20  35  57  85 112 144 188 234 282 346
#     4  11  22  36  60  86 111 148 194 237 284 341
#     4  10  22  39  57  83 116 151 191 241 289 337
#     4  11  21  36  61  87 117 156 196 238 291 345
#
# _framework density 17.471208000000001
#
# number of rings (size 3 to 8) (size 9 to 14) (size 15 to 20)
#    0.000    1.857    2.857    0.857    0.000    4.857 
#    0.000    3.571    0.000    0.000    0.000    0.000 
#    0.000    0.000    0.000    0.000    0.000    0.000 
#
# Total GULP energy -312538.487623 kJ/mol
# GULP energy per Si atom -5581.044422 kJ/mol
# Density = 1.743144 g / cm^3
# Si number density = 17.471208 Si / 1000 Ang^3
#
#
#
# Elastic Constant Matrix: (Units=GPa)
#
#
# Indices 1 2 3 4 5 6 
#
# 1 100.2546 70.2816 68.7398 0.0000 0.0000 0.0000
# 2 70.2816 160.1840 84.1606 0.0000 0.0000 0.0000
# 3 68.7398 84.1606 134.7330 0.0000 0.0000 0.0000
# 4 0.0000 0.0000 0.0000 17.6062 0.0000 0.0000
# 5 0.0000 0.0000 0.0000 0.0000 35.2780 0.0000
# 6 0.0000 0.0000 0.0000 0.0000 0.0000 24.2264
#
#
#
# Elastic Compliance Matrix: (Units=1/GPa)
#
#
# Indices 1 2 3 4 5 6 
#
# 1 0.017171 -0.004363 -0.006035 0.000000 0.000000 0.000000
# 2 -0.004363 0.010401 -0.004271 0.000000 0.000000 0.000000
# 3 -0.006035 -0.004271 0.013169 0.000000 0.000000 0.000000
# 4 0.000000 0.000000 0.000000 0.056798 0.000000 0.000000
# 5 0.000000 0.000000 0.000000 0.000000 0.028346 0.000000
# 6 0.000000 0.000000 0.000000 0.000000 0.000000 0.041277
#
#
# Mechanical properties :
#
#
# Convention : Reuss Voigt Hill
#
# Bulk Modulus (GPa) = 87.69775 93.50396 90.60086
# Shear Modulus (GPa) = 24.96213 26.88808 25.92510
#
# Velocity S-wave (km/s) = 3.78399 3.92726 3.85629
# Velocity P-wave (km/s) = 8.33043 8.61392 8.47336
#
# Compressibility (1/GPa) = 0.01140280
#
# Stress axis : x y z
#
# Youngs Moduli (GPa) = 58.23637 96.14314 75.93495
#
# Poissons Ratio (x) = 0.41948 0.45829
# Poissons Ratio (y) = 0.25409 0.32432
# Poissons Ratio (z) = 0.35148 0.41063
#
# Static dielectric constant tensor:
#      x y z
#    x 1.575090 0.000000 0.000000 
#    y 0.000000 1.579830 0.000000 
#    z 0.000000 0.000000 1.571970 
# 
# From -- ./inp_files/2615.got.cif
#   From: 2010.05.17/outbox.cif.g08.bks.cpg/sg51_2_cif.got.tgz:2615.got - 2010.06.03 11:52:47.
