data_PCOD9404542
_publ_section_title
;
Structure prediction by ZEFSAII (Michael W. Deem and Ramdas Pophale) SiO2 
 PCOD9404542
Probable space group: P M M A
;
_chemical_formula_sum "Si O2"
_cell_formula_units_Z 40
_cell_length_a 26.217500
_cell_length_b 8.711822
_cell_length_c 9.411563
_cell_angle_alpha 90.000000
_cell_angle_beta 90.000000
_cell_angle_gamma 90.000000
_cell_volume 2149.621631
_symmetry_space_group_name_H-M "P M M A"
_symmetry_group_IT_number 51
_symmetry_cell_setting 'orthorhombic'
loop_
_space_group_symop_operation_xyz
x,y,z
1/2-x,-y,z
1/2+x,-y,-z
-x,y,-z
-x,-y,-z
1/2+x,y,-z
1/2-x,y,z
x,-y,z
loop_
_atom_site_type_symbol
_atom_site_label
_atom_site_fract_x
_atom_site_fract_y
_atom_site_fract_z
Si Si1 0.190863 0.184676 0.831010
Si Si2 0.902158 0.317836 0.340403
Si Si3 0.096490 0.185687 0.344342
Si Si4 0.692405 0.186867 0.840485
Si Si5 0.003616 0.814583 0.835553
O O1 0.250000 0.219740 0.798620
O O2 0.151030 0.263314 0.727710
O O3 0.184711 0.000000 0.821632
O O4 0.181428 0.229427 0.995739
O O5 0.904507 0.500000 0.345041
O O6 0.907664 0.251373 0.498444
O O7 0.947527 0.254185 0.242197
O O8 0.148191 0.237961 0.265404
O O9 0.047590 0.227994 0.249418
O O10 0.097712 0.000000 0.352958
O O11 0.750000 0.237308 0.804031
O O12 0.692686 0.000000 0.838171
O O13 0.008012 0.000000 0.832439
O O14 0.000000 0.767401 0.000000
#
# Coordination Sequence:
#
# PCOD9404542 Si02
#       5
#     8   8   8   8   8
#     4   9  18  36  62  86 108 140 186 235 277 322
#     4  12  25  37  52  79 118 154 182 220 272 333
#     4  10  20  35  57  83 111 144 183 227 273 323
#     4   8  15  31  58  88 110 132 174 231 281 323
#     4  10  21  39  63  85 105 136 185 239 281 324
#
# _framework density 18.607924000000001
#
# number of rings (size 3 to 8) (size 9 to 14) (size 15 to 20)
#    0.000    2.200    0.000    4.800    0.000    8.000 
#    0.000    5.000    0.000    1.200    0.000    0.000 
#    0.000    0.000    0.000    0.000    0.000    0.000 
#
# Total GULP energy -223391.879277 kJ/mol
# GULP energy per Si atom -5584.796982 kJ/mol
# Density = 1.856557 g / cm^3
# Si number density = 18.607924 Si / 1000 Ang^3
#
#
#
# Elastic Constant Matrix: (Units=GPa)
#
#
# Indices 1 2 3 4 5 6 
#
# 1 138.1061 45.4923 118.5141 0.0000 0.0000 0.0000
# 2 45.4923 19.9405 45.2764 0.0000 0.0000 0.0000
# 3 118.5141 45.2764 184.1268 0.0000 0.0000 0.0000
# 4 0.0000 0.0000 0.0000 -19.8252 0.0000 0.0000
# 5 0.0000 0.0000 0.0000 0.0000 -30.2348 0.0000
# 6 0.0000 0.0000 0.0000 0.0000 0.0000 3.4572
#
#
#
# Elastic Compliance Matrix: (Units=1/GPa)
#
#
# Indices 1 2 3 4 5 6 
#
# 1 0.031775 -0.058989 -0.005947 0.000000 0.000000 0.000000
# 2 -0.058989 0.223054 -0.016880 0.000000 0.000000 0.000000
# 3 -0.005947 -0.016880 0.013410 0.000000 0.000000 0.000000
# 4 0.000000 0.000000 0.000000 -0.050441 0.000000 0.000000
# 5 0.000000 0.000000 0.000000 0.000000 -0.033074 0.000000
# 6 0.000000 0.000000 0.000000 0.000000 0.000000 0.289251
#
#
# Mechanical properties :
#
#
# Convention : Reuss Voigt Hill
#
# Bulk Modulus (GPa) = 9.55957 84.52656 47.04307
# Shear Modulus (GPa) = 7.43521 -0.46120 3.48701
#
# Velocity S-wave (km/s) = 2.00110 -0.49838 1.37040
# Velocity P-wave (km/s) = 3.23847 6.72253 5.27637
#
# Compressibility (1/GPa) = 0.10460719
#
# Stress axis : x y z
#
# Youngs Moduli (GPa) = 31.47124 4.48321 74.57311
#
# Poissons Ratio (x) = 0.26446 0.44348
# Poissons Ratio (y) = 1.85645 1.25881
# Poissons Ratio (z) = 0.18716 0.07568
#
# Static dielectric constant tensor:
#      x y z
#    x 1.631730 0.000000 0.000000 
#    y 0.000000 1.619830 0.000000 
#    z 0.000000 0.000000 1.611720 
# 
# From -- ./inp_files/11418.got.cif
#   From: 2010.05.17/outbox.cif.g08.bks.cpg/sg51_6_cif.got.tgz:11418.got - 2010.06.03 11:52:47.
