data_PCOD9404428
_publ_section_title
;
Structure prediction by ZEFSAII (Michael W. Deem and Ramdas Pophale) SiO2 
 PCOD9404428
Probable space group: P M M A
;
_chemical_formula_sum "Si O2"
_cell_formula_units_Z 64
_cell_length_a 16.009929
_cell_length_b 7.752294
_cell_length_c 24.719142
_cell_angle_alpha 90.000000
_cell_angle_beta 90.000000
_cell_angle_gamma 90.000000
_cell_volume 3067.983594
_symmetry_space_group_name_H-M "P M M A"
_symmetry_group_IT_number 51
_symmetry_cell_setting 'orthorhombic'
loop_
_space_group_symop_operation_xyz
x,y,z
1/2-x,-y,z
1/2+x,-y,-z
-x,y,-z
-x,-y,-z
1/2+x,y,-z
1/2-x,y,z
x,-y,z
loop_
_atom_site_type_symbol
_atom_site_label
_atom_site_fract_x
_atom_site_fract_y
_atom_site_fract_z
Si Si1 0.900160 0.791847 0.441529
Si Si2 0.159723 0.295562 0.675110
Si Si3 0.341185 0.791934 0.324486
Si Si4 0.844418 0.291540 0.057175
Si Si5 0.843875 0.205085 0.931913
Si Si6 0.007591 0.704926 0.866066
Si Si7 0.996331 0.707534 0.256186
Si Si8 0.596432 0.790024 0.560073
O O1 0.853562 0.726335 0.388926
O O2 0.871431 0.733014 0.501146
O O3 0.998247 0.745022 0.436400
O O4 0.895235 0.000000 0.440584
O O5 0.250000 0.222200 0.690751
O O6 0.161759 0.500000 0.685969
O O7 0.080391 0.224087 0.707528
O O8 0.250000 0.731775 0.306093
O O9 0.416748 0.744501 0.285661
O O10 0.358836 0.729214 0.385722
O O11 0.339807 0.000000 0.326922
O O12 0.750000 0.231754 0.070558
O O13 0.843950 0.500000 0.059812
O O14 0.917016 0.225716 0.096676
O O15 0.861537 0.244301 0.994885
O O16 0.750000 0.272982 0.919848
O O17 0.918646 0.271678 0.895022
O O18 0.841654 0.000000 0.925305
O O19 0.022041 0.500000 0.861938
O O20 0.006616 0.774821 0.805080
O O21 0.989198 0.500000 0.254150
O O22 0.600680 0.000000 0.559741
#
# Coordination Sequence:
#
# PCOD9404428 Si02
#       8
#     8   8   8   8   8   8   8   8
#     4   9  16  30  54  79 102 131 169 213 262 318
#     4  10  21  36  53  75 105 139 174 215 266 319
#     4  10  20  35  56  78 102 135 174 218 267 317
#     4   9  18  34  57  84 112 140 173 215 259 305
#     4  10  21  36  55  82 115 146 174 208 257 313
#     4  10  21  36  56  80 105 139 183 222 258 304
#     4  10  22  39  55  74 104 141 179 221 264 306
#     4   8  15  29  51  79 105 129 163 212 264 314
#
# _framework density 20.860607999999999
#
# number of rings (size 3 to 8) (size 9 to 14) (size 15 to 20)
#    0.000    2.500    1.250    1.500    0.000    5.250 
#    0.000    8.125    0.000    0.000    0.000    3.500 
#    0.000    0.000    0.000    0.000    0.000    0.000 
#
# Total GULP energy -357206.749381 kJ/mol
# GULP energy per Si atom -5581.355459 kJ/mol
# Density = 2.081313 g / cm^3
# Si number density = 20.860608 Si / 1000 Ang^3
#
#
#
# Elastic Constant Matrix: (Units=GPa)
#
#
# Indices 1 2 3 4 5 6 
#
# 1 137.1018 -1.6680 77.6344 0.0000 0.0000 0.0000
# 2 -1.6680 27.5102 -6.6079 0.0000 0.0000 0.0000
# 3 77.6344 -6.6079 115.7104 0.0000 0.0000 0.0000
# 4 0.0000 0.0000 0.0000 24.7841 0.0000 0.0000
# 5 0.0000 0.0000 0.0000 0.0000 -13.5456 0.0000
# 6 0.0000 0.0000 0.0000 0.0000 0.0000 -245.3478
#
#
#
# Elastic Compliance Matrix: (Units=1/GPa)
#
#
# Indices 1 2 3 4 5 6 
#
# 1 0.011802 -0.001203 -0.007987 0.000000 0.000000 0.000000
# 2 -0.001203 0.036978 0.002919 0.000000 0.000000 0.000000
# 3 -0.007987 0.002919 0.014168 0.000000 0.000000 0.000000
# 4 0.000000 0.000000 0.000000 0.040348 0.000000 0.000000
# 5 0.000000 0.000000 0.000000 0.000000 -0.073825 0.000000
# 6 0.000000 0.000000 0.000000 0.000000 0.000000 -0.004076
#
#
# Mechanical properties :
#
#
# Convention : Reuss Voigt Hill
#
# Bulk Modulus (GPa) = 19.83906 46.55994 33.19950
# Shear Modulus (GPa) = 91.34138 -32.75759 29.29190
#
# Velocity S-wave (km/s) = 6.62432 -3.96701 3.75129
# Velocity P-wave (km/s) = 8.24862 1.17691 5.89172
#
# Compressibility (1/GPa) = 0.05040562
#
# Stress axis : x y z
#
# Youngs Moduli (GPa) = 84.73222 27.04292 70.58299
#
# Poissons Ratio (x) = 0.03253 0.56375
# Poissons Ratio (y) = 0.10192 -0.20601
# Poissons Ratio (z) = 0.67676 -0.07893
#
# Static dielectric constant tensor:
#      x y z
#    x 1.758590 0.000000 0.000000 
#    y 0.000000 1.777340 0.000000 
#    z 0.000000 0.000000 1.724490 
# 
# From -- ./inp_files/35713.got.cif
#   From: 2010.05.17/outbox.cif.g08.bks.cpg/sg51_18_cif.got.tgz:35713.got - 2010.06.03 11:52:47.
