data_PCOD9404676
_publ_section_title
;
Structure prediction by ZEFSAII (Michael W. Deem and Ramdas Pophale) SiO2 
 PCOD9404676
Probable space group: P M M A
;
_chemical_formula_sum "Si O2"
_cell_formula_units_Z 40
_cell_length_a 8.617595
_cell_length_b 26.463171
_cell_length_c 10.091732
_cell_angle_alpha 90.000000
_cell_angle_beta 90.000000
_cell_angle_gamma 90.000000
_cell_volume 2301.408282
_symmetry_space_group_name_H-M "P M M A"
_symmetry_group_IT_number 51
_symmetry_cell_setting 'orthorhombic'
loop_
_space_group_symop_operation_xyz
x,y,z
1/2-x,-y,z
1/2+x,-y,-z
-x,y,-z
-x,-y,-z
1/2+x,y,-z
1/2-x,y,z
x,-y,z
loop_
_atom_site_type_symbol
_atom_site_label
_atom_site_fract_x
_atom_site_fract_y
_atom_site_fract_z
Si Si1 0.065056 0.839311 0.650049
Si Si2 0.937073 0.641125 0.854454
Si Si3 0.437405 0.557190 0.352882
Si Si4 0.936205 0.055117 0.650401
Si Si5 0.936566 0.242756 0.852756
O O1 0.250000 0.839095 0.643438
O O2 0.000000 0.833955 0.500000
O O3 0.007731 0.893562 0.706563
O O4 0.004058 0.795105 0.744258
O O5 0.750000 0.639571 0.858211
O O6 0.991823 0.600058 0.748306
O O7 0.981585 0.698991 0.822105
O O8 0.000000 0.629326 0.000000
O O9 0.500000 0.566355 0.500000
O O10 0.250000 0.558607 0.356705
O O11 0.483594 0.500000 0.313316
O O12 0.750000 0.059600 0.647194
O O13 0.000000 0.053694 0.500000
O O14 0.975661 0.000000 0.710525
O O15 0.750000 0.239344 0.853700
O O16 0.000000 0.231297 0.000000
#
# Coordination Sequence:
#
# PCOD9404676 Si02
#       5
#     8   8   8   8   8
#     4  11  21  33  51  76 104 134 170 211 254 299
#     4   9  19  34  52  74  99 129 165 206 248 294
#     4   9  18  33  51  73 102 133 165 202 246 295
#     4   9  16  27  45  70 100 132 165 204 250 297
#     4  10  20  36  54  73 100 133 170 209 254 306
#
# _framework density 17.380662999999998
#
# number of rings (size 3 to 8) (size 9 to 14) (size 15 to 20)
#    0.000    2.400    0.000    4.200    0.000    4.000 
#    0.000    2.000    0.000    0.600    0.000    0.000 
#    0.000    0.000    0.000    0.000    0.000    0.000 
#
# Total GULP energy -223005.685698 kJ/mol
# GULP energy per Si atom -5575.142142 kJ/mol
# Density = 1.734110 g / cm^3
# Si number density = 17.380663 Si / 1000 Ang^3
#
#
#
# Elastic Constant Matrix: (Units=GPa)
#
#
# Indices 1 2 3 4 5 6 
#
# 1 67.7011 51.9968 36.2699 0.0000 0.0000 0.0000
# 2 51.9968 174.0981 108.1899 0.0000 0.0000 0.0000
# 3 36.2699 108.1899 87.5174 0.0000 0.0000 0.0000
# 4 0.0000 0.0000 0.0000 -19.5513 0.0000 0.0000
# 5 0.0000 0.0000 0.0000 0.0000 28.3075 0.0000
# 6 0.0000 0.0000 0.0000 0.0000 0.0000 -36.1664
#
#
#
# Elastic Compliance Matrix: (Units=1/GPa)
#
#
# Indices 1 2 3 4 5 6 
#
# 1 0.019455 -0.003452 -0.003796 0.000000 0.000000 0.000000
# 2 -0.003452 0.025394 -0.029962 0.000000 0.000000 0.000000
# 3 -0.003796 -0.029962 0.050039 0.000000 0.000000 0.000000
# 4 0.000000 0.000000 0.000000 -0.051148 0.000000 0.000000
# 5 0.000000 0.000000 0.000000 0.000000 0.035326 0.000000
# 6 0.000000 0.000000 0.000000 0.000000 0.000000 -0.027650
#
#
# Mechanical properties :
#
#
# Convention : Reuss Voigt Hill
#
# Bulk Modulus (GPa) = 48.85390 80.24777 64.55084
# Shear Modulus (GPa) = 37.69068 3.37530 20.53299
#
# Velocity S-wave (km/s) = 4.66181 1.39506 3.44083
# Velocity P-wave (km/s) = 7.55949 6.99041 7.28051
#
# Compressibility (1/GPa) = 0.02046919
#
# Stress axis : x y z
#
# Youngs Moduli (GPa) = 51.39944 39.37928 19.98459
#
# Poissons Ratio (x) = 0.13593 0.07586
# Poissons Ratio (y) = 0.17742 0.59878
# Poissons Ratio (z) = 0.19510 1.17988
#
# Static dielectric constant tensor:
#      x y z
#    x 1.580820 0.000000 0.000000 
#    y 0.000000 1.628460 0.000000 
#    z 0.000000 0.000000 1.548850 
# 
# From -- ./inp_files/5494.got.cif
#   From: 2010.05.17/outbox.cif.g08.bks.cpg/sg51_3_cif.got.tgz:5494.got - 2010.06.03 11:52:47.
