data_PCOD9404754
_publ_section_title
;
Structure prediction by ZEFSAII (Michael W. Deem and Ramdas Pophale) SiO2 
 PCOD9404754
Probable space group: P M M A
;
_chemical_formula_sum "Si O2"
_cell_formula_units_Z 52
_cell_length_a 8.770365
_cell_length_b 20.279397
_cell_length_c 15.065233
_cell_angle_alpha 90.000000
_cell_angle_beta 90.000000
_cell_angle_gamma 90.000000
_cell_volume 2679.467897
_symmetry_space_group_name_H-M "P M M A"
_symmetry_group_IT_number 51
_symmetry_cell_setting 'orthorhombic'
loop_
_space_group_symop_operation_xyz
x,y,z
1/2-x,-y,z
1/2+x,-y,-z
-x,y,-z
-x,-y,-z
1/2+x,y,-z
1/2-x,y,z
x,-y,z
loop_
_atom_site_type_symbol
_atom_site_label
_atom_site_fract_x
_atom_site_fract_y
_atom_site_fract_z
Si Si1 0.433538 0.337154 0.595388
Si Si2 0.932856 0.183694 0.403867
Si Si3 0.433208 0.890215 0.905864
Si Si4 0.567827 0.263446 0.092701
Si Si5 0.934521 0.618022 0.216118
Si Si6 0.932108 0.927500 0.721649
Si Si7 0.931962 0.500000 0.900561
O O1 0.500000 0.356633 0.500000
O O2 0.250000 0.339342 0.590321
O O3 0.476179 0.260306 0.612696
O O4 0.480767 0.380018 0.680620
O O5 0.750000 0.180492 0.404856
O O6 0.000000 0.166219 0.500000
O O7 0.995531 0.132508 0.332524
O O8 0.250000 0.895731 0.905915
O O9 0.477310 0.812623 0.895799
O O10 0.504071 0.925154 0.821291
O O11 0.500000 0.912856 0.000000
O O12 0.750000 0.264252 0.085310
O O13 0.526066 0.311293 0.172753
O O14 0.500000 0.288325 0.000000
O O15 0.750000 0.610322 0.212314
O O16 0.010167 0.562749 0.155541
O O17 0.750000 0.920447 0.722799
O O18 0.969461 0.000000 0.683035
O O19 0.750000 0.500000 0.906878
O O20 0.000000 0.500000 0.000000
#
# Coordination Sequence:
#
# PCOD9404754 Si02
#       7
#     8   8   8   8   8   8   4
#     4   9  19  36  60  89 118 146 182 229 279 331
#     4  10  20  37  61  88 116 146 181 226 281 337
#     4  10  20  36  57  81 109 141 180 229 284 340
#     4   9  18  32  53  81 109 137 175 223 276 333
#     4  10  20  37  59  83 114 151 187 227 275 323
#     4  11  24  39  54  76 107 145 190 235 279 333
#     4  12  26  42  59  84 117 154 195 232 270 322
#
# _framework density 19.406838
#
# number of rings (size 3 to 8) (size 9 to 14) (size 15 to 20)
#    0.000    2.000    0.000    3.462    0.000    8.000 
#    0.000    1.923    0.000    0.000    0.000    0.000 
#    0.000    0.000    0.000    0.000    0.000    0.000 
#
# Total GULP energy -290425.448909 kJ/mol
# GULP energy per Si atom -5585.104787 kJ/mol
# Density = 1.936267 g / cm^3
# Si number density = 19.406838 Si / 1000 Ang^3
#
#
#
# Elastic Constant Matrix: (Units=GPa)
#
#
# Indices 1 2 3 4 5 6 
#
# 1 46.2682 28.2295 41.8642 0.0000 0.0000 0.0000
# 2 28.2295 59.8614 59.3605 0.0000 0.0000 0.0000
# 3 41.8642 59.3605 159.5169 0.0000 0.0000 0.0000
# 4 0.0000 0.0000 0.0000 11.4294 0.0000 0.0000
# 5 0.0000 0.0000 0.0000 0.0000 37.1926 0.0000
# 6 0.0000 0.0000 0.0000 0.0000 0.0000 9.9057
#
#
#
# Elastic Compliance Matrix: (Units=1/GPa)
#
#
# Indices 1 2 3 4 5 6 
#
# 1 0.032212 -0.010789 -0.004439 0.000000 0.000000 0.000000
# 2 -0.010789 0.030088 -0.008365 0.000000 0.000000 0.000000
# 3 -0.004439 -0.008365 0.010547 0.000000 0.000000 0.000000
# 4 0.000000 0.000000 0.000000 0.087493 0.000000 0.000000
# 5 0.000000 0.000000 0.000000 0.000000 0.026887 0.000000
# 6 0.000000 0.000000 0.000000 0.000000 0.000000 0.100952
#
#
# Mechanical properties :
#
#
# Convention : Reuss Voigt Hill
#
# Bulk Modulus (GPa) = 38.96926 58.28386 48.62656
# Shear Modulus (GPa) = 14.53829 20.78502 17.66166
#
# Velocity S-wave (km/s) = 2.74000 3.27619 3.02002
# Velocity P-wave (km/s) = 5.48943 6.66401 6.10504
#
# Compressibility (1/GPa) = 0.02566125
#
# Stress axis : x y z
#
# Youngs Moduli (GPa) = 31.04413 33.23561 94.81485
#
# Poissons Ratio (x) = 0.35857 0.42090
# Poissons Ratio (y) = 0.33492 0.79315
# Poissons Ratio (z) = 0.13781 0.27802
#
# Static dielectric constant tensor:
#      x y z
#    x 1.646280 0.000000 0.000000 
#    y 0.000000 1.696500 0.000000 
#    z 0.000000 0.000000 1.671510 
# 
# From -- ./inp_files/21653.got.cif
#   From: 2010.05.17/outbox.cif.g08.bks.cpg/sg51_11_cif.got.tgz:21653.got - 2010.06.03 11:52:47.
