data_PCOD9404176
_publ_section_title
;
Structure prediction by ZEFSAII (Michael W. Deem and Ramdas Pophale) SiO2 
 PCOD9404176
Probable space group: P M M A
;
_chemical_formula_sum "Si O2"
_cell_formula_units_Z 56
_cell_length_a 16.020783
_cell_length_b 9.223372
_cell_length_c 20.190808
_cell_angle_alpha 90.000000
_cell_angle_beta 90.000000
_cell_angle_gamma 90.000000
_cell_volume 2983.507693
_symmetry_space_group_name_H-M "P M M A"
_symmetry_group_IT_number 51
_symmetry_cell_setting 'orthorhombic'
loop_
_space_group_symop_operation_xyz
x,y,z
1/2-x,-y,z
1/2+x,-y,-z
-x,y,-z
-x,-y,-z
1/2+x,y,-z
1/2-x,y,z
x,-y,z
loop_
_atom_site_type_symbol
_atom_site_label
_atom_site_fract_x
_atom_site_fract_y
_atom_site_fract_z
Si Si1 0.649109 0.167868 0.060164
Si Si2 0.656683 0.326118 0.665022
Si Si3 0.851180 0.333482 0.928680
Si Si4 0.401774 0.830858 0.794171
Si Si5 0.656893 0.674431 0.335618
Si Si6 0.100120 0.831614 0.204199
Si Si7 0.000089 0.676742 0.575947
O O1 0.750000 0.169940 0.061448
O O2 0.618120 0.221075 0.131525
O O3 0.622344 0.000000 0.052097
O O4 0.620773 0.260902 0.997455
O O5 0.750000 0.296122 0.639466
O O6 0.649259 0.500000 0.674076
O O7 0.644439 0.250476 0.735673
O O8 0.582989 0.279158 0.615693
O O9 0.750000 0.331494 0.928546
O O10 0.878604 0.500000 0.923943
O O11 0.880608 0.243136 0.865554
O O12 0.357698 0.741930 0.736551
O O13 0.500920 0.823317 0.783627
O O14 0.375626 0.000000 0.790969
O O15 0.750000 0.711662 0.359581
O O16 0.651693 0.500000 0.330561
O O17 0.582681 0.723174 0.384214
O O18 0.124951 0.000000 0.202121
O O19 0.000509 0.500000 0.575026
O O20 0.000000 0.726046 0.500000
#
# Coordination Sequence:
#
# PCOD9404176 Si02
#       7
#     8   8   8   8   8   8   8
#     4   9  18  34  54  74 100 137 181 228 275 326
#     4  10  20  35  57  83 111 147 188 228 274 328
#     4  10  21  36  53  75 105 141 182 229 281 335
#     4  10  21  36  55  79 108 145 187 230 277 331
#     4  10  20  34  56  85 114 146 185 229 277 328
#     4  11  22  35  54  79 108 144 186 232 280 329
#     4   9  18  34  56  84 118 149 179 223 275 327
#
# _framework density 18.769852
#
# number of rings (size 3 to 8) (size 9 to 14) (size 15 to 20)
#    0.000    2.143    1.429    1.714    0.000    6.000 
#    0.000    7.143    0.000    1.714    0.000    2.000 
#    0.000    0.000    0.000    0.000    0.000    0.000 
#
# Total GULP energy -312638.220597 kJ/mol
# GULP energy per Si atom -5582.825368 kJ/mol
# Density = 1.872713 g / cm^3
# Si number density = 18.769852 Si / 1000 Ang^3
#
#
#
# Elastic Constant Matrix: (Units=GPa)
#
#
# Indices 1 2 3 4 5 6 
#
# 1 104.0410 38.3499 71.7481 0.0000 0.0000 0.0000
# 2 38.3499 39.9161 40.3361 0.0000 0.0000 0.0000
# 3 71.7481 40.3361 149.4864 0.0000 0.0000 0.0000
# 4 0.0000 0.0000 0.0000 287.5144 0.0000 0.0000
# 5 0.0000 0.0000 0.0000 0.0000 2.9579 0.0000
# 6 0.0000 0.0000 0.0000 0.0000 0.0000 17.6561
#
#
#
# Elastic Compliance Matrix: (Units=1/GPa)
#
#
# Indices 1 2 3 4 5 6 
#
# 1 0.017488 -0.011439 -0.005307 0.000000 0.000000 0.000000
# 2 -0.011439 0.041927 -0.005823 0.000000 0.000000 0.000000
# 3 -0.005307 -0.005823 0.010808 0.000000 0.000000 0.000000
# 4 0.000000 0.000000 0.000000 0.003478 0.000000 0.000000
# 5 0.000000 0.000000 0.000000 0.000000 0.338083 0.000000
# 6 0.000000 0.000000 0.000000 0.000000 0.000000 0.056638
#
#
# Mechanical properties :
#
#
# Convention : Reuss Voigt Hill
#
# Bulk Modulus (GPa) = 39.86441 66.03465 52.94953
# Shear Modulus (GPa) = 9.58002 71.15962 40.36982
#
# Velocity S-wave (km/s) = 2.26164 6.16392 4.64268
# Velocity P-wave (km/s) = 5.30138 9.26910 7.55053
#
# Compressibility (1/GPa) = 0.02508503
#
# Stress axis : x y z
#
# Youngs Moduli (GPa) = 57.18311 23.85119 92.52471
#
# Poissons Ratio (x) = 0.27283 0.49102
# Poissons Ratio (y) = 0.65410 0.53877
# Poissons Ratio (z) = 0.30347 0.13888
#
# Static dielectric constant tensor:
#      x y z
#    x 1.670380 0.000000 0.000000 
#    y 0.000000 1.632450 0.000000 
#    z 0.000000 0.000000 1.612350 
# 
# From -- ./inp_files/33467.got.cif
#   From: 2010.05.17/outbox.cif.g08.bks.cpg/sg51_17_cif.got.tgz:33467.got - 2010.06.03 11:52:47.
