data_PCOD9404751
_publ_section_title
;
Structure prediction by ZEFSAII (Michael W. Deem and Ramdas Pophale) SiO2 
 PCOD9404751
Probable space group: P M M A
;
_chemical_formula_sum "Si O2"
_cell_formula_units_Z 40
_cell_length_a 8.402034
_cell_length_b 26.483117
_cell_length_c 9.697642
_cell_angle_alpha 90.000000
_cell_angle_beta 90.000000
_cell_angle_gamma 90.000000
_cell_volume 2157.842196
_symmetry_space_group_name_H-M "P M M A"
_symmetry_group_IT_number 51
_symmetry_cell_setting 'orthorhombic'
loop_
_space_group_symop_operation_xyz
x,y,z
1/2-x,-y,z
1/2+x,-y,-z
-x,y,-z
-x,-y,-z
1/2+x,y,-z
1/2-x,y,z
x,-y,z
loop_
_atom_site_type_symbol
_atom_site_label
_atom_site_fract_x
_atom_site_fract_y
_atom_site_fract_z
Si Si1 0.059140 0.293383 0.153592
Si Si2 0.942060 0.408764 0.847168
Si Si3 0.558212 0.000000 0.157762
Si Si4 0.557531 0.500000 0.655538
Si Si5 0.559444 0.795963 0.343845
Si Si6 0.557261 0.110483 0.157907
O O1 0.250000 0.292237 0.153854
O O2 0.005740 0.351162 0.181502
O O3 0.995800 0.254237 0.264975
O O4 0.000000 0.279685 0.000000
O O5 0.750000 0.408887 0.847779
O O6 0.997117 0.450098 0.737494
O O7 0.000000 0.422438 0.000000
O O8 0.505647 0.945166 0.212229
O O9 0.750000 0.000000 0.161216
O O10 0.500000 0.000000 0.000000
O O11 0.750000 0.500000 0.656903
O O12 0.500000 0.500000 0.500000
O O13 0.500000 0.797504 0.500000
O O14 0.750000 0.797129 0.344617
O O15 0.501396 0.844211 0.255098
O O16 0.750000 0.111319 0.155098
O O17 0.500000 0.116708 0.000000
#
# Coordination Sequence:
#
# PCOD9404751 Si02
#       6
#     8   8   4   4   8   8
#     4  10  20  36  57  81 106 135 172 215 259 308
#     4   9  19  35  56  80 105 133 170 212 255 302
#     4   8  14  28  49  74 100 126 160 206 253 300
#     4  10  21  36  52  76 108 140 173 210 252 302
#     4  11  23  37  52  74 104 140 176 214 260 310
#     4   9  18  32  53  77 101 130 167 209 255 304
#
# _framework density 18.537036000000001
#
# number of rings (size 3 to 8) (size 9 to 14) (size 15 to 20)
#    0.000    2.400    0.000    2.100    0.000    5.600 
#    0.000    2.500    0.000    0.000    0.000    0.000 
#    0.000    0.000    0.000    0.000    0.000    0.000 
#
# Total GULP energy -223136.804035 kJ/mol
# GULP energy per Si atom -5578.420101 kJ/mol
# Density = 1.849485 g / cm^3
# Si number density = 18.537036 Si / 1000 Ang^3
#
#
#
# Elastic Constant Matrix: (Units=GPa)
#
#
# Indices 1 2 3 4 5 6 
#
# 1 18.9706 23.7794 19.9677 0.0000 0.0000 0.0000
# 2 23.7794 156.0335 121.9907 0.0000 0.0000 0.0000
# 3 19.9677 121.9907 148.3519 0.0000 0.0000 0.0000
# 4 0.0000 0.0000 0.0000 -0.1587 0.0000 0.0000
# 5 0.0000 0.0000 0.0000 0.0000 31.7817 0.0000
# 6 0.0000 0.0000 0.0000 0.0000 0.0000 21.0040
#
#
#
# Elastic Compliance Matrix: (Units=1/GPa)
#
#
# Indices 1 2 3 4 5 6 
#
# 1 0.065313 -0.008627 -0.001697 0.000000 0.000000 0.000000
# 2 -0.008627 0.019086 -0.014534 0.000000 0.000000 0.000000
# 3 -0.001697 -0.014534 0.018920 0.000000 0.000000 0.000000
# 4 0.000000 0.000000 0.000000 -6.300288 0.000000 0.000000
# 5 0.000000 0.000000 0.000000 0.000000 0.031465 0.000000
# 6 0.000000 0.000000 0.000000 0.000000 0.000000 0.047610
#
#
# Mechanical properties :
#
#
# Convention : Reuss Voigt Hill
#
# Bulk Modulus (GPa) = 18.65518 72.75907 45.70712
# Shear Modulus (GPa) = -0.82640 21.03327 10.10343
#
# Velocity S-wave (km/s) = -0.66842 3.37213 2.33714
# Velocity P-wave (km/s) = 3.08056 7.38224 5.65630
#
# Compressibility (1/GPa) = 0.05360441
#
# Stress axis : x y z
#
# Youngs Moduli (GPa) = 15.31093 52.39312 52.85317
#
# Poissons Ratio (x) = 0.45199 0.08969
# Poissons Ratio (y) = 0.13209 0.76816
# Poissons Ratio (z) = 0.02598 0.76147
#
# Static dielectric constant tensor:
#      x y z
#    x 1.646510 0.000000 0.000000 
#    y 0.000000 1.682540 0.000000 
#    z 0.000000 0.000000 1.580190 
# 
# From -- ./inp_files/5563.got.cif
#   From: 2010.05.17/outbox.cif.g08.bks.cpg/sg51_3_cif.got.tgz:5563.got - 2010.06.03 11:52:47.
