data_PCOD9404962
_publ_section_title
;
Structure prediction by ZEFSAII (Michael W. Deem and Ramdas Pophale) SiO2 
 PCOD9404962
Probable space group: P M M A
;
_chemical_formula_sum "Si O2"
_cell_formula_units_Z 64
_cell_length_a 8.877637
_cell_length_b 15.665044
_cell_length_c 24.240053
_cell_angle_alpha 90.000000
_cell_angle_beta 90.000000
_cell_angle_gamma 90.000000
_cell_volume 3371.029610
_symmetry_space_group_name_H-M "P M M A"
_symmetry_group_IT_number 51
_symmetry_cell_setting 'orthorhombic'
loop_
_space_group_symop_operation_xyz
x,y,z
1/2-x,-y,z
1/2+x,-y,-z
-x,y,-z
-x,-y,-z
1/2+x,y,-z
1/2-x,y,z
x,-y,z
loop_
_atom_site_type_symbol
_atom_site_label
_atom_site_fract_x
_atom_site_fract_y
_atom_site_fract_z
Si Si1 0.570679 0.902628 0.871820
Si Si2 0.073060 0.647636 0.755222
Si Si3 0.073452 0.147025 0.757168
Si Si4 0.929499 0.747914 0.060572
Si Si5 0.568835 0.402179 0.369339
Si Si6 0.928639 0.402894 0.868202
Si Si7 0.569472 0.749905 0.560550
Si Si8 0.069458 0.903668 0.358645
O O1 0.750000 0.889057 0.875229
O O2 0.517035 0.889439 0.808966
O O3 0.487411 0.832856 0.908788
O O4 0.537454 0.000000 0.888684
O O5 0.250000 0.626345 0.763522
O O6 0.058458 0.750159 0.757022
O O7 0.028609 0.615583 0.694593
O O8 0.977578 0.608773 0.804714
O O9 0.250000 0.126273 0.763035
O O10 0.010706 0.112839 0.699511
O O11 0.750000 0.748785 0.057618
O O12 0.984236 0.667050 0.096179
O O13 0.000000 0.743391 0.000000
O O14 0.750000 0.390900 0.373579
O O15 0.532658 0.500000 0.383381
O O16 0.488579 0.334199 0.408154
O O17 0.750000 0.388466 0.873483
O O18 0.962428 0.500000 0.885510
O O19 0.500000 0.754940 0.500000
O O20 0.750000 0.748299 0.556902
O O21 0.524195 0.831682 0.597544
O O22 0.250000 0.896526 0.350342
O O23 0.036729 0.000000 0.377708
#
# Coordination Sequence:
#
# PCOD9404962 Si02
#       8
#     8   8   8   8   8   8   8   8
#     4  11  24  42  65  93 127 166 206 252 305 362
#     4  10  20  36  61  92 126 163 200 245 304 362
#     4  11  21  35  61  95 127 161 200 247 302 360
#     4  12  26  45  68  92 122 163 208 259 309 362
#     4  10  21  39  63  89 120 157 197 243 296 356
#     4  11  24  41  64  95 129 165 206 252 303 363
#     4  11  24  41  62  85 115 154 199 251 300 356
#     4  10  22  40  61  87 120 159 200 245 301 361
#
# _framework density 18.985296999999999
#
# number of rings (size 3 to 8) (size 9 to 14) (size 15 to 20)
#    0.000    1.250    2.500    3.375    0.000    7.000 
#    0.000    0.000    0.000    0.000    0.000    0.000 
#    0.000    0.000    0.000    0.000    0.000    0.000 
#
# Total GULP energy -357957.677068 kJ/mol
# GULP energy per Si atom -5593.088704 kJ/mol
# Density = 1.894209 g / cm^3
# Si number density = 18.985297 Si / 1000 Ang^3
#
#
#
# Elastic Constant Matrix: (Units=GPa)
#
#
# Indices 1 2 3 4 5 6 
#
# 1 83.0482 70.2533 50.1006 0.0000 0.0000 0.0000
# 2 70.2533 131.0167 57.6229 0.0000 0.0000 0.0000
# 3 50.1006 57.6229 117.1876 0.0000 0.0000 0.0000
# 4 0.0000 0.0000 0.0000 -6.5896 0.0000 0.0000
# 5 0.0000 0.0000 0.0000 0.0000 2.5300 0.0000
# 6 0.0000 0.0000 0.0000 0.0000 0.0000 14.7061
#
#
#
# Elastic Compliance Matrix: (Units=1/GPa)
#
#
# Indices 1 2 3 4 5 6 
#
# 1 0.024176 -0.010741 -0.005055 0.000000 0.000000 0.000000
# 2 -0.010741 0.014510 -0.002543 0.000000 0.000000 0.000000
# 3 -0.005055 -0.002543 0.011945 0.000000 0.000000 0.000000
# 4 0.000000 0.000000 0.000000 -0.151755 0.000000 0.000000
# 5 0.000000 0.000000 0.000000 0.000000 0.395256 0.000000
# 6 0.000000 0.000000 0.000000 0.000000 0.000000 0.067999
#
#
# Mechanical properties :
#
#
# Convention : Reuss Voigt Hill
#
# Bulk Modulus (GPa) = 71.66002 76.35622 74.00812
# Shear Modulus (GPa) = 12.39280 12.34768 12.37024
#
# Velocity S-wave (km/s) = 2.55768 2.55302 2.55536
# Velocity P-wave (km/s) = 6.82270 6.99975 6.91179
#
# Compressibility (1/GPa) = 0.01395478
#
# Stress axis : x y z
#
# Youngs Moduli (GPa) = 41.36254 68.91590 83.71848
#
# Poissons Ratio (x) = 0.74021 0.42317
# Poissons Ratio (y) = 0.44426 0.21290
# Poissons Ratio (z) = 0.20907 0.17526
#
# Static dielectric constant tensor:
#      x y z
#    x 1.636910 0.000000 0.000000 
#    y 0.000000 1.666660 0.000000 
#    z 0.000000 0.000000 1.617380 
# 
# From -- ./inp_files/34840.got.cif
#   From: 2010.05.17/outbox.cif.g08.bks.cpg/sg51_18_cif.got.tgz:34840.got - 2010.06.03 11:52:47.
