data_PCOD9404143
_publ_section_title
;
Structure prediction by ZEFSAII (Michael W. Deem and Ramdas Pophale) SiO2 
 PCOD9404143
Probable space group: P M M A
;
_chemical_formula_sum "Si O2"
_cell_formula_units_Z 48
_cell_length_a 28.623787
_cell_length_b 8.946621
_cell_length_c 10.459738
_cell_angle_alpha 90.000000
_cell_angle_beta 90.000000
_cell_angle_gamma 90.000000
_cell_volume 2678.594284
_symmetry_space_group_name_H-M "P M M A"
_symmetry_group_IT_number 51
_symmetry_cell_setting 'orthorhombic'
loop_
_space_group_symop_operation_xyz
x,y,z
1/2-x,-y,z
1/2+x,-y,-z
-x,y,-z
-x,-y,-z
1/2+x,y,-z
1/2-x,y,z
x,-y,z
loop_
_atom_site_type_symbol
_atom_site_label
_atom_site_fract_x
_atom_site_fract_y
_atom_site_fract_z
Si Si1 0.196178 0.677211 0.635984
Si Si2 0.555188 0.177829 0.504357
Si Si3 0.893821 0.322246 0.744793
Si Si4 0.554474 0.180150 0.985878
Si Si5 0.803995 0.821671 0.643140
Si Si6 0.390092 0.178660 0.756495
O O1 0.250000 0.705231 0.673723
O O2 0.190246 0.500000 0.616983
O O3 0.188294 0.759529 0.500410
O O4 0.158742 0.738358 0.735897
O O5 0.500000 0.206865 0.500000
O O6 0.579675 0.268381 0.616850
O O7 0.578333 0.212378 0.367853
O O8 0.561826 0.000000 0.529015
O O9 0.891704 0.500000 0.749760
O O10 0.841859 0.254065 0.734048
O O11 0.921568 0.257379 0.865379
O O12 0.582418 0.218583 0.115028
O O13 0.556442 0.000000 0.968949
O O14 0.500000 0.221087 0.000000
O O15 0.750000 0.789113 0.676883
O O16 0.810522 0.000000 0.642235
O O17 0.382157 0.000000 0.757756
#
# Coordination Sequence:
#
# PCOD9404143 Si02
#       6
#     8   8   8   8   8   8
#     4  10  20  34  55  85 120 154 186 230 294 355
#     4  10  20  36  59  85 113 148 194 245 290 341
#     4  12  24  37  57  88 122 156 191 238 301 358
#     4  10  22  42  64  84 112 157 205 245 290 346
#     4  10  20  36  60  87 115 151 197 245 289 342
#     4  10  20  35  59  87 112 148 196 242 288 340
#
# _framework density 17.919847000000001
#
# number of rings (size 3 to 8) (size 9 to 14) (size 15 to 20)
#    0.000    1.667    1.667    3.500    0.000    6.000 
#    0.000    2.500    0.000    1.000    0.000    0.000 
#    0.000    0.000    0.000    0.000    0.000    0.000 
#
# Total GULP energy -268204.435185 kJ/mol
# GULP energy per Si atom -5587.592400 kJ/mol
# Density = 1.787906 g / cm^3
# Si number density = 17.919847 Si / 1000 Ang^3
#
#
#
# Elastic Constant Matrix: (Units=GPa)
#
#
# Indices 1 2 3 4 5 6 
#
# 1 150.9045 72.8474 71.6997 0.0000 0.0000 0.0000
# 2 72.8474 70.1554 63.8669 0.0000 0.0000 0.0000
# 3 71.6997 63.8669 112.7668 0.0000 0.0000 0.0000
# 4 0.0000 0.0000 0.0000 -11.9168 0.0000 0.0000
# 5 0.0000 0.0000 0.0000 0.0000 33.2994 0.0000
# 6 0.0000 0.0000 0.0000 0.0000 0.0000 18.2521
#
#
#
# Elastic Compliance Matrix: (Units=1/GPa)
#
#
# Indices 1 2 3 4 5 6 
#
# 1 0.013381 -0.012694 -0.001318 0.000000 0.000000 0.000000
# 2 -0.012694 0.041469 -0.015415 0.000000 0.000000 0.000000
# 3 -0.001318 -0.015415 0.018437 0.000000 0.000000 0.000000
# 4 0.000000 0.000000 0.000000 -0.083915 0.000000 0.000000
# 5 0.000000 0.000000 0.000000 0.000000 0.030031 0.000000
# 6 0.000000 0.000000 0.000000 0.000000 0.000000 0.054788
#
#
# Mechanical properties :
#
#
# Convention : Reuss Voigt Hill
#
# Bulk Modulus (GPa) = 69.29539 83.40609 76.35074
# Shear Modulus (GPa) = 36.26964 16.28779 26.27871
#
# Velocity S-wave (km/s) = 4.50376 3.01811 3.83359
# Velocity P-wave (km/s) = 8.11164 7.66748 7.89269
#
# Compressibility (1/GPa) = 0.01443097
#
# Stress axis : x y z
#
# Youngs Moduli (GPa) = 74.73159 24.11450 54.23986
#
# Poissons Ratio (x) = 0.30612 0.07151
# Poissons Ratio (y) = 0.94867 0.83611
# Poissons Ratio (z) = 0.09853 0.37172
#
# Static dielectric constant tensor:
#      x y z
#    x 1.619120 0.000000 0.000000 
#    y 0.000000 1.595790 0.000000 
#    z 0.000000 0.000000 1.578190 
# 
# From -- ./inp_files/12826.got.cif
#   From: 2010.05.17/outbox.cif.g08.bks.cpg/sg51_7_cif.got.tgz:12826.got - 2010.06.03 11:52:47.
