data_PCOD9404402
_publ_section_title
;
Structure prediction by ZEFSAII (Michael W. Deem and Ramdas Pophale) SiO2 
 PCOD9404402
Probable space group: P M M A
;
_chemical_formula_sum "Si O2"
_cell_formula_units_Z 48
_cell_length_a 19.560912
_cell_length_b 7.609460
_cell_length_c 15.612416
_cell_angle_alpha 90.000000
_cell_angle_beta 90.000000
_cell_angle_gamma 90.000000
_cell_volume 2323.876544
_symmetry_space_group_name_H-M "P M M A"
_symmetry_group_IT_number 51
_symmetry_cell_setting 'orthorhombic'
loop_
_space_group_symop_operation_xyz
x,y,z
1/2-x,-y,z
1/2+x,-y,-z
-x,y,-z
-x,-y,-z
1/2+x,y,-z
1/2-x,y,z
x,-y,z
loop_
_atom_site_type_symbol
_atom_site_label
_atom_site_fract_x
_atom_site_fract_y
_atom_site_fract_z
Si Si1 0.672340 0.211263 0.104960
Si Si2 0.074274 0.296502 0.236160
Si Si3 0.569718 0.711022 0.955518
Si Si4 0.579053 0.205245 0.260893
Si Si5 0.328518 0.287419 0.578841
Si Si6 0.171229 0.285415 0.385324
O O1 0.750000 0.278180 0.107314
O O2 0.626080 0.277454 0.183805
O O3 0.675650 0.000000 0.113536
O O4 0.633038 0.252213 0.017426
O O5 0.095960 0.500000 0.228472
O O6 0.079213 0.218933 0.140650
O O7 0.121170 0.219753 0.311269
O O8 0.995034 0.291543 0.262568
O O9 0.561808 0.500000 0.948652
O O10 0.500000 0.778489 0.000000
O O11 0.620354 0.223603 0.348747
O O12 0.566745 0.000000 0.243626
O O13 0.250000 0.232507 0.596647
O O14 0.329509 0.500000 0.580263
O O15 0.346539 0.229750 0.482252
O O16 0.250000 0.236799 0.368791
O O17 0.168560 0.500000 0.386814
#
# Coordination Sequence:
#
# PCOD9404402 Si02
#       6
#     8   8   8   8   8   8
#     4  10  22  38  55  77 106 143 184 221 262 319
#     4  10  20  35  57  81 108 141 178 220 267 321
#     4  10  20  35  55  81 110 138 175 223 272 318
#     4  11  22  35  53  78 111 146 180 218 264 319
#     4   9  18  34  56  79 104 137 178 223 269 316
#     4   8  16  33  56  80 104 135 178 223 267 320
#
# _framework density 20.655142000000001
#
# number of rings (size 3 to 8) (size 9 to 14) (size 15 to 20)
#    0.000    2.333    1.667    2.000    0.000    4.333 
#    0.000    5.833    0.000    1.500    0.000    0.000 
#    0.000    0.000    0.000    0.000    0.000    0.000 
#
# Total GULP energy -268027.937599 kJ/mol
# GULP energy per Si atom -5583.915367 kJ/mol
# Density = 2.060813 g / cm^3
# Si number density = 20.655142 Si / 1000 Ang^3
#
#
#
# Elastic Constant Matrix: (Units=GPa)
#
#
# Indices 1 2 3 4 5 6 
#
# 1 115.8236 -13.0974 100.5535 0.0000 0.0000 0.0000
# 2 -13.0974 40.0986 -6.0294 0.0000 0.0000 0.0000
# 3 100.5535 -6.0294 184.4527 0.0000 0.0000 0.0000
# 4 0.0000 0.0000 0.0000 13.5950 0.0000 0.0000
# 5 0.0000 0.0000 0.0000 0.0000 40.4940 0.0000
# 6 0.0000 0.0000 0.0000 0.0000 0.0000 54.5709
#
#
#
# Elastic Compliance Matrix: (Units=1/GPa)
#
#
# Indices 1 2 3 4 5 6 
#
# 1 0.017066 0.004196 -0.009166 0.000000 0.000000 0.000000
# 2 0.004196 0.026093 -0.001435 0.000000 0.000000 0.000000
# 3 -0.009166 -0.001435 0.010372 0.000000 0.000000 0.000000
# 4 0.000000 0.000000 0.000000 0.073556 0.000000 0.000000
# 5 0.000000 0.000000 0.000000 0.000000 0.024695 0.000000
# 6 0.000000 0.000000 0.000000 0.000000 0.000000 0.018325
#
#
# Mechanical properties :
#
#
# Convention : Reuss Voigt Hill
#
# Bulk Modulus (GPa) = 24.55710 55.91426 40.23568
# Shear Modulus (GPa) = 25.44648 38.99519 32.22083
#
# Velocity S-wave (km/s) = 3.51375 4.34973 3.95390
# Velocity P-wave (km/s) = 5.32699 7.23575 6.35346
#
# Compressibility (1/GPa) = 0.04072142
#
# Stress axis : x y z
#
# Youngs Moduli (GPa) = 58.59522 38.32390 96.41725
#
# Poissons Ratio (x) = -0.16081 0.88380
# Poissons Ratio (y) = -0.24587 0.13831
# Poissons Ratio (z) = 0.53711 0.05498
#
# Static dielectric constant tensor:
#      x y z
#    x 1.694640 0.000000 0.000000 
#    y 0.000000 1.783920 0.000000 
#    z 0.000000 0.000000 1.731050 
# 
# From -- ./inp_files/24703.got.cif
#   From: 2010.05.17/outbox.cif.g08.bks.cpg/sg51_13_cif.got.tgz:24703.got - 2010.06.03 11:52:47.
