data_PCOD9404119
_publ_section_title
;
Structure prediction by ZEFSAII (Michael W. Deem and Ramdas Pophale) SiO2 
 PCOD9404119
Probable space group: P M M A
;
_chemical_formula_sum "Si O2"
_cell_formula_units_Z 48
_cell_length_a 9.484907
_cell_length_b 29.411155
_cell_length_c 9.400824
_cell_angle_alpha 90.000000
_cell_angle_beta 90.000000
_cell_angle_gamma 90.000000
_cell_volume 2622.473322
_symmetry_space_group_name_H-M "P M M A"
_symmetry_group_IT_number 51
_symmetry_cell_setting 'orthorhombic'
loop_
_space_group_symop_operation_xyz
x,y,z
1/2-x,-y,z
1/2+x,-y,-z
-x,y,-z
-x,-y,-z
1/2+x,y,-z
1/2-x,y,z
x,-y,z
loop_
_atom_site_type_symbol
_atom_site_label
_atom_site_fract_x
_atom_site_fract_y
_atom_site_fract_z
Si Si1 0.995856 0.882818 0.329060
Si Si2 0.750000 0.050377 0.353779
Si Si3 0.250000 0.946903 0.301988
Si Si4 0.916511 0.617591 0.645542
Si Si5 0.078595 0.205877 0.848735
Si Si6 0.082410 0.703815 0.146593
Si Si7 0.584821 0.445363 0.144252
O O1 0.124286 0.912335 0.270278
O O2 0.000000 0.874544 0.500000
O O3 0.877725 0.919908 0.306447
O O4 0.961758 0.836085 0.251495
O O5 0.750000 0.048001 0.525630
O O6 0.750000 0.000000 0.296848
O O7 0.250000 0.000000 0.249310
O O8 0.750000 0.607060 0.623182
O O9 0.924184 0.662066 0.745337
O O10 0.000000 0.625827 0.500000
O O11 0.999518 0.577986 0.728756
O O12 0.250000 0.209658 0.860295
O O13 0.003852 0.252441 0.796175
O O14 0.000000 0.198311 0.000000
O O15 0.250000 0.713889 0.120992
O O16 0.000000 0.692210 0.000000
O O17 0.750000 0.431025 0.137558
O O18 0.583066 0.500000 0.158841
O O19 0.500000 0.433774 0.000000
#
# Coordination Sequence:
#
# PCOD9404119 Si02
#       7
#     8   4   4   8   8   8   8
#     4  10  20  34  55  84 110 142 184 228 278 330
#     4   9  16  32  53  79 111 141 181 229 272 325
#     4   9  18  30  53  83 111 141 179 227 278 329
#     4  11  24  40  60  89 123 160 199 245 303 355
#     4  11  23  39  59  83 111 148 186 229 283 340
#     4  10  22  40  62  86 110 146 192 237 285 345
#     4  10  21  38  62  91 123 163 209 254 298 349
#
# _framework density 18.303332000000001
#
# number of rings (size 3 to 8) (size 9 to 14) (size 15 to 20)
#    0.000    1.833    0.833    4.000    2.333    8.000 
#    0.000    1.667    0.000    3.000    0.000    0.000 
#    0.000    0.000    0.000    0.000    0.000    0.000 
#
# Total GULP energy -267393.576713 kJ/mol
# GULP energy per Si atom -5570.699515 kJ/mol
# Density = 1.826167 g / cm^3
# Si number density = 18.303332 Si / 1000 Ang^3
#
#
#
# Elastic Constant Matrix: (Units=GPa)
#
#
# Indices 1 2 3 4 5 6 
#
# 1 196.7696 58.1117 49.3088 0.0000 0.0000 0.0000
# 2 58.1117 76.2354 40.7367 0.0000 0.0000 0.0000
# 3 49.3088 40.7367 54.9409 0.0000 0.0000 0.0000
# 4 0.0000 0.0000 0.0000 62.0650 0.0000 0.0000
# 5 0.0000 0.0000 0.0000 0.0000 29.7107 0.0000
# 6 0.0000 0.0000 0.0000 0.0000 0.0000 31.8530
#
#
#
# Elastic Compliance Matrix: (Units=1/GPa)
#
#
# Indices 1 2 3 4 5 6 
#
# 1 0.007021 -0.003287 -0.003864 0.000000 0.000000 0.000000
# 2 -0.003287 0.023264 -0.014299 0.000000 0.000000 0.000000
# 3 -0.003864 -0.014299 0.032271 0.000000 0.000000 0.000000
# 4 0.000000 0.000000 0.000000 0.016112 0.000000 0.000000
# 5 0.000000 0.000000 0.000000 0.000000 0.033658 0.000000
# 6 0.000000 0.000000 0.000000 0.000000 0.000000 0.031394
#
#
# Mechanical properties :
#
#
# Convention : Reuss Voigt Hill
#
# Bulk Modulus (GPa) = 50.87537 69.36227 60.11882
# Shear Modulus (GPa) = 25.88350 36.71166 31.29758
#
# Velocity S-wave (km/s) = 3.76459 4.48340 4.13963
# Velocity P-wave (km/s) = 6.83756 8.04857 7.46765
#
# Compressibility (1/GPa) = 0.01965588
#
# Stress axis : x y z
#
# Youngs Moduli (GPa) = 142.42556 42.98534 30.98710
#
# Poissons Ratio (x) = 0.14130 0.11974
# Poissons Ratio (y) = 0.46819 0.44308
# Poissons Ratio (z) = 0.55034 0.61465
#
# Static dielectric constant tensor:
#      x y z
#    x 1.577930 0.000000 0.000000 
#    y 0.000000 1.617860 0.000000 
#    z 0.000000 0.000000 1.625310 
# 
# From -- ./inp_files/6289.got.cif
#   From: 2010.05.17/outbox.cif.g08.bks.cpg/sg51_4_cif.got.tgz:6289.got - 2010.06.03 11:52:47.
