data_PCOD9404403
_publ_section_title
;
Structure prediction by ZEFSAII (Michael W. Deem and Ramdas Pophale) SiO2 
 PCOD9404403
Probable space group: P M M A
;
_chemical_formula_sum "Si O2"
_cell_formula_units_Z 48
_cell_length_a 30.213142
_cell_length_b 7.700709
_cell_length_c 10.064617
_cell_angle_alpha 90.000000
_cell_angle_beta 90.000000
_cell_angle_gamma 90.000000
_cell_volume 2341.660105
_symmetry_space_group_name_H-M "P M M A"
_symmetry_group_IT_number 51
_symmetry_cell_setting 'orthorhombic'
loop_
_space_group_symop_operation_xyz
x,y,z
1/2-x,-y,z
1/2+x,-y,-z
-x,y,-z
-x,-y,-z
1/2+x,y,-z
1/2-x,y,z
x,-y,z
loop_
_atom_site_type_symbol
_atom_site_label
_atom_site_fract_x
_atom_site_fract_y
_atom_site_fract_z
Si Si1 0.028589 0.700493 0.381208
Si Si2 0.123801 0.206571 0.955173
Si Si3 0.699634 0.212288 0.239038
Si Si4 0.971841 0.209224 0.131905
Si Si5 0.699386 0.209764 0.541709
Si Si6 0.380322 0.295844 0.263583
O O1 0.037752 0.500000 0.420731
O O2 0.075827 0.778914 0.336605
O O3 0.000000 0.782460 0.500000
O O4 0.996896 0.706631 0.254157
O O5 0.165335 0.274864 0.871464
O O6 0.077683 0.273456 0.895446
O O7 0.122985 0.000000 0.933565
O O8 0.125634 0.230757 0.113366
O O9 0.750000 0.267150 0.212095
O O10 0.688127 0.264334 0.390390
O O11 0.699660 0.000000 0.237955
O O12 0.971223 0.000000 0.153526
O O13 0.000000 0.241584 0.000000
O O14 0.750000 0.266931 0.570503
O O15 0.662944 0.267586 0.646974
O O16 0.699703 0.000000 0.543135
O O17 0.388289 0.500000 0.249491
#
# Coordination Sequence:
#
# PCOD9404403 Si02
#       6
#     8   8   8   8   8   8
#     4  10  23  40  55  76 109 149 188 225 270 329
#     4  10  20  35  56  82 111 142 180 227 276 329
#     4   8  16  33  57  83 107 134 174 221 268 322
#     4  10  20  35  55  81 110 141 180 227 276 322
#     4   9  19  37  60  83 108 141 179 221 272 325
#     4  11  23  37  54  80 112 146 184 225 270 321
#
# _framework density 20.498276000000001
#
# number of rings (size 3 to 8) (size 9 to 14) (size 15 to 20)
#    0.000    2.333    1.667    1.500    2.333    3.000 
#    0.000    2.500    0.000    1.000    0.000    0.000 
#    0.000    0.000    0.000    0.000    0.000    0.000 
#
# Total GULP energy -267884.497102 kJ/mol
# GULP energy per Si atom -5580.927023 kJ/mol
# Density = 2.045162 g / cm^3
# Si number density = 20.498276 Si / 1000 Ang^3
#
#
#
# Elastic Constant Matrix: (Units=GPa)
#
#
# Indices 1 2 3 4 5 6 
#
# 1 155.2550 -2.6153 76.0226 0.0000 0.0000 0.0000
# 2 -2.6153 24.0376 -5.8397 0.0000 0.0000 0.0000
# 3 76.0226 -5.8397 88.2078 0.0000 0.0000 0.0000
# 4 0.0000 0.0000 0.0000 -102.3154 0.0000 0.0000
# 5 0.0000 0.0000 0.0000 0.0000 43.3150 0.0000
# 6 0.0000 0.0000 0.0000 0.0000 0.0000 9.7652
#
#
#
# Elastic Compliance Matrix: (Units=1/GPa)
#
#
# Indices 1 2 3 4 5 6 
#
# 1 0.011175 -0.001142 -0.009707 0.000000 0.000000 0.000000
# 2 -0.001142 0.042398 0.003791 0.000000 0.000000 0.000000
# 3 -0.009707 0.003791 0.019954 0.000000 0.000000 0.000000
# 4 0.000000 0.000000 0.000000 -0.009774 0.000000 0.000000
# 5 0.000000 0.000000 0.000000 0.000000 0.023087 0.000000
# 6 0.000000 0.000000 0.000000 0.000000 0.000000 0.102405
#
#
# Mechanical properties :
#
#
# Convention : Reuss Voigt Hill
#
# Bulk Modulus (GPa) = 16.83170 44.73728 30.78449
# Shear Modulus (GPa) = 22.40510 3.48181 12.94346
#
# Velocity S-wave (km/s) = 3.30968 1.30471 2.51558
# Velocity P-wave (km/s) = 4.77853 4.91345 4.84646
#
# Compressibility (1/GPa) = 0.05941169
#
# Stress axis : x y z
#
# Youngs Moduli (GPa) = 89.48711 23.58582 50.11602
#
# Poissons Ratio (x) = 0.02694 0.48646
# Poissons Ratio (y) = 0.10222 -0.19001
# Poissons Ratio (z) = 0.86863 -0.08942
#
# Static dielectric constant tensor:
#      x y z
#    x 1.728980 0.000000 0.000000 
#    y 0.000000 1.769700 0.000000 
#    z 0.000000 0.000000 1.658630 
# 
# From -- ./inp_files/12733.got.cif
#   From: 2010.05.17/outbox.cif.g08.bks.cpg/sg51_7_cif.got.tgz:12733.got - 2010.06.03 11:52:47.
