data_PCOD9404712
_publ_section_title
;
Structure prediction by ZEFSAII (Michael W. Deem and Ramdas Pophale) SiO2 
 PCOD9404712
Probable space group: P M M A
;
_chemical_formula_sum "Si O2"
_cell_formula_units_Z 44
_cell_length_a 8.178315
_cell_length_b 29.875222
_cell_length_c 9.497352
_cell_angle_alpha 90.000000
_cell_angle_beta 90.000000
_cell_angle_gamma 90.000000
_cell_volume 2320.478291
_symmetry_space_group_name_H-M "P M M A"
_symmetry_group_IT_number 51
_symmetry_cell_setting 'orthorhombic'
loop_
_space_group_symop_operation_xyz
x,y,z
1/2-x,-y,z
1/2+x,-y,-z
-x,y,-z
-x,-y,-z
1/2+x,y,-z
1/2-x,y,z
x,-y,z
loop_
_atom_site_type_symbol
_atom_site_label
_atom_site_fract_x
_atom_site_fract_y
_atom_site_fract_z
Si Si1 0.448065 0.500000 0.662211
Si Si2 0.552159 0.145277 0.837785
Si Si3 0.552485 0.951921 0.835974
Si Si4 0.052440 0.770410 0.339561
Si Si5 0.944719 0.414297 0.161185
Si Si6 0.054417 0.329812 0.339044
O O1 0.250000 0.500000 0.664945
O O2 0.500000 0.500000 0.500000
O O3 0.507434 0.544079 0.745205
O O4 0.750000 0.145559 0.832410
O O5 0.496422 0.096495 0.779730
O O6 0.491024 0.188523 0.754210
O O7 0.500000 0.148274 0.000000
O O8 0.750000 0.952070 0.829980
O O9 0.494874 0.000000 0.775826
O O10 0.500000 0.951875 0.000000
O O11 0.250000 0.770306 0.332585
O O12 0.995921 0.720322 0.298809
O O13 0.000000 0.777413 0.500000
O O14 0.750000 0.416853 0.162145
O O15 0.994799 0.368091 0.234873
O O16 0.000000 0.417107 0.000000
O O17 0.250000 0.329680 0.337276
O O18 0.000000 0.338621 0.500000
#
# Coordination Sequence:
#
# PCOD9404712 Si02
#       6
#     4   8   8   8   8   8
#     4  10  23  40  60  84 110 142 179 214 251 298
#     4   9  17  29  45  68  95 122 156 199 245 293
#     4   8  13  22  38  60  86 116 150 190 237 287
#     4   9  19  34  51  71  97 130 167 204 244 293
#     4  11  23  39  58  83 112 142 174 212 258 302
#     4  10  20  36  56  78 103 134 173 214 254 302
#
# _framework density 18.961608999999999
#
# number of rings (size 3 to 8) (size 9 to 14) (size 15 to 20)
#    0.000    2.545    0.000    1.909    0.000    5.091 
#    0.000    1.818    0.000    0.545    0.000    0.000 
#    0.000    0.000    0.000    0.000    0.000    0.000 
#
# Total GULP energy -245253.465482 kJ/mol
# GULP energy per Si atom -5573.942397 kJ/mol
# Density = 1.891845 g / cm^3
# Si number density = 18.961609 Si / 1000 Ang^3
#
#
#
# Elastic Constant Matrix: (Units=GPa)
#
#
# Indices 1 2 3 4 5 6 
#
# 1 17.4220 20.7817 10.3809 0.0000 0.0000 0.0000
# 2 20.7817 225.8585 112.9388 0.0000 0.0000 0.0000
# 3 10.3809 112.9388 99.2103 0.0000 0.0000 0.0000
# 4 0.0000 0.0000 0.0000 97.8217 0.0000 0.0000
# 5 0.0000 0.0000 0.0000 0.0000 27.1607 0.0000
# 6 0.0000 0.0000 0.0000 0.0000 0.0000 26.7185
#
#
#
# Elastic Compliance Matrix: (Units=1/GPa)
#
#
# Indices 1 2 3 4 5 6 
#
# 1 0.064475 -0.005941 0.000016 0.000000 0.000000 0.000000
# 2 -0.005941 0.010826 -0.011702 0.000000 0.000000 0.000000
# 3 0.000016 -0.011702 0.023399 0.000000 0.000000 0.000000
# 4 0.000000 0.000000 0.000000 0.010223 0.000000 0.000000
# 5 0.000000 0.000000 0.000000 0.000000 0.036818 0.000000
# 6 0.000000 0.000000 0.000000 0.000000 0.000000 0.037427
#
#
# Mechanical properties :
#
#
# Convention : Reuss Voigt Hill
#
# Bulk Modulus (GPa) = 15.76112 70.07708 42.91910
# Shear Modulus (GPa) = 20.87071 43.56614 32.21843
#
# Velocity S-wave (km/s) = 3.32125 4.79853 4.12653
# Velocity P-wave (km/s) = 4.79977 8.23035 6.73708
#
# Compressibility (1/GPa) = 0.06344726
#
# Stress axis : x y z
#
# Youngs Moduli (GPa) = 15.50987 92.37224 42.73612
#
# Poissons Ratio (x) = 0.54875 -0.00070
# Poissons Ratio (y) = 0.09214 0.50011
# Poissons Ratio (z) = -0.00025 1.08096
#
# Static dielectric constant tensor:
#      x y z
#    x 1.661570 0.000000 0.000000 
#    y 0.000000 1.730670 0.000000 
#    z 0.000000 0.000000 1.603820 
# 
# From -- ./inp_files/5695.got.cif
#   From: 2010.05.17/outbox.cif.g08.bks.cpg/sg51_3_cif.got.tgz:5695.got - 2010.06.03 11:52:47.
