data_PCOD9404221
_publ_section_title
;
Structure prediction by ZEFSAII (Michael W. Deem and Ramdas Pophale) SiO2 
 PCOD9404221
Probable space group: P M M A
;
_chemical_formula_sum "Si O2"
_cell_formula_units_Z 48
_cell_length_a 16.491300
_cell_length_b 9.933911
_cell_length_c 16.739463
_cell_angle_alpha 90.000000
_cell_angle_beta 90.000000
_cell_angle_gamma 90.000000
_cell_volume 2742.310829
_symmetry_space_group_name_H-M "P M M A"
_symmetry_group_IT_number 51
_symmetry_cell_setting 'orthorhombic'
loop_
_space_group_symop_operation_xyz
x,y,z
1/2-x,-y,z
1/2+x,-y,-z
-x,y,-z
-x,-y,-z
1/2+x,y,-z
1/2-x,y,z
x,-y,z
loop_
_atom_site_type_symbol
_atom_site_label
_atom_site_fract_x
_atom_site_fract_y
_atom_site_fract_z
Si Si1 0.949845 0.160250 0.227680
Si Si2 0.250000 0.348662 0.193449
Si Si3 0.588531 0.656169 0.701161
Si Si4 0.918159 0.836811 0.045734
Si Si5 0.750000 0.163124 0.959328
Si Si6 0.152898 0.846309 0.616986
Si Si7 0.847219 0.341088 0.527686
O O1 0.922854 0.201116 0.138850
O O2 0.882664 0.182142 0.295836
O O3 0.026068 0.245460 0.256676
O O4 0.968121 0.000000 0.225322
O O5 0.250000 0.500000 0.157679
O O6 0.171947 0.337678 0.249786
O O7 0.250000 0.236523 0.125581
O O8 0.560707 0.500000 0.702086
O O9 0.607306 0.694339 0.609546
O O10 0.833018 0.797075 0.005240
O O11 0.919235 0.000000 0.042614
O O12 0.000000 0.790240 0.000000
O O13 0.750000 0.000000 0.951173
O O14 0.250000 0.838044 0.620674
O O15 0.124968 0.744945 0.548147
O O16 0.130541 0.000000 0.595786
O O17 0.750000 0.319441 0.539123
O O18 0.858548 0.500000 0.513059
#
# Coordination Sequence:
#
# PCOD9404221 Si02
#       7
#     8   4   8   8   4   8   8
#     4  10  21  35  53  78 109 141 176 221 267 313
#     4  10  20  36  56  79 108 138 170 217 272 324
#     4  10  20  35  55  78 106 140 177 217 266 319
#     4   9  18  33  53  79 109 137 174 222 266 314
#     4  10  20  34  58  83 104 140 182 221 268 322
#     4   9  19  34  52  75 106 142 178 218 266 316
#     4   9  17  33  55  76 101 138 181 220 260 311
#
# _framework density 17.503485999999999
#
# number of rings (size 3 to 8) (size 9 to 14) (size 15 to 20)
#    0.000    2.500    0.833    1.000    1.167    4.000 
#    0.000    4.167    0.000    3.000    0.000    0.000 
#    0.000    0.000    0.000    0.000    0.000    0.000 
#
# Total GULP energy -267660.459255 kJ/mol
# GULP energy per Si atom -5576.259568 kJ/mol
# Density = 1.746365 g / cm^3
# Si number density = 17.503486 Si / 1000 Ang^3
#
#
#
# Elastic Constant Matrix: (Units=GPa)
#
#
# Indices 1 2 3 4 5 6 
#
# 1 63.0859 28.0850 46.2371 0.0000 0.0000 0.0000
# 2 28.0850 32.4427 51.2428 0.0000 0.0000 0.0000
# 3 46.2371 51.2428 144.7488 0.0000 0.0000 0.0000
# 4 0.0000 0.0000 0.0000 4.9023 0.0000 0.0000
# 5 0.0000 0.0000 0.0000 0.0000 24.0321 0.0000
# 6 0.0000 0.0000 0.0000 0.0000 0.0000 18.7151
#
#
#
# Elastic Compliance Matrix: (Units=1/GPa)
#
#
# Indices 1 2 3 4 5 6 
#
# 1 0.025828 -0.021158 -0.000760 0.000000 0.000000 0.000000
# 2 -0.021158 0.087253 -0.024130 0.000000 0.000000 0.000000
# 3 -0.000760 -0.024130 0.015694 0.000000 0.000000 0.000000
# 4 0.000000 0.000000 0.000000 0.203987 0.000000 0.000000
# 5 0.000000 0.000000 0.000000 0.000000 0.041611 0.000000
# 6 0.000000 0.000000 0.000000 0.000000 0.000000 0.053433
#
#
# Mechanical properties :
#
#
# Convention : Reuss Voigt Hill
#
# Bulk Modulus (GPa) = 27.26449 54.60082 40.93266
# Shear Modulus (GPa) = 9.39624 17.17741 13.28683
#
# Velocity S-wave (km/s) = 2.31945 3.13608 2.75816
# Velocity P-wave (km/s) = 4.77321 6.66148 5.79478
#
# Compressibility (1/GPa) = 0.03667775
#
# Stress axis : x y z
#
# Youngs Moduli (GPa) = 38.71804 11.46094 63.72061
#
# Poissons Ratio (x) = 0.24250 0.04842
# Poissons Ratio (y) = 0.81921 1.53757
# Poissons Ratio (z) = 0.02942 0.27655
#
# Static dielectric constant tensor:
#      x y z
#    x 1.613450 0.000000 0.000000 
#    y 0.000000 1.581370 0.000000 
#    z 0.000000 0.000000 1.574140 
# 
# From -- ./inp_files/24982.got.cif
#   From: 2010.05.17/outbox.cif.g08.bks.cpg/sg51_13_cif.got.tgz:24982.got - 2010.06.03 11:52:47.
