data_PCOD9404214
_publ_section_title
;
Structure prediction by ZEFSAII (Michael W. Deem and Ramdas Pophale) SiO2 
 PCOD9404214
Probable space group: P M M A
;
_chemical_formula_sum "Si O2"
_cell_formula_units_Z 48
_cell_length_a 8.661101
_cell_length_b 21.041583
_cell_length_c 14.430215
_cell_angle_alpha 90.000000
_cell_angle_beta 90.000000
_cell_angle_gamma 90.000000
_cell_volume 2629.809649
_symmetry_space_group_name_H-M "P M M A"
_symmetry_group_IT_number 51
_symmetry_cell_setting 'orthorhombic'
loop_
_space_group_symop_operation_xyz
x,y,z
1/2-x,-y,z
1/2+x,-y,-z
-x,y,-z
-x,-y,-z
1/2+x,y,-z
1/2-x,y,z
x,-y,z
loop_
_atom_site_type_symbol
_atom_site_label
_atom_site_fract_x
_atom_site_fract_y
_atom_site_fract_z
Si Si1 0.435296 0.327006 0.601181
Si Si2 0.065476 0.500000 0.895537
Si Si3 0.936708 0.000000 0.895773
Si Si4 0.434563 0.178705 0.600673
Si Si5 0.435598 0.621224 0.213156
Si Si6 0.436585 0.126356 0.214366
Si Si7 0.935897 0.251618 0.896944
O O1 0.500000 0.343911 0.500000
O O2 0.250000 0.330655 0.601231
O O3 0.480466 0.252776 0.618362
O O4 0.504236 0.369881 0.682507
O O5 0.250000 0.500000 0.899695
O O6 0.006186 0.438415 0.840220
O O7 0.000000 0.500000 0.000000
O O8 0.984971 0.937230 0.839179
O O9 0.750000 0.000000 0.900751
O O10 0.000000 0.000000 0.000000
O O11 0.500000 0.161337 0.500000
O O12 0.250000 0.176161 0.598766
O O13 0.498633 0.135356 0.682783
O O14 0.250000 0.616470 0.212996
O O15 0.482113 0.685469 0.158844
O O16 0.250000 0.126592 0.219219
O O17 0.487338 0.188105 0.155958
O O18 0.750000 0.250561 0.900520
O O19 0.000000 0.253246 0.000000
#
# Coordination Sequence:
#
# PCOD9404214 Si02
#       7
#     8   4   4   8   8   8   8
#     4  10  20  35  58  89 121 154 192 238 293 351
#     4  12  26  44  63  86 119 160 200 242 292 350
#     4  10  22  38  59  82 115 158 197 240 292 348
#     4  10  20  34  57  87 117 152 190 238 292 348
#     4  11  22  39  61  87 117 155 196 241 293 347
#     4  10  20  37  56  82 115 152 194 240 291 344
#     4  10  21  34  54  81 112 145 187 240 289 338
#
# _framework density 18.252271
#
# number of rings (size 3 to 8) (size 9 to 14) (size 15 to 20)
#    0.000    1.667    1.667    3.250    0.000    5.333 
#    0.000    0.833    0.000    0.000    0.000    0.000 
#    0.000    0.000    0.000    0.000    0.000    0.000 
#
# Total GULP energy -268211.179914 kJ/mol
# GULP energy per Si atom -5587.732915 kJ/mol
# Density = 1.821073 g / cm^3
# Si number density = 18.252271 Si / 1000 Ang^3
#
#
#
# Elastic Constant Matrix: (Units=GPa)
#
#
# Indices 1 2 3 4 5 6 
#
# 1 49.7033 47.5816 51.3771 0.0000 0.0000 0.0000
# 2 47.5816 152.9951 102.3189 0.0000 0.0000 0.0000
# 3 51.3771 102.3189 199.7254 0.0000 0.0000 0.0000
# 4 0.0000 0.0000 0.0000 33.3093 0.0000 0.0000
# 5 0.0000 0.0000 0.0000 0.0000 40.4475 0.0000
# 6 0.0000 0.0000 0.0000 0.0000 0.0000 12.8941
#
#
#
# Elastic Compliance Matrix: (Units=1/GPa)
#
#
# Indices 1 2 3 4 5 6 
#
# 1 0.031257 -0.006608 -0.004656 0.000000 0.000000 0.000000
# 2 -0.006608 0.011339 -0.004109 0.000000 0.000000 0.000000
# 3 -0.004656 -0.004109 0.008310 0.000000 0.000000 0.000000
# 4 0.000000 0.000000 0.000000 0.030022 0.000000 0.000000
# 5 0.000000 0.000000 0.000000 0.000000 0.024723 0.000000
# 6 0.000000 0.000000 0.000000 0.000000 0.000000 0.077555
#
#
# Mechanical properties :
#
#
# Convention : Reuss Voigt Hill
#
# Bulk Modulus (GPa) = 49.60005 89.44212 69.52108
# Shear Modulus (GPa) = 22.65815 30.73994 26.69904
#
# Velocity S-wave (km/s) = 3.52716 4.10832 3.82878
# Velocity P-wave (km/s) = 6.61978 8.46251 7.59722
#
# Compressibility (1/GPa) = 0.02016127
#
# Stress axis : x y z
#
# Youngs Moduli (GPa) = 31.99272 88.18828 120.34114
#
# Poissons Ratio (x) = 0.58270 0.56025
# Poissons Ratio (y) = 0.21139 0.49453
# Poissons Ratio (z) = 0.14894 0.36240
#
# Static dielectric constant tensor:
#      x y z
#    x 1.611400 0.000000 0.000000 
#    y 0.000000 1.619340 0.000000 
#    z 0.000000 0.000000 1.596340 
# 
# From -- ./inp_files/21227.got.cif
#   From: 2010.05.17/outbox.cif.g08.bks.cpg/sg51_11_cif.got.tgz:21227.got - 2010.06.03 11:52:47.
