data_PCOD9404748
_publ_section_title
;
Structure prediction by ZEFSAII (Michael W. Deem and Ramdas Pophale) SiO2 
 PCOD9404748
Probable space group: P M M A
;
_chemical_formula_sum "Si O2"
_cell_formula_units_Z 64
_cell_length_a 15.117821
_cell_length_b 20.664773
_cell_length_c 9.978399
_cell_angle_alpha 90.000000
_cell_angle_beta 90.000000
_cell_angle_gamma 90.000000
_cell_volume 3117.315103
_symmetry_space_group_name_H-M "P M M A"
_symmetry_group_IT_number 51
_symmetry_cell_setting 'orthorhombic'
loop_
_space_group_symop_operation_xyz
x,y,z
1/2-x,-y,z
1/2+x,-y,-z
-x,y,-z
-x,-y,-z
1/2+x,y,-z
1/2-x,y,z
x,-y,z
loop_
_atom_site_type_symbol
_atom_site_label
_atom_site_fract_x
_atom_site_fract_y
_atom_site_fract_z
Si Si1 0.641350 0.314744 0.972649
Si Si2 0.467476 0.073030 0.151625
Si Si3 0.913669 0.071611 0.404427
Si Si4 0.605067 0.426123 0.482105
Si Si5 0.852791 0.209877 0.484056
Si Si6 0.646023 0.572815 0.780364
Si Si7 0.143017 0.802532 0.218039
Si Si8 0.644268 0.686015 0.277313
O O1 0.750000 0.316678 0.972613
O O2 0.609671 0.315575 0.125755
O O3 0.609388 0.376183 0.886221
O O4 0.616829 0.249832 0.893167
O O5 0.549433 0.079051 0.254105
O O6 0.397535 0.127946 0.186116
O O7 0.431826 0.000000 0.170609
O O8 0.500000 0.079732 0.000000
O O9 0.859593 0.134701 0.444419
O O10 0.000000 0.072200 0.500000
O O11 0.872141 0.000000 0.418630
O O12 0.500000 0.427261 0.500000
O O13 0.636501 0.500000 0.460857
O O14 0.639783 0.403134 0.627034
O O15 0.629466 0.379324 0.361203
O O16 0.750000 0.228234 0.493650
O O17 0.889386 0.217983 0.633718
O O18 0.892281 0.255721 0.369418
O O19 0.750000 0.567073 0.809878
O O20 0.606877 0.500000 0.785416
O O21 0.250000 0.806216 0.220653
O O22 0.750000 0.695391 0.263608
#
# Coordination Sequence:
#
# PCOD9404748 Si02
#       8
#     8   8   8   8   8   8   8   8
#     4   9  19  35  55  81 111 141 179 229 275 321
#     4  10  22  39  57  81 112 146 185 229 277 335
#     4  10  20  37  58  81 112 145 181 229 280 329
#     4  10  21  37  56  81 113 146 182 226 274 323
#     4  10  21  36  57  84 112 145 186 232 280 331
#     4   9  17  33  58  82 106 142 184 222 265 322
#     4  10  20  36  57  80 110 147 185 230 280 332
#     4  10  21  37  57  82 111 143 182 228 275 324
#
# _framework density 20.530487000000001
#
# number of rings (size 3 to 8) (size 9 to 14) (size 15 to 20)
#    0.000    2.250    1.250    1.125    1.750    4.250 
#    2.250    3.125    0.000    4.500    0.000    0.000 
#    0.000    0.000    0.000    0.000    0.000    0.000 
#
# Total GULP energy -357261.546833 kJ/mol
# GULP energy per Si atom -5582.211669 kJ/mol
# Density = 2.048376 g / cm^3
# Si number density = 20.530487 Si / 1000 Ang^3
#
#
#
# Elastic Constant Matrix: (Units=GPa)
#
#
# Indices 1 2 3 4 5 6 
#
# 1 25.1288 7.6695 6.5553 0.0000 0.0000 0.0000
# 2 7.6695 122.4354 92.3887 0.0000 0.0000 0.0000
# 3 6.5553 92.3887 194.5686 0.0000 0.0000 0.0000
# 4 0.0000 0.0000 0.0000 36.4130 0.0000 0.0000
# 5 0.0000 0.0000 0.0000 0.0000 6.1748 0.0000
# 6 0.0000 0.0000 0.0000 0.0000 0.0000 22.3481
#
#
#
# Elastic Compliance Matrix: (Units=1/GPa)
#
#
# Indices 1 2 3 4 5 6 
#
# 1 0.040578 -0.002354 -0.000250 0.000000 0.000000 0.000000
# 2 -0.002354 0.012865 -0.006029 0.000000 0.000000 0.000000
# 3 -0.000250 -0.006029 0.008011 0.000000 0.000000 0.000000
# 4 0.000000 0.000000 0.000000 0.027463 0.000000 0.000000
# 5 0.000000 0.000000 0.000000 0.000000 0.161948 0.000000
# 6 0.000000 0.000000 0.000000 0.000000 0.000000 0.044747
#
#
# Mechanical properties :
#
#
# Convention : Reuss Voigt Hill
#
# Bulk Modulus (GPa) = 22.63005 61.70666 42.16836
# Shear Modulus (GPa) = 15.26223 28.68845 21.97534
#
# Velocity S-wave (km/s) = 2.72948 3.74218 3.27521
# Velocity P-wave (km/s) = 4.58039 6.98522 5.90649
#
# Compressibility (1/GPa) = 0.04418902
#
# Stress axis : x y z
#
# Youngs Moduli (GPa) = 24.64367 77.73207 124.82903
#
# Poissons Ratio (x) = 0.18295 0.03116
# Poissons Ratio (y) = 0.05800 0.75264
# Poissons Ratio (z) = 0.00615 0.46867
#
# Static dielectric constant tensor:
#      x y z
#    x 1.771730 0.000000 0.000000 
#    y 0.000000 1.737730 0.000000 
#    z 0.000000 0.000000 1.732490 
# 
# From -- ./inp_files/11223.got.cif
#   From: 2010.05.17/outbox.cif.g08.bks.cpg/sg51_6_cif.got.tgz:11223.got - 2010.06.03 11:52:47.
