data_PCOD9404039
_publ_section_title
;
Structure prediction by ZEFSAII (Michael W. Deem and Ramdas Pophale) SiO2 
 PCOD9404039
Probable space group: P M M A
;
_chemical_formula_sum "Si O2"
_cell_formula_units_Z 40
_cell_length_a 8.935892
_cell_length_b 8.242428
_cell_length_c 27.380686
_cell_angle_alpha 90.000000
_cell_angle_beta 90.000000
_cell_angle_gamma 90.000000
_cell_volume 2016.681889
_symmetry_space_group_name_H-M "P M M A"
_symmetry_group_IT_number 51
_symmetry_cell_setting 'orthorhombic'
loop_
_space_group_symop_operation_xyz
x,y,z
1/2-x,-y,z
1/2+x,-y,-z
-x,y,-z
-x,-y,-z
1/2+x,y,-z
1/2-x,y,z
x,-y,z
loop_
_atom_site_type_symbol
_atom_site_label
_atom_site_fract_x
_atom_site_fract_y
_atom_site_fract_z
Si Si1 0.250000 0.811931 0.194126
Si Si2 0.250000 0.694236 0.469170
Si Si3 0.925982 0.193388 0.150449
Si Si4 0.250000 0.683859 0.299344
Si Si5 0.051646 0.188600 0.383031
Si Si6 0.926314 0.303677 0.947978
Si Si7 0.750000 0.304766 0.418595
O O1 0.416259 0.745567 0.177024
O O2 0.250000 0.796876 0.252553
O O3 0.250000 0.000000 0.178096
O O4 0.250000 0.500000 0.469765
O O5 0.384321 0.754393 0.435452
O O6 0.250000 0.750692 0.524706
O O7 0.750000 0.250945 0.160233
O O8 0.970711 0.230106 0.094547
O O9 0.921053 0.000000 0.159575
O O10 0.250000 0.500000 0.281757
O O11 0.383984 0.717246 0.336901
O O12 0.884155 0.232416 0.389032
O O13 0.083145 0.000000 0.376738
O O14 0.750000 0.254119 0.944228
O O15 0.929016 0.500000 0.943300
O O16 0.000000 0.261892 0.000000
O O17 0.750000 0.500000 0.419226
#
# Coordination Sequence:
#
# PCOD9404039 Si02
#       7
#     4   4   8   4   8   8   4
#     4  10  21  41  64  86 119 152 192 249 302 357
#     4  10  20  35  56  81 115 159 196 236 290 347
#     4  10  21  38  61  89 118 153 195 242 297 356
#     4  11  23  42  65  85 111 149 190 236 296 359
#     4  11  22  37  58  84 115 152 195 242 292 348
#     4  10  20  34  54  82 119 161 201 243 293 348
#     4  11  22  36  55  84 121 156 194 239 290 347
#
# _framework density 19.834561000000001
#
# number of rings (size 3 to 8) (size 9 to 14) (size 15 to 20)
#    0.000    1.600    1.000    5.700    0.000    6.400 
#    1.800    0.000    0.000    0.000    0.000    0.000 
#    0.000    0.000    0.000    0.000    0.000    0.000 
#
# Total GULP energy -222698.964557 kJ/mol
# GULP energy per Si atom -5567.474114 kJ/mol
# Density = 1.978942 g / cm^3
# Si number density = 19.834561 Si / 1000 Ang^3
#
#
#
# Elastic Constant Matrix: (Units=GPa)
#
#
# Indices 1 2 3 4 5 6 
#
# 1 198.8425 1.8526 43.9807 0.0000 0.0000 0.0000
# 2 1.8526 28.4437 -12.8602 0.0000 0.0000 0.0000
# 3 43.9807 -12.8602 86.2274 0.0000 0.0000 0.0000
# 4 0.0000 0.0000 0.0000 25.5430 0.0000 0.0000
# 5 0.0000 0.0000 0.0000 0.0000 153.1952 0.0000
# 6 0.0000 0.0000 0.0000 0.0000 0.0000 20.4543
#
#
#
# Elastic Compliance Matrix: (Units=1/GPa)
#
#
# Indices 1 2 3 4 5 6 
#
# 1 0.005756 -0.001825 -0.003208 0.000000 0.000000 0.000000
# 2 -0.001825 0.038278 0.006640 0.000000 0.000000 0.000000
# 3 -0.003208 0.006640 0.014224 0.000000 0.000000 0.000000
# 4 0.000000 0.000000 0.000000 0.039150 0.000000 0.000000
# 5 0.000000 0.000000 0.000000 0.000000 0.006528 0.000000
# 6 0.000000 0.000000 0.000000 0.000000 0.000000 0.048889
#
#
# Mechanical properties :
#
#
# Convention : Reuss Voigt Hill
#
# Bulk Modulus (GPa) = 16.26785 42.16221 29.21503
# Shear Modulus (GPa) = 29.39427 58.54119 43.96773
#
# Velocity S-wave (km/s) = 3.85382 5.43864 4.71332
# Velocity P-wave (km/s) = 5.29359 7.79368 6.66197
#
# Compressibility (1/GPa) = 0.06147095
#
# Stress axis : x y z
#
# Youngs Moduli (GPa) = 173.74217 26.12458 70.30490
#
# Poissons Ratio (x) = 0.04768 0.22553
# Poissons Ratio (y) = 0.31713 -0.46682
# Poissons Ratio (z) = 0.55735 -0.17347
#
# Static dielectric constant tensor:
#      x y z
#    x 1.738060 0.000000 0.000000 
#    y 0.000000 1.714310 0.000000 
#    z 0.000000 0.000000 1.647780 
# 
# From -- ./inp_files/36103.got.cif
#   From: 2010.05.17/outbox.cif.g08.bks.cpg/sg51_19_cif.got.tgz:36103.got - 2010.06.03 11:52:47.
