data_PCOD9404938
_publ_section_title
;
Structure prediction by ZEFSAII (Michael W. Deem and Ramdas Pophale) SiO2 
 PCOD9404938
Probable space group: P M M A
;
_chemical_formula_sum "Si O2"
_cell_formula_units_Z 56
_cell_length_a 20.751954
_cell_length_b 13.875836
_cell_length_c 9.905739
_cell_angle_alpha 90.000000
_cell_angle_beta 90.000000
_cell_angle_gamma 90.000000
_cell_volume 2852.364582
_symmetry_space_group_name_H-M "P M M A"
_symmetry_group_IT_number 51
_symmetry_cell_setting 'orthorhombic'
loop_
_space_group_symop_operation_xyz
x,y,z
1/2-x,-y,z
1/2+x,-y,-z
-x,y,-z
-x,-y,-z
1/2+x,y,-z
1/2-x,y,z
x,-y,z
loop_
_atom_site_type_symbol
_atom_site_label
_atom_site_fract_x
_atom_site_fract_y
_atom_site_fract_z
Si Si1 0.677365 0.608154 0.902310
Si Si2 0.924546 0.115431 0.983944
Si Si3 0.868130 0.608440 0.193065
Si Si4 0.994128 0.391987 0.661868
Si Si5 0.322919 0.185013 0.792701
Si Si6 0.826438 0.890292 0.505397
Si Si7 0.612854 0.762077 0.730004
O O1 0.750000 0.617850 0.958156
O O2 0.671724 0.500000 0.846444
O O3 0.629614 0.616807 0.029748
O O4 0.665259 0.689665 0.793357
O O5 0.877520 0.158003 0.099073
O O6 0.919676 0.000000 0.988186
O O7 0.901516 0.157580 0.841706
O O8 0.000000 0.141940 0.000000
O O9 0.842596 0.500000 0.220789
O O10 0.827716 0.700854 0.237691
O O11 0.937118 0.615934 0.264738
O O12 0.968802 0.500000 0.694178
O O13 0.948325 0.306625 0.708590
O O14 0.000000 0.386525 0.500000
O O15 0.250000 0.162595 0.840543
O O16 0.334984 0.129379 0.653341
O O17 0.750000 0.881052 0.533697
O O18 0.864524 0.813527 0.594311
O O19 0.846007 0.000000 0.537184
#
# Coordination Sequence:
#
# PCOD9404938 Si02
#       7
#     8   8   8   8   8   8   8
#     4  10  21  36  56  88 126 159 198 249 307 373
#     4  11  25  42  60  88 125 161 206 264 320 378
#     4  10  20  36  60  90 128 165 201 250 307 369
#     4  10  22  39  60  90 127 169 215 256 304 376
#     4  11  22  41  68  94 123 166 214 262 320 384
#     4  10  23  42  63  90 123 160 210 268 324 386
#     4  12  22  37  64  88 120 161 205 257 316 369
#
# _framework density 19.632833999999999
#
# number of rings (size 3 to 8) (size 9 to 14) (size 15 to 20)
#    0.000    1.429    1.429    3.857    0.000    2.286 
#    0.000    2.857    0.000    6.000    0.000    0.000 
#    0.000    0.000    0.000    0.000    0.000    0.000 
#
# Total GULP energy -312735.331610 kJ/mol
# GULP energy per Si atom -5584.559493 kJ/mol
# Density = 1.958815 g / cm^3
# Si number density = 19.632834 Si / 1000 Ang^3
#
#
#
# Elastic Constant Matrix: (Units=GPa)
#
#
# Indices 1 2 3 4 5 6 
#
# 1 103.4969 40.8273 55.0294 0.0000 0.0000 0.0000
# 2 40.8273 101.3453 29.6471 0.0000 0.0000 0.0000
# 3 55.0294 29.6471 70.4465 0.0000 0.0000 0.0000
# 4 0.0000 0.0000 0.0000 26.8029 0.0000 0.0000
# 5 0.0000 0.0000 0.0000 0.0000 27.5677 0.0000
# 6 0.0000 0.0000 0.0000 0.0000 0.0000 27.5715
#
#
#
# Elastic Compliance Matrix: (Units=1/GPa)
#
#
# Indices 1 2 3 4 5 6 
#
# 1 0.017545 -0.003488 -0.012237 0.000000 0.000000 0.000000
# 2 -0.003488 0.011946 -0.002303 0.000000 0.000000 0.000000
# 3 -0.012237 -0.002303 0.024723 0.000000 0.000000 0.000000
# 4 0.000000 0.000000 0.000000 0.037309 0.000000 0.000000
# 5 0.000000 0.000000 0.000000 0.000000 0.036274 0.000000
# 6 0.000000 0.000000 0.000000 0.000000 0.000000 0.036269
#
#
# Mechanical properties :
#
#
# Convention : Reuss Voigt Hill
#
# Bulk Modulus (GPa) = 55.07159 58.47738 56.77448
# Shear Modulus (GPa) = 24.25123 26.37408 25.31265
#
# Velocity S-wave (km/s) = 3.51841 3.66917 3.59458
# Velocity P-wave (km/s) = 6.67961 6.91380 6.79771
#
# Compressibility (1/GPa) = 0.01815818
#
# Stress axis : x y z
#
# Youngs Moduli (GPa) = 56.99781 83.70941 40.44789
#
# Poissons Ratio (x) = 0.29199 0.49496
# Poissons Ratio (y) = 0.19882 0.09314
# Poissons Ratio (z) = 0.69748 0.19276
#
# Static dielectric constant tensor:
#      x y z
#    x 1.700470 0.000000 0.000000 
#    y 0.000000 1.697660 0.000000 
#    z 0.000000 0.000000 1.659770 
# 
# From -- ./inp_files/11037.got.cif
#   From: 2010.05.17/outbox.cif.g08.bks.cpg/sg51_6_cif.got.tgz:11037.got - 2010.06.03 11:52:47.
