data_PCOD9404516
_publ_section_title
;
Structure prediction by ZEFSAII (Michael W. Deem and Ramdas Pophale) SiO2 
 PCOD9404516
Probable space group: P M M A
;
_chemical_formula_sum "Si O2"
_cell_formula_units_Z 48
_cell_length_a 14.173062
_cell_length_b 15.341117
_cell_length_c 12.019515
_cell_angle_alpha 90.000000
_cell_angle_beta 90.000000
_cell_angle_gamma 90.000000
_cell_volume 2613.410387
_symmetry_space_group_name_H-M "P M M A"
_symmetry_group_IT_number 51
_symmetry_cell_setting 'orthorhombic'
loop_
_space_group_symop_operation_xyz
x,y,z
1/2-x,-y,z
1/2+x,-y,-z
-x,y,-z
-x,-y,-z
1/2+x,y,-z
1/2-x,y,z
x,-y,z
loop_
_atom_site_type_symbol
_atom_site_label
_atom_site_fract_x
_atom_site_fract_y
_atom_site_fract_z
Si Si1 0.973004 0.901743 0.131460
Si Si2 0.395353 0.684197 0.017584
Si Si3 0.860840 0.500000 0.629038
Si Si4 0.354425 0.805800 0.221739
Si Si5 0.528484 0.681808 0.621665
Si Si6 0.356875 0.735912 0.780513
Si Si7 0.143197 0.500000 0.105898
O O1 0.899309 0.829155 0.176821
O O2 0.069742 0.880019 0.196284
O O3 0.939485 0.000000 0.153252
O O4 0.000000 0.897965 0.000000
O O5 0.351234 0.683100 0.896265
O O6 0.500000 0.718303 0.000000
O O7 0.350563 0.746177 0.109953
O O8 0.403204 0.588280 0.066690
O O9 0.750000 0.500000 0.587134
O O10 0.922043 0.412920 0.603946
O O11 0.853214 0.500000 0.762081
O O12 0.250000 0.837288 0.247398
O O13 0.395381 0.742610 0.316675
O O14 0.500000 0.714610 0.500000
O O15 0.434528 0.690119 0.700084
O O16 0.250000 0.743278 0.734737
O O17 0.250000 0.500000 0.062147
#
# Coordination Sequence:
#
# PCOD9404516 Si02
#       7
#     8   8   4   8   8   8   4
#     4  10  20  35  56  89 126 154 183 229 292 362
#     4  12  19  35  54  82 116 151 191 236 288 348
#     4  11  21  38  62  86 114 152 199 248 294 339
#     4  11  20  36  61  84 113 151 191 236 291 353
#     4  11  24  41  58  84 116 154 205 251 286 334
#     4  11  22  38  59  84 120 159 192 238 295 350
#     4  11  21  30  51  84 113 147 190 233 281 340
#
# _framework density 18.366806
#
# number of rings (size 3 to 8) (size 9 to 14) (size 15 to 20)
#    0.000    1.000    6.667    2.500    0.000    2.667 
#    0.000    2.917    0.000    8.000    0.000    9.333 
#    0.000    0.000    0.000    0.000    0.000    0.000 
#
# Total GULP energy -267505.204628 kJ/mol
# GULP energy per Si atom -5573.025096 kJ/mol
# Density = 1.832500 g / cm^3
# Si number density = 18.366806 Si / 1000 Ang^3
#
#
#
# Elastic Constant Matrix: (Units=GPa)
#
#
# Indices 1 2 3 4 5 6 
#
# 1 124.0776 1.8148 13.2207 0.0000 0.0000 0.0000
# 2 1.8148 54.6560 -7.9735 0.0000 0.0000 0.0000
# 3 13.2207 -7.9735 77.4199 0.0000 0.0000 0.0000
# 4 0.0000 0.0000 0.0000 5.1551 0.0000 0.0000
# 5 0.0000 0.0000 0.0000 0.0000 0.7049 0.0000
# 6 0.0000 0.0000 0.0000 0.0000 0.0000 12.4685
#
#
#
# Elastic Compliance Matrix: (Units=1/GPa)
#
#
# Indices 1 2 3 4 5 6 
#
# 1 0.008221 -0.000485 -0.001454 0.000000 0.000000 0.000000
# 2 -0.000485 0.018604 0.001999 0.000000 0.000000 0.000000
# 3 -0.001454 0.001999 0.013371 0.000000 0.000000 0.000000
# 4 0.000000 0.000000 0.000000 0.193983 0.000000 0.000000
# 5 0.000000 0.000000 0.000000 0.000000 1.418542 0.000000
# 6 0.000000 0.000000 0.000000 0.000000 0.000000 0.080202
#
#
# Mechanical properties :
#
#
# Convention : Reuss Voigt Hill
#
# Bulk Modulus (GPa) = 24.80412 30.03083 27.41747
# Shear Modulus (GPa) = 2.86329 20.27182 11.56755
#
# Velocity S-wave (km/s) = 1.24993 3.32583 2.51232
# Velocity P-wave (km/s) = 3.95187 5.57981 4.83485
#
# Compressibility (1/GPa) = 0.04031589
#
# Stress axis : x y z
#
# Youngs Moduli (GPa) = 121.63253 53.75202 74.79029
#
# Poissons Ratio (x) = 0.02607 0.10874
# Poissons Ratio (y) = 0.05900 -0.14950
# Poissons Ratio (z) = 0.17684 -0.10744
#
# Static dielectric constant tensor:
#      x y z
#    x 1.693700 0.000000 0.000000 
#    y 0.000000 1.898960 0.000000 
#    z 0.000000 0.000000 1.624110 
# 
# From -- ./inp_files/16504.got.cif
#   From: 2010.05.17/outbox.cif.g08.bks.cpg/sg51_9_cif.got.tgz:16504.got - 2010.06.03 11:52:47.
