data_PCOD9404883
_publ_section_title
;
Structure prediction by ZEFSAII (Michael W. Deem and Ramdas Pophale) SiO2 
 PCOD9404883
Probable space group: P M M A
;
_chemical_formula_sum "Si O2"
_cell_formula_units_Z 64
_cell_length_a 8.755312
_cell_length_b 24.260254
_cell_length_c 15.266835
_cell_angle_alpha 90.000000
_cell_angle_beta 90.000000
_cell_angle_gamma 90.000000
_cell_volume 3242.768774
_symmetry_space_group_name_H-M "P M M A"
_symmetry_group_IT_number 51
_symmetry_cell_setting 'orthorhombic'
loop_
_space_group_symop_operation_xyz
x,y,z
1/2-x,-y,z
1/2+x,-y,-z
-x,y,-z
-x,-y,-z
1/2+x,y,-z
1/2-x,y,z
x,-y,z
loop_
_atom_site_type_symbol
_atom_site_label
_atom_site_fract_x
_atom_site_fract_y
_atom_site_fract_z
Si Si1 0.567084 0.764503 0.094762
Si Si2 0.932957 0.113806 0.907147
Si Si3 0.932868 0.719738 0.402868
Si Si4 0.933708 0.938501 0.724853
Si Si5 0.930843 0.437882 0.227113
Si Si6 0.931440 0.151956 0.404071
Si Si7 0.578941 0.565139 0.585897
Si Si8 0.568602 0.324474 0.773529
O O1 0.750000 0.765872 0.091927
O O2 0.503347 0.825900 0.111741
O O3 0.509695 0.722336 0.167796
O O4 0.500000 0.748010 0.000000
O O5 0.750000 0.119162 0.914322
O O6 0.969833 0.074523 0.826019
O O7 0.000000 0.094980 0.000000
O O8 0.750000 0.710984 0.403387
O O9 0.964568 0.784244 0.380731
O O10 0.000000 0.711209 0.500000
O O11 0.009580 0.684317 0.326095
O O12 0.750000 0.936646 0.716436
O O13 0.002284 0.891011 0.664717
O O14 0.985951 0.000000 0.700616
O O15 0.750000 0.432587 0.213407
O O16 0.978286 0.500000 0.198835
O O17 0.970577 0.433976 0.330217
O O18 0.018191 0.384666 0.191017
O O19 0.750000 0.146277 0.408180
O O20 0.000000 0.141618 0.500000
O O21 0.500000 0.589542 0.500000
O O22 0.750000 0.587465 0.603228
O O23 0.599063 0.500000 0.568442
O O24 0.750000 0.319005 0.776296
#
# Coordination Sequence:
#
# PCOD9404883 Si02
#       8
#     8   8   8   8   8   8   8   8
#     4  11  22  39  63  91 120 148 185 233 287 344
#     4  10  20  36  59  86 117 152 189 231 284 342
#     4  10  21  38  59  86 118 151 192 240 292 348
#     4  10  22  38  55  79 114 155 198 242 285 334
#     4  10  21  37  55  76 105 143 186 229 275 330
#     4  10  21  37  59  83 109 146 190 240 294 345
#     4   9  16  27  44  66  93 128 172 220 266 313
#     4  12  24  38  59  87 118 152 189 232 285 341
#
# _framework density 19.736218999999998
#
# number of rings (size 3 to 8) (size 9 to 14) (size 15 to 20)
#    0.000    1.750    0.000    5.625    0.000    8.000 
#    0.000    2.500    0.000    0.375    0.000    0.000 
#    0.000    0.000    0.000    0.000    0.000    0.000 
#
# Total GULP energy -357585.257117 kJ/mol
# GULP energy per Si atom -5587.269642 kJ/mol
# Density = 1.969130 g / cm^3
# Si number density = 19.736219 Si / 1000 Ang^3
#
#
#
# Elastic Constant Matrix: (Units=GPa)
#
#
# Indices 1 2 3 4 5 6 
#
# 1 91.3632 42.9500 26.1638 0.0000 0.0000 0.0000
# 2 42.9500 106.1172 38.9649 0.0000 0.0000 0.0000
# 3 26.1638 38.9649 45.5108 0.0000 0.0000 0.0000
# 4 0.0000 0.0000 0.0000 -8.3291 0.0000 0.0000
# 5 0.0000 0.0000 0.0000 0.0000 32.5616 0.0000
# 6 0.0000 0.0000 0.0000 0.0000 0.0000 16.5887
#
#
#
# Elastic Compliance Matrix: (Units=1/GPa)
#
#
# Indices 1 2 3 4 5 6 
#
# 1 0.014181 -0.004005 -0.004723 0.000000 0.000000 0.000000
# 2 -0.004005 0.014876 -0.010434 0.000000 0.000000 0.000000
# 3 -0.004723 -0.010434 0.033621 0.000000 0.000000 0.000000
# 4 0.000000 0.000000 0.000000 -0.120060 0.000000 0.000000
# 5 0.000000 0.000000 0.000000 0.000000 0.030711 0.000000
# 6 0.000000 0.000000 0.000000 0.000000 0.000000 0.060282
#
#
# Mechanical properties :
#
#
# Convention : Reuss Voigt Hill
#
# Bulk Modulus (GPa) = 41.06192 51.01651 46.03921
# Shear Modulus (GPa) = 62.45966 17.15841 39.80904
#
# Velocity S-wave (km/s) = 5.63169 2.95174 4.49604
# Velocity P-wave (km/s) = 7.94597 6.12554 7.09439
#
# Compressibility (1/GPa) = 0.02435346
#
# Stress axis : x y z
#
# Youngs Moduli (GPa) = 70.51794 67.22387 29.74331
#
# Poissons Ratio (x) = 0.26925 0.14049
# Poissons Ratio (y) = 0.28244 0.31033
# Poissons Ratio (z) = 0.33308 0.70138
#
# Static dielectric constant tensor:
#      x y z
#    x 1.672550 0.000000 0.000000 
#    y 0.000000 1.730820 0.000000 
#    z 0.000000 0.000000 1.679430 
# 
# From -- ./inp_files/22286.got.cif
#   From: 2010.05.17/outbox.cif.g08.bks.cpg/sg51_12_cif.got.tgz:22286.got - 2010.06.03 11:52:47.
