data_PCOD9404237
_publ_section_title
;
Structure prediction by ZEFSAII (Michael W. Deem and Ramdas Pophale) SiO2 
 PCOD9404237
Probable space group: P M M A
;
_chemical_formula_sum "Si O2"
_cell_formula_units_Z 56
_cell_length_a 8.599497
_cell_length_b 30.656864
_cell_length_c 13.931637
_cell_angle_alpha 90.000000
_cell_angle_beta 90.000000
_cell_angle_gamma 90.000000
_cell_volume 3672.847755
_symmetry_space_group_name_H-M "P M M A"
_symmetry_group_IT_number 51
_symmetry_cell_setting 'orthorhombic'
loop_
_space_group_symop_operation_xyz
x,y,z
1/2-x,-y,z
1/2+x,-y,-z
-x,y,-z
-x,-y,-z
1/2+x,y,-z
1/2-x,y,z
x,-y,z
loop_
_atom_site_type_symbol
_atom_site_label
_atom_site_fract_x
_atom_site_fract_y
_atom_site_fract_z
Si Si1 0.064646 0.232393 0.608852
Si Si2 0.564501 0.593465 0.395985
Si Si3 0.438137 0.548918 0.207569
Si Si4 0.937076 0.141480 0.609388
Si Si5 0.562938 0.680140 0.699219
Si Si6 0.437731 0.046969 0.390778
Si Si7 0.436622 0.635725 0.103398
O O1 0.250000 0.232797 0.604916
O O2 0.000000 0.235980 0.500000
O O3 0.006718 0.185997 0.650680
O O4 0.001776 0.273448 0.667507
O O5 0.500000 0.581061 0.500000
O O6 0.750000 0.593547 0.396974
O O7 0.502774 0.562159 0.311701
O O8 0.502949 0.641739 0.368305
O O9 0.250000 0.550451 0.212647
O O10 0.485603 0.500000 0.180810
O O11 0.488594 0.586927 0.134464
O O12 0.750000 0.144837 0.608092
O O13 0.983073 0.094105 0.652298
O O14 0.000000 0.140449 0.500000
O O15 0.750000 0.679699 0.692111
O O16 0.518211 0.666828 0.807916
O O17 0.500000 0.046846 0.500000
O O18 0.250000 0.047155 0.394276
O O19 0.486775 0.000000 0.347582
O O20 0.250000 0.635589 0.099253
O O21 0.500000 0.648043 0.000000
#
# Coordination Sequence:
#
# PCOD9404237 Si02
#       7
#     8   8   8   8   8   8   8
#     4  11  20  29  42  61  85 113 144 179 217 256
#     4  11  21  33  49  69  92 118 147 177 210 247
#     4   9  19  36  53  70  94 121 147 174 204 239
#     4   9  15  23  34  49  72 102 136 175 216 255
#     4  10  20  35  50  66  88 113 142 174 210 250
#     4   8  13  20  30  44  63  91 130 174 215 251
#     4   9  19  34  53  73  92 113 136 168 207 248
#
# _framework density 15.247024
#
# number of rings (size 3 to 8) (size 9 to 14) (size 15 to 20)
#    0.000    2.429    0.000    5.571    0.000    4.286 
#    0.000    0.000    0.000    0.000    0.000    0.000 
#    0.000    0.000    0.000    0.000    0.000    0.714 
#
# Total GULP energy -311979.612208 kJ/mol
# GULP energy per Si atom -5571.064504 kJ/mol
# Density = 1.521232 g / cm^3
# Si number density = 15.247024 Si / 1000 Ang^3
#
#
#
# Elastic Constant Matrix: (Units=GPa)
#
#
# Indices 1 2 3 4 5 6 
#
# 1 45.3513 23.6106 7.7793 0.0000 0.0000 0.0000
# 2 23.6106 126.1799 15.8299 0.0000 0.0000 0.0000
# 3 7.7793 15.8299 47.4387 0.0000 0.0000 0.0000
# 4 0.0000 0.0000 0.0000 8.0385 0.0000 0.0000
# 5 0.0000 0.0000 0.0000 0.0000 18.5443 0.0000
# 6 0.0000 0.0000 0.0000 0.0000 0.0000 21.3762
#
#
#
# Elastic Compliance Matrix: (Units=1/GPa)
#
#
# Indices 1 2 3 4 5 6 
#
# 1 0.024739 -0.004300 -0.002622 0.000000 0.000000 0.000000
# 2 -0.004300 0.009019 -0.002304 0.000000 0.000000 0.000000
# 3 -0.002622 -0.002304 0.022279 0.000000 0.000000 0.000000
# 4 0.000000 0.000000 0.000000 0.124401 0.000000 0.000000
# 5 0.000000 0.000000 0.000000 0.000000 0.053925 0.000000
# 6 0.000000 0.000000 0.000000 0.000000 0.000000 0.046781
#
#
# Mechanical properties :
#
#
# Convention : Reuss Voigt Hill
#
# Bulk Modulus (GPa) = 26.60745 34.82327 30.71536
# Shear Modulus (GPa) = 16.01927 21.04180 18.53054
#
# Velocity S-wave (km/s) = 3.24489 3.71895 3.48998
# Velocity P-wave (km/s) = 5.61497 6.42882 6.03563
#
# Compressibility (1/GPa) = 0.03758346
#
# Stress axis : x y z
#
# Youngs Moduli (GPa) = 40.42276 110.87801 44.88581
#
# Poissons Ratio (x) = 0.47679 0.11769
# Poissons Ratio (y) = 0.17382 0.10343
# Poissons Ratio (z) = 0.10598 0.25550
#
# Static dielectric constant tensor:
#      x y z
#    x 1.511390 0.000000 0.000000 
#    y 0.000000 1.562740 0.000000 
#    z 0.000000 0.000000 1.469550 
# 
# From -- ./inp_files/22531.got.cif
#   From: 2010.05.17/outbox.cif.g08.bks.cpg/sg51_12_cif.got.tgz:22531.got - 2010.06.03 11:52:47.
