data_PCOD9404554
_publ_section_title
;
Structure prediction by ZEFSAII (Michael W. Deem and Ramdas Pophale) SiO2 
 PCOD9404554
Probable space group: P M M A
;
_chemical_formula_sum "Si O2"
_cell_formula_units_Z 40
_cell_length_a 16.187856
_cell_length_b 7.576744
_cell_length_c 14.983969
_cell_angle_alpha 90.000000
_cell_angle_beta 90.000000
_cell_angle_gamma 90.000000
_cell_volume 1837.802390
_symmetry_space_group_name_H-M "P M M A"
_symmetry_group_IT_number 51
_symmetry_cell_setting 'orthorhombic'
loop_
_space_group_symop_operation_xyz
x,y,z
1/2-x,-y,z
1/2+x,-y,-z
-x,y,-z
-x,-y,-z
1/2+x,y,-z
1/2-x,y,z
x,-y,z
loop_
_atom_site_type_symbol
_atom_site_label
_atom_site_fract_x
_atom_site_fract_y
_atom_site_fract_z
Si Si1 0.340083 0.287209 0.787029
Si Si2 0.496963 0.789093 0.100685
Si Si3 0.339789 0.791802 0.209433
Si Si4 0.903902 0.715013 0.402024
Si Si5 0.597221 0.287042 0.598249
O O1 0.250000 0.225539 0.818541
O O2 0.338373 0.500000 0.783926
O O3 0.417357 0.239844 0.848121
O O4 0.356517 0.224366 0.685696
O O5 0.419238 0.717674 0.157390
O O6 0.486194 0.000000 0.094981
O O7 0.500000 0.718745 0.000000
O O8 0.250000 0.715697 0.185856
O O9 0.354685 0.774937 0.315232
O O10 0.336922 0.000000 0.189504
O O11 0.901078 0.500000 0.402472
O O12 0.874011 0.772480 0.499979
O O13 0.000579 0.764064 0.393102
O O14 0.600124 0.500000 0.598995
#
# Coordination Sequence:
#
# PCOD9404554 Si02
#       5
#     8   8   8   8   8
#     4  10  20  35  57  84 113 143 175 218 271 319
#     4  10  22  40  60  79 102 139 183 226 274 324
#     4  10  21  36  53  77 109 140 174 222 276 321
#     4   8  15  29  51  80 111 141 175 215 257 306
#     4   9  16  30  54  80 106 142 183 217 253 309
#
# _framework density 21.765127
#
# number of rings (size 3 to 8) (size 9 to 14) (size 15 to 20)
#    0.000    2.600    2.000    1.200    0.000    2.800 
#    0.000    7.000    0.000    0.000    0.000    0.000 
#    0.000    0.000    0.000    0.000    0.000    0.000 
#
# Total GULP energy -223279.133664 kJ/mol
# GULP energy per Si atom -5581.978342 kJ/mol
# Density = 2.171559 g / cm^3
# Si number density = 21.765127 Si / 1000 Ang^3
#
#
#
# Elastic Constant Matrix: (Units=GPa)
#
#
# Indices 1 2 3 4 5 6 
#
# 1 176.8702 5.6043 105.2744 0.0000 0.0000 0.0000
# 2 5.6043 47.5023 1.9115 0.0000 0.0000 0.0000
# 3 105.2744 1.9115 160.1491 0.0000 0.0000 0.0000
# 4 0.0000 0.0000 0.0000 16.4619 0.0000 0.0000
# 5 0.0000 0.0000 0.0000 0.0000 -4.7135 0.0000
# 6 0.0000 0.0000 0.0000 0.0000 0.0000 16.9689
#
#
#
# Elastic Compliance Matrix: (Units=1/GPa)
#
#
# Indices 1 2 3 4 5 6 
#
# 1 0.009322 -0.000854 -0.006118 0.000000 0.000000 0.000000
# 2 -0.000854 0.021140 0.000309 0.000000 0.000000 0.000000
# 3 -0.006118 0.000309 0.010262 0.000000 0.000000 0.000000
# 4 0.000000 0.000000 0.000000 0.060746 0.000000 0.000000
# 5 0.000000 0.000000 0.000000 0.000000 -0.212157 0.000000
# 6 0.000000 0.000000 0.000000 0.000000 0.000000 0.058931
#
#
# Mechanical properties :
#
#
# Convention : Reuss Voigt Hill
#
# Bulk Modulus (GPa) = 36.49775 67.78910 52.14343
# Shear Modulus (GPa) = -170.66762 23.85890 -73.40436
#
# Velocity S-wave (km/s) = -8.86474 3.31448 -5.81368
# Velocity P-wave (km/s) = 9.37938 6.77208 4.58867
#
# Compressibility (1/GPa) = 0.02739895
#
# Stress axis : x y z
#
# Youngs Moduli (GPa) = 107.26978 47.30388 97.44625
#
# Poissons Ratio (x) = 0.04038 0.59616
# Poissons Ratio (y) = 0.09157 -0.03010
# Poissons Ratio (z) = 0.65626 -0.01461
#
# Static dielectric constant tensor:
#      x y z
#    x 1.800370 0.000000 0.000000 
#    y 0.000000 1.834060 0.000000 
#    z 0.000000 0.000000 1.773300 
# 
# From -- ./inp_files/23683.got.cif
#   From: 2010.05.17/outbox.cif.g08.bks.cpg/sg51_12_cif.got.tgz:23683.got - 2010.06.03 11:52:47.
