data_PCOD9404329
_publ_section_title
;
Structure prediction by ZEFSAII (Michael W. Deem and Ramdas Pophale) SiO2 
 PCOD9404329
Probable space group: P M M A
;
_chemical_formula_sum "Si O2"
_cell_formula_units_Z 48
_cell_length_a 8.603640
_cell_length_b 30.070464
_cell_length_c 10.388856
_cell_angle_alpha 90.000000
_cell_angle_beta 90.000000
_cell_angle_gamma 90.000000
_cell_volume 2687.757523
_symmetry_space_group_name_H-M "P M M A"
_symmetry_group_IT_number 51
_symmetry_cell_setting 'orthorhombic'
loop_
_space_group_symop_operation_xyz
x,y,z
1/2-x,-y,z
1/2+x,-y,-z
-x,y,-z
-x,-y,-z
1/2+x,y,-z
1/2-x,y,z
x,-y,z
loop_
_atom_site_type_symbol
_atom_site_label
_atom_site_fract_x
_atom_site_fract_y
_atom_site_fract_z
Si Si1 0.563936 0.719204 0.141628
Si Si2 0.564027 0.947782 0.858744
Si Si3 0.937415 0.449025 0.640371
Si Si4 0.935549 0.116106 0.360585
Si Si5 0.063956 0.784682 0.359015
Si Si6 0.062598 0.620234 0.140478
O O1 0.750000 0.719601 0.139219
O O2 0.500618 0.752364 0.249503
O O3 0.503843 0.669236 0.168330
O O4 0.500000 0.731452 0.000000
O O5 0.750000 0.942458 0.856717
O O6 0.488178 0.917563 0.749719
O O7 0.528021 0.000000 0.837103
O O8 0.500000 0.935928 0.000000
O O9 0.750000 0.448671 0.636114
O O10 0.987673 0.500000 0.666326
O O11 0.986004 0.414993 0.751185
O O12 0.000000 0.436253 0.500000
O O13 0.750000 0.119363 0.366464
O O14 0.000000 0.101658 0.500000
O O15 0.005581 0.165037 0.335244
O O16 0.250000 0.783860 0.360669
O O17 0.000000 0.771668 0.500000
O O18 0.250000 0.622651 0.136552
O O19 0.000000 0.607038 0.000000
#
# Coordination Sequence:
#
# PCOD9404329 Si02
#       6
#     8   8   8   8   8   8
#     4  11  22  38  58  82 111 144 183 226 274 325
#     4  10  21  38  59  84 114 148 187 231 278 328
#     4   9  19  35  54  77 106 139 177 221 267 318
#     4  11  22  38  59  84 114 148 186 228 276 327
#     4  11  22  39  60  84 113 145 183 226 274 326
#     4  10  20  35  54  78 108 141 179 222 269 321
#
# _framework density 17.858754999999999
#
# number of rings (size 3 to 8) (size 9 to 14) (size 15 to 20)
#    0.000    1.667    0.000    7.500    0.000    4.333 
#    0.000    5.000    0.000    0.000    0.000    0.000 
#    0.000    0.000    0.000    0.000    0.000    0.000 
#
# Total GULP energy -268202.757581 kJ/mol
# GULP energy per Si atom -5587.557450 kJ/mol
# Density = 1.781811 g / cm^3
# Si number density = 17.858755 Si / 1000 Ang^3
#
#
#
# Elastic Constant Matrix: (Units=GPa)
#
#
# Indices 1 2 3 4 5 6 
#
# 1 138.1398 60.1466 79.0091 0.0000 0.0000 0.0000
# 2 60.1466 98.3405 126.9014 0.0000 0.0000 0.0000
# 3 79.0091 126.9014 188.5114 0.0000 0.0000 0.0000
# 4 0.0000 0.0000 0.0000 42.7190 0.0000 0.0000
# 5 0.0000 0.0000 0.0000 0.0000 35.7767 0.0000
# 6 0.0000 0.0000 0.0000 0.0000 0.0000 43.7982
#
#
#
# Elastic Compliance Matrix: (Units=1/GPa)
#
#
# Indices 1 2 3 4 5 6 
#
# 1 0.009874 -0.005321 -0.000556 0.000000 0.000000 0.000000
# 2 -0.005321 0.080306 -0.051830 0.000000 0.000000 0.000000
# 3 -0.000556 -0.051830 0.040429 0.000000 0.000000 0.000000
# 4 0.000000 0.000000 0.000000 0.023409 0.000000 0.000000
# 5 0.000000 0.000000 0.000000 0.000000 0.027951 0.000000
# 6 0.000000 0.000000 0.000000 0.000000 0.000000 0.022832
#
#
# Mechanical properties :
#
#
# Convention : Reuss Voigt Hill
#
# Bulk Modulus (GPa) = 65.81652 106.34508 86.08080
# Shear Modulus (GPa) = 15.37134 35.05441 25.21287
#
# Velocity S-wave (km/s) = 2.93698 4.43524 3.76146
# Velocity P-wave (km/s) = 6.95953 9.26853 8.19575
#
# Compressibility (1/GPa) = 0.01519375
#
# Stress axis : x y z
#
# Youngs Moduli (GPa) = 101.27470 12.45232 24.73502
#
# Poissons Ratio (x) = 0.06626 0.01376
# Poissons Ratio (y) = 0.53893 1.28201
# Poissons Ratio (z) = 0.05632 0.64540
#
# Static dielectric constant tensor:
#      x y z
#    x 1.598290 0.000000 0.000000 
#    y 0.000000 1.590880 0.000000 
#    z 0.000000 0.000000 1.582260 
# 
# From -- ./inp_files/6032.got.cif
#   From: 2010.05.17/outbox.cif.g08.bks.cpg/sg51_4_cif.got.tgz:6032.got - 2010.06.03 11:52:47.
