data_PCOD9404109
_publ_section_title
;
Structure prediction by ZEFSAII (Michael W. Deem and Ramdas Pophale) SiO2 
 PCOD9404109
Probable space group: P M M A
;
_chemical_formula_sum "Si O2"
_cell_formula_units_Z 64
_cell_length_a 9.089734
_cell_length_b 24.414543
_cell_length_c 15.375627
_cell_angle_alpha 90.000000
_cell_angle_beta 90.000000
_cell_angle_gamma 90.000000
_cell_volume 3412.185307
_symmetry_space_group_name_H-M "P M M A"
_symmetry_group_IT_number 51
_symmetry_cell_setting 'orthorhombic'
loop_
_space_group_symop_operation_xyz
x,y,z
1/2-x,-y,z
1/2+x,-y,-z
-x,y,-z
-x,-y,-z
1/2+x,y,-z
1/2-x,y,z
x,-y,z
loop_
_atom_site_type_symbol
_atom_site_label
_atom_site_fract_x
_atom_site_fract_y
_atom_site_fract_z
Si Si1 0.928385 0.647494 0.223926
Si Si2 0.920151 0.934019 0.233345
Si Si3 0.575368 0.562829 0.905900
Si Si4 0.917768 0.933294 0.588441
Si Si5 0.580909 0.223355 0.411613
Si Si6 0.583370 0.643226 0.415171
Si Si7 0.075431 0.765246 0.233033
Si Si8 0.075828 0.139163 0.093713
O O1 0.750000 0.649861 0.221301
O O2 0.976001 0.628302 0.320591
O O3 0.994650 0.605980 0.155120
O O4 0.994047 0.708255 0.212594
O O5 0.750000 0.916539 0.232931
O O6 0.996415 0.917568 0.324234
O O7 0.004600 0.908708 0.151751
O O8 0.924550 0.000000 0.229150
O O9 0.750000 0.574010 0.911851
O O10 0.557105 0.500000 0.874775
O O11 0.500000 0.566132 0.000000
O O12 0.750000 0.913253 0.590161
O O13 0.000000 0.917430 0.500000
O O14 0.913190 0.000000 0.588164
O O15 0.500000 0.205472 0.500000
O O16 0.750000 0.204260 0.408180
O O17 0.584190 0.290107 0.415610
O O18 0.493938 0.211536 0.322653
O O19 0.500000 0.624079 0.500000
O O20 0.750000 0.624259 0.420650
O O21 0.250000 0.756313 0.246109
O O22 0.055159 0.806928 0.153402
O O23 0.250000 0.130145 0.082918
O O24 0.000000 0.143789 0.000000
#
# Coordination Sequence:
#
# PCOD9404109 Si02
#       8
#     8   8   8   8   8   8   8   8
#     4  10  20  34  55  83 113 147 186 226 271 325
#     4  10  21  38  61  87 113 143 181 225 273 327
#     4  10  21  37  57  81 109 142 181 228 281 332
#     4   9  16  28  50  81 116 150 182 218 263 318
#     4   9  16  28  49  77 109 145 182 222 269 320
#     4   8  15  26  43  71 104 139 178 218 261 309
#     4  10  21  37  56  81 113 147 185 227 272 326
#     4  11  25  43  62  82 107 142 182 228 282 333
#
# _framework density 18.756309000000002
#
# number of rings (size 3 to 8) (size 9 to 14) (size 15 to 20)
#    0.000    2.375    0.000    3.375    0.000    9.250 
#    0.000    1.875    0.000    3.375    0.000    0.000 
#    0.000    0.000    0.000    0.000    0.000    0.000 
#
# Total GULP energy -357331.791781 kJ/mol
# GULP energy per Si atom -5583.309247 kJ/mol
# Density = 1.871362 g / cm^3
# Si number density = 18.756309 Si / 1000 Ang^3
#
#
#
# Elastic Constant Matrix: (Units=GPa)
#
#
# Indices 1 2 3 4 5 6 
#
# 1 151.1100 48.9674 99.5113 0.0000 0.0000 0.0000
# 2 48.9674 64.7587 49.6908 0.0000 0.0000 0.0000
# 3 99.5113 49.6908 166.3736 0.0000 0.0000 0.0000
# 4 0.0000 0.0000 0.0000 56.0546 0.0000 0.0000
# 5 0.0000 0.0000 0.0000 0.0000 41.0117 0.0000
# 6 0.0000 0.0000 0.0000 0.0000 0.0000 -6.5443
#
#
#
# Elastic Compliance Matrix: (Units=1/GPa)
#
#
# Indices 1 2 3 4 5 6 
#
# 1 0.011881 -0.004581 -0.005738 0.000000 0.000000 0.000000
# 2 -0.004581 0.021799 -0.003771 0.000000 0.000000 0.000000
# 3 -0.005738 -0.003771 0.010569 0.000000 0.000000 0.000000
# 4 0.000000 0.000000 0.000000 0.017840 0.000000 0.000000
# 5 0.000000 0.000000 0.000000 0.000000 0.024383 0.000000
# 6 0.000000 0.000000 0.000000 0.000000 0.000000 -0.152805
#
#
# Mechanical properties :
#
#
# Convention : Reuss Voigt Hill
#
# Bulk Modulus (GPa) = 62.22984 86.50900 74.36942
# Shear Modulus (GPa) = -152.45210 30.37591 -61.03810
#
# Velocity S-wave (km/s) = -9.02535 4.02867 -5.71081
# Velocity P-wave (km/s) = 8.68096 8.23790 1.93599
#
# Compressibility (1/GPa) = 0.01606946
#
# Stress axis : x y z
#
# Youngs Moduli (GPa) = 84.16966 45.87321 94.61791
#
# Poissons Ratio (x) = 0.21014 0.54292
# Poissons Ratio (y) = 0.38556 0.35680
# Poissons Ratio (z) = 0.48296 0.17298
#
# Static dielectric constant tensor:
#      x y z
#    x 1.633820 0.000000 0.000000 
#    y 0.000000 1.656690 0.000000 
#    z 0.000000 0.000000 1.627330 
# 
# From -- ./inp_files/22254.got.cif
#   From: 2010.05.17/outbox.cif.g08.bks.cpg/sg51_12_cif.got.tgz:22254.got - 2010.06.03 11:52:47.
