data_PCOD9404248
_publ_section_title
;
Structure prediction by ZEFSAII (Michael W. Deem and Ramdas Pophale) SiO2 
 PCOD9404248
Probable space group: P M M A
;
_chemical_formula_sum "Si O2"
_cell_formula_units_Z 56
_cell_length_a 18.314373
_cell_length_b 11.567575
_cell_length_c 13.857119
_cell_angle_alpha 90.000000
_cell_angle_beta 90.000000
_cell_angle_gamma 90.000000
_cell_volume 2935.670614
_symmetry_space_group_name_H-M "P M M A"
_symmetry_group_IT_number 51
_symmetry_cell_setting 'orthorhombic'
loop_
_space_group_symop_operation_xyz
x,y,z
1/2-x,-y,z
1/2+x,-y,-z
-x,y,-z
-x,-y,-z
1/2+x,y,-z
1/2-x,y,z
x,-y,z
loop_
_atom_site_type_symbol
_atom_site_label
_atom_site_fract_x
_atom_site_fract_y
_atom_site_fract_z
Si Si1 0.336038 0.132530 0.619108
Si Si2 0.541567 0.864661 0.095825
Si Si3 0.832490 0.865720 0.612977
Si Si4 0.669189 0.632833 0.887647
Si Si5 0.947491 0.257034 0.747151
Si Si6 0.164594 0.691778 0.891958
Si Si7 0.091509 0.371502 0.697861
O O1 0.250000 0.139424 0.645539
O O2 0.340799 0.136193 0.502685
O O3 0.374997 0.251017 0.654813
O O4 0.361192 0.000000 0.648208
O O5 0.497643 0.831459 0.192118
O O6 0.622036 0.812328 0.101978
O O7 0.545685 0.000000 0.086328
O O8 0.500000 0.817904 0.000000
O O9 0.750000 0.822592 0.635418
O O10 0.896970 0.798241 0.665347
O O11 0.835864 0.000000 0.643300
O O12 0.750000 0.684892 0.871378
O O13 0.670995 0.500000 0.857688
O O14 0.607257 0.693103 0.826754
O O15 0.656188 0.637317 0.002339
O O16 0.004796 0.349347 0.705134
O O17 0.250000 0.701080 0.870570
O O18 0.124250 0.626178 0.806000
O O19 0.106727 0.500000 0.654232
#
# Coordination Sequence:
#
# PCOD9404248 Si02
#       7
#     8   8   8   8   8   8   8
#     4   9  20  41  66  89 115 149 193 246 302 358
#     4  10  20  35  52  77 115 153 188 233 286 340
#     4   9  19  38  64  90 114 147 195 246 294 354
#     4  10  20  35  55  77 105 144 190 237 284 339
#     4  11  21  36  56  83 116 155 191 235 289 349
#     4  10  21  37  57  81 109 149 200 246 288 341
#     4  11  24  38  58  88 122 158 198 246 299 356
#
# _framework density 19.075709
#
# number of rings (size 3 to 8) (size 9 to 14) (size 15 to 20)
#    0.000    2.000    1.429    3.000    0.000    5.429 
#    0.000    5.714    0.000    1.714    0.000    0.000 
#    0.000    0.000    0.000    0.000    0.000    0.000 
#
# Total GULP energy -312076.944429 kJ/mol
# GULP energy per Si atom -5572.802579 kJ/mol
# Density = 1.903229 g / cm^3
# Si number density = 19.075709 Si / 1000 Ang^3
#
#
#
# Elastic Constant Matrix: (Units=GPa)
#
#
# Indices 1 2 3 4 5 6 
#
# 1 108.4420 52.7263 26.2169 0.0000 0.0000 0.0000
# 2 52.7263 113.1843 28.0487 0.0000 0.0000 0.0000
# 3 26.2169 28.0487 46.8611 0.0000 0.0000 0.0000
# 4 0.0000 0.0000 0.0000 6.0139 0.0000 0.0000
# 5 0.0000 0.0000 0.0000 0.0000 21.9193 0.0000
# 6 0.0000 0.0000 0.0000 0.0000 0.0000 10.7937
#
#
#
# Elastic Compliance Matrix: (Units=1/GPa)
#
#
# Indices 1 2 3 4 5 6 
#
# 1 0.012571 -0.004830 -0.004142 0.000000 0.000000 0.000000
# 2 -0.004830 0.012229 -0.004618 0.000000 0.000000 0.000000
# 3 -0.004142 -0.004618 0.026421 0.000000 0.000000 0.000000
# 4 0.000000 0.000000 0.000000 0.166280 0.000000 0.000000
# 5 0.000000 0.000000 0.000000 0.000000 0.045622 0.000000
# 6 0.000000 0.000000 0.000000 0.000000 0.000000 0.092646
#
#
# Mechanical properties :
#
#
# Convention : Reuss Voigt Hill
#
# Bulk Modulus (GPa) = 41.59380 53.60790 47.60085
# Shear Modulus (GPa) = 12.78890 18.51176 15.65033
#
# Velocity S-wave (km/s) = 2.59207 3.11856 2.86743
# Velocity P-wave (km/s) = 5.55071 6.41334 5.99755
#
# Compressibility (1/GPa) = 0.02404204
#
# Stress axis : x y z
#
# Youngs Moduli (GPa) = 79.54655 81.76992 37.84848
#
# Poissons Ratio (x) = 0.39493 0.15678
# Poissons Ratio (y) = 0.38419 0.17478
# Poissons Ratio (z) = 0.32950 0.37760
#
# Static dielectric constant tensor:
#      x y z
#    x 1.677500 0.000000 0.000000 
#    y 0.000000 1.679070 0.000000 
#    z 0.000000 0.000000 1.676060 
# 
# From -- ./inp_files/24150.got.cif
#   From: 2010.05.17/outbox.cif.g08.bks.cpg/sg51_13_cif.got.tgz:24150.got - 2010.06.03 11:52:47.
