data_PCOD9404510
_publ_section_title
;
Structure prediction by ZEFSAII (Michael W. Deem and Ramdas Pophale) SiO2 
 PCOD9404510
Probable space group: P M M A
;
_chemical_formula_sum "Si O2"
_cell_formula_units_Z 52
_cell_length_a 8.638221
_cell_length_b 20.066925
_cell_length_c 14.991790
_cell_angle_alpha 90.000000
_cell_angle_beta 90.000000
_cell_angle_gamma 90.000000
_cell_volume 2598.714852
_symmetry_space_group_name_H-M "P M M A"
_symmetry_group_IT_number 51
_symmetry_cell_setting 'orthorhombic'
loop_
_space_group_symop_operation_xyz
x,y,z
1/2-x,-y,z
1/2+x,-y,-z
-x,y,-z
-x,-y,-z
1/2+x,y,-z
1/2-x,y,z
x,-y,z
loop_
_atom_site_type_symbol
_atom_site_label
_atom_site_fract_x
_atom_site_fract_y
_atom_site_fract_z
Si Si1 0.566487 0.228808 0.596497
Si Si2 0.565063 0.000000 0.600268
Si Si3 0.064128 0.427970 0.780510
Si Si4 0.434086 0.880801 0.719765
Si Si5 0.067540 0.388145 0.404935
Si Si6 0.065001 0.842146 0.097383
Si Si7 0.937244 0.306581 0.096980
O O1 0.500000 0.207690 0.500000
O O2 0.750000 0.215222 0.600223
O O3 0.481245 0.189286 0.674497
O O4 0.542701 0.308169 0.603673
O O5 0.500000 0.000000 0.500000
O O6 0.505124 0.063745 0.654898
O O7 0.750000 0.000000 0.596803
O O8 0.250000 0.427027 0.785501
O O9 0.010126 0.500000 0.816174
O O10 0.009943 0.362953 0.833842
O O11 0.013691 0.421584 0.678557
O O12 0.250000 0.887165 0.723341
O O13 0.503018 0.884306 0.819228
O O14 0.250000 0.400893 0.402484
O O15 0.000000 0.409082 0.500000
O O16 0.250000 0.842846 0.094920
O O17 0.005696 0.766586 0.114461
O O18 0.000000 0.861911 0.000000
O O19 0.750000 0.301873 0.096579
O O20 0.000000 0.326350 0.000000
#
# Coordination Sequence:
#
# PCOD9404510 Si02
#       7
#     8   4   8   8   8   8   8
#     4  10  20  35  56  85 116 148 189 239 293 349
#     4  12  26  46  67  92 127 168 208 246 288 338
#     4  10  22  38  54  75 107 147 190 235 286 346
#     4  12  24  40  62  90 123 161 200 241 290 343
#     4  10  21  36  56  80 107 141 184 235 290 346
#     4  11  22  39  63  92 122 154 194 242 294 347
#     4  10  20  36  59  86 116 150 188 236 292 347
#
# _framework density 20.009892000000001
#
# number of rings (size 3 to 8) (size 9 to 14) (size 15 to 20)
#    0.000    1.385    0.000    7.154    0.000    6.462 
#    0.000    0.385    0.000    0.000    0.000    0.000 
#    0.000    0.000    0.000    0.000    0.000    0.000 
#
# Total GULP energy -290796.120201 kJ/mol
# GULP energy per Si atom -5592.233081 kJ/mol
# Density = 1.996435 g / cm^3
# Si number density = 20.009892 Si / 1000 Ang^3
#
#
#
# Elastic Constant Matrix: (Units=GPa)
#
#
# Indices 1 2 3 4 5 6 
#
# 1 121.9867 35.1389 48.0074 0.0000 0.0000 0.0000
# 2 35.1389 37.1058 47.8401 0.0000 0.0000 0.0000
# 3 48.0074 47.8401 150.9832 0.0000 0.0000 0.0000
# 4 0.0000 0.0000 0.0000 -111.3380 0.0000 0.0000
# 5 0.0000 0.0000 0.0000 0.0000 38.0422 0.0000
# 6 0.0000 0.0000 0.0000 0.0000 0.0000 14.3175
#
#
#
# Elastic Compliance Matrix: (Units=1/GPa)
#
#
# Indices 1 2 3 4 5 6 
#
# 1 0.011283 -0.010245 -0.000342 0.000000 0.000000 0.000000
# 2 -0.010245 0.054865 -0.014127 0.000000 0.000000 0.000000
# 3 -0.000342 -0.014127 0.011208 0.000000 0.000000 0.000000
# 4 0.000000 0.000000 0.000000 -0.008982 0.000000 0.000000
# 5 0.000000 0.000000 0.000000 0.000000 0.026287 0.000000
# 6 0.000000 0.000000 0.000000 0.000000 0.000000 0.069845
#
#
# Mechanical properties :
#
#
# Convention : Reuss Voigt Hill
#
# Bulk Modulus (GPa) = 35.80364 63.56092 49.68228
# Shear Modulus (GPa) = 22.39719 0.14363 11.27041
#
# Velocity S-wave (km/s) = 3.34923 0.26821 2.37585
# Velocity P-wave (km/s) = 5.73483 5.65063 5.69289
#
# Compressibility (1/GPa) = 0.02793012
#
# Stress axis : x y z
#
# Youngs Moduli (GPa) = 88.62866 18.22645 89.22109
#
# Poissons Ratio (x) = 0.18672 0.03047
# Poissons Ratio (y) = 0.90796 1.26043
# Poissons Ratio (z) = 0.03027 0.25749
#
# Static dielectric constant tensor:
#      x y z
#    x 1.665310 0.000000 0.000000 
#    y 0.000000 1.749550 0.000000 
#    z 0.000000 0.000000 1.678610 
# 
# From -- ./inp_files/21642.got.cif
#   From: 2010.05.17/outbox.cif.g08.bks.cpg/sg51_11_cif.got.tgz:21642.got - 2010.06.03 11:52:47.
