data_PCOD9404302
_publ_section_title
;
Structure prediction by ZEFSAII (Michael W. Deem and Ramdas Pophale) SiO2 
 PCOD9404302
Probable space group: P M M A
;
_chemical_formula_sum "Si O2"
_cell_formula_units_Z 48
_cell_length_a 8.140701
_cell_length_b 19.377144
_cell_length_c 15.196702
_cell_angle_alpha 90.000000
_cell_angle_beta 90.000000
_cell_angle_gamma 90.000000
_cell_volume 2397.181502
_symmetry_space_group_name_H-M "P M M A"
_symmetry_group_IT_number 51
_symmetry_cell_setting 'orthorhombic'
loop_
_space_group_symop_operation_xyz
x,y,z
1/2-x,-y,z
1/2+x,-y,-z
-x,y,-z
-x,-y,-z
1/2+x,y,-z
1/2-x,y,z
x,-y,z
loop_
_atom_site_type_symbol
_atom_site_label
_atom_site_fract_x
_atom_site_fract_y
_atom_site_fract_z
Si Si1 0.551530 0.079571 0.099418
Si Si2 0.935690 0.718584 0.906921
Si Si3 0.447152 0.276247 0.597319
Si Si4 0.445983 0.576483 0.332961
Si Si5 0.941259 0.577000 0.133225
Si Si6 0.939176 0.190821 0.238507
O O1 0.750000 0.082919 0.101034
O O2 0.489550 0.128584 0.178682
O O3 0.500505 0.000000 0.112674
O O4 0.500000 0.099212 0.000000
O O5 0.750000 0.740947 0.890649
O O6 0.947547 0.636322 0.906299
O O7 0.050479 0.745763 0.829627
O O8 0.000000 0.744164 0.000000
O O9 0.500000 0.255195 0.500000
O O10 0.250000 0.277570 0.604109
O O11 0.507556 0.354563 0.614832
O O12 0.511284 0.222479 0.671633
O O13 0.250000 0.578352 0.317785
O O14 0.484938 0.500000 0.371785
O O15 0.534889 0.580081 0.238709
O O16 0.750000 0.589239 0.112238
O O17 0.987910 0.500000 0.105722
O O18 0.750000 0.172314 0.257243
#
# Coordination Sequence:
#
# PCOD9404302 Si02
#       6
#     8   8   8   8   8   8
#     4   9  18  34  58  89 122 153 186 223 268 326
#     4  12  24  36  54  78 108 145 186 230 277 333
#     4  11  23  38  58  81 110 146 190 240 289 344
#     4  10  20  35  56  81 108 140 183 235 292 349
#     4  10  20  35  54  75 103 140 182 229 280 333
#     4  10  21  38  58  82 113 148 185 228 280 334
#
# _framework density 20.023515
#
# number of rings (size 3 to 8) (size 9 to 14) (size 15 to 20)
#    0.000    1.667    1.667    3.500    0.000    5.333 
#    0.000    0.000    0.000    0.500    0.000    0.000 
#    0.000    0.000    0.000    0.000    0.000    0.167 
#
# Total GULP energy -267934.726645 kJ/mol
# GULP energy per Si atom -5581.973472 kJ/mol
# Density = 1.997794 g / cm^3
# Si number density = 20.023515 Si / 1000 Ang^3
#
#
#
# Elastic Constant Matrix: (Units=GPa)
#
#
# Indices 1 2 3 4 5 6 
#
# 1 39.7642 17.6524 0.7909 0.0000 0.0000 0.0000
# 2 17.6524 132.0686 61.7171 0.0000 0.0000 0.0000
# 3 0.7909 61.7171 141.7690 0.0000 0.0000 0.0000
# 4 0.0000 0.0000 0.0000 27.3801 0.0000 0.0000
# 5 0.0000 0.0000 0.0000 0.0000 22.9017 0.0000
# 6 0.0000 0.0000 0.0000 0.0000 0.0000 13.7135
#
#
#
# Elastic Compliance Matrix: (Units=1/GPa)
#
#
# Indices 1 2 3 4 5 6 
#
# 1 0.027091 -0.004457 0.001789 0.000000 0.000000 0.000000
# 2 -0.004457 0.010239 -0.004433 0.000000 0.000000 0.000000
# 3 0.001789 -0.004433 0.008973 0.000000 0.000000 0.000000
# 4 0.000000 0.000000 0.000000 0.036523 0.000000 0.000000
# 5 0.000000 0.000000 0.000000 0.000000 0.043665 0.000000
# 6 0.000000 0.000000 0.000000 0.000000 0.000000 0.072921
#
#
# Mechanical properties :
#
#
# Convention : Reuss Voigt Hill
#
# Bulk Modulus (GPa) = 31.15001 52.65809 41.90405
# Shear Modulus (GPa) = 22.29016 28.36181 25.32599
#
# Velocity S-wave (km/s) = 3.34008 3.76763 3.56028
# Velocity P-wave (km/s) = 5.51954 6.72918 6.15416
#
# Compressibility (1/GPa) = 0.03210272
#
# Stress axis : x y z
#
# Youngs Moduli (GPa) = 36.91220 97.66643 111.44079
#
# Poissons Ratio (x) = 0.43532 -0.19939
# Poissons Ratio (y) = 0.16452 0.49396
# Poissons Ratio (z) = -0.06604 0.43291
#
# Static dielectric constant tensor:
#      x y z
#    x 1.703920 0.000000 0.000000 
#    y 0.000000 1.744880 0.000000 
#    z 0.000000 0.000000 1.703860 
# 
# From -- ./inp_files/21118.got.cif
#   From: 2010.05.17/outbox.cif.g08.bks.cpg/sg51_11_cif.got.tgz:21118.got - 2010.06.03 11:52:47.
