data_PCOD9404293
_publ_section_title
;
Structure prediction by ZEFSAII (Michael W. Deem and Ramdas Pophale) SiO2 
 PCOD9404293
Probable space group: P M M A
;
_chemical_formula_sum "Si O2"
_cell_formula_units_Z 64
_cell_length_a 8.880775
_cell_length_b 30.517799
_cell_length_c 15.227577
_cell_angle_alpha 90.000000
_cell_angle_beta 90.000000
_cell_angle_gamma 90.000000
_cell_volume 4127.003903
_symmetry_space_group_name_H-M "P M M A"
_symmetry_group_IT_number 51
_symmetry_cell_setting 'orthorhombic'
loop_
_space_group_symop_operation_xyz
x,y,z
1/2-x,-y,z
1/2+x,-y,-z
-x,y,-z
-x,-y,-z
1/2+x,y,-z
1/2-x,y,z
x,-y,z
loop_
_atom_site_type_symbol
_atom_site_label
_atom_site_fract_x
_atom_site_fract_y
_atom_site_fract_z
Si Si1 0.069850 0.733457 0.901970
Si Si2 0.426331 0.128391 0.083237
Si Si3 0.930371 0.049538 0.646562
Si Si4 0.429742 0.142184 0.590552
Si Si5 0.569330 0.813004 0.226404
Si Si6 0.430158 0.364884 0.902338
Si Si7 0.577270 0.950360 0.162440
Si Si8 0.069868 0.451893 0.098271
O O1 0.250000 0.735800 0.914749
O O2 0.031323 0.767679 0.824302
O O3 0.033445 0.684002 0.869504
O O4 0.000000 0.740572 0.000000
O O5 0.250000 0.125620 0.072221
O O6 0.474280 0.152282 0.171417
O O7 0.503661 0.081606 0.093540
O O8 0.500000 0.152097 0.000000
O O9 0.750000 0.052768 0.639087
O O10 0.004944 0.092931 0.605743
O O11 0.982151 0.051025 0.748016
O O12 0.974778 0.000000 0.614495
O O13 0.500000 0.158798 0.500000
O O14 0.250000 0.138404 0.583678
O O15 0.462701 0.174997 0.672161
O O16 0.750000 0.819563 0.214729
O O17 0.250000 0.369713 0.906297
O O18 0.500458 0.408282 0.858550
O O19 0.500000 0.364281 0.000000
O O20 0.750000 0.937107 0.181787
O O21 0.578355 0.000000 0.130735
O O22 0.250000 0.447295 0.091660
O O23 0.036966 0.500000 0.138205
O O24 0.000000 0.453422 0.000000
#
# Coordination Sequence:
#
# PCOD9404293 Si02
#       8
#     8   8   8   8   8   8   8   8
#     4   9  18  31  47  68  92 119 154 192 234 276
#     4  12  24  36  53  74  98 125 155 189 223 266
#     4  10  20  35  56  80 103 124 148 179 217 265
#     4  11  23  38  58  78 100 125 152 186 225 273
#     4  10  21  38  55  72  95 122 152 189 232 275
#     4   9  15  23  36  54  78 108 144 188 229 269
#     4  10  20  35  54  74  97 124 152 181 217 261
#     4   9  15  21  30  46  71 105 145 188 230 269
#
# _framework density 15.507618000000001
#
# number of rings (size 3 to 8) (size 9 to 14) (size 15 to 20)
#    0.000    2.000    1.250    4.125    0.000    5.250 
#    0.000    0.000    0.000    0.000    0.000    0.000 
#    0.000    0.000    0.000    0.000    0.000    0.625 
#
# Total GULP energy -356452.540305 kJ/mol
# GULP energy per Si atom -5569.570942 kJ/mol
# Density = 1.547232 g / cm^3
# Si number density = 15.507618 Si / 1000 Ang^3
#
#
#
# Elastic Constant Matrix: (Units=GPa)
#
#
# Indices 1 2 3 4 5 6 
#
# 1 50.1022 36.4698 18.7011 0.0000 0.0000 0.0000
# 2 36.4698 119.3401 37.5055 0.0000 0.0000 0.0000
# 3 18.7011 37.5055 55.5755 0.0000 0.0000 0.0000
# 4 0.0000 0.0000 0.0000 -0.5450 0.0000 0.0000
# 5 0.0000 0.0000 0.0000 0.0000 18.2719 0.0000
# 6 0.0000 0.0000 0.0000 0.0000 0.0000 16.6033
#
#
#
# Elastic Compliance Matrix: (Units=1/GPa)
#
#
# Indices 1 2 3 4 5 6 
#
# 1 0.026483 -0.006717 -0.004378 0.000000 0.000000 0.000000
# 2 -0.006717 0.012339 -0.006067 0.000000 0.000000 0.000000
# 3 -0.004378 -0.006067 0.023561 0.000000 0.000000 0.000000
# 4 0.000000 0.000000 0.000000 -1.834885 0.000000 0.000000
# 5 0.000000 0.000000 0.000000 0.000000 0.054729 0.000000
# 6 0.000000 0.000000 0.000000 0.000000 0.000000 0.060229
#
#
# Mechanical properties :
#
#
# Convention : Reuss Voigt Hill
#
# Bulk Modulus (GPa) = 35.63985 45.59671 40.61828
# Shear Modulus (GPa) = -3.09815 15.68880 6.29533
#
# Velocity S-wave (km/s) = -1.41498 3.18415 2.01701
# Velocity P-wave (km/s) = 4.51248 6.55630 5.62794
#
# Compressibility (1/GPa) = 0.02805848
#
# Stress axis : x y z
#
# Youngs Moduli (GPa) = 37.76024 81.04604 42.44313
#
# Poissons Ratio (x) = 0.54439 0.18583
# Poissons Ratio (y) = 0.25364 0.25748
# Poissons Ratio (z) = 0.16533 0.49167
#
# Static dielectric constant tensor:
#      x y z
#    x 1.518190 0.000000 0.000000 
#    y 0.000000 1.619990 0.000000 
#    z 0.000000 0.000000 1.503160 
# 
# From -- ./inp_files/22613.got.cif
#   From: 2010.05.17/outbox.cif.g08.bks.cpg/sg51_12_cif.got.tgz:22613.got - 2010.06.03 11:52:47.
