data_PCOD9404875
_publ_section_title
;
Structure prediction by ZEFSAII (Michael W. Deem and Ramdas Pophale) SiO2 
 PCOD9404875
Probable space group: P M M A
;
_chemical_formula_sum "Si O2"
_cell_formula_units_Z 64
_cell_length_a 8.399014
_cell_length_b 15.685558
_cell_length_c 24.576455
_cell_angle_alpha 90.000000
_cell_angle_beta 90.000000
_cell_angle_gamma 90.000000
_cell_volume 3237.781348
_symmetry_space_group_name_H-M "P M M A"
_symmetry_group_IT_number 51
_symmetry_cell_setting 'orthorhombic'
loop_
_space_group_symop_operation_xyz
x,y,z
1/2-x,-y,z
1/2+x,-y,-z
-x,y,-z
-x,-y,-z
1/2+x,y,-z
1/2-x,y,z
x,-y,z
loop_
_atom_site_type_symbol
_atom_site_label
_atom_site_fract_x
_atom_site_fract_y
_atom_site_fract_z
Si Si1 0.440113 0.406478 0.731462
Si Si2 0.559180 0.402422 0.943103
Si Si3 0.059101 0.675370 0.168570
Si Si4 0.557112 0.597017 0.561757
Si Si5 0.570554 0.102932 0.941543
Si Si6 0.939097 0.732211 0.650374
Si Si7 0.941397 0.093326 0.704649
Si Si8 0.065778 0.141112 0.821370
O O1 0.250000 0.394005 0.729503
O O2 0.477118 0.500000 0.708956
O O3 0.503522 0.400125 0.792648
O O4 0.529401 0.332404 0.699704
O O5 0.750000 0.405915 0.943222
O O6 0.499601 0.500000 0.937567
O O7 0.511065 0.346039 0.892575
O O8 0.500000 0.367466 0.000000
O O9 0.250000 0.687498 0.171961
O O10 0.967903 0.759231 0.186670
O O11 0.500000 0.608649 0.500000
O O12 0.750000 0.597573 0.563592
O O13 0.506365 0.500000 0.578373
O O14 0.498560 0.675738 0.599316
O O15 0.750000 0.136768 0.937738
O O16 0.489984 0.121817 0.883231
O O17 0.574144 0.000000 0.944930
O O18 0.500000 0.132172 0.000000
O O19 0.750000 0.742649 0.641905
O O20 0.002504 0.824920 0.669911
O O21 0.750000 0.095467 0.700365
O O22 0.980456 0.100217 0.769058
O O23 0.997989 0.000000 0.685421
O O24 0.250000 0.119173 0.817695
#
# Coordination Sequence:
#
# PCOD9404875 Si02
#       8
#     8   8   8   8   8   8   8   8
#     4  11  23  36  53  82 117 150 185 231 288 345
#     4   9  19  35  54  74  95 126 171 220 271 329
#     4  11  22  37  55  75 104 141 183 230 280 340
#     4   9  18  33  55  86 122 161 204 243 286 340
#     4  10  21  38  59  81 105 135 176 228 289 359
#     4  10  20  36  59  85 116 156 199 242 287 342
#     4  10  21  38  60  85 113 150 197 247 298 352
#     4  12  24  37  55  80 111 144 184 235 295 357
#
# _framework density 19.766622000000002
#
# number of rings (size 3 to 8) (size 9 to 14) (size 15 to 20)
#    0.000    1.750    1.250    3.375    0.000    6.500 
#    0.000    3.750    0.000    0.375    0.000    0.000 
#    0.000    0.000    0.000    0.000    0.000    0.000 
#
# Total GULP energy -356976.935312 kJ/mol
# GULP energy per Si atom -5577.764614 kJ/mol
# Density = 1.972163 g / cm^3
# Si number density = 19.766622 Si / 1000 Ang^3
#
#
#
# Elastic Constant Matrix: (Units=GPa)
#
#
# Indices 1 2 3 4 5 6 
#
# 1 10.6904 7.9069 3.0332 0.0000 0.0000 0.0000
# 2 7.9069 125.3716 53.9031 0.0000 0.0000 0.0000
# 3 3.0332 53.9031 110.6438 0.0000 0.0000 0.0000
# 4 0.0000 0.0000 0.0000 -2.5151 0.0000 0.0000
# 5 0.0000 0.0000 0.0000 0.0000 26.4242 0.0000
# 6 0.0000 0.0000 0.0000 0.0000 0.0000 -4.2212
#
#
#
# Elastic Compliance Matrix: (Units=1/GPa)
#
#
# Indices 1 2 3 4 5 6 
#
# 1 0.098134 -0.006366 0.000411 0.000000 0.000000 0.000000
# 2 -0.006366 0.010503 -0.004942 0.000000 0.000000 0.000000
# 3 0.000411 -0.004942 0.011434 0.000000 0.000000 0.000000
# 4 0.000000 0.000000 0.000000 -0.397592 0.000000 0.000000
# 5 0.000000 0.000000 0.000000 0.000000 0.037844 0.000000
# 6 0.000000 0.000000 0.000000 0.000000 0.000000 -0.236899
#
#
# Mechanical properties :
#
#
# Convention : Reuss Voigt Hill
#
# Bulk Modulus (GPa) = 10.17532 41.82134 25.99833
# Shear Modulus (GPa) = -11.84769 16.06174 2.10703
#
# Velocity S-wave (km/s) = -2.45088 2.85365 1.03357
# Velocity P-wave (km/s) = 1.68824 5.66227 3.82172
#
# Compressibility (1/GPa) = 0.09827702
#
# Stress axis : x y z
#
# Youngs Moduli (GPa) = 10.19017 95.21446 87.45519
#
# Poissons Ratio (x) = 0.60612 -0.03595
# Poissons Ratio (y) = 0.06487 0.43221
# Poissons Ratio (z) = -0.00419 0.47056
#
# Static dielectric constant tensor:
#      x y z
#    x 1.686070 0.000000 0.000000 
#    y 0.000000 1.746460 0.000000 
#    z 0.000000 0.000000 1.724770 
# 
# From -- ./inp_files/35022.got.cif
#   From: 2010.05.17/outbox.cif.g08.bks.cpg/sg51_18_cif.got.tgz:35022.got - 2010.06.03 11:52:47.
