data_PCOD9404016
_publ_section_title
;
Structure prediction by ZEFSAII (Michael W. Deem and Ramdas Pophale) SiO2 
 PCOD9404016
Probable space group: P M M A
;
_chemical_formula_sum "Si O2"
_cell_formula_units_Z 48
_cell_length_a 18.564676
_cell_length_b 14.251468
_cell_length_c 8.795620
_cell_angle_alpha 90.000000
_cell_angle_beta 90.000000
_cell_angle_gamma 90.000000
_cell_volume 2327.091363
_symmetry_space_group_name_H-M "P M M A"
_symmetry_group_IT_number 51
_symmetry_cell_setting 'orthorhombic'
loop_
_space_group_symop_operation_xyz
x,y,z
1/2-x,-y,z
1/2+x,-y,-z
-x,y,-z
-x,-y,-z
1/2+x,y,-z
1/2-x,y,z
x,-y,z
loop_
_atom_site_type_symbol
_atom_site_label
_atom_site_fract_x
_atom_site_fract_y
_atom_site_fract_z
Si Si1 0.165112 0.886655 0.191357
Si Si2 0.163357 0.716606 0.654297
Si Si3 0.830034 0.387918 0.042013
Si Si4 0.458216 0.391250 0.159885
Si Si5 0.062930 0.760175 0.395647
Si Si6 0.162984 0.104864 0.845235
O O1 0.250000 0.862005 0.215574
O O2 0.111144 0.834533 0.304181
O O3 0.160662 0.000000 0.205401
O O4 0.143693 0.863842 0.016251
O O5 0.250000 0.709328 0.629858
O O6 0.143623 0.650382 0.796278
O O7 0.118209 0.702654 0.502962
O O8 0.145030 0.820545 0.717084
O O9 0.750000 0.348891 0.022236
O O10 0.828232 0.500000 0.054798
O O11 0.877240 0.368080 0.895267
O O12 0.464290 0.500000 0.210664
O O13 0.475650 0.313651 0.283219
O O14 0.500000 0.384308 0.000000
O O15 0.000000 0.802727 0.500000
O O16 0.250000 0.099777 0.847799
O O17 0.134946 0.000000 0.817446
#
# Coordination Sequence:
#
# PCOD9404016 Si02
#       6
#     8   8   8   8   8   8
#     4   9  19  38  62  84 110 150 196 236 278 337
#     4  10  20  34  54  81 114 148 177 218 284 351
#     4   9  18  34  57  82 106 137 182 234 282 331
#     4  10  22  41  62  80 106 152 203 241 279 336
#     4  12  25  36  53  84 119 150 187 238 293 341
#     4   8  15  31  57  83 103 134 184 228 260 313
#
# _framework density 20.626608000000001
#
# number of rings (size 3 to 8) (size 9 to 14) (size 15 to 20)
#    0.000    2.333    0.000    3.500    0.000    4.667 
#    0.000    1.667    0.000    2.500    0.000    0.000 
#    0.000    0.000    0.000    0.000    0.000    0.000 
#
# Total GULP energy -267913.490159 kJ/mol
# GULP energy per Si atom -5581.531045 kJ/mol
# Density = 2.057966 g / cm^3
# Si number density = 20.626608 Si / 1000 Ang^3
#
#
#
# Elastic Constant Matrix: (Units=GPa)
#
#
# Indices 1 2 3 4 5 6 
#
# 1 56.5400 8.0842 20.8327 0.0000 0.0000 0.0000
# 2 8.0842 48.5125 16.6190 0.0000 0.0000 0.0000
# 3 20.8327 16.6190 51.4861 0.0000 0.0000 0.0000
# 4 0.0000 0.0000 0.0000 5.6560 0.0000 0.0000
# 5 0.0000 0.0000 0.0000 0.0000 29.1023 0.0000
# 6 0.0000 0.0000 0.0000 0.0000 0.0000 18.8195
#
#
#
# Elastic Compliance Matrix: (Units=1/GPa)
#
#
# Indices 1 2 3 4 5 6 
#
# 1 0.020804 -0.000656 -0.008206 0.000000 0.000000 0.000000
# 2 -0.000656 0.023197 -0.007222 0.000000 0.000000 0.000000
# 3 -0.008206 -0.007222 0.025074 0.000000 0.000000 0.000000
# 4 0.000000 0.000000 0.000000 0.176802 0.000000 0.000000
# 5 0.000000 0.000000 0.000000 0.000000 0.034362 0.000000
# 6 0.000000 0.000000 0.000000 0.000000 0.000000 0.053136
#
#
# Mechanical properties :
#
#
# Convention : Reuss Voigt Hill
#
# Bulk Modulus (GPa) = 27.09525 27.51227 27.30376
# Shear Modulus (GPa) = 13.23290 18.11574 15.67432
#
# Velocity S-wave (km/s) = 2.53562 2.96678 2.75963
# Velocity P-wave (km/s) = 4.66231 5.01028 4.83942
#
# Compressibility (1/GPa) = 0.03690683
#
# Stress axis : x y z
#
# Youngs Moduli (GPa) = 48.06771 43.10962 39.88123
#
# Poissons Ratio (x) = 0.02826 0.32728
# Poissons Ratio (y) = 0.03151 0.28803
# Poissons Ratio (z) = 0.39446 0.31135
#
# Static dielectric constant tensor:
#      x y z
#    x 1.799060 0.000000 0.000000 
#    y 0.000000 1.737730 0.000000 
#    z 0.000000 0.000000 1.730600 
# 
# From -- ./inp_files/9625.got.cif
#   From: 2010.05.17/outbox.cif.g08.bks.cpg/sg51_5_cif.got.tgz:9625.got - 2010.06.03 11:52:47.
