data_PCOD9404960
_publ_section_title
;
Structure prediction by ZEFSAII (Michael W. Deem and Ramdas Pophale) SiO2 
 PCOD9404960
Probable space group: P M M A
;
_chemical_formula_sum "Si O2"
_cell_formula_units_Z 44
_cell_length_a 9.069603
_cell_length_b 7.813240
_cell_length_c 30.861505
_cell_angle_alpha 90.000000
_cell_angle_beta 90.000000
_cell_angle_gamma 90.000000
_cell_volume 2186.938364
_symmetry_space_group_name_H-M "P M M A"
_symmetry_group_IT_number 51
_symmetry_cell_setting 'orthorhombic'
loop_
_space_group_symop_operation_xyz
x,y,z
1/2-x,-y,z
1/2+x,-y,-z
-x,y,-z
-x,-y,-z
1/2+x,y,-z
1/2-x,y,z
x,-y,z
loop_
_atom_site_type_symbol
_atom_site_label
_atom_site_fract_x
_atom_site_fract_y
_atom_site_fract_z
Si Si1 0.920778 0.791679 0.689463
Si Si2 0.427255 0.000000 0.452739
Si Si3 0.081782 0.296418 0.136801
Si Si4 0.083815 0.204701 0.775843
Si Si5 0.424987 0.697279 0.601358
Si Si6 0.082361 0.794126 0.042629
O O1 0.750000 0.741793 0.684500
O O2 0.984353 0.734046 0.735812
O O3 0.018636 0.720715 0.650462
O O4 0.926733 0.000000 0.687380
O O5 0.500000 0.000000 0.500000
O O6 0.485520 0.166921 0.427212
O O7 0.250000 0.000000 0.454725
O O8 0.250000 0.226211 0.139484
O O9 0.090123 0.500000 0.138301
O O10 0.017746 0.247681 0.089790
O O11 0.988720 0.238638 0.177824
O O12 0.250000 0.273980 0.773572
O O13 0.092034 0.000000 0.770955
O O14 0.250000 0.733588 0.598834
O O15 0.449086 0.500000 0.588000
O O16 0.250000 0.728215 0.042644
O O17 0.087041 0.000000 0.039607
O O18 0.000000 0.729389 0.000000
#
# Coordination Sequence:
#
# PCOD9404960 Si02
#       6
#     8   4   8   8   8   8
#     4  10  20  36  61  91 122 161 206 254 308 367
#     4  12  26  46  72 100 134 178 222 274 329 382
#     4  10  21  36  53  75 106 143 182 227 280 340
#     4  10  21  36  56  82 112 150 194 241 291 347
#     4  11  24  42  67  99 135 175 218 269 326 384
#     4   9  18  33  53  75  99 130 171 220 273 333
#
# _framework density 20.119451999999999
#
# number of rings (size 3 to 8) (size 9 to 14) (size 15 to 20)
#    0.000    1.818    0.909    3.000    0.000    6.545 
#    0.000    1.818    0.000    0.000    0.000    0.000 
#    0.000    0.000    0.000    0.000    0.000    0.000 
#
# Total GULP energy -245815.360352 kJ/mol
# GULP energy per Si atom -5586.712735 kJ/mol
# Density = 2.007366 g / cm^3
# Si number density = 20.119452 Si / 1000 Ang^3
#
#
#
# Elastic Constant Matrix: (Units=GPa)
#
#
# Indices 1 2 3 4 5 6 
#
# 1 128.3124 44.7708 69.8692 0.0000 0.0000 0.0000
# 2 44.7708 60.0243 33.9189 0.0000 0.0000 0.0000
# 3 69.8692 33.9189 160.9420 0.0000 0.0000 0.0000
# 4 0.0000 0.0000 0.0000 -37.1440 0.0000 0.0000
# 5 0.0000 0.0000 0.0000 0.0000 39.2452 0.0000
# 6 0.0000 0.0000 0.0000 0.0000 0.0000 15.8095
#
#
#
# Elastic Compliance Matrix: (Units=1/GPa)
#
#
# Indices 1 2 3 4 5 6 
#
# 1 0.012360 -0.007023 -0.003886 0.000000 0.000000 0.000000
# 2 -0.007023 0.022903 -0.001778 0.000000 0.000000 0.000000
# 3 -0.003886 -0.001778 0.008275 0.000000 0.000000 0.000000
# 4 0.000000 0.000000 0.000000 -0.026922 0.000000 0.000000
# 5 0.000000 0.000000 0.000000 0.000000 0.025481 0.000000
# 6 0.000000 0.000000 0.000000 0.000000 0.000000 0.063253
#
#
# Mechanical properties :
#
#
# Convention : Reuss Voigt Hill
#
# Bulk Modulus (GPa) = 55.05264 71.82184 63.43724
# Shear Modulus (GPa) = 36.55571 16.96348 26.75959
#
# Velocity S-wave (km/s) = 4.26717 2.90683 3.65092
# Velocity P-wave (km/s) = 7.19032 6.85868 7.02645
#
# Compressibility (1/GPa) = 0.01816443
#
# Stress axis : x y z
#
# Youngs Moduli (GPa) = 80.90734 43.66223 120.84677
#
# Poissons Ratio (x) = 0.30665 0.46956
# Poissons Ratio (y) = 0.56823 0.21485
# Poissons Ratio (z) = 0.31437 0.07763
#
# Static dielectric constant tensor:
#      x y z
#    x 1.709580 0.000000 0.000000 
#    y 0.000000 1.732030 0.000000 
#    z 0.000000 0.000000 1.692120 
# 
# From -- ./inp_files/36795.got.cif
#   From: 2010.05.17/outbox.cif.g08.bks.cpg/sg51_19_cif.got.tgz:36795.got - 2010.06.03 11:52:47.
