data_PCOD9404687
_publ_section_title
;
Structure prediction by ZEFSAII (Michael W. Deem and Ramdas Pophale) SiO2 
 PCOD9404687
Probable space group: P M M A
;
_chemical_formula_sum "Si O2"
_cell_formula_units_Z 40
_cell_length_a 8.615237
_cell_length_b 26.835510
_cell_length_c 9.778886
_cell_angle_alpha 90.000000
_cell_angle_beta 90.000000
_cell_angle_gamma 90.000000
_cell_volume 2260.822495
_symmetry_space_group_name_H-M "P M M A"
_symmetry_group_IT_number 51
_symmetry_cell_setting 'orthorhombic'
loop_
_space_group_symop_operation_xyz
x,y,z
1/2-x,-y,z
1/2+x,-y,-z
-x,y,-z
-x,-y,-z
1/2+x,y,-z
1/2-x,y,z
x,-y,z
loop_
_atom_site_type_symbol
_atom_site_label
_atom_site_fract_x
_atom_site_fract_y
_atom_site_fract_z
Si Si1 0.436516 0.703194 0.651750
Si Si2 0.563315 0.107828 0.155831
Si Si3 0.563026 0.410943 0.349137
Si Si4 0.062215 0.500000 0.847057
Si Si5 0.434828 0.211446 0.154268
Si Si6 0.437005 0.000000 0.844747
O O1 0.500000 0.713518 0.500000
O O2 0.250000 0.706281 0.651980
O O3 0.482090 0.645961 0.685157
O O4 0.505039 0.742681 0.756872
O O5 0.750000 0.111598 0.153685
O O6 0.494210 0.158628 0.215208
O O7 0.517719 0.053730 0.217312
O O8 0.500000 0.106702 0.000000
O O9 0.500000 0.422928 0.500000
O O10 0.750000 0.412542 0.355593
O O11 0.511386 0.451258 0.238052
O O12 0.250000 0.500000 0.851158
O O13 0.000000 0.500000 0.000000
O O14 0.250000 0.210807 0.148644
O O15 0.500000 0.215535 0.000000
O O16 0.250000 0.000000 0.851714
O O17 0.500000 0.000000 0.000000
#
# Coordination Sequence:
#
# PCOD9404687 Si02
#       6
#     8   8   8   4   8   4
#     4  10  20  36  55  77 102 132 169 211 253 301
#     4   9  15  25  40  62  92 126 162 203 248 299
#     4   9  19  35  56  78 102 131 168 207 247 294
#     4  10  21  36  52  78 110 138 167 204 246 294
#     4  11  21  33  49  72 101 135 170 210 257 305
#     4   8  14  22  36  58  87 122 159 198 245 294
#
# _framework density 17.692677
#
# number of rings (size 3 to 8) (size 9 to 14) (size 15 to 20)
#    0.000    2.400    0.000    4.500    0.000    3.200 
#    0.000    2.000    0.000    0.000    0.000    0.700 
#    0.000    0.000    0.000    0.000    0.000    0.000 
#
# Total GULP energy -222945.725705 kJ/mol
# GULP energy per Si atom -5573.643143 kJ/mol
# Density = 1.765241 g / cm^3
# Si number density = 17.692677 Si / 1000 Ang^3
#
#
#
# Elastic Constant Matrix: (Units=GPa)
#
#
# Indices 1 2 3 4 5 6 
#
# 1 68.5562 52.2570 29.8716 0.0000 0.0000 0.0000
# 2 52.2570 184.3486 98.8582 0.0000 0.0000 0.0000
# 3 29.8716 98.8582 76.0157 0.0000 0.0000 0.0000
# 4 0.0000 0.0000 0.0000 -34.7379 0.0000 0.0000
# 5 0.0000 0.0000 0.0000 0.0000 26.2599 0.0000
# 6 0.0000 0.0000 0.0000 0.0000 0.0000 42.1321
#
#
#
# Elastic Compliance Matrix: (Units=1/GPa)
#
#
# Indices 1 2 3 4 5 6 
#
# 1 0.018659 -0.004485 -0.001499 0.000000 0.000000 0.000000
# 2 -0.004485 0.019004 -0.022953 0.000000 0.000000 0.000000
# 3 -0.001499 -0.022953 0.043595 0.000000 0.000000 0.000000
# 4 0.000000 0.000000 0.000000 -0.028787 0.000000 0.000000
# 5 0.000000 0.000000 0.000000 0.000000 0.038081 0.000000
# 6 0.000000 0.000000 0.000000 0.000000 0.000000 0.023735
#
#
# Mechanical properties :
#
#
# Convention : Reuss Voigt Hill
#
# Bulk Modulus (GPa) = 42.76605 76.76602 59.76604
# Shear Modulus (GPa) = 27.78470 16.59309 22.18890
#
# Velocity S-wave (km/s) = 3.96713 3.06576 3.54521
# Velocity P-wave (km/s) = 6.72371 7.48429 7.11417
#
# Compressibility (1/GPa) = 0.02338303
#
# Stress axis : x y z
#
# Youngs Moduli (GPa) = 53.59451 52.61917 22.93867
#
# Poissons Ratio (x) = 0.23600 0.03439
# Poissons Ratio (y) = 0.24037 0.52651
# Poissons Ratio (z) = 0.08036 1.20776
#
# Static dielectric constant tensor:
#      x y z
#    x 1.590650 0.000000 0.000000 
#    y 0.000000 1.663060 0.000000 
#    z 0.000000 0.000000 1.562360 
# 
# From -- ./inp_files/5550.got.cif
#   From: 2010.05.17/outbox.cif.g08.bks.cpg/sg51_3_cif.got.tgz:5550.got - 2010.06.03 11:52:47.
