data_PCOD9404331
_publ_section_title
;
Structure prediction by ZEFSAII (Michael W. Deem and Ramdas Pophale) SiO2 
 PCOD9404331
Probable space group: P M M A
;
_chemical_formula_sum "Si O2"
_cell_formula_units_Z 64
_cell_length_a 21.509771
_cell_length_b 7.570522
_cell_length_c 17.099294
_cell_angle_alpha 90.000000
_cell_angle_beta 90.000000
_cell_angle_gamma 90.000000
_cell_volume 2784.452362
_symmetry_space_group_name_H-M "P M M A"
_symmetry_group_IT_number 51
_symmetry_cell_setting 'orthorhombic'
loop_
_space_group_symop_operation_xyz
x,y,z
1/2-x,-y,z
1/2+x,-y,-z
-x,y,-z
-x,-y,-z
1/2+x,y,-z
1/2-x,y,z
x,-y,z
loop_
_atom_site_type_symbol
_atom_site_label
_atom_site_fract_x
_atom_site_fract_y
_atom_site_fract_z
Si Si1 0.407607 0.287695 0.804711
Si Si2 0.182179 0.209194 0.679259
Si Si3 0.929638 0.716590 0.018741
Si Si4 0.317490 0.783715 0.434587
Si Si5 0.511650 0.709125 0.680903
Si Si6 0.180046 0.293878 0.094357
Si Si7 0.148197 0.201490 0.268990
Si Si8 0.581610 0.786931 0.445396
O O1 0.411622 0.500000 0.805022
O O2 0.342570 0.235732 0.766301
O O3 0.460840 0.224468 0.744367
O O4 0.415209 0.227067 0.892881
O O5 0.250000 0.285080 0.667616
O O6 0.129891 0.278891 0.621210
O O7 0.184865 0.000000 0.663090
O O8 0.929948 0.500000 0.016151
O O9 0.876316 0.778965 0.958646
O O10 0.000000 0.772525 0.000000
O O11 0.250000 0.736393 0.470542
O O12 0.318784 0.721394 0.345341
O O13 0.380572 0.725404 0.478112
O O14 0.319495 0.000000 0.434637
O O15 0.519249 0.500000 0.691003
O O16 0.576342 0.794850 0.704613
O O17 0.484715 0.738206 0.592995
O O18 0.250000 0.218568 0.084602
O O19 0.184337 0.500000 0.072919
O O20 0.160716 0.285948 0.185425
O O21 0.169167 0.000000 0.260127
O O22 0.579440 0.000000 0.449719
#
# Coordination Sequence:
#
# PCOD9404331 Si02
#       8
#     8   8   8   8   8   8   8   8
#     4   9  18  32  52  76 100 131 171 212 253 305
#     4   9  17  29  47  72 102 134 164 199 249 306
#     4   9  17  32  55  79 102 133 176 221 264 316
#     4   9  18  33  54  78 102 133 177 224 264 309
#     4  10  20  35  54  78 110 142 173 214 267 321
#     4  10  21  37  57  81 109 141 178 223 277 331
#     4  11  22  36  56  79 104 138 182 227 268 315
#     4   9  17  32  54  77 102 134 174 216 258 309
#
# _framework density 22.984770000000001
#
# number of rings (size 3 to 8) (size 9 to 14) (size 15 to 20)
#    0.000    2.500    0.000    2.250    0.000    6.000 
#    0.000    5.625    0.000    4.125    0.000    0.000 
#    0.000    0.000    0.000    0.000    0.000    0.000 
#
# Total GULP energy -357177.700487 kJ/mol
# GULP energy per Si atom -5580.901570 kJ/mol
# Density = 2.293246 g / cm^3
# Si number density = 22.984770 Si / 1000 Ang^3
#
#
#
# Elastic Constant Matrix: (Units=GPa)
#
#
# Indices 1 2 3 4 5 6 
#
# 1 164.3167 -2.8222 51.6034 0.0000 0.0000 0.0000
# 2 -2.8222 56.0839 -4.2537 0.0000 0.0000 0.0000
# 3 51.6034 -4.2537 119.3896 0.0000 0.0000 0.0000
# 4 0.0000 0.0000 0.0000 9.2156 0.0000 0.0000
# 5 0.0000 0.0000 0.0000 0.0000 16.8454 0.0000
# 6 0.0000 0.0000 0.0000 0.0000 0.0000 3.7168
#
#
#
# Elastic Compliance Matrix: (Units=1/GPa)
#
#
# Indices 1 2 3 4 5 6 
#
# 1 0.007043 0.000124 -0.003040 0.000000 0.000000 0.000000
# 2 0.000124 0.017881 0.000584 0.000000 0.000000 0.000000
# 3 -0.003040 0.000584 0.009711 0.000000 0.000000 0.000000
# 4 0.000000 0.000000 0.000000 0.108511 0.000000 0.000000
# 5 0.000000 0.000000 0.000000 0.000000 0.059363 0.000000
# 6 0.000000 0.000000 0.000000 0.000000 0.000000 0.269050
#
#
# Mechanical properties :
#
#
# Convention : Reuss Voigt Hill
#
# Bulk Modulus (GPa) = 33.36712 47.64948 40.50830
# Shear Modulus (GPa) = 10.28357 25.63974 17.96166
#
# Velocity S-wave (km/s) = 2.11750 3.34355 2.79849
# Velocity P-wave (km/s) = 4.53067 5.97341 5.30135
#
# Compressibility (1/GPa) = 0.02996962
#
# Stress axis : x y z
#
# Youngs Moduli (GPa) = 141.99498 55.92549 102.98124
#
# Poissons Ratio (x) = -0.00693 0.31302
# Poissons Ratio (y) = -0.01759 -0.06009
# Poissons Ratio (z) = 0.43160 -0.03263
#
# Static dielectric constant tensor:
#      x y z
#    x 1.902030 0.000000 0.000000 
#    y 0.000000 1.870470 0.000000 
#    z 0.000000 0.000000 1.845280 
# 
# From -- ./inp_files/30628.got.cif
#   From: 2010.05.17/outbox.cif.g08.bks.cpg/sg51_16_cif.got.tgz:30628.got - 2010.06.03 11:52:47.
