data_PCOD9404127
_publ_section_title
;
Structure prediction by ZEFSAII (Michael W. Deem and Ramdas Pophale) SiO2 
 PCOD9404127
Probable space group: P M M A
;
_chemical_formula_sum "Si O2"
_cell_formula_units_Z 40
_cell_length_a 7.890405
_cell_length_b 15.056263
_cell_length_c 16.000223
_cell_angle_alpha 90.000000
_cell_angle_beta 90.000000
_cell_angle_gamma 90.000000
_cell_volume 1900.826698
_symmetry_space_group_name_H-M "P M M A"
_symmetry_group_IT_number 51
_symmetry_cell_setting 'orthorhombic'
loop_
_space_group_symop_operation_xyz
x,y,z
1/2-x,-y,z
1/2+x,-y,-z
-x,y,-z
-x,-y,-z
1/2+x,y,-z
1/2-x,y,z
x,-y,z
loop_
_atom_site_type_symbol
_atom_site_label
_atom_site_fract_x
_atom_site_fract_y
_atom_site_fract_z
Si Si1 0.049054 0.902163 0.171351
Si Si2 0.542261 0.602200 0.248153
Si Si3 0.045876 0.287672 0.590402
Si Si4 0.949144 0.097323 0.362403
Si Si5 0.548639 0.280173 0.093014
O O1 0.250000 0.902534 0.186086
O O2 0.963756 0.890776 0.262111
O O3 0.008137 0.820183 0.112317
O O4 0.999287 0.000000 0.138736
O O5 0.750000 0.602701 0.247892
O O6 0.488391 0.500000 0.247576
O O7 0.486622 0.653818 0.331533
O O8 0.483181 0.655703 0.166385
O O9 0.250000 0.283136 0.596783
O O10 0.977095 0.186650 0.597985
O O11 0.000000 0.324803 0.500000
O O12 0.750000 0.094051 0.383595
O O13 0.023668 0.000000 0.383334
O O14 0.750000 0.281004 0.098821
O O15 0.500000 0.307844 0.000000
#
# Coordination Sequence:
#
# PCOD9404127 Si02
#       5
#     8   8   8   8   8
#     4  10  20  34  55  84 116 150 188 230 276 327
#     4   9  19  38  61  82 110 148 187 230 286 344
#     4  10  20  35  55  83 113 149 189 229 278 332
#     4   9  17  32  54  79 110 150 192 229 274 335
#     4  11  22  38  60  86 114 149 188 230 280 334
#
# _framework density 21.043478
#
# number of rings (size 3 to 8) (size 9 to 14) (size 15 to 20)
#    0.000    2.200    2.000    1.200    0.000    3.600 
#    0.000    0.000    0.000    4.200    0.000    0.000 
#    0.000    0.000    0.000    0.000    0.000    0.000 
#
# Total GULP energy -223348.163162 kJ/mol
# GULP energy per Si atom -5583.704079 kJ/mol
# Density = 2.099558 g / cm^3
# Si number density = 21.043478 Si / 1000 Ang^3
#
#
#
# Elastic Constant Matrix: (Units=GPa)
#
#
# Indices 1 2 3 4 5 6 
#
# 1 25.4020 10.2435 -2.8755 0.0000 0.0000 0.0000
# 2 10.2435 156.6300 93.8930 0.0000 0.0000 0.0000
# 3 -2.8755 93.8930 154.5123 0.0000 0.0000 0.0000
# 4 0.0000 0.0000 0.0000 -0.8450 0.0000 0.0000
# 5 0.0000 0.0000 0.0000 0.0000 16.2303 0.0000
# 6 0.0000 0.0000 0.0000 0.0000 0.0000 2.8460
#
#
#
# Elastic Compliance Matrix: (Units=1/GPa)
#
#
# Indices 1 2 3 4 5 6 
#
# 1 0.041833 -0.005038 0.003840 0.000000 0.000000 0.000000
# 2 -0.005038 0.010649 -0.006565 0.000000 0.000000 0.000000
# 3 0.003840 -0.006565 0.010533 0.000000 0.000000 0.000000
# 4 0.000000 0.000000 0.000000 -1.183367 0.000000 0.000000
# 5 0.000000 0.000000 0.000000 0.000000 0.061613 0.000000
# 6 0.000000 0.000000 0.000000 0.000000 0.000000 0.351368
#
#
# Mechanical properties :
#
#
# Convention : Reuss Voigt Hill
#
# Bulk Modulus (GPa) = 21.05735 59.89624 40.47679
# Shear Modulus (GPa) = -7.39628 19.33183 5.96777
#
# Velocity S-wave (km/s) = -1.87680 3.03423 1.68585
# Velocity P-wave (km/s) = 2.30907 6.38751 4.80271
#
# Compressibility (1/GPa) = 0.04748937
#
# Stress axis : x y z
#
# Youngs Moduli (GPa) = 23.90457 93.90165 94.94075
#
# Poissons Ratio (x) = 0.47304 -0.36455
# Poissons Ratio (y) = 0.12042 0.62330
# Poissons Ratio (z) = -0.09179 0.61648
#
# Static dielectric constant tensor:
#      x y z
#    x 1.764580 0.000000 0.000000 
#    y 0.000000 1.770970 0.000000 
#    z 0.000000 0.000000 1.715550 
# 
# From -- ./inp_files/20466.got.cif
#   From: 2010.05.17/outbox.cif.g08.bks.cpg/sg51_11_cif.got.tgz:20466.got - 2010.06.03 11:52:47.
