data_PCOD9404348
_publ_section_title
;
Structure prediction by ZEFSAII (Michael W. Deem and Ramdas Pophale) SiO2 
 PCOD9404348
Probable space group: P M M A
;
_chemical_formula_sum "Si O2"
_cell_formula_units_Z 64
_cell_length_a 14.305851
_cell_length_b 7.928977
_cell_length_c 27.516690
_cell_angle_alpha 90.000000
_cell_angle_beta 90.000000
_cell_angle_gamma 90.000000
_cell_volume 3121.239157
_symmetry_space_group_name_H-M "P M M A"
_symmetry_group_IT_number 51
_symmetry_cell_setting 'orthorhombic'
loop_
_space_group_symop_operation_xyz
x,y,z
1/2-x,-y,z
1/2+x,-y,-z
-x,y,-z
-x,-y,-z
1/2+x,y,-z
1/2-x,y,z
x,-y,z
loop_
_atom_site_type_symbol
_atom_site_label
_atom_site_fract_x
_atom_site_fract_y
_atom_site_fract_z
Si Si1 0.494886 0.308230 0.715392
Si Si2 0.642014 0.797817 0.366559
Si Si3 0.353722 0.696004 0.098217
Si Si4 0.642005 0.197489 0.011769
Si Si5 0.854506 0.699394 0.207285
Si Si6 0.144372 0.201624 0.360940
Si Si7 0.005069 0.204315 0.445159
Si Si8 0.444417 0.802821 0.890014
O O1 0.520153 0.500000 0.727784
O O2 0.414445 0.299246 0.674472
O O3 0.440800 0.227484 0.761229
O O4 0.584269 0.232228 0.687904
O O5 0.750000 0.755723 0.366487
O O6 0.591850 0.762951 0.417479
O O7 0.631251 0.000000 0.357314
O O8 0.250000 0.765313 0.110316
O O9 0.355669 0.500000 0.111782
O O10 0.445625 0.780825 0.119878
O O11 0.363369 0.711901 0.039791
O O12 0.750000 0.205258 0.028104
O O13 0.579342 0.262607 0.055880
O O14 0.618803 0.000000 0.002199
O O15 0.750000 0.768934 0.217114
O O16 0.850928 0.500000 0.218903
O O17 0.882011 0.719142 0.151246
O O18 0.250000 0.268349 0.358606
O O19 0.085773 0.265817 0.407926
O O20 0.149340 0.000000 0.366567
O O21 0.000000 0.269474 0.500000
O O22 0.016313 0.000000 0.447950
O O23 0.420607 0.000000 0.890618
#
# Coordination Sequence:
#
# PCOD9404348 Si02
#       8
#     8   8   8   8   8   8   8   8
#     4  10  20  35  55  77 101 131 170 212 255 306
#     4   9  17  29  47  72 100 130 166 208 252 299
#     4  10  21  36  54  76 103 139 181 219 255 298
#     4   9  18  33  52  76 107 139 171 209 254 306
#     4  10  22  39  57  78 105 135 166 205 256 312
#     4   9  18  33  53  77 105 137 175 219 263 306
#     4   8  14  25  43  71 105 136 168 209 256 303
#     4  11  22  35  54  80 108 138 172 211 259 313
#
# _framework density 20.504677999999998
#
# number of rings (size 3 to 8) (size 9 to 14) (size 15 to 20)
#    0.000    2.500    0.000    3.000    0.000    6.500 
#    0.000    4.375    0.000    6.750    0.000    7.000 
#    0.000    0.000    0.000    0.000    0.000    0.000 
#
# Total GULP energy -356875.195615 kJ/mol
# GULP energy per Si atom -5576.174931 kJ/mol
# Density = 2.045801 g / cm^3
# Si number density = 20.504678 Si / 1000 Ang^3
#
#
#
# Elastic Constant Matrix: (Units=GPa)
#
#
# Indices 1 2 3 4 5 6 
#
# 1 126.6257 1.9643 11.4411 0.0000 0.0000 0.0000
# 2 1.9643 16.7015 -3.7492 0.0000 0.0000 0.0000
# 3 11.4411 -3.7492 34.8197 0.0000 0.0000 0.0000
# 4 0.0000 0.0000 0.0000 13.1839 0.0000 0.0000
# 5 0.0000 0.0000 0.0000 0.0000 14.2041 0.0000
# 6 0.0000 0.0000 0.0000 0.0000 0.0000 13.9979
#
#
#
# Elastic Compliance Matrix: (Units=1/GPa)
#
#
# Indices 1 2 3 4 5 6 
#
# 1 0.008181 -0.001604 -0.002861 0.000000 0.000000 0.000000
# 2 -0.001604 0.061672 0.007168 0.000000 0.000000 0.000000
# 3 -0.002861 0.007168 0.030431 0.000000 0.000000 0.000000
# 4 0.000000 0.000000 0.000000 0.075850 0.000000 0.000000
# 5 0.000000 0.000000 0.000000 0.000000 0.070402 0.000000
# 6 0.000000 0.000000 0.000000 0.000000 0.000000 0.071440
#
#
# Mechanical properties :
#
#
# Convention : Reuss Voigt Hill
#
# Bulk Modulus (GPa) = 9.46167 21.93991 15.70079
# Shear Modulus (GPa) = 14.37606 19.50989 16.94298
#
# Velocity S-wave (km/s) = 2.65072 3.08796 2.87766
# Velocity P-wave (km/s) = 3.74070 4.84120 4.32609
#
# Compressibility (1/GPa) = 0.10568960
#
# Stress axis : x y z
#
# Youngs Moduli (GPa) = 122.23955 16.21470 32.86106
#
# Poissons Ratio (x) = 0.02601 0.09401
# Poissons Ratio (y) = 0.19612 -0.23554
# Poissons Ratio (z) = 0.34970 -0.11622
#
# Static dielectric constant tensor:
#      x y z
#    x 1.750360 0.000000 0.000000 
#    y 0.000000 1.750060 0.000000 
#    z 0.000000 0.000000 1.733150 
# 
# From -- ./inp_files/35799.got.cif
#   From: 2010.05.17/outbox.cif.g08.bks.cpg/sg51_18_cif.got.tgz:35799.got - 2010.06.03 11:52:47.
