data_PCOD9404797
_publ_section_title
;
Structure prediction by ZEFSAII (Michael W. Deem and Ramdas Pophale) SiO2 
 PCOD9404797
Probable space group: P M M A
;
_chemical_formula_sum "Si O2"
_cell_formula_units_Z 48
_cell_length_a 18.590695
_cell_length_b 7.776530
_cell_length_c 18.159085
_cell_angle_alpha 90.000000
_cell_angle_beta 90.000000
_cell_angle_gamma 90.000000
_cell_volume 2625.278846
_symmetry_space_group_name_H-M "P M M A"
_symmetry_group_IT_number 51
_symmetry_cell_setting 'orthorhombic'
loop_
_space_group_symop_operation_xyz
x,y,z
1/2-x,-y,z
1/2+x,-y,-z
-x,y,-z
-x,-y,-z
1/2+x,y,-z
1/2-x,y,z
x,-y,z
loop_
_atom_site_type_symbol
_atom_site_label
_atom_site_fract_x
_atom_site_fract_y
_atom_site_fract_z
Si Si1 0.404385 0.691349 0.217727
Si Si2 0.835926 0.701735 0.065292
Si Si3 0.332107 0.290025 0.773279
Si Si4 0.461215 0.302437 0.676041
Si Si5 0.164265 0.000000 0.310025
Si Si6 0.061187 0.804717 0.054136
Si Si7 0.527765 0.000000 0.583826
O O1 0.373878 0.500000 0.229140
O O2 0.482152 0.697491 0.256835
O O3 0.418890 0.719627 0.131305
O O4 0.357262 0.835875 0.258908
O O5 0.750000 0.711878 0.065578
O O6 0.855350 0.500000 0.057642
O O7 0.859653 0.764863 0.146074
O O8 0.869506 0.801184 0.997979
O O9 0.250000 0.233265 0.763081
O O10 0.331587 0.500000 0.775856
O O11 0.385486 0.240896 0.708752
O O12 0.455009 0.500000 0.649716
O O13 0.492700 0.170957 0.618092
O O14 0.250000 0.000000 0.326669
O O15 0.110465 0.000000 0.382268
O O16 0.038521 0.000000 0.071295
O O17 0.000000 0.727207 0.000000
O O18 0.500000 0.000000 0.500000
#
# Coordination Sequence:
#
# PCOD9404797 Si02
#       7
#     8   8   8   8   4   8   4
#     4  10  20  36  58  81 106 147 197 239 285 334
#     4   9  18  32  48  67  96 137 182 227 278 328
#     4   8  14  28  50  75 105 141 180 223 270 317
#     4   9  18  34  58  83 109 142 178 218 263 317
#     4  10  22  42  63  85 116 147 182 235 286 333
#     4  11  22  33  47  72 108 148 192 244 292 331
#     4  10  22  40  62  89 116 143 174 211 259 335
#
# _framework density 18.283771000000002
#
# number of rings (size 3 to 8) (size 9 to 14) (size 15 to 20)
#    0.000    2.500    0.833    2.500    0.000    4.333 
#    1.500    1.250    0.000    0.000    0.000    0.000 
#    0.000    0.000    0.000    0.000    0.000    0.000 
#
# Total GULP energy -267483.538918 kJ/mol
# GULP energy per Si atom -5572.573727 kJ/mol
# Density = 1.824216 g / cm^3
# Si number density = 18.283771 Si / 1000 Ang^3
#
#
#
# Elastic Constant Matrix: (Units=GPa)
#
#
# Indices 1 2 3 4 5 6 
#
# 1 70.7508 38.1922 62.2481 0.0000 0.0000 0.0000
# 2 38.1922 81.8245 43.8855 0.0000 0.0000 0.0000
# 3 62.2481 43.8855 114.5231 0.0000 0.0000 0.0000
# 4 0.0000 0.0000 0.0000 15.3280 0.0000 0.0000
# 5 0.0000 0.0000 0.0000 0.0000 14.8106 0.0000
# 6 0.0000 0.0000 0.0000 0.0000 0.0000 -1.2922
#
#
#
# Elastic Compliance Matrix: (Units=1/GPa)
#
#
# Indices 1 2 3 4 5 6 
#
# 1 0.029626 -0.006535 -0.013599 0.000000 0.000000 0.000000
# 2 -0.006535 0.016824 -0.002895 0.000000 0.000000 0.000000
# 3 -0.013599 -0.002895 0.017233 0.000000 0.000000 0.000000
# 4 0.000000 0.000000 0.000000 0.065240 0.000000 0.000000
# 5 0.000000 0.000000 0.000000 0.000000 0.067519 0.000000
# 6 0.000000 0.000000 0.000000 0.000000 0.000000 -0.773898
#
#
# Mechanical properties :
#
#
# Convention : Reuss Voigt Hill
#
# Bulk Modulus (GPa) = 56.73542 61.74998 59.24270
# Shear Modulus (GPa) = -9.51435 13.95412 2.21989
#
# Velocity S-wave (km/s) = -2.28364 2.76560 1.10307
# Velocity P-wave (km/s) = 4.91371 6.63660 5.83905
#
# Compressibility (1/GPa) = 0.01762567
#
# Stress axis : x y z
#
# Youngs Moduli (GPa) = 33.75368 59.43829 58.02815
#
# Poissons Ratio (x) = 0.38841 0.78913
# Poissons Ratio (y) = 0.22057 0.16800
# Poissons Ratio (z) = 0.45902 0.17209
#
# Static dielectric constant tensor:
#      x y z
#    x 1.656730 0.000000 0.000000 
#    y 0.000000 1.679930 0.000000 
#    z 0.000000 0.000000 1.620680 
# 
# From -- ./inp_files/24996.got.cif
#   From: 2010.05.17/outbox.cif.g08.bks.cpg/sg51_13_cif.got.tgz:24996.got - 2010.06.03 11:52:47.
