data_PCOD9404608
_publ_section_title
;
Structure prediction by ZEFSAII (Michael W. Deem and Ramdas Pophale) SiO2 
 PCOD9404608
Probable space group: P M M A
;
_chemical_formula_sum "Si O2"
_cell_formula_units_Z 64
_cell_length_a 14.689663
_cell_length_b 8.808164
_cell_length_c 24.857423
_cell_angle_alpha 90.000000
_cell_angle_beta 90.000000
_cell_angle_gamma 90.000000
_cell_volume 3216.276130
_symmetry_space_group_name_H-M "P M M A"
_symmetry_group_IT_number 51
_symmetry_cell_setting 'orthorhombic'
loop_
_space_group_symop_operation_xyz
x,y,z
1/2-x,-y,z
1/2+x,-y,-z
-x,y,-z
-x,-y,-z
1/2+x,y,-z
1/2-x,y,z
x,-y,z
loop_
_atom_site_type_symbol
_atom_site_label
_atom_site_fract_x
_atom_site_fract_y
_atom_site_fract_z
Si Si1 0.848711 0.172205 0.867776
Si Si2 0.141113 0.176266 0.533714
Si Si3 0.540273 0.319315 0.365778
Si Si4 0.353671 0.682851 0.417019
Si Si5 0.024941 0.178708 0.940764
Si Si6 0.044543 0.821112 0.743636
Si Si7 0.351711 0.322591 0.243585
Si Si8 0.643538 0.681615 0.151889
O O1 0.750000 0.181082 0.895175
O O2 0.850410 0.294640 0.820642
O O3 0.931968 0.189622 0.907103
O O4 0.855220 0.000000 0.843967
O O5 0.250000 0.184175 0.541570
O O6 0.123310 0.245180 0.474834
O O7 0.092189 0.267945 0.580674
O O8 0.113200 0.000000 0.535378
O O9 0.544932 0.500000 0.359200
O O10 0.434063 0.276834 0.376093
O O11 0.581823 0.241698 0.312901
O O12 0.250000 0.728131 0.402314
O O13 0.354377 0.500000 0.422267
O O14 0.100041 0.259315 0.903866
O O15 0.049606 0.000000 0.946000
O O16 0.000000 0.238370 0.000000
O O17 0.089139 0.748276 0.796819
O O18 0.938501 0.774423 0.740337
O O19 0.055176 0.000000 0.747253
O O20 0.250000 0.279651 0.263166
O O21 0.365960 0.500000 0.256660
O O22 0.750000 0.723858 0.155481
O O23 0.635933 0.500000 0.153703
#
# Coordination Sequence:
#
# PCOD9404608 Si02
#       8
#     8   8   8   8   8   8   8   8
#     4   9  17  31  53  82 116 153 191 232 282 343
#     4  10  21  37  58  85 118 156 199 249 304 359
#     4  11  23  38  59  87 119 157 201 250 302 359
#     4   9  19  37  60  86 118 157 198 241 295 359
#     4  10  21  37  61  94 128 162 199 244 297 353
#     4  12  25  41  62  88 120 159 202 252 308 365
#     4  10  20  35  58  86 115 150 190 234 288 351
#     4  11  25  45  67  90 120 162 209 255 305 361
#
# _framework density 19.898789000000001
#
# number of rings (size 3 to 8) (size 9 to 14) (size 15 to 20)
#    0.000    1.750    1.250    3.000    0.000    6.750 
#    0.000    2.500    0.000    1.500    0.000    0.000 
#    0.000    0.000    0.000    0.000    0.000    0.000 
#
# Total GULP energy -357348.591204 kJ/mol
# GULP energy per Si atom -5583.571738 kJ/mol
# Density = 1.985350 g / cm^3
# Si number density = 19.898789 Si / 1000 Ang^3
#
#
#
# Elastic Constant Matrix: (Units=GPa)
#
#
# Indices 1 2 3 4 5 6 
#
# 1 81.6136 41.7711 50.4879 0.0000 0.0000 0.0000
# 2 41.7711 58.2153 42.0690 0.0000 0.0000 0.0000
# 3 50.4879 42.0690 125.2865 0.0000 0.0000 0.0000
# 4 0.0000 0.0000 0.0000 33.1572 0.0000 0.0000
# 5 0.0000 0.0000 0.0000 0.0000 1.8607 0.0000
# 6 0.0000 0.0000 0.0000 0.0000 0.0000 23.4450
#
#
#
# Elastic Compliance Matrix: (Units=1/GPa)
#
#
# Indices 1 2 3 4 5 6 
#
# 1 0.021143 -0.011901 -0.004524 0.000000 0.000000 0.000000
# 2 -0.011901 0.029381 -0.005069 0.000000 0.000000 0.000000
# 3 -0.004524 -0.005069 0.011507 0.000000 0.000000 0.000000
# 4 0.000000 0.000000 0.000000 0.030159 0.000000 0.000000
# 5 0.000000 0.000000 0.000000 0.000000 0.537446 0.000000
# 6 0.000000 0.000000 0.000000 0.000000 0.000000 0.042653
#
#
# Mechanical properties :
#
#
# Convention : Reuss Voigt Hill
#
# Bulk Modulus (GPa) = 52.51840 59.30794 55.91317
# Shear Modulus (GPa) = 6.92880 20.41172 13.67026
#
# Velocity S-wave (km/s) = 1.86804 3.20625 2.62389
# Velocity P-wave (km/s) = 5.57699 6.60123 6.11061
#
# Compressibility (1/GPa) = 0.01904094
#
# Stress axis : x y z
#
# Youngs Moduli (GPa) = 47.29761 34.03602 86.90406
#
# Poissons Ratio (x) = 0.40508 0.39314
# Poissons Ratio (y) = 0.56291 0.44056
# Poissons Ratio (z) = 0.21397 0.17254
#
# Static dielectric constant tensor:
#      x y z
#    x 1.726900 0.000000 0.000000 
#    y 0.000000 1.680880 0.000000 
#    z 0.000000 0.000000 1.694230 
# 
# From -- ./inp_files/35661.got.cif
#   From: 2010.05.17/outbox.cif.g08.bks.cpg/sg51_18_cif.got.tgz:35661.got - 2010.06.03 11:52:47.
