data_PCOD9404535
_publ_section_title
;
Structure prediction by ZEFSAII (Michael W. Deem and Ramdas Pophale) SiO2 
 PCOD9404535
Probable space group: P M M A
;
_chemical_formula_sum "Si O2"
_cell_formula_units_Z 56
_cell_length_a 15.188461
_cell_length_b 14.978276
_cell_length_c 12.512431
_cell_angle_alpha 90.000000
_cell_angle_beta 90.000000
_cell_angle_gamma 90.000000
_cell_volume 2846.540026
_symmetry_space_group_name_H-M "P M M A"
_symmetry_group_IT_number 51
_symmetry_cell_setting 'orthorhombic'
loop_
_space_group_symop_operation_xyz
x,y,z
1/2-x,-y,z
1/2+x,-y,-z
-x,y,-z
-x,-y,-z
1/2+x,y,-z
1/2-x,y,z
x,-y,z
loop_
_atom_site_type_symbol
_atom_site_label
_atom_site_fract_x
_atom_site_fract_y
_atom_site_fract_z
Si Si1 0.028644 0.346695 0.244763
Si Si2 0.848905 0.285798 0.564231
Si Si3 0.348839 0.601942 0.651204
Si Si4 0.644544 0.399297 0.955333
Si Si5 0.397924 0.898331 0.527825
Si Si6 0.147169 0.099290 0.765672
Si Si7 0.435819 0.768231 0.914218
O O1 0.081550 0.324044 0.351731
O O2 0.091712 0.394087 0.157419
O O3 0.934037 0.390098 0.273348
O O4 0.998904 0.258238 0.183310
O O5 0.750000 0.306598 0.601780
O O6 0.861047 0.333155 0.449435
O O7 0.857055 0.179904 0.543549
O O8 0.250000 0.620634 0.698556
O O9 0.346717 0.500000 0.612215
O O10 0.750000 0.386557 0.941348
O O11 0.630881 0.500000 0.999524
O O12 0.605292 0.320973 0.031032
O O13 0.500000 0.901701 0.500000
O O14 0.391038 0.870932 0.651967
O O15 0.361926 0.000000 0.517070
O O16 0.250000 0.093443 0.745148
O O17 0.132986 0.165668 0.863013
O O18 0.112090 0.000000 0.789478
O O19 0.500000 0.812099 0.000000
#
# Coordination Sequence:
#
# PCOD9404535 Si02
#       7
#     8   8   8   8   8   8   8
#     4  11  22  37  57  82 113 149 188 231 279 334
#     4  11  22  36  56  82 116 155 192 231 277 333
#     4  10  22  37  54  81 114 148 187 229 277 335
#     4  10  22  40  61  85 113 146 186 233 286 343
#     4  10  20  35  57  85 117 151 188 231 278 331
#     4  10  20  35  57  83 109 141 183 228 275 329
#     4  10  22  37  56  80 108 142 182 233 285 333
#
# _framework density 19.673006999999998
#
# number of rings (size 3 to 8) (size 9 to 14) (size 15 to 20)
#    0.000    1.714    0.000    4.714    0.000    8.286 
#    0.000    2.857    0.000    0.857    0.000    0.000 
#    0.000    0.000    0.000    0.000    0.000    0.000 
#
# Total GULP energy -312340.613802 kJ/mol
# GULP energy per Si atom -5577.510961 kJ/mol
# Density = 1.962823 g / cm^3
# Si number density = 19.673007 Si / 1000 Ang^3
#
#
#
# Elastic Constant Matrix: (Units=GPa)
#
#
# Indices 1 2 3 4 5 6 
#
# 1 120.0607 20.3136 50.0615 0.0000 0.0000 0.0000
# 2 20.3136 58.0074 38.1875 0.0000 0.0000 0.0000
# 3 50.0615 38.1875 71.4058 0.0000 0.0000 0.0000
# 4 0.0000 0.0000 0.0000 17.8320 0.0000 0.0000
# 5 0.0000 0.0000 0.0000 0.0000 23.3359 0.0000
# 6 0.0000 0.0000 0.0000 0.0000 0.0000 26.6751
#
#
#
# Elastic Compliance Matrix: (Units=1/GPa)
#
#
# Indices 1 2 3 4 5 6 
#
# 1 0.011926 0.002049 -0.009457 0.000000 0.000000 0.000000
# 2 0.002049 0.026959 -0.015854 0.000000 0.000000 0.000000
# 3 -0.009457 -0.015854 0.029113 0.000000 0.000000 0.000000
# 4 0.000000 0.000000 0.000000 0.056079 0.000000 0.000000
# 5 0.000000 0.000000 0.000000 0.000000 0.042853 0.000000
# 6 0.000000 0.000000 0.000000 0.000000 0.000000 0.037488
#
#
# Mechanical properties :
#
#
# Convention : Reuss Voigt Hill
#
# Bulk Modulus (GPa) = 46.56739 51.84435 49.20587
# Shear Modulus (GPa) = 19.37246 22.96268 21.16757
#
# Velocity S-wave (km/s) = 3.14143 3.42016 3.28376
# Velocity P-wave (km/s) = 6.07291 6.48128 6.28041
#
# Compressibility (1/GPa) = 0.02147425
#
# Stress axis : x y z
#
# Youngs Moduli (GPa) = 83.85342 37.09387 34.34864
#
# Poissons Ratio (x) = -0.07602 0.32483
# Poissons Ratio (y) = -0.17185 0.54457
# Poissons Ratio (z) = 0.79299 0.58809
#
# Static dielectric constant tensor:
#      x y z
#    x 1.714650 0.000000 0.000000 
#    y 0.000000 1.726540 0.000000 
#    z 0.000000 0.000000 1.680190 
# 
# From -- ./inp_files/16587.got.cif
#   From: 2010.05.17/outbox.cif.g08.bks.cpg/sg51_9_cif.got.tgz:16587.got - 2010.06.03 11:52:47.
