data_PCOD9404409
_publ_section_title
;
Structure prediction by ZEFSAII (Michael W. Deem and Ramdas Pophale) SiO2 
 PCOD9404409
Probable space group: P M M A
;
_chemical_formula_sum "Si O2"
_cell_formula_units_Z 44
_cell_length_a 8.556025
_cell_length_b 29.254053
_cell_length_c 9.304022
_cell_angle_alpha 90.000000
_cell_angle_beta 90.000000
_cell_angle_gamma 90.000000
_cell_volume 2328.781902
_symmetry_space_group_name_H-M "P M M A"
_symmetry_group_IT_number 51
_symmetry_cell_setting 'orthorhombic'
loop_
_space_group_symop_operation_xyz
x,y,z
1/2-x,-y,z
1/2+x,-y,-z
-x,y,-z
-x,-y,-z
1/2+x,y,-z
1/2-x,y,z
x,-y,z
loop_
_atom_site_type_symbol
_atom_site_label
_atom_site_fract_x
_atom_site_fract_y
_atom_site_fract_z
Si Si1 0.938245 0.590443 0.337477
Si Si2 0.561623 0.500000 0.162238
Si Si3 0.436880 0.677318 0.162063
Si Si4 0.563106 0.236501 0.336738
Si Si5 0.438295 0.138730 0.338404
Si Si6 0.438574 0.949753 0.161749
O O1 0.750000 0.592394 0.339990
O O2 0.987250 0.545194 0.249459
O O3 0.000000 0.588766 0.500000
O O4 0.002726 0.634641 0.255348
O O5 0.750000 0.500000 0.156540
O O6 0.500000 0.500000 0.000000
O O7 0.250000 0.677436 0.160235
O O8 0.498508 0.723294 0.237525
O O9 0.500000 0.673829 0.000000
O O10 0.500000 0.242210 0.500000
O O11 0.750000 0.237624 0.340472
O O12 0.505208 0.186900 0.283277
O O13 0.500000 0.134105 0.500000
O O14 0.250000 0.141154 0.338474
O O15 0.490712 0.094213 0.250819
O O16 0.250000 0.949005 0.159644
O O17 0.487156 0.000000 0.219006
O O18 0.500000 0.946361 0.000000
#
# Coordination Sequence:
#
# PCOD9404409 Si02
#       6
#     8   4   8   8   8   8
#     4  11  23  41  63  91 122 159 201 243 290 343
#     4  10  23  40  62  90 124 160 199 244 293 344
#     4  12  25  42  62  88 119 153 193 240 290 343
#     4  11  22  39  61  85 114 150 190 234 285 342
#     4  10  20  35  55  81 112 145 185 232 280 334
#     4   9  19  35  54  77 107 143 183 227 276 332
#
# _framework density 18.893998
#
# number of rings (size 3 to 8) (size 9 to 14) (size 15 to 20)
#    0.000    1.455    0.000    6.818    0.000    5.455 
#    0.000    1.818    0.000    0.000    0.000    0.000 
#    0.000    0.000    0.000    0.000    0.000    0.000 
#
# Total GULP energy -245945.241677 kJ/mol
# GULP energy per Si atom -5589.664584 kJ/mol
# Density = 1.885099 g / cm^3
# Si number density = 18.893998 Si / 1000 Ang^3
#
#
#
# Elastic Constant Matrix: (Units=GPa)
#
#
# Indices 1 2 3 4 5 6 
#
# 1 108.1049 63.9763 46.2746 0.0000 0.0000 0.0000
# 2 63.9763 229.5091 117.8381 0.0000 0.0000 0.0000
# 3 46.2746 117.8381 135.6460 0.0000 0.0000 0.0000
# 4 0.0000 0.0000 0.0000 50.6275 0.0000 0.0000
# 5 0.0000 0.0000 0.0000 0.0000 37.0415 0.0000
# 6 0.0000 0.0000 0.0000 0.0000 0.0000 30.2213
#
#
#
# Elastic Compliance Matrix: (Units=1/GPa)
#
#
# Indices 1 2 3 4 5 6 
#
# 1 0.011380 -0.002128 -0.002033 0.000000 0.000000 0.000000
# 2 -0.002128 0.008263 -0.006452 0.000000 0.000000 0.000000
# 3 -0.002033 -0.006452 0.013671 0.000000 0.000000 0.000000
# 4 0.000000 0.000000 0.000000 0.019752 0.000000 0.000000
# 5 0.000000 0.000000 0.000000 0.000000 0.026997 0.000000
# 6 0.000000 0.000000 0.000000 0.000000 0.000000 0.033089
#
#
# Mechanical properties :
#
#
# Convention : Reuss Voigt Hill
#
# Bulk Modulus (GPa) = 82.73733 103.27090 93.00412
# Shear Modulus (GPa) = 36.12463 39.92279 38.02371
#
# Velocity S-wave (km/s) = 4.37734 4.60171 4.49093
# Velocity P-wave (km/s) = 8.33268 9.11104 8.73054
#
# Compressibility (1/GPa) = 0.01208644
#
# Stress axis : x y z
#
# Youngs Moduli (GPa) = 87.87213 121.01726 73.14659
#
# Poissons Ratio (x) = 0.25755 0.14874
# Poissons Ratio (y) = 0.18701 0.47197
# Poissons Ratio (z) = 0.17868 0.78086
#
# Static dielectric constant tensor:
#      x y z
#    x 1.639320 0.000000 0.000000 
#    y 0.000000 1.661780 0.000000 
#    z 0.000000 0.000000 1.582260 
# 
# From -- ./inp_files/5884.got.cif
#   From: 2010.05.17/outbox.cif.g08.bks.cpg/sg51_3_cif.got.tgz:5884.got - 2010.06.03 11:52:47.
