data_PCOD9404419
_publ_section_title
;
Structure prediction by ZEFSAII (Michael W. Deem and Ramdas Pophale) SiO2 
 PCOD9404419
Probable space group: P M M A
;
_chemical_formula_sum "Si O2"
_cell_formula_units_Z 64
_cell_length_a 29.761228
_cell_length_b 7.890927
_cell_length_c 12.775264
_cell_angle_alpha 90.000000
_cell_angle_beta 90.000000
_cell_angle_gamma 90.000000
_cell_volume 3000.189980
_symmetry_space_group_name_H-M "P M M A"
_symmetry_group_IT_number 51
_symmetry_cell_setting 'orthorhombic'
loop_
_space_group_symop_operation_xyz
x,y,z
1/2-x,-y,z
1/2+x,-y,-z
-x,y,-z
-x,-y,-z
1/2+x,y,-z
1/2-x,y,z
x,-y,z
loop_
_atom_site_type_symbol
_atom_site_label
_atom_site_fract_x
_atom_site_fract_y
_atom_site_fract_z
Si Si1 0.449107 0.792936 0.984123
Si Si2 0.659602 0.200773 0.293980
Si Si3 0.801790 0.703206 0.068487
Si Si4 0.378501 0.700648 0.354132
Si Si5 0.062916 0.204208 0.749017
Si Si6 0.979487 0.296209 0.609635
Si Si7 0.700981 0.300129 0.503278
Si Si8 0.633068 0.797861 0.879461
O O1 0.434092 0.738494 0.869006
O O2 0.448755 0.000000 0.986103
O O3 0.500000 0.737189 0.000000
O O4 0.414077 0.735178 0.071150
O O5 0.675296 0.231765 0.175190
O O6 0.608236 0.264401 0.307869
O O7 0.691255 0.282965 0.380213
O O8 0.660410 0.000000 0.312402
O O9 0.750000 0.761393 0.064209
O O10 0.802182 0.500000 0.072832
O O11 0.829138 0.757552 0.965515
O O12 0.382034 0.500000 0.375623
O O13 0.429241 0.770108 0.367896
O O14 0.341244 0.773430 0.433097
O O15 0.361673 0.723520 0.235652
O O16 0.016141 0.255251 0.697781
O O17 0.064371 0.000000 0.749421
O O18 0.976935 0.500000 0.603150
O O19 0.000000 0.232116 0.500000
O O20 0.750000 0.226499 0.528625
O O21 0.702716 0.500000 0.528443
O O22 0.630652 0.000000 0.868300
#
# Coordination Sequence:
#
# PCOD9404419 Si02
#       8
#     8   8   8   8   8   8   8   8
#     4   9  17  32  54  80 113 152 190 232 285 345
#     4  11  22  38  61  91 125 156 194 252 311 362
#     4  11  24  41  62  88 121 162 204 248 304 369
#     4  10  22  40  60  86 124 163 204 252 303 365
#     4  10  20  35  55  83 118 154 195 240 295 357
#     4  10  21  37  57  84 119 160 204 250 300 352
#     4  10  22  41  64  87 114 155 203 250 305 367
#     4  11  22  39  62  88 121 159 201 251 304 357
#
# _framework density 21.331982
#
# number of rings (size 3 to 8) (size 9 to 14) (size 15 to 20)
#    0.000    1.750    1.250    3.000    0.000    7.500 
#    0.000    1.250    0.000    2.625    0.000    0.000 
#    0.000    0.000    0.000    0.000    0.000    0.000 
#
# Total GULP energy -357608.694998 kJ/mol
# GULP energy per Si atom -5587.635859 kJ/mol
# Density = 2.128343 g / cm^3
# Si number density = 21.331982 Si / 1000 Ang^3
#
#
#
# Elastic Constant Matrix: (Units=GPa)
#
#
# Indices 1 2 3 4 5 6 
#
# 1 159.5041 1.8504 34.1754 0.0000 0.0000 0.0000
# 2 1.8504 23.7540 -16.0773 0.0000 0.0000 0.0000
# 3 34.1754 -16.0773 82.3287 0.0000 0.0000 0.0000
# 4 0.0000 0.0000 0.0000 32.7756 0.0000 0.0000
# 5 0.0000 0.0000 0.0000 0.0000 30.4758 0.0000
# 6 0.0000 0.0000 0.0000 0.0000 0.0000 22.8257
#
#
#
# Elastic Compliance Matrix: (Units=1/GPa)
#
#
# Indices 1 2 3 4 5 6 
#
# 1 0.007053 -0.002916 -0.003497 0.000000 0.000000 0.000000
# 2 -0.002916 0.049716 0.010919 0.000000 0.000000 0.000000
# 3 -0.003497 0.010919 0.015730 0.000000 0.000000 0.000000
# 4 0.000000 0.000000 0.000000 0.030510 0.000000 0.000000
# 5 0.000000 0.000000 0.000000 0.000000 0.032813 0.000000
# 6 0.000000 0.000000 0.000000 0.000000 0.000000 0.043810
#
#
# Mechanical properties :
#
#
# Convention : Reuss Voigt Hill
#
# Bulk Modulus (GPa) = 12.26838 33.94265 23.10551
# Shear Modulus (GPa) = 25.27921 33.59131 29.43526
#
# Velocity S-wave (km/s) = 3.44617 3.97254 3.71868
# Velocity P-wave (km/s) = 4.64741 6.08175 5.41231
#
# Compressibility (1/GPa) = 0.08151039
#
# Stress axis : x y z
#
# Youngs Moduli (GPa) = 141.79273 20.11432 63.57112
#
# Poissons Ratio (x) = 0.05866 0.22231
# Poissons Ratio (y) = 0.41351 -0.69414
# Poissons Ratio (z) = 0.49586 -0.21963
#
# Static dielectric constant tensor:
#      x y z
#    x 1.800790 0.000000 0.000000 
#    y 0.000000 1.772070 0.000000 
#    z 0.000000 0.000000 1.747470 
# 
# From -- ./inp_files/19643.got.cif
#   From: 2010.05.17/outbox.cif.g08.bks.cpg/sg51_10_cif.got.tgz:19643.got - 2010.06.03 11:52:47.
