data_PCOD9404603
_publ_section_title
;
Structure prediction by ZEFSAII (Michael W. Deem and Ramdas Pophale) SiO2 
 PCOD9404603
Probable space group: P M M A
;
_chemical_formula_sum "Si O2"
_cell_formula_units_Z 48
_cell_length_a 29.057083
_cell_length_b 7.571237
_cell_length_c 10.355644
_cell_angle_alpha 90.000000
_cell_angle_beta 90.000000
_cell_angle_gamma 90.000000
_cell_volume 2278.221610
_symmetry_space_group_name_H-M "P M M A"
_symmetry_group_IT_number 51
_symmetry_cell_setting 'orthorhombic'
loop_
_space_group_symop_operation_xyz
x,y,z
1/2-x,-y,z
1/2+x,-y,-z
-x,y,-z
-x,-y,-z
1/2+x,y,-z
1/2-x,y,z
x,-y,z
loop_
_atom_site_type_symbol
_atom_site_label
_atom_site_fract_x
_atom_site_fract_y
_atom_site_fract_z
Si Si1 0.250000 0.703660 0.046004
Si Si2 0.347824 0.214407 0.459065
Si Si3 0.149713 0.294670 0.000704
Si Si4 0.389849 0.791931 0.727260
Si Si5 0.085241 0.705923 0.224359
Si Si6 0.250000 0.214144 0.345740
Si Si7 0.506521 0.286108 0.351721
O O1 0.250000 0.500000 0.999620
O O2 0.298807 0.783911 0.002383
O O3 0.250000 0.711537 0.201315
O O4 0.363195 0.275284 0.600450
O O5 0.383229 0.281770 0.351576
O O6 0.296412 0.266797 0.419255
O O7 0.350236 0.000000 0.456848
O O8 0.155910 0.500000 0.040514
O O9 0.114789 0.215510 0.106618
O O10 0.127522 0.288968 0.860237
O O11 0.443828 0.764409 0.701844
O O12 0.380811 0.000000 0.737498
O O13 0.077035 0.500000 0.192172
O O14 0.035575 0.780620 0.263573
O O15 0.250000 0.000000 0.335236
O O16 0.500000 0.225286 0.500000
O O17 0.504220 0.500000 0.354544
#
# Coordination Sequence:
#
# PCOD9404603 Si02
#       7
#     4   8   8   8   8   4   8
#     4  10  20  37  62  88 114 148 192 239 288 340
#     4  10  21  36  56  84 115 147 188 236 284 337
#     4  10  22  39  59  85 119 152 189 239 290 345
#     4  11  24  39  57  84 119 159 196 237 288 343
#     4  10  20  36  61  88 112 147 191 238 290 344
#     4  10  20  35  58  86 114 146 186 235 288 342
#     4  10  20  36  61  88 114 150 194 241 297 351
#
# _framework density 21.069064999999998
#
# number of rings (size 3 to 8) (size 9 to 14) (size 15 to 20)
#    0.000    1.833    3.333    0.500    0.000    4.333 
#    0.000    4.167    0.000    0.000    0.000    0.000 
#    0.000    0.000    0.000    0.000    0.000    0.000 
#
# Total GULP energy -268131.888444 kJ/mol
# GULP energy per Si atom -5586.081009 kJ/mol
# Density = 2.102111 g / cm^3
# Si number density = 21.069065 Si / 1000 Ang^3
#
#
#
# Elastic Constant Matrix: (Units=GPa)
#
#
# Indices 1 2 3 4 5 6 
#
# 1 157.6798 -7.2373 61.2351 0.0000 0.0000 0.0000
# 2 -7.2373 46.2925 -12.2476 0.0000 0.0000 0.0000
# 3 61.2351 -12.2476 128.5877 0.0000 0.0000 0.0000
# 4 0.0000 0.0000 0.0000 12.0598 0.0000 0.0000
# 5 0.0000 0.0000 0.0000 0.0000 33.3195 0.0000
# 6 0.0000 0.0000 0.0000 0.0000 0.0000 5.6543
#
#
#
# Elastic Compliance Matrix: (Units=1/GPa)
#
#
# Indices 1 2 3 4 5 6 
#
# 1 0.007784 0.000242 -0.003684 0.000000 0.000000 0.000000
# 2 0.000242 0.022168 0.001996 0.000000 0.000000 0.000000
# 3 -0.003684 0.001996 0.009721 0.000000 0.000000 0.000000
# 4 0.000000 0.000000 0.000000 0.082920 0.000000 0.000000
# 5 0.000000 0.000000 0.000000 0.000000 0.030012 0.000000
# 6 0.000000 0.000000 0.000000 0.000000 0.000000 0.176857
#
#
# Mechanical properties :
#
#
# Convention : Reuss Voigt Hill
#
# Bulk Modulus (GPa) = 27.18726 46.22894 36.70810
# Shear Modulus (GPa) = 14.50904 29.59404 22.05154
#
# Velocity S-wave (km/s) = 2.62705 3.75189 3.23868
# Velocity P-wave (km/s) = 4.70465 6.38421 5.60767
#
# Compressibility (1/GPa) = 0.03678193
#
# Stress axis : x y z
#
# Youngs Moduli (GPa) = 128.47511 45.11061 102.86931
#
# Poissons Ratio (x) = -0.01093 0.37893
# Poissons Ratio (y) = -0.03113 -0.20533
# Poissons Ratio (z) = 0.47325 -0.09004
#
# Static dielectric constant tensor:
#      x y z
#    x 1.755910 0.000000 0.000000 
#    y 0.000000 1.748240 0.000000 
#    z 0.000000 0.000000 1.704800 
# 
# From -- ./inp_files/12877.got.cif
#   From: 2010.05.17/outbox.cif.g08.bks.cpg/sg51_7_cif.got.tgz:12877.got - 2010.06.03 11:52:47.
