data_PCOD9404394
_publ_section_title
;
Structure prediction by ZEFSAII (Michael W. Deem and Ramdas Pophale) SiO2 
 PCOD9404394
Probable space group: P M M A
;
_chemical_formula_sum "Si O2"
_cell_formula_units_Z 64
_cell_length_a 8.788352
_cell_length_b 24.297021
_cell_length_c 15.442040
_cell_angle_alpha 90.000000
_cell_angle_beta 90.000000
_cell_angle_gamma 90.000000
_cell_volume 3297.350739
_symmetry_space_group_name_H-M "P M M A"
_symmetry_group_IT_number 51
_symmetry_cell_setting 'orthorhombic'
loop_
_space_group_symop_operation_xyz
x,y,z
1/2-x,-y,z
1/2+x,-y,-z
-x,y,-z
-x,-y,-z
1/2+x,y,-z
1/2-x,y,z
x,-y,z
loop_
_atom_site_type_symbol
_atom_site_label
_atom_site_fract_x
_atom_site_fract_y
_atom_site_fract_z
Si Si1 0.433192 0.765061 0.092884
Si Si2 0.932111 0.107115 0.907175
Si Si3 0.932316 0.721262 0.404697
Si Si4 0.066800 0.938234 0.734101
Si Si5 0.930647 0.438200 0.230172
Si Si6 0.932726 0.150982 0.405879
Si Si7 0.579884 0.565086 0.584582
Si Si8 0.567899 0.325545 0.768849
O O1 0.250000 0.763156 0.088499
O O2 0.477031 0.828706 0.108428
O O3 0.483418 0.724005 0.168498
O O4 0.500000 0.748627 0.000000
O O5 0.750000 0.103853 0.910405
O O6 0.995969 0.072511 0.827779
O O7 0.000000 0.090696 0.000000
O O8 0.750000 0.714506 0.406770
O O9 0.970043 0.785504 0.384680
O O10 0.000000 0.710772 0.500000
O O11 0.001714 0.685612 0.326959
O O12 0.250000 0.933986 0.741175
O O13 0.013649 0.891701 0.666768
O O14 0.029898 0.000000 0.703963
O O15 0.750000 0.434532 0.218956
O O16 0.980242 0.500000 0.201977
O O17 0.974484 0.433626 0.331512
O O18 0.011753 0.384114 0.193443
O O19 0.750000 0.147411 0.411139
O O20 0.000000 0.138238 0.500000
O O21 0.500000 0.589179 0.500000
O O22 0.750000 0.587665 0.600267
O O23 0.599378 0.500000 0.567630
O O24 0.750000 0.325423 0.764626
#
# Coordination Sequence:
#
# PCOD9404394 Si02
#       8
#     8   8   8   8   8   8   8   8
#     4   9  20  37  59  87 114 139 171 218 272 326
#     4  10  20  36  58  83 111 143 179 219 269 327
#     4  10  20  35  55  80 110 144 183 226 274 326
#     4  10  21  36  53  77 111 149 189 231 273 320
#     4  10  21  36  52  72 100 136 177 215 255 310
#     4   9  19  35  55  78 106 143 185 231 280 325
#     4   9  16  27  44  65  90 123 164 209 253 296
#     4  11  22  36  56  83 112 140 174 219 270 321
#
# _framework density 19.409521999999999
#
# number of rings (size 3 to 8) (size 9 to 14) (size 15 to 20)
#    0.000    2.250    0.000    2.625    0.000    6.000 
#    0.000    2.500    0.000    0.375    0.000    0.000 
#    0.000    0.000    0.000    0.000    0.000    0.000 
#
# Total GULP energy -357254.829292 kJ/mol
# GULP energy per Si atom -5582.106708 kJ/mol
# Density = 1.936534 g / cm^3
# Si number density = 19.409522 Si / 1000 Ang^3
#
#
#
# Elastic Constant Matrix: (Units=GPa)
#
#
# Indices 1 2 3 4 5 6 
#
# 1 34.4790 31.6916 14.0776 0.0000 0.0000 0.0000
# 2 31.6916 105.6099 40.9298 0.0000 0.0000 0.0000
# 3 14.0776 40.9298 53.9948 0.0000 0.0000 0.0000
# 4 0.0000 0.0000 0.0000 -1.0449 0.0000 0.0000
# 5 0.0000 0.0000 0.0000 0.0000 28.7557 0.0000
# 6 0.0000 0.0000 0.0000 0.0000 0.0000 21.4113
#
#
#
# Elastic Compliance Matrix: (Units=1/GPa)
#
#
# Indices 1 2 3 4 5 6 
#
# 1 0.040186 -0.011326 -0.001892 0.000000 0.000000 0.000000
# 2 -0.011326 0.016600 -0.009630 0.000000 0.000000 0.000000
# 3 -0.001892 -0.009630 0.026314 0.000000 0.000000 0.000000
# 4 0.000000 0.000000 0.000000 -0.956991 0.000000 0.000000
# 5 0.000000 0.000000 0.000000 0.000000 0.034776 0.000000
# 6 0.000000 0.000000 0.000000 0.000000 0.000000 0.046704
#
#
# Mechanical properties :
#
#
# Convention : Reuss Voigt Hill
#
# Bulk Modulus (GPa) = 26.73575 40.83131 33.78353
# Shear Modulus (GPa) = -6.80969 16.98339 5.08685
#
# Velocity S-wave (km/s) = -1.87511 2.96125 1.62065
# Velocity P-wave (km/s) = 3.01934 5.72490 4.57662
#
# Compressibility (1/GPa) = 0.03740311
#
# Stress axis : x y z
#
# Youngs Moduli (GPa) = 24.88443 60.24192 38.00314
#
# Poissons Ratio (x) = 0.68229 0.07190
# Poissons Ratio (y) = 0.28184 0.36598
# Poissons Ratio (z) = 0.04708 0.58015
#
# Static dielectric constant tensor:
#      x y z
#    x 1.663900 0.000000 0.000000 
#    y 0.000000 1.737670 0.000000 
#    z 0.000000 0.000000 1.643510 
# 
# From -- ./inp_files/22288.got.cif
#   From: 2010.05.17/outbox.cif.g08.bks.cpg/sg51_12_cif.got.tgz:22288.got - 2010.06.03 11:52:47.
