data_PCOD9404579
_publ_section_title
;
Structure prediction by ZEFSAII (Michael W. Deem and Ramdas Pophale) SiO2 
 PCOD9404579
Probable space group: P M M A
;
_chemical_formula_sum "Si O2"
_cell_formula_units_Z 40
_cell_length_a 8.690379
_cell_length_b 14.852036
_cell_length_c 15.943514
_cell_angle_alpha 90.000000
_cell_angle_beta 90.000000
_cell_angle_gamma 90.000000
_cell_volume 2057.826510
_symmetry_space_group_name_H-M "P M M A"
_symmetry_group_IT_number 51
_symmetry_cell_setting 'orthorhombic'
loop_
_space_group_symop_operation_xyz
x,y,z
1/2-x,-y,z
1/2+x,-y,-z
-x,y,-z
-x,-y,-z
1/2+x,y,-z
1/2-x,y,z
x,-y,z
loop_
_atom_site_type_symbol
_atom_site_label
_atom_site_fract_x
_atom_site_fract_y
_atom_site_fract_z
Si Si1 0.932050 0.714482 0.411891
Si Si2 0.064171 0.604486 0.255516
Si Si3 0.565218 0.898615 0.648329
Si Si4 0.564097 0.289546 0.911865
Si Si5 0.063651 0.901364 0.152645
O O1 0.750000 0.708090 0.413717
O O2 0.000000 0.681798 0.500000
O O3 0.997399 0.658456 0.333886
O O4 0.982551 0.818061 0.398505
O O5 0.250000 0.609932 0.259965
O O6 0.019306 0.500000 0.257411
O O7 0.017338 0.651252 0.168210
O O8 0.750000 0.888750 0.639282
O O9 0.530742 0.891332 0.748062
O O10 0.522906 0.000000 0.621487
O O11 0.750000 0.289224 0.914748
O O12 0.508647 0.186854 0.895517
O O13 0.500000 0.322829 0.000000
O O14 0.250000 0.902457 0.146206
O O15 0.006623 0.000000 0.124771
#
# Coordination Sequence:
#
# PCOD9404579 Si02
#       5
#     8   8   8   8   8
#     4  12  25  40  62  90 123 157 195 243 296 357
#     4  10  22  43  67  87 113 152 198 250 306 360
#     4   9  17  34  61  88 118 159 203 244 289 344
#     4  10  20  35  57  86 120 155 196 239 291 353
#     4   8  14  28  53  81 112 153 195 235 283 341
#
# _framework density 19.437985000000001
#
# number of rings (size 3 to 8) (size 9 to 14) (size 15 to 20)
#    0.000    2.200    2.000    3.000    0.000    3.200 
#    0.000    0.000    0.000    0.000    0.000    0.000 
#    0.000    0.000    0.000    0.000    0.000    0.000 
#
# Total GULP energy -223357.926919 kJ/mol
# GULP energy per Si atom -5583.948173 kJ/mol
# Density = 1.939374 g / cm^3
# Si number density = 19.437985 Si / 1000 Ang^3
#
#
#
# Elastic Constant Matrix: (Units=GPa)
#
#
# Indices 1 2 3 4 5 6 
#
# 1 21.8960 39.7527 36.8086 0.0000 0.0000 0.0000
# 2 39.7527 130.5320 82.5619 0.0000 0.0000 0.0000
# 3 36.8086 82.5619 154.4111 0.0000 0.0000 0.0000
# 4 0.0000 0.0000 0.0000 -3.9965 0.0000 0.0000
# 5 0.0000 0.0000 0.0000 0.0000 27.2078 0.0000
# 6 0.0000 0.0000 0.0000 0.0000 0.0000 15.7299
#
#
#
# Elastic Compliance Matrix: (Units=1/GPa)
#
#
# Indices 1 2 3 4 5 6 
#
# 1 0.118230 -0.027470 -0.013496 0.000000 0.000000 0.000000
# 2 -0.027470 0.017958 -0.003054 0.000000 0.000000 0.000000
# 3 -0.013496 -0.003054 0.011326 0.000000 0.000000 0.000000
# 4 0.000000 0.000000 0.000000 -0.250219 0.000000 0.000000
# 5 0.000000 0.000000 0.000000 0.000000 0.036754 0.000000
# 6 0.000000 0.000000 0.000000 0.000000 0.000000 0.063573
#
#
# Mechanical properties :
#
#
# Convention : Reuss Voigt Hill
#
# Bulk Modulus (GPa) = 16.81370 69.45396 43.13383
# Shear Modulus (GPa) = 47.39908 17.63597 32.51752
#
# Velocity S-wave (km/s) = 4.94345 3.01540 4.09453
# Velocity P-wave (km/s) = 6.42280 6.92330 6.67774
#
# Compressibility (1/GPa) = 0.05947531
#
# Stress axis : x y z
#
# Youngs Moduli (GPa) = 8.45808 55.68445 88.29106
#
# Poissons Ratio (x) = 1.52966 1.19156
# Poissons Ratio (y) = 0.23234 0.26962
# Poissons Ratio (z) = 0.11415 0.17005
#
# Static dielectric constant tensor:
#      x y z
#    x 1.649580 0.000000 0.000000 
#    y 0.000000 1.687850 0.000000 
#    z 0.000000 0.000000 1.668300 
# 
# From -- ./inp_files/20471.got.cif
#   From: 2010.05.17/outbox.cif.g08.bks.cpg/sg51_11_cif.got.tgz:20471.got - 2010.06.03 11:52:47.
