data_PCOD9404534
_publ_section_title
;
Structure prediction by ZEFSAII (Michael W. Deem and Ramdas Pophale) SiO2 
 PCOD9404534
Probable space group: P M M A
;
_chemical_formula_sum "Si O2"
_cell_formula_units_Z 64
_cell_length_a 14.938203
_cell_length_b 7.601458
_cell_length_c 25.003145
_cell_angle_alpha 90.000000
_cell_angle_beta 90.000000
_cell_angle_gamma 90.000000
_cell_volume 2839.160189
_symmetry_space_group_name_H-M "P M M A"
_symmetry_group_IT_number 51
_symmetry_cell_setting 'orthorhombic'
loop_
_space_group_symop_operation_xyz
x,y,z
1/2-x,-y,z
1/2+x,-y,-z
-x,y,-z
-x,-y,-z
1/2+x,y,-z
1/2-x,y,z
x,-y,z
loop_
_atom_site_type_symbol
_atom_site_label
_atom_site_fract_x
_atom_site_fract_y
_atom_site_fract_z
Si Si1 0.542667 0.787112 0.261151
Si Si2 0.024780 0.299942 0.943067
Si Si3 0.853785 0.207939 0.477340
Si Si4 0.650061 0.297632 0.599864
Si Si5 0.148004 0.711463 0.848225
Si Si6 0.045800 0.203270 0.624773
Si Si7 0.153034 0.790126 0.112657
Si Si8 0.845640 0.788946 0.759755
O O1 0.596186 0.747051 0.207194
O O2 0.579518 0.723818 0.318452
O O3 0.440826 0.718115 0.258358
O O4 0.538477 0.000000 0.263758
O O5 0.055951 0.500000 0.954785
O O6 0.931143 0.303436 0.912075
O O7 0.094786 0.220326 0.900565
O O8 0.000000 0.214710 0.000000
O O9 0.750000 0.223693 0.460719
O O10 0.862246 0.291660 0.535607
O O11 0.915760 0.281114 0.430117
O O12 0.873903 0.000000 0.485947
O O13 0.750000 0.222765 0.610582
O O14 0.649336 0.500000 0.617217
O O15 0.562265 0.208204 0.623859
O O16 0.250000 0.776022 0.845882
O O17 0.149808 0.500000 0.853339
O O18 0.075008 0.000000 0.622890
O O19 0.250000 0.733805 0.091267
O O20 0.153898 0.764753 0.176288
O O21 0.143830 0.000000 0.103581
O O22 0.750000 0.719544 0.739000
O O23 0.845482 0.000000 0.750052
#
# Coordination Sequence:
#
# PCOD9404534 Si02
#       8
#     8   8   8   8   8   8   8   8
#     4  10  20  35  57  83 109 141 183 227 268 319
#     4  10  21  36  56  82 110 142 181 226 272 320
#     4   9  18  34  54  75 105 143 181 226 279 330
#     4  10  21  36  54  78 109 145 184 226 272 324
#     4  10  22  40  58  77 108 149 187 224 271 324
#     4  10  21  34  53  83 112 140 179 226 275 326
#     4   9  17  31  53  79 107 137 169 211 264 319
#     4   8  14  27  49  75 102 132 165 206 260 316
#
# _framework density 22.541879000000002
#
# number of rings (size 3 to 8) (size 9 to 14) (size 15 to 20)
#    0.000    2.500    1.250    1.500    0.000    5.500 
#    0.000    3.750    0.000    1.875    0.000    0.000 
#    0.000    0.000    0.000    0.000    0.000    0.000 
#
# Total GULP energy -357097.027592 kJ/mol
# GULP energy per Si atom -5579.641056 kJ/mol
# Density = 2.249057 g / cm^3
# Si number density = 22.541879 Si / 1000 Ang^3
#
#
#
# Elastic Constant Matrix: (Units=GPa)
#
#
# Indices 1 2 3 4 5 6 
#
# 1 107.0764 -2.6634 56.6264 0.0000 0.0000 0.0000
# 2 -2.6634 47.8744 4.2216 0.0000 0.0000 0.0000
# 3 56.6264 4.2216 132.2605 0.0000 0.0000 0.0000
# 4 0.0000 0.0000 0.0000-1125.3371 0.0000 0.0000
# 5 0.0000 0.0000 0.0000 0.0000 9.8048 0.0000
# 6 0.0000 0.0000 0.0000 0.0000 0.0000 14.8457
#
#
#
# Elastic Compliance Matrix: (Units=1/GPa)
#
#
# Indices 1 2 3 4 5 6 
#
# 1 0.012134 0.001136 -0.005231 0.000000 0.000000 0.000000
# 2 0.001136 0.021053 -0.001159 0.000000 0.000000 0.000000
# 3 -0.005231 -0.001159 0.009838 0.000000 0.000000 0.000000
# 4 0.000000 0.000000 0.000000 -0.000889 0.000000 0.000000
# 5 0.000000 0.000000 0.000000 0.000000 0.101990 0.000000
# 6 0.000000 0.000000 0.000000 0.000000 0.000000 0.067360
#
#
# Mechanical properties :
#
#
# Convention : Reuss Voigt Hill
#
# Bulk Modulus (GPa) = 30.75230 44.84226 37.79728
# Shear Modulus (GPa) = 21.47465 -204.86887 -91.69711
#
# Velocity S-wave (km/s) = 3.08986 -9.54364 -6.38489
# Velocity P-wave (km/s) = 5.13825 10.07498 6.12796
#
# Compressibility (1/GPa) = 0.03251790
#
# Stress axis : x y z
#
# Youngs Moduli (GPa) = 82.41352 47.49831 101.65113
#
# Poissons Ratio (x) = -0.05397 0.53177
# Poissons Ratio (y) = -0.09365 0.11776
# Poissons Ratio (z) = 0.43113 0.05503
#
# Static dielectric constant tensor:
#      x y z
#    x 1.833540 0.000000 0.000000 
#    y 0.000000 1.863730 0.000000 
#    z 0.000000 0.000000 1.851670 
# 
# From -- ./inp_files/35655.got.cif
#   From: 2010.05.17/outbox.cif.g08.bks.cpg/sg51_18_cif.got.tgz:35655.got - 2010.06.03 11:52:47.
