data_PCOD9404970
_publ_section_title
;
Structure prediction by ZEFSAII (Michael W. Deem and Ramdas Pophale) SiO2 
 PCOD9404970
Probable space group: P M M A
;
_chemical_formula_sum "Si O2"
_cell_formula_units_Z 48
_cell_length_a 16.855699
_cell_length_b 14.416002
_cell_length_c 10.429536
_cell_angle_alpha 90.000000
_cell_angle_beta 90.000000
_cell_angle_gamma 90.000000
_cell_volume 2534.291627
_symmetry_space_group_name_H-M "P M M A"
_symmetry_group_IT_number 51
_symmetry_cell_setting 'orthorhombic'
loop_
_space_group_symop_operation_xyz
x,y,z
1/2-x,-y,z
1/2+x,-y,-z
-x,y,-z
-x,-y,-z
1/2+x,y,-z
1/2-x,y,z
x,-y,z
loop_
_atom_site_type_symbol
_atom_site_label
_atom_site_fract_x
_atom_site_fract_y
_atom_site_fract_z
Si Si1 0.593340 0.604158 0.971103
Si Si2 0.656182 0.607012 0.684207
Si Si3 0.655111 0.889429 0.780186
Si Si4 0.909069 0.779925 0.540744
Si Si5 0.345329 0.894923 0.695033
Si Si6 0.345151 0.203245 0.951760
O O1 0.623364 0.500000 0.002117
O O2 0.631422 0.689225 0.046833
O O3 0.500000 0.605624 0.000000
O O4 0.612341 0.619869 0.820647
O O5 0.750000 0.622309 0.706608
O O6 0.644925 0.500000 0.644675
O O7 0.625089 0.680162 0.581425
O O8 0.750000 0.869983 0.760993
O O9 0.606653 0.844255 0.664635
O O10 0.645988 0.000000 0.783949
O O11 0.629771 0.844436 0.915057
O O12 0.865554 0.828672 0.422436
O O13 0.000000 0.772465 0.500000
O O14 0.250000 0.900159 0.704273
O O15 0.376055 0.851322 0.827869
O O16 0.375271 0.000000 0.675250
O O17 0.250000 0.197085 0.949840
#
# Coordination Sequence:
#
# PCOD9404970 Si02
#       6
#     8   8   8   8   8   8
#     4  10  21  36  60  92 125 156 191 244 308 363
#     4  10  21  41  68  92 117 159 213 257 299 364
#     4  10  20  37  62  88 115 155 212 263 300 359
#     4  12  25  38  58  88 123 162 200 254 308 364
#     4  10  22  40  60  85 122 163 200 247 308 365
#     4  10  20  36  62  91 118 154 203 253 303 362
#
# _framework density 18.940204000000001
#
# number of rings (size 3 to 8) (size 9 to 14) (size 15 to 20)
#    0.000    1.667    1.667    3.000    2.333    6.000 
#    0.000    0.833    0.000    4.000    0.000    0.000 
#    0.000    0.000    0.000    0.000    0.000    0.000 
#
# Total GULP energy -268088.531925 kJ/mol
# GULP energy per Si atom -5585.177748 kJ/mol
# Density = 1.889709 g / cm^3
# Si number density = 18.940204 Si / 1000 Ang^3
#
#
#
# Elastic Constant Matrix: (Units=GPa)
#
#
# Indices 1 2 3 4 5 6 
#
# 1 49.1185 44.6595 49.9270 0.0000 0.0000 0.0000
# 2 44.6595 151.5324 79.9032 0.0000 0.0000 0.0000
# 3 49.9270 79.9032 135.1863 0.0000 0.0000 0.0000
# 4 0.0000 0.0000 0.0000 27.1267 0.0000 0.0000
# 5 0.0000 0.0000 0.0000 0.0000 3021.9219 0.0000
# 6 0.0000 0.0000 0.0000 0.0000 0.0000 67.2706
#
#
#
# Elastic Compliance Matrix: (Units=1/GPa)
#
#
# Indices 1 2 3 4 5 6 
#
# 1 0.035114 -0.005100 -0.009954 0.000000 0.000000 0.000000
# 2 -0.005100 0.010328 -0.004221 0.000000 0.000000 0.000000
# 3 -0.009954 -0.004221 0.013568 0.000000 0.000000 0.000000
# 4 0.000000 0.000000 0.000000 0.036864 0.000000 0.000000
# 5 0.000000 0.000000 0.000000 0.000000 0.000331 0.000000
# 6 0.000000 0.000000 0.000000 0.000000 0.000000 0.014865
#
#
# Mechanical properties :
#
#
# Convention : Reuss Voigt Hill
#
# Bulk Modulus (GPa) = 48.87507 76.09073 62.48290
# Shear Modulus (GPa) = 31.96126 634.02033 332.99080
#
# Velocity S-wave (km/s) = 4.11235 18.31598 13.27378
# Velocity P-wave (km/s) = 6.95770 22.08080 16.37026
#
# Compressibility (1/GPa) = 0.02046033
#
# Stress axis : x y z
#
# Youngs Moduli (GPa) = 28.47907 96.82383 73.70218
#
# Poissons Ratio (x) = 0.49381 0.73361
# Poissons Ratio (y) = 0.14524 0.31109
# Poissons Ratio (z) = 0.28347 0.40869
#
# Static dielectric constant tensor:
#      x y z
#    x 1.649630 0.000000 0.000000 
#    y 0.000000 1.663210 0.000000 
#    z 0.000000 0.000000 1.634230 
# 
# From -- ./inp_files/9583.got.cif
#   From: 2010.05.17/outbox.cif.g08.bks.cpg/sg51_5_cif.got.tgz:9583.got - 2010.06.03 11:52:47.
