data_PCOD9404946
_publ_section_title
;
Structure prediction by ZEFSAII (Michael W. Deem and Ramdas Pophale) SiO2 
 PCOD9404946
Probable space group: P M M A
;
_chemical_formula_sum "Si O2"
_cell_formula_units_Z 40
_cell_length_a 20.809322
_cell_length_b 7.740598
_cell_length_c 11.921861
_cell_angle_alpha 90.000000
_cell_angle_beta 90.000000
_cell_angle_gamma 90.000000
_cell_volume 1920.332791
_symmetry_space_group_name_H-M "P M M A"
_symmetry_group_IT_number 51
_symmetry_cell_setting 'orthorhombic'
loop_
_space_group_symop_operation_xyz
x,y,z
1/2-x,-y,z
1/2+x,-y,-z
-x,y,-z
-x,-y,-z
1/2+x,y,-z
1/2-x,y,z
x,-y,z
loop_
_atom_site_type_symbol
_atom_site_label
_atom_site_fract_x
_atom_site_fract_y
_atom_site_fract_z
Si Si1 0.504600 0.297722 0.373767
Si Si2 0.624604 0.708964 0.230923
Si Si3 0.750000 0.291360 0.623857
Si Si4 0.621888 0.202528 0.756314
Si Si5 0.750000 0.710609 0.366133
Si Si6 0.824030 0.206539 0.989702
O O1 0.500000 0.222779 0.500000
O O2 0.521031 0.500000 0.389082
O O3 0.560797 0.226028 0.293711
O O4 0.437242 0.285363 0.309460
O O5 0.623562 0.500000 0.231538
O O6 0.686539 0.767899 0.301370
O O7 0.636820 0.760410 0.102873
O O8 0.750000 0.500000 0.628066
O O9 0.686719 0.225066 0.685393
O O10 0.750000 0.235570 0.494790
O O11 0.606326 0.000000 0.766412
O O12 0.639030 0.273816 0.879782
O O13 0.750000 0.500000 0.365154
O O14 0.750000 0.272763 0.997740
O O15 0.819003 0.000000 0.975035
#
# Coordination Sequence:
#
# PCOD9404946 Si02
#       6
#     8   8   4   8   4   8
#     4  10  22  41  62  87 122 159 196 244 300 355
#     4  10  20  36  61  88 115 149 197 247 288 347
#     4  11  21  36  61  88 116 153 198 247 302 353
#     4  11  23  40  60  85 120 158 200 245 292 353
#     4   9  18  34  57  86 114 147 190 241 298 347
#     4  10  21  39  59  82 119 158 193 241 299 352
#
# _framework density 20.829723000000001
#
# number of rings (size 3 to 8) (size 9 to 14) (size 15 to 20)
#    0.000    1.800    2.000    2.100    0.000    6.800 
#    0.000    8.000    0.000    0.000    0.000    0.000 
#    0.000    0.000    0.000    0.000    0.000    0.000 
#
# Total GULP energy -223459.360605 kJ/mol
# GULP energy per Si atom -5586.484015 kJ/mol
# Density = 2.078231 g / cm^3
# Si number density = 20.829723 Si / 1000 Ang^3
#
#
#
# Elastic Constant Matrix: (Units=GPa)
#
#
# Indices 1 2 3 4 5 6 
#
# 1 146.8186 -17.7660 89.7854 0.0000 0.0000 0.0000
# 2 -17.7660 31.2742 -8.3871 0.0000 0.0000 0.0000
# 3 89.7854 -8.3871 222.5166 0.0000 0.0000 0.0000
# 4 0.0000 0.0000 0.0000 23.6646 0.0000 0.0000
# 5 0.0000 0.0000 0.0000 0.0000 40.3984 0.0000
# 6 0.0000 0.0000 0.0000 0.0000 0.0000 6.5706
#
#
#
# Elastic Compliance Matrix: (Units=1/GPa)
#
#
# Indices 1 2 3 4 5 6 
#
# 1 0.009624 0.004471 -0.003715 0.000000 0.000000 0.000000
# 2 0.004471 0.034379 -0.000508 0.000000 0.000000 0.000000
# 3 -0.003715 -0.000508 0.005974 0.000000 0.000000 0.000000
# 4 0.000000 0.000000 0.000000 0.042257 0.000000 0.000000
# 5 0.000000 0.000000 0.000000 0.000000 0.024753 0.000000
# 6 0.000000 0.000000 0.000000 0.000000 0.000000 0.152193
#
#
# Mechanical properties :
#
#
# Convention : Reuss Voigt Hill
#
# Bulk Modulus (GPa) = 19.81287 58.65267 39.23277
# Shear Modulus (GPa) = 17.51265 36.59184 27.05225
#
# Velocity S-wave (km/s) = 2.90272 4.19586 3.60770
# Velocity P-wave (km/s) = 4.55707 7.18978 6.01913
#
# Compressibility (1/GPa) = 0.05047223
#
# Stress axis : x y z
#
# Youngs Moduli (GPa) = 103.90894 29.08774 167.39848
#
# Poissons Ratio (x) = -0.13005 0.62183
# Poissons Ratio (y) = -0.46456 0.08507
# Poissons Ratio (z) = 0.38599 0.01478
#
# Static dielectric constant tensor:
#      x y z
#    x 1.704730 0.000000 0.000000 
#    y 0.000000 1.777520 0.000000 
#    z 0.000000 0.000000 1.734400 
# 
# From -- ./inp_files/17939.got.cif
#   From: 2010.05.17/outbox.cif.g08.bks.cpg/sg51_9_cif.got.tgz:17939.got - 2010.06.03 11:52:47.
