data_PCOD9404144
_publ_section_title
;
Structure prediction by ZEFSAII (Michael W. Deem and Ramdas Pophale) SiO2 
 PCOD9404144
Probable space group: P M M A
;
_chemical_formula_sum "Si O2"
_cell_formula_units_Z 40
_cell_length_a 15.214643
_cell_length_b 15.183540
_cell_length_c 8.726743
_cell_angle_alpha 90.000000
_cell_angle_beta 90.000000
_cell_angle_gamma 90.000000
_cell_volume 2015.983581
_symmetry_space_group_name_H-M "P M M A"
_symmetry_group_IT_number 51
_symmetry_cell_setting 'orthorhombic'
loop_
_space_group_symop_operation_xyz
x,y,z
1/2-x,-y,z
1/2+x,-y,-z
-x,y,-z
-x,-y,-z
1/2+x,y,-z
1/2-x,y,z
x,-y,z
loop_
_atom_site_type_symbol
_atom_site_label
_atom_site_fract_x
_atom_site_fract_y
_atom_site_fract_z
Si Si1 0.651511 0.095378 0.219505
Si Si2 0.501912 0.602378 0.816099
Si Si3 0.852892 0.265087 0.703137
Si Si4 0.645930 0.720621 0.336756
Si Si5 0.412048 0.099922 0.103075
O O1 0.750000 0.094476 0.284904
O O2 0.610354 0.184788 0.278814
O O3 0.610345 0.000000 0.255662
O O4 0.656739 0.102059 0.036348
O O5 0.506513 0.500000 0.771717
O O6 0.587601 0.656436 0.766632
O O7 0.416600 0.647581 0.738353
O O8 0.500000 0.608230 0.000000
O O9 0.750000 0.271392 0.745848
O O10 0.858993 0.273363 0.519785
O O11 0.890831 0.174044 0.773411
O O12 0.750000 0.709828 0.294158
O O13 0.413774 0.000000 0.165158
O O14 0.500000 0.114790 0.000000
#
# Coordination Sequence:
#
# PCOD9404144 Si02
#       5
#     8   8   8   8   8
#     4   9  17  31  52  78 112 154 194 232 277 333
#     4  11  25  44  65  87 113 150 198 253 309 365
#     4  11  23  38  60  90 123 160 200 246 303 365
#     4  10  22  39  61  91 124 158 197 245 305 369
#     4  10  20  34  55  85 121 162 206 247 289 342
#
# _framework density 19.841431
#
# number of rings (size 3 to 8) (size 9 to 14) (size 15 to 20)
#    0.000    1.800    0.000    4.200    0.000    6.800 
#    0.000    6.000    0.000    6.000    0.000    0.000 
#    0.000    0.000    0.000    0.000    0.000    0.000 
#
# Total GULP energy -223088.755202 kJ/mol
# GULP energy per Si atom -5577.218880 kJ/mol
# Density = 1.979627 g / cm^3
# Si number density = 19.841431 Si / 1000 Ang^3
#
#
#
# Elastic Constant Matrix: (Units=GPa)
#
#
# Indices 1 2 3 4 5 6 
#
# 1 140.3283 88.3004 44.5865 0.0000 0.0000 0.0000
# 2 88.3004 209.6321 71.4801 0.0000 0.0000 0.0000
# 3 44.5865 71.4801 62.2503 0.0000 0.0000 0.0000
# 4 0.0000 0.0000 0.0000 -46.1639 0.0000 0.0000
# 5 0.0000 0.0000 0.0000 0.0000 30.8629 0.0000
# 6 0.0000 0.0000 0.0000 0.0000 0.0000 2.6997
#
#
#
# Elastic Compliance Matrix: (Units=1/GPa)
#
#
# Indices 1 2 3 4 5 6 
#
# 1 0.010246 -0.002980 -0.003916 0.000000 0.000000 0.000000
# 2 -0.002980 0.008707 -0.007863 0.000000 0.000000 0.000000
# 3 -0.003916 -0.007863 0.027898 0.000000 0.000000 0.000000
# 4 0.000000 0.000000 0.000000 -0.021662 0.000000 0.000000
# 5 0.000000 0.000000 0.000000 0.000000 0.032401 0.000000
# 6 0.000000 0.000000 0.000000 0.000000 0.000000 0.370408
#
#
# Mechanical properties :
#
#
# Convention : Reuss Voigt Hill
#
# Bulk Modulus (GPa) = 57.69903 91.21607 74.45755
# Shear Modulus (GPa) = 10.79226 11.33598 11.06412
#
# Velocity S-wave (km/s) = 2.33475 2.39284 2.36398
# Velocity P-wave (km/s) = 6.03418 7.32848 6.71260
#
# Compressibility (1/GPa) = 0.01733131
#
# Stress axis : x y z
#
# Youngs Moduli (GPa) = 97.60081 114.85338 35.84476
#
# Poissons Ratio (x) = 0.34230 0.14038
# Poissons Ratio (y) = 0.29088 0.28185
# Poissons Ratio (z) = 0.38223 0.90310
#
# Static dielectric constant tensor:
#      x y z
#    x 1.792660 0.000000 0.000000 
#    y 0.000000 1.703160 0.000000 
#    z 0.000000 0.000000 1.683750 
# 
# From -- ./inp_files/7903.got.cif
#   From: 2010.05.17/outbox.cif.g08.bks.cpg/sg51_4_cif.got.tgz:7903.got - 2010.06.03 11:52:47.
