data_PCOD9404234
_publ_section_title
;
Structure prediction by ZEFSAII (Michael W. Deem and Ramdas Pophale) SiO2 
 PCOD9404234
Probable space group: P M M A
;
_chemical_formula_sum "Si O2"
_cell_formula_units_Z 48
_cell_length_a 17.160654
_cell_length_b 7.942067
_cell_length_c 16.841168
_cell_angle_alpha 90.000000
_cell_angle_beta 90.000000
_cell_angle_gamma 90.000000
_cell_volume 2295.300703
_symmetry_space_group_name_H-M "P M M A"
_symmetry_group_IT_number 51
_symmetry_cell_setting 'orthorhombic'
loop_
_space_group_symop_operation_xyz
x,y,z
1/2-x,-y,z
1/2+x,-y,-z
-x,y,-z
-x,-y,-z
1/2+x,y,-z
1/2-x,y,z
x,-y,z
loop_
_atom_site_type_symbol
_atom_site_label
_atom_site_fract_x
_atom_site_fract_y
_atom_site_fract_z
Si Si1 0.581678 0.293852 0.958023
Si Si2 0.250000 0.308023 0.979307
Si Si3 0.839144 0.703412 0.627789
Si Si4 0.105877 0.697675 0.711826
Si Si5 0.840703 0.200147 0.454767
Si Si6 0.939555 0.294507 0.776306
Si Si7 0.750000 0.184899 0.190114
O O1 0.581088 0.500000 0.962963
O O2 0.579314 0.242751 0.865648
O O3 0.500000 0.239840 0.000000
O O4 0.665275 0.236528 0.994050
O O5 0.250000 0.500000 0.010626
O O6 0.250000 0.308318 0.884104
O O7 0.750000 0.762570 0.629971
O O8 0.839713 0.500000 0.628663
O O9 0.871752 0.758242 0.542439
O O10 0.882661 0.763379 0.706316
O O11 0.114730 0.500000 0.728976
O O12 0.111342 0.722856 0.617548
O O13 0.176283 0.791155 0.753865
O O14 0.025534 0.756653 0.749628
O O15 0.750000 0.261211 0.449975
O O16 0.839708 0.000000 0.444684
O O17 0.937408 0.500000 0.776358
O O18 0.750000 0.000000 0.153805
#
# Coordination Sequence:
#
# PCOD9404234 Si02
#       7
#     8   4   8   8   8   8   4
#     4   9  17  31  53  84 118 143 180 237 288 334
#     4  10  20  34  60  87 108 149 190 225 282 345
#     4   9  18  33  55  80 111 150 191 231 276 331
#     4  11  21  35  58  83 111 146 187 230 280 336
#     4  10  20  35  54  78 112 149 188 234 281 327
#     4   9  19  33  53  85 117 144 182 239 286 326
#     4  12  24  38  56  81 114 145 182 233 284 337
#
# _framework density 20.912291
#
# number of rings (size 3 to 8) (size 9 to 14) (size 15 to 20)
#    0.000    2.167    0.833    2.750    1.167    4.000 
#    0.000    5.000    0.000    6.500    0.000    0.000 
#    0.000    0.000    0.000    0.000    0.000    0.000 
#
# Total GULP energy -267928.500184 kJ/mol
# GULP energy per Si atom -5581.843754 kJ/mol
# Density = 2.086469 g / cm^3
# Si number density = 20.912291 Si / 1000 Ang^3
#
#
#
# Elastic Constant Matrix: (Units=GPa)
#
#
# Indices 1 2 3 4 5 6 
#
# 1 122.9114 7.5582 74.9064 0.0000 0.0000 0.0000
# 2 7.5582 25.7835 -4.1777 0.0000 0.0000 0.0000
# 3 74.9064 -4.1777 155.3336 0.0000 0.0000 0.0000
# 4 0.0000 0.0000 0.0000 -12.2410 0.0000 0.0000
# 5 0.0000 0.0000 0.0000 0.0000 37.1505 0.0000
# 6 0.0000 0.0000 0.0000 0.0000 0.0000 -15.3595
#
#
#
# Elastic Compliance Matrix: (Units=1/GPa)
#
#
# Indices 1 2 3 4 5 6 
#
# 1 0.012016 -0.004481 -0.005915 0.000000 0.000000 0.000000
# 2 -0.004481 0.040625 0.003253 0.000000 0.000000 0.000000
# 3 -0.005915 0.003253 0.009378 0.000000 0.000000 0.000000
# 4 0.000000 0.000000 0.000000 -0.081693 0.000000 0.000000
# 5 0.000000 0.000000 0.000000 0.000000 0.026918 0.000000
# 6 0.000000 0.000000 0.000000 0.000000 0.000000 -0.065106
#
#
# Mechanical properties :
#
#
# Convention : Reuss Voigt Hill
#
# Bulk Modulus (GPa) = 20.94944 51.17804 36.06374
# Shear Modulus (GPa) = -180.73214 16.95943 -81.88635
#
# Velocity S-wave (km/s) = -9.30653 2.85086 -6.26435
# Velocity P-wave (km/s) = 10.26852 5.94663 5.91946
#
# Compressibility (1/GPa) = 0.04773397
#
# Stress axis : x y z
#
# Youngs Moduli (GPa) = 83.21963 24.61530 106.63557
#
# Poissons Ratio (x) = 0.11030 0.63077
# Poissons Ratio (y) = 0.37290 -0.34693
# Poissons Ratio (z) = 0.49226 -0.08008
#
# Static dielectric constant tensor:
#      x y z
#    x 2.117960 0.000000 0.000000 
#    y 0.000000 1.748080 0.000000 
#    z 0.000000 0.000000 1.708130 
# 
# From -- ./inp_files/24873.got.cif
#   From: 2010.05.17/outbox.cif.g08.bks.cpg/sg51_13_cif.got.tgz:24873.got - 2010.06.03 11:52:47.
