data_PCOD9404837
_publ_section_title
;
Structure prediction by ZEFSAII (Michael W. Deem and Ramdas Pophale) SiO2 
 PCOD9404837
Probable space group: P M M A
;
_chemical_formula_sum "Si O2"
_cell_formula_units_Z 40
_cell_length_a 20.625275
_cell_length_b 7.783253
_cell_length_c 13.769360
_cell_angle_alpha 90.000000
_cell_angle_beta 90.000000
_cell_angle_gamma 90.000000
_cell_volume 2210.419230
_symmetry_space_group_name_H-M "P M M A"
_symmetry_group_IT_number 51
_symmetry_cell_setting 'orthorhombic'
loop_
_space_group_symop_operation_xyz
x,y,z
1/2-x,-y,z
1/2+x,-y,-z
-x,y,-z
-x,-y,-z
1/2+x,y,-z
1/2-x,y,z
x,-y,z
loop_
_atom_site_type_symbol
_atom_site_label
_atom_site_fract_x
_atom_site_fract_y
_atom_site_fract_z
Si Si1 0.029460 0.203428 0.215936
Si Si2 0.937109 0.500000 0.930437
Si Si3 0.675697 0.500000 0.086099
Si Si4 0.873989 0.193062 0.217515
Si Si5 0.323911 0.296309 0.574000
Si Si6 0.560798 0.207043 0.564389
O O1 0.058781 0.330594 0.136491
O O2 0.052729 0.256404 0.323565
O O3 0.951372 0.221961 0.213759
O O4 0.043848 0.000000 0.200550
O O5 0.873934 0.500000 0.997125
O O6 0.000000 0.500000 0.000000
O O7 0.750000 0.500000 0.055047
O O8 0.660983 0.665255 0.152959
O O9 0.851292 0.209258 0.328846
O O10 0.860529 0.000000 0.182944
O O11 0.250000 0.240735 0.555066
O O12 0.323482 0.500000 0.592890
O O13 0.372675 0.261610 0.485926
O O14 0.500000 0.271144 0.500000
O O15 0.558069 0.000000 0.562334
#
# Coordination Sequence:
#
# PCOD9404837 Si02
#       6
#     8   4   4   8   8   8
#     4  10  22  39  63  96 123 149 202 256 293 354
#     4  12  24  42  66  89 116 160 200 245 317 356
#     4  12  26  44  61  90 124 151 201 253 300 369
#     4  11  21  38  64  92 125 157 191 250 311 356
#     4  11  23  36  54  88 129 165 201 240 288 354
#     4  10  20  36  58  87 122 159 198 239 288 348
#
# _framework density 18.096115000000001
#
# number of rings (size 3 to 8) (size 9 to 14) (size 15 to 20)
#    0.000    1.200    5.000    1.200    1.400    4.400 
#    0.000    1.000    0.000    1.200    0.000    0.000 
#    0.000    0.000    0.000    0.000    0.000    0.000 
#
# Total GULP energy -223570.335590 kJ/mol
# GULP energy per Si atom -5589.258390 kJ/mol
# Density = 1.805493 g / cm^3
# Si number density = 18.096115 Si / 1000 Ang^3
#
#
#
# Elastic Constant Matrix: (Units=GPa)
#
#
# Indices 1 2 3 4 5 6 
#
# 1 120.9409 44.2242 63.7595 0.0000 0.0000 0.0000
# 2 44.2242 83.0299 58.9203 0.0000 0.0000 0.0000
# 3 63.7595 58.9203 117.6470 0.0000 0.0000 0.0000
# 4 0.0000 0.0000 0.0000 -9.9866 0.0000 0.0000
# 5 0.0000 0.0000 0.0000 0.0000 -1.9495 0.0000
# 6 0.0000 0.0000 0.0000 0.0000 0.0000 93.4001
#
#
#
# Elastic Compliance Matrix: (Units=1/GPa)
#
#
# Indices 1 2 3 4 5 6 
#
# 1 0.011967 -0.002748 -0.005109 0.000000 0.000000 0.000000
# 2 -0.002748 0.019315 -0.008184 0.000000 0.000000 0.000000
# 3 -0.005109 -0.008184 0.015368 0.000000 0.000000 0.000000
# 4 0.000000 0.000000 0.000000 -0.100134 0.000000 0.000000
# 5 0.000000 0.000000 0.000000 0.000000 -0.512965 0.000000
# 6 0.000000 0.000000 0.000000 0.000000 0.000000 0.010707
#
#
# Mechanical properties :
#
#
# Convention : Reuss Voigt Hill
#
# Bulk Modulus (GPa) = 68.64890 72.82510 70.73700
# Shear Modulus (GPa) = -9.63756 26.60705 8.48474
#
# Velocity S-wave (km/s) = -2.31027 3.83863 2.16769
# Velocity P-wave (km/s) = 5.55892 7.74452 6.74089
#
# Compressibility (1/GPa) = 0.01456688
#
# Stress axis : x y z
#
# Youngs Moduli (GPa) = 83.56299 51.77224 65.07164
#
# Poissons Ratio (x) = 0.14229 0.33246
# Poissons Ratio (y) = 0.22967 0.53255
# Poissons Ratio (z) = 0.42693 0.42371
#
# Static dielectric constant tensor:
#      x y z
#    x 1.599470 0.000000 0.000000 
#    y 0.000000 1.640150 0.000000 
#    z 0.000000 0.000000 1.592900 
# 
# From -- ./inp_files/17958.got.cif
#   From: 2010.05.17/outbox.cif.g08.bks.cpg/sg51_9_cif.got.tgz:17958.got - 2010.06.03 11:52:47.
