data_PCOD9404156
_publ_section_title
;
Structure prediction by ZEFSAII (Michael W. Deem and Ramdas Pophale) SiO2 
 PCOD9404156
Probable space group: P M M A
;
_chemical_formula_sum "Si O2"
_cell_formula_units_Z 48
_cell_length_a 24.283375
_cell_length_b 7.720286
_cell_length_c 11.268695
_cell_angle_alpha 90.000000
_cell_angle_beta 90.000000
_cell_angle_gamma 90.000000
_cell_volume 2112.594088
_symmetry_space_group_name_H-M "P M M A"
_symmetry_group_IT_number 51
_symmetry_cell_setting 'orthorhombic'
loop_
_space_group_symop_operation_xyz
x,y,z
1/2-x,-y,z
1/2+x,-y,-z
-x,y,-z
-x,-y,-z
1/2+x,y,-z
1/2-x,y,z
x,-y,z
loop_
_atom_site_type_symbol
_atom_site_label
_atom_site_fract_x
_atom_site_fract_y
_atom_site_fract_z
Si Si1 0.373629 0.204861 0.061588
Si Si2 0.187369 0.208219 0.826712
Si Si3 0.019570 0.708453 0.187752
Si Si4 0.083323 0.711796 0.428036
Si Si5 0.811209 0.705064 0.697497
Si Si6 0.084223 0.292012 0.690252
O O1 0.438442 0.237025 0.084867
O O2 0.340270 0.274475 0.175071
O O3 0.366036 0.000000 0.061305
O O4 0.345206 0.275776 0.942968
O O5 0.250000 0.273424 0.819008
O O6 0.147107 0.249906 0.718373
O O7 0.190278 0.000000 0.835626
O O8 0.018835 0.500000 0.180075
O O9 0.047723 0.760919 0.313429
O O10 0.957180 0.772432 0.206554
O O11 0.081510 0.500000 0.429036
O O12 0.145223 0.772002 0.398332
O O13 0.067165 0.770055 0.559177
O O14 0.750000 0.780314 0.696072
O O15 0.806894 0.500000 0.675977
O O16 0.079017 0.500000 0.688684
#
# Coordination Sequence:
#
# PCOD9404156 Si02
#       6
#     8   8   8   8   8   8
#     4  10  20  35  55  76 100 135 178 218 257 306
#     4  10  23  41  55  70 101 143 178 211 256 305
#     4   9  18  34  56  82 109 133 163 210 264 308
#     4   8  15  30  52  78 107 137 168 205 254 308
#     4   9  17  30  51  78 105 133 168 216 269 310
#     4  10  20  34  56  82 105 135 174 211 248 302
#
# _framework density 22.720884000000002
#
# number of rings (size 3 to 8) (size 9 to 14) (size 15 to 20)
#    0.000    2.667    0.000    2.500    0.000    6.667 
#    0.000    8.333    0.000    5.000    0.000    0.000 
#    0.000    0.000    0.000    0.000    0.000    0.000 
#
# Total GULP energy -267851.169497 kJ/mol
# GULP energy per Si atom -5580.232698 kJ/mol
# Density = 2.266917 g / cm^3
# Si number density = 22.720884 Si / 1000 Ang^3
#
#
#
# Elastic Constant Matrix: (Units=GPa)
#
#
# Indices 1 2 3 4 5 6 
#
# 1 106.4373 -5.7535 8.4266 0.0000 0.0000 0.0000
# 2 -5.7535 33.3303 -8.8747 0.0000 0.0000 0.0000
# 3 8.4266 -8.8747 64.4091 0.0000 0.0000 0.0000
# 4 0.0000 0.0000 0.0000 17.9637 0.0000 0.0000
# 5 0.0000 0.0000 0.0000 0.0000 38.1846 0.0000
# 6 0.0000 0.0000 0.0000 0.0000 0.0000 -10.6318
#
#
#
# Elastic Compliance Matrix: (Units=1/GPa)
#
#
# Indices 1 2 3 4 5 6 
#
# 1 0.009553 0.001366 -0.001062 0.000000 0.000000 0.000000
# 2 0.001366 0.031341 0.004140 0.000000 0.000000 0.000000
# 3 -0.001062 0.004140 0.016235 0.000000 0.000000 0.000000
# 4 0.000000 0.000000 0.000000 0.055668 0.000000 0.000000
# 5 0.000000 0.000000 0.000000 0.000000 0.026189 0.000000
# 6 0.000000 0.000000 0.000000 0.000000 0.000000 -0.094057
#
#
# Mechanical properties :
#
#
# Convention : Reuss Voigt Hill
#
# Bulk Modulus (GPa) = 15.14743 21.30817 18.22780
# Shear Modulus (GPa) = 86.13965 23.12851 54.63408
#
# Velocity S-wave (km/s) = 6.16396 3.19398 4.90897
# Velocity P-wave (km/s) = 7.57235 4.79589 6.33802
#
# Compressibility (1/GPa) = 0.06601779
#
# Stress axis : x y z
#
# Youngs Moduli (GPa) = 104.67804 31.90727 61.59522
#
# Poissons Ratio (x) = -0.04360 0.06539
# Poissons Ratio (y) = -0.14303 -0.25498
# Poissons Ratio (z) = 0.11112 -0.13208
#
# Static dielectric constant tensor:
#      x y z
#    x 1.877950 0.000000 0.000000 
#    y 0.000000 1.844300 0.000000 
#    z 0.000000 0.000000 1.849090 
# 
# From -- ./inp_files/18609.got.cif
#   From: 2010.05.17/outbox.cif.g08.bks.cpg/sg51_10_cif.got.tgz:18609.got - 2010.06.03 11:52:47.
