data_PCOD9404068
_publ_section_title
;
Structure prediction by ZEFSAII (Michael W. Deem and Ramdas Pophale) SiO2 
 PCOD9404068
Probable space group: P M M A
;
_chemical_formula_sum "Si O2"
_cell_formula_units_Z 56
_cell_length_a 15.969643
_cell_length_b 7.725156
_cell_length_c 21.704003
_cell_angle_alpha 90.000000
_cell_angle_beta 90.000000
_cell_angle_gamma 90.000000
_cell_volume 2677.579083
_symmetry_space_group_name_H-M "P M M A"
_symmetry_group_IT_number 51
_symmetry_cell_setting 'orthorhombic'
loop_
_space_group_symop_operation_xyz
x,y,z
1/2-x,-y,z
1/2+x,-y,-z
-x,y,-z
-x,-y,-z
1/2+x,y,-z
1/2-x,y,z
x,-y,z
loop_
_atom_site_type_symbol
_atom_site_label
_atom_site_fract_x
_atom_site_fract_y
_atom_site_fract_z
Si Si1 0.007630 0.213286 0.289812
Si Si2 0.656087 0.704230 0.086558
Si Si3 0.658276 0.203356 0.356599
Si Si4 0.985053 0.796273 0.849369
Si Si5 0.158221 0.208985 0.377457
Si Si6 0.844894 0.209795 0.943592
Si Si7 0.905681 0.704790 0.489266
O O1 0.019600 0.273212 0.219894
O O2 0.082728 0.269927 0.334396
O O3 0.919487 0.274470 0.317891
O O4 0.007082 0.000000 0.290365
O O5 0.750000 0.773828 0.100190
O O6 0.657303 0.500000 0.098497
O O7 0.578649 0.779245 0.124204
O O8 0.640723 0.732374 0.013778
O O9 0.750000 0.280388 0.344978
O O10 0.636167 0.217108 0.428818
O O11 0.662562 0.000000 0.341463
O O12 0.916459 0.724995 0.897342
O O13 0.966122 0.000000 0.844513
O O14 0.250000 0.267307 0.356525
O O15 0.143481 0.263017 0.447829
O O16 0.156862 0.000000 0.376019
O O17 0.750000 0.261867 0.925894
O O18 0.847309 0.000000 0.944450
O O19 0.911093 0.500000 0.477996
O O20 0.000000 0.773003 0.500000
#
# Coordination Sequence:
#
# PCOD9404068 Si02
#       7
#     8   8   8   8   8   8   8
#     4   9  19  35  53  77 108 138 171 215 256 303
#     4  10  21  36  54  78 108 141 178 221 267 312
#     4  10  20  35  56  78 101 135 176 215 261 314
#     4  10  20  34  55  81 108 142 179 215 262 314
#     4  10  20  35  57  81 104 136 175 213 260 315
#     4   9  18  33  54  81 111 140 173 216 264 314
#     4  11  22  35  54  79 106 136 171 216 268 314
#
# _framework density 20.914415999999999
#
# number of rings (size 3 to 8) (size 9 to 14) (size 15 to 20)
#    0.000    2.143    1.429    1.714    0.000    7.143 
#    0.000    5.714    0.000    0.000    0.000    2.000 
#    0.000    0.000    0.000    0.000    0.000    0.000 
#
# Total GULP energy -312756.422068 kJ/mol
# GULP energy per Si atom -5584.936108 kJ/mol
# Density = 2.086681 g / cm^3
# Si number density = 20.914416 Si / 1000 Ang^3
#
#
#
# Elastic Constant Matrix: (Units=GPa)
#
#
# Indices 1 2 3 4 5 6 
#
# 1 73.7244 -5.1579 -9.6421 0.0000 0.0000 0.0000
# 2 -5.1579 30.1950 -14.2747 0.0000 0.0000 0.0000
# 3 -9.6421 -14.2747 34.2452 0.0000 0.0000 0.0000
# 4 0.0000 0.0000 0.0000 -111.9739 0.0000 0.0000
# 5 0.0000 0.0000 0.0000 0.0000 -8.9120 0.0000
# 6 0.0000 0.0000 0.0000 0.0000 0.0000 6.1003
#
#
#
# Elastic Compliance Matrix: (Units=1/GPa)
#
#
# Indices 1 2 3 4 5 6 
#
# 1 0.014807 0.005605 0.006505 0.000000 0.000000 0.000000
# 2 0.005605 0.043367 0.019655 0.000000 0.000000 0.000000
# 3 0.006505 0.019655 0.039226 0.000000 0.000000 0.000000
# 4 0.000000 0.000000 0.000000 -0.008931 0.000000 0.000000
# 5 0.000000 0.000000 0.000000 0.000000 -0.112209 0.000000
# 6 0.000000 0.000000 0.000000 0.000000 0.000000 0.163926
#
#
# Mechanical properties :
#
#
# Convention : Reuss Voigt Hill
#
# Bulk Modulus (GPa) = 6.21385 8.89058 7.55222
# Shear Modulus (GPa) = 38.37293 -11.80782 13.28255
#
# Velocity S-wave (km/s) = 4.28806 -2.37866 2.52283
# Velocity P-wave (km/s) = 5.24348 1.81215 3.47924
#
# Compressibility (1/GPa) = 0.16093070
#
# Stress axis : x y z
#
# Youngs Moduli (GPa) = 67.53587 23.05879 25.49339
#
# Poissons Ratio (x) = -0.12924 -0.16584
# Poissons Ratio (y) = -0.37852 -0.50108
# Poissons Ratio (z) = -0.43934 -0.45323
#
# Static dielectric constant tensor:
#      x y z
#    x 1.766560 0.000000 0.000000 
#    y 0.000000 1.795720 0.000000 
#    z 0.000000 0.000000 1.700230 
# 
# From -- ./inp_files/33301.got.cif
#   From: 2010.05.17/outbox.cif.g08.bks.cpg/sg51_17_cif.got.tgz:33301.got - 2010.06.03 11:52:47.
