data_PCOD9404785
_publ_section_title
;
Structure prediction by ZEFSAII (Michael W. Deem and Ramdas Pophale) SiO2 
 PCOD9404785
Probable space group: P M M A
;
_chemical_formula_sum "Si O2"
_cell_formula_units_Z 56
_cell_length_a 21.181626
_cell_length_b 8.386864
_cell_length_c 15.231322
_cell_angle_alpha 90.000000
_cell_angle_beta 90.000000
_cell_angle_gamma 90.000000
_cell_volume 2705.805004
_symmetry_space_group_name_H-M "P M M A"
_symmetry_group_IT_number 51
_symmetry_cell_setting 'orthorhombic'
loop_
_space_group_symop_operation_xyz
x,y,z
1/2-x,-y,z
1/2+x,-y,-z
-x,y,-z
-x,-y,-z
1/2+x,y,-z
1/2-x,y,z
x,-y,z
loop_
_atom_site_type_symbol
_atom_site_label
_atom_site_fract_x
_atom_site_fract_y
_atom_site_fract_z
Si Si1 0.070740 0.305581 0.526655
Si Si2 0.608301 0.682173 0.924519
Si Si3 0.453195 0.685036 0.716829
Si Si4 0.750000 0.819661 0.138992
Si Si5 0.917966 0.817137 0.744425
Si Si6 0.677120 0.307053 0.613307
Si Si7 0.250000 0.678372 0.041396
Si Si8 0.113723 0.811210 0.880713
O O1 0.069301 0.500000 0.525452
O O2 0.080533 0.257972 0.628103
O O3 0.127532 0.255948 0.462708
O O4 0.000000 0.251478 0.500000
O O5 0.586783 0.500000 0.912313
O O6 0.580067 0.790678 0.848952
O O7 0.684092 0.688339 0.909772
O O8 0.597923 0.732697 0.025540
O O9 0.438709 0.500000 0.731373
O O10 0.527921 0.706742 0.702971
O O11 0.435146 0.779150 0.803967
O O12 0.818648 0.746853 0.156537
O O13 0.750000 0.000000 0.173450
O O14 0.750000 0.812683 0.032705
O O15 0.851826 0.763940 0.702566
O O16 0.930705 0.000000 0.722981
O O17 0.750000 0.260191 0.598400
O O18 0.675389 0.500000 0.618361
O O19 0.250000 0.500000 0.998728
O O20 0.120675 0.000000 0.896099
#
# Coordination Sequence:
#
# PCOD9404785 Si02
#       8
#     8   8   8   4   8   8   4   8
#     4   9  17  36  65  91 116 151 197 249 299 350
#     4  10  20  36  57  84 116 157 203 248 297 351
#     4  11  22  39  63  88 116 156 204 251 300 356
#     4   8  16  32  54  76 109 154 191 230 289 350
#     4  12  25  39  57  87 123 159 199 243 298 361
#     4  10  21  40  66  93 122 156 196 246 301 358
#     4   8  16  30  52  78 105 140 191 242 285 338
#     4  10  20  37  58  85 121 160 201 248 301 357
#
# _framework density 20.696244
#
# number of rings (size 3 to 8) (size 9 to 14) (size 15 to 20)
#    0.000    2.000    1.429    2.571    1.000    2.000 
#    1.286    5.000    0.000    0.000    0.000    0.000 
#    0.000    0.000    0.000    0.000    0.000    0.000 
#
# Total GULP energy -312323.934500 kJ/mol
# GULP energy per Si atom -5577.213116 kJ/mol
# Density = 2.064914 g / cm^3
# Si number density = 20.696244 Si / 1000 Ang^3
#
#
#
# Elastic Constant Matrix: (Units=GPa)
#
#
# Indices 1 2 3 4 5 6 
#
# 1 87.8063 3.6609 37.5132 0.0000 0.0000 0.0000
# 2 3.6609 36.5383 11.4525 0.0000 0.0000 0.0000
# 3 37.5132 11.4525 109.3266 0.0000 0.0000 0.0000
# 4 0.0000 0.0000 0.0000 -12.5102 0.0000 0.0000
# 5 0.0000 0.0000 0.0000 0.0000 26.2597 0.0000
# 6 0.0000 0.0000 0.0000 0.0000 0.0000 16.4624
#
#
#
# Elastic Compliance Matrix: (Units=1/GPa)
#
#
# Indices 1 2 3 4 5 6 
#
# 1 0.013345 0.000102 -0.004590 0.000000 0.000000 0.000000
# 2 0.000102 0.028298 -0.002999 0.000000 0.000000 0.000000
# 3 -0.004590 -0.002999 0.011036 0.000000 0.000000 0.000000
# 4 0.000000 0.000000 0.000000 -0.079935 0.000000 0.000000
# 5 0.000000 0.000000 0.000000 0.000000 0.038081 0.000000
# 6 0.000000 0.000000 0.000000 0.000000 0.000000 0.060745
#
#
# Mechanical properties :
#
#
# Convention : Reuss Voigt Hill
#
# Bulk Modulus (GPa) = 26.52187 37.65826 32.09007
# Shear Modulus (GPa) = 50.44696 18.11202 34.27949
#
# Velocity S-wave (km/s) = 4.94245 2.96148 4.07420
# Velocity P-wave (km/s) = 6.73892 5.47074 6.13768
#
# Compressibility (1/GPa) = 0.03770473
#
# Stress axis : x y z
#
# Youngs Moduli (GPa) = 74.93241 35.33762 90.61257
#
# Poissons Ratio (x) = -0.00359 0.41590
# Poissons Ratio (y) = -0.00761 0.27177
# Poissons Ratio (z) = 0.34393 0.10599
#
# Static dielectric constant tensor:
#      x y z
#    x 1.814940 0.000000 0.000000 
#    y 0.000000 1.718930 0.000000 
#    z 0.000000 0.000000 1.722830 
# 
# From -- ./inp_files/25835.got.cif
#   From: 2010.05.17/outbox.cif.g08.bks.cpg/sg51_13_cif.got.tgz:25835.got - 2010.06.03 11:52:47.
