data_PCOD9404259
_publ_section_title
;
Structure prediction by ZEFSAII (Michael W. Deem and Ramdas Pophale) SiO2 
 PCOD9404259
Probable space group: P M M A
;
_chemical_formula_sum "Si O2"
_cell_formula_units_Z 48
_cell_length_a 8.617306
_cell_length_b 30.013396
_cell_length_c 10.498967
_cell_angle_alpha 90.000000
_cell_angle_beta 90.000000
_cell_angle_gamma 90.000000
_cell_volume 2715.396313
_symmetry_space_group_name_H-M "P M M A"
_symmetry_group_IT_number 51
_symmetry_cell_setting 'orthorhombic'
loop_
_space_group_symop_operation_xyz
x,y,z
1/2-x,-y,z
1/2+x,-y,-z
-x,y,-z
-x,-y,-z
1/2+x,y,-z
1/2-x,y,z
x,-y,z
loop_
_atom_site_type_symbol
_atom_site_label
_atom_site_fract_x
_atom_site_fract_y
_atom_site_fract_z
Si Si1 0.436875 0.786523 0.138069
Si Si2 0.935231 0.114068 0.138286
Si Si3 0.937464 0.617310 0.638481
Si Si4 0.062926 0.719941 0.361683
Si Si5 0.935716 0.052364 0.638861
Si Si6 0.562633 0.448659 0.861321
O O1 0.250000 0.788101 0.133729
O O2 0.500205 0.836178 0.162014
O O3 0.486488 0.752848 0.249223
O O4 0.500000 0.772298 0.000000
O O5 0.750000 0.115490 0.132853
O O6 0.991598 0.081584 0.249397
O O7 0.000000 0.099883 0.000000
O O8 0.750000 0.616323 0.634986
O O9 0.985840 0.668651 0.661862
O O10 0.990169 0.584401 0.750096
O O11 0.000000 0.604021 0.500000
O O12 0.250000 0.720647 0.366174
O O13 0.000000 0.733426 0.500000
O O14 0.750000 0.057170 0.639911
O O15 0.000000 0.065529 0.500000
O O16 0.973526 0.000000 0.657177
O O17 0.750000 0.447546 0.865007
O O18 0.515086 0.500000 0.837038
O O19 0.500000 0.435672 0.000000
#
# Coordination Sequence:
#
# PCOD9404259 Si02
#       6
#     8   8   8   8   8   8
#     4  10  20  35  53  75 103 133 169 211 256 305
#     4  11  22  37  57  80 108 141 177 217 261 308
#     4   9  18  33  50  71  99 129 164 205 250 298
#     4   9  19  34  52  73  99 131 166 207 251 300
#     4  10  21  38  59  83 111 142 177 217 260 307
#     4   9  18  32  49  70  98 130 164 204 248 296
#
# _framework density 17.676977000000001
#
# number of rings (size 3 to 8) (size 9 to 14) (size 15 to 20)
#    0.000    2.333    0.000    3.500    0.000    5.000 
#    0.000    1.667    0.000    0.000    0.000    0.000 
#    0.000    0.000    0.000    0.000    0.000    0.000 
#
# Total GULP energy -267888.995954 kJ/mol
# GULP energy per Si atom -5581.020749 kJ/mol
# Density = 1.763674 g / cm^3
# Si number density = 17.676977 Si / 1000 Ang^3
#
#
#
# Elastic Constant Matrix: (Units=GPa)
#
#
# Indices 1 2 3 4 5 6 
#
# 1 49.3810 37.9307 52.3255 0.0000 0.0000 0.0000
# 2 37.9307 90.8765 123.7764 0.0000 0.0000 0.0000
# 3 52.3255 123.7764 205.9215 0.0000 0.0000 0.0000
# 4 0.0000 0.0000 0.0000 43.2809 0.0000 0.0000
# 5 0.0000 0.0000 0.0000 0.0000 35.7549 0.0000
# 6 0.0000 0.0000 0.0000 0.0000 0.0000 -41.6462
#
#
#
# Elastic Compliance Matrix: (Units=1/GPa)
#
#
# Indices 1 2 3 4 5 6 
#
# 1 0.029817 -0.011724 -0.000529 0.000000 0.000000 0.000000
# 2 -0.011724 0.065303 -0.036274 0.000000 0.000000 0.000000
# 3 -0.000529 -0.036274 0.026794 0.000000 0.000000 0.000000
# 4 0.000000 0.000000 0.000000 0.023105 0.000000 0.000000
# 5 0.000000 0.000000 0.000000 0.000000 0.027968 0.000000
# 6 0.000000 0.000000 0.000000 0.000000 0.000000 -0.024012
#
#
# Mechanical properties :
#
#
# Convention : Reuss Voigt Hill
#
# Bulk Modulus (GPa) = 40.22494 86.02712 63.12603
# Shear Modulus (GPa) = 19.66047 16.28769 17.97408
#
# Velocity S-wave (km/s) = 3.33860 3.03876 3.19220
# Velocity P-wave (km/s) = 6.13731 7.81562 7.02675
#
# Compressibility (1/GPa) = 0.02486020
#
# Stress axis : x y z
#
# Youngs Moduli (GPa) = 33.53752 15.31318 37.32142
#
# Poissons Ratio (x) = 0.17954 0.01976
# Poissons Ratio (y) = 0.39320 1.35378
# Poissons Ratio (z) = 0.01775 0.55546
#
# Static dielectric constant tensor:
#      x y z
#    x 1.595710 0.000000 0.000000 
#    y 0.000000 1.595390 0.000000 
#    z 0.000000 0.000000 1.572940 
# 
# From -- ./inp_files/5938.got.cif
#   From: 2010.05.17/outbox.cif.g08.bks.cpg/sg51_3_cif.got.tgz:5938.got - 2010.06.03 11:52:47.
