data_PCOD9404766
_publ_section_title
;
Structure prediction by ZEFSAII (Michael W. Deem and Ramdas Pophale) SiO2 
 PCOD9404766
Probable space group: P M M A
;
_chemical_formula_sum "Si O2"
_cell_formula_units_Z 48
_cell_length_a 8.560338
_cell_length_b 31.566917
_cell_length_c 9.380188
_cell_angle_alpha 90.000000
_cell_angle_beta 90.000000
_cell_angle_gamma 90.000000
_cell_volume 2534.747036
_symmetry_space_group_name_H-M "P M M A"
_symmetry_group_IT_number 51
_symmetry_cell_setting 'orthorhombic'
loop_
_space_group_symop_operation_xyz
x,y,z
1/2-x,-y,z
1/2+x,-y,-z
-x,y,-z
-x,-y,-z
1/2+x,y,-z
1/2-x,y,z
x,-y,z
loop_
_atom_site_type_symbol
_atom_site_label
_atom_site_fract_x
_atom_site_fract_y
_atom_site_fract_z
Si Si1 0.438722 0.082547 0.660604
Si Si2 0.437333 0.418026 0.159463
Si Si3 0.438798 0.000000 0.839092
Si Si4 0.938825 0.835422 0.159492
Si Si5 0.562446 0.659087 0.341110
Si Si6 0.061412 0.500000 0.339806
Si Si7 0.938441 0.244338 0.341831
O O1 0.500000 0.080802 0.500000
O O2 0.250000 0.082373 0.655781
O O3 0.489216 0.041769 0.752436
O O4 0.488976 0.125317 0.741469
O O5 0.250000 0.417706 0.156638
O O6 0.497024 0.375066 0.231949
O O7 0.489472 0.458031 0.254914
O O8 0.500000 0.422273 0.000000
O O9 0.250000 0.000000 0.844062
O O10 0.500000 0.000000 0.000000
O O11 0.750000 0.835502 0.155774
O O12 0.991262 0.791318 0.231124
O O13 0.000000 0.840135 0.000000
O O14 0.500000 0.649773 0.500000
O O15 0.750000 0.657125 0.342463
O O16 0.513985 0.707477 0.305770
O O17 0.250000 0.500000 0.343693
O O18 0.000000 0.500000 0.500000
O O19 0.750000 0.243509 0.346355
O O20 0.000000 0.234607 0.500000
#
# Coordination Sequence:
#
# PCOD9404766 Si02
#       7
#     8   8   4   8   8   4   8
#     4  10  21  36  55  79 107 138 178 221 264 316
#     4  11  23  39  58  83 113 146 182 223 271 321
#     4  10  21  36  54  80 110 140 175 218 264 316
#     4  10  21  36  53  77 107 140 178 221 267 319
#     4  10  20  36  57  82 111 144 182 225 269 320
#     4  10  23  40  60  84 110 142 181 222 267 318
#     4   9  19  35  55  79 107 139 179 222 266 316
#
# _framework density 18.936800999999999
#
# number of rings (size 3 to 8) (size 9 to 14) (size 15 to 20)
#    0.000    2.000    0.000    3.000    0.000    6.000 
#    0.000    1.667    0.000    0.000    0.000    0.000 
#    0.000    0.000    0.000    0.000    0.000    0.000 
#
# Total GULP energy -268171.785210 kJ/mol
# GULP energy per Si atom -5586.912192 kJ/mol
# Density = 1.889370 g / cm^3
# Si number density = 18.936801 Si / 1000 Ang^3
#
#
#
# Elastic Constant Matrix: (Units=GPa)
#
#
# Indices 1 2 3 4 5 6 
#
# 1 19.4154 31.2174 30.2244 0.0000 0.0000 0.0000
# 2 31.2174 150.0143 124.2431 0.0000 0.0000 0.0000
# 3 30.2244 124.2431 197.8320 0.0000 0.0000 0.0000
# 4 0.0000 0.0000 0.0000 37.6091 0.0000 0.0000
# 5 0.0000 0.0000 0.0000 0.0000 40.3558 0.0000
# 6 0.0000 0.0000 0.0000 0.0000 0.0000 -2.1144
#
#
#
# Elastic Compliance Matrix: (Units=1/GPa)
#
#
# Indices 1 2 3 4 5 6 
#
# 1 0.078629 -0.013365 -0.003619 0.000000 0.000000 0.000000
# 2 -0.013365 0.016163 -0.008109 0.000000 0.000000 0.000000
# 3 -0.003619 -0.008109 0.010700 0.000000 0.000000 0.000000
# 4 0.000000 0.000000 0.000000 0.026589 0.000000 0.000000
# 5 0.000000 0.000000 0.000000 0.000000 0.024780 0.000000
# 6 0.000000 0.000000 0.000000 0.000000 0.000000 -0.472939
#
#
# Mechanical properties :
#
#
# Convention : Reuss Voigt Hill
#
# Bulk Modulus (GPa) = 18.08120 82.07014 50.07567
# Shear Modulus (GPa) = -20.20558 27.27522 3.53482
#
# Velocity S-wave (km/s) = -3.27004 3.79928 1.36773
# Velocity P-wave (km/s) = 2.16533 7.91702 5.38472
#
# Compressibility (1/GPa) = 0.05530606
#
# Stress axis : x y z
#
# Youngs Moduli (GPa) = 12.71800 61.86940 93.45465
#
# Poissons Ratio (x) = 0.82687 0.33825
# Poissons Ratio (y) = 0.16997 0.75782
# Poissons Ratio (z) = 0.04603 0.50170
#
# Static dielectric constant tensor:
#      x y z
#    x 1.648470 0.000000 0.000000 
#    y 0.000000 1.664390 0.000000 
#    z 0.000000 0.000000 1.595230 
# 
# From -- ./inp_files/6131.got.cif
#   From: 2010.05.17/outbox.cif.g08.bks.cpg/sg51_4_cif.got.tgz:6131.got - 2010.06.03 11:52:47.
