data_PCOD9404513
_publ_section_title
;
Structure prediction by ZEFSAII (Michael W. Deem and Ramdas Pophale) SiO2 
 PCOD9404513
Probable space group: P M M A
;
_chemical_formula_sum "Si O2"
_cell_formula_units_Z 56
_cell_length_a 16.124960
_cell_length_b 8.292669
_cell_length_c 20.373814
_cell_angle_alpha 90.000000
_cell_angle_beta 90.000000
_cell_angle_gamma 90.000000
_cell_volume 2724.365136
_symmetry_space_group_name_H-M "P M M A"
_symmetry_group_IT_number 51
_symmetry_cell_setting 'orthorhombic'
loop_
_space_group_symop_operation_xyz
x,y,z
1/2-x,-y,z
1/2+x,-y,-z
-x,y,-z
-x,-y,-z
1/2+x,y,-z
1/2-x,y,z
x,-y,z
loop_
_atom_site_type_symbol
_atom_site_label
_atom_site_fract_x
_atom_site_fract_y
_atom_site_fract_z
Si Si1 0.875674 0.684427 0.263762
Si Si2 0.489635 0.804986 0.076588
Si Si3 0.750000 0.686291 0.500096
Si Si4 0.063887 0.690027 0.303499
Si Si5 0.750000 0.184776 0.360178
Si Si6 0.575470 0.191293 0.549374
Si Si7 0.837813 0.812145 0.129238
Si Si8 0.655540 0.694784 0.826625
O O1 0.856523 0.500000 0.245767
O O2 0.830067 0.727535 0.330787
O O3 0.841038 0.798012 0.207425
O O4 0.973257 0.702251 0.271377
O O5 0.575320 0.739358 0.107155
O O6 0.410261 0.745175 0.117451
O O7 0.487348 0.000000 0.081943
O O8 0.500000 0.764773 0.000000
O O9 0.750000 0.500000 0.479473
O O10 0.750000 0.799979 0.437252
O O11 0.836506 0.722651 0.536220
O O12 0.081373 0.500000 0.316086
O O13 0.058889 0.776929 0.373589
O O14 0.126062 0.749732 0.246354
O O15 0.750000 0.000000 0.339730
O O16 0.500000 0.244410 0.500000
O O17 0.585441 0.000000 0.538316
O O18 0.750000 0.741263 0.105782
O O19 0.838377 0.000000 0.109494
O O20 0.750000 0.748091 0.840044
O O21 0.654517 0.500000 0.824450
#
# Coordination Sequence:
#
# PCOD9404513 Si02
#       8
#     8   8   4   8   4   8   8   8
#     4  11  21  35  58  88 120 157 204 253 304 367
#     4  10  22  40  63  92 127 166 208 254 307 370
#     4  12  26  44  66  90 124 167 212 259 312 376
#     4  10  22  39  62  90 121 160 207 261 316 372
#     4  12  24  38  58  88 126 161 200 253 314 376
#     4  11  25  44  65  93 128 167 213 266 320 379
#     4  10  20  35  56  85 120 159 201 250 307 363
#     4  10  22  41  64  92 126 164 209 260 315 371
#
# _framework density 20.555247000000001
#
# number of rings (size 3 to 8) (size 9 to 14) (size 15 to 20)
#    0.000    1.429    2.143    3.000    1.000    6.286 
#    0.000    1.429    0.000    0.000    0.000    0.000 
#    0.000    0.000    0.000    0.000    0.000    0.000 
#
# Total GULP energy -312491.394459 kJ/mol
# GULP energy per Si atom -5580.203472 kJ/mol
# Density = 2.050846 g / cm^3
# Si number density = 20.555247 Si / 1000 Ang^3
#
#
#
# Elastic Constant Matrix: (Units=GPa)
#
#
# Indices 1 2 3 4 5 6 
#
# 1 168.0701 23.9641 61.5140 0.0000 0.0000 0.0000
# 2 23.9641 36.5836 4.2783 0.0000 0.0000 0.0000
# 3 61.5140 4.2783 105.7544 0.0000 0.0000 0.0000
# 4 0.0000 0.0000 0.0000 -5.2385 0.0000 0.0000
# 5 0.0000 0.0000 0.0000 0.0000 13.9954 0.0000
# 6 0.0000 0.0000 0.0000 0.0000 0.0000 13.1598
#
#
#
# Elastic Compliance Matrix: (Units=1/GPa)
#
#
# Indices 1 2 3 4 5 6 
#
# 1 0.008360 -0.004931 -0.004663 0.000000 0.000000 0.000000
# 2 -0.004931 0.030373 0.001639 0.000000 0.000000 0.000000
# 3 -0.004663 0.001639 0.012102 0.000000 0.000000 0.000000
# 4 0.000000 0.000000 0.000000 -0.190893 0.000000 0.000000
# 5 0.000000 0.000000 0.000000 0.000000 0.071452 0.000000
# 6 0.000000 0.000000 0.000000 0.000000 0.000000 0.075989
#
#
# Mechanical properties :
#
#
# Convention : Reuss Voigt Hill
#
# Bulk Modulus (GPa) = 28.63244 54.43565 41.53405
# Shear Modulus (GPa) = 143.13210 19.09344 81.11277
#
# Velocity S-wave (km/s) = 8.35368 3.05107 6.28860
# Velocity P-wave (km/s) = 10.34433 6.24116 8.54275
#
# Compressibility (1/GPa) = 0.03492542
#
# Stress axis : x y z
#
# Youngs Moduli (GPa) = 119.62265 32.92425 82.63155
#
# Poissons Ratio (x) = 0.16234 0.38532
# Poissons Ratio (y) = 0.58982 -0.13546
# Poissons Ratio (z) = 0.55781 -0.05397
#
# Static dielectric constant tensor:
#      x y z
#    x 1.801190 0.000000 0.000000 
#    y 0.000000 1.722780 0.000000 
#    z 0.000000 0.000000 1.740960 
# 
# From -- ./inp_files/33614.got.cif
#   From: 2010.05.17/outbox.cif.g08.bks.cpg/sg51_17_cif.got.tgz:33614.got - 2010.06.03 11:52:47.
