data_PCOD9404532
_publ_section_title
;
Structure prediction by ZEFSAII (Michael W. Deem and Ramdas Pophale) SiO2 
 PCOD9404532
Probable space group: P M M A
;
_chemical_formula_sum "Si O2"
_cell_formula_units_Z 64
_cell_length_a 29.484125
_cell_length_b 7.726061
_cell_length_c 12.874688
_cell_angle_alpha 90.000000
_cell_angle_beta 90.000000
_cell_angle_gamma 90.000000
_cell_volume 2932.804337
_symmetry_space_group_name_H-M "P M M A"
_symmetry_group_IT_number 51
_symmetry_cell_setting 'orthorhombic'
loop_
_space_group_symop_operation_xyz
x,y,z
1/2-x,-y,z
1/2+x,-y,-z
-x,y,-z
-x,-y,-z
1/2+x,y,-z
1/2-x,y,z
x,-y,z
loop_
_atom_site_type_symbol
_atom_site_label
_atom_site_fract_x
_atom_site_fract_y
_atom_site_fract_z
Si Si1 0.801817 0.200994 0.550364
Si Si2 0.992318 0.710417 0.829031
Si Si3 0.829093 0.195990 0.995352
Si Si4 0.371812 0.790046 0.620724
Si Si5 0.799427 0.211497 0.211839
Si Si6 0.478019 0.706441 0.606598
Si Si7 0.071300 0.290166 0.989311
Si Si8 0.198641 0.701081 0.225714
O O1 0.750000 0.273787 0.544794
O O2 0.840378 0.273144 0.475009
O O3 0.817834 0.208914 0.669794
O O4 0.797559 0.000000 0.520418
O O5 0.991099 0.500000 0.826150
O O6 0.998586 0.775139 0.712205
O O7 0.949473 0.762729 0.899003
O O8 0.035779 0.756015 0.899417
O O9 0.802590 0.273531 0.093006
O O10 0.813130 0.000000 0.980858
O O11 0.881081 0.203069 0.029194
O O12 0.826287 0.281002 0.883019
O O13 0.342745 0.733002 0.721334
O O14 0.423814 0.732317 0.614134
O O15 0.373265 0.000000 0.620674
O O16 0.750000 0.259042 0.256931
O O17 0.800916 0.000000 0.209272
O O18 0.500000 0.775906 0.500000
O O19 0.485927 0.500000 0.606633
O O20 0.076269 0.500000 0.988787
O O21 0.250000 0.763682 0.206800
O O22 0.199761 0.500000 0.252867
#
# Coordination Sequence:
#
# PCOD9404532 Si02
#       8
#     8   8   8   8   8   8   8   8
#     4   9  18  34  56  80 107 139 175 217 266 322
#     4   8  16  33  54  73  95 130 176 218 261 312
#     4  11  21  32  50  79 112 142 174 212 258 313
#     4  10  20  35  57  83 108 137 178 224 268 316
#     4   9  18  33  54  80 111 147 181 213 257 318
#     4  10  21  36  53  74 103 139 176 217 270 328
#     4   9  17  32  54  74  96 132 176 220 260 304
#     4  10  21  36  53  73 100 136 176 216 257 303
#
# _framework density 21.822118
#
# number of rings (size 3 to 8) (size 9 to 14) (size 15 to 20)
#    0.000    2.500    0.000    3.000    0.000    4.500 
#    0.000    3.750    0.000    2.625    0.000    0.000 
#    0.000    0.000    0.000    0.000    0.000    0.000 
#
# Total GULP energy -357075.137527 kJ/mol
# GULP energy per Si atom -5579.299024 kJ/mol
# Density = 2.177245 g / cm^3
# Si number density = 21.822118 Si / 1000 Ang^3
#
#
#
# Elastic Constant Matrix: (Units=GPa)
#
#
# Indices 1 2 3 4 5 6 
#
# 1 80.8763 -6.5229 41.0587 0.0000 0.0000 0.0000
# 2 -6.5229 33.0916 4.6087 0.0000 0.0000 0.0000
# 3 41.0587 4.6087 131.5112 0.0000 0.0000 0.0000
# 4 0.0000 0.0000 0.0000 -6.6902 0.0000 0.0000
# 5 0.0000 0.0000 0.0000 0.0000 -45.5714 0.0000
# 6 0.0000 0.0000 0.0000 0.0000 0.0000 30.4502
#
#
#
# Elastic Compliance Matrix: (Units=1/GPa)
#
#
# Indices 1 2 3 4 5 6 
#
# 1 0.015121 0.003656 -0.004849 0.000000 0.000000 0.000000
# 2 0.003656 0.031251 -0.002237 0.000000 0.000000 0.000000
# 3 -0.004849 -0.002237 0.009196 0.000000 0.000000 0.000000
# 4 0.000000 0.000000 0.000000 -0.149472 0.000000 0.000000
# 5 0.000000 0.000000 0.000000 0.000000 -0.021944 0.000000
# 6 0.000000 0.000000 0.000000 0.000000 0.000000 0.032841
#
#
# Mechanical properties :
#
#
# Convention : Reuss Voigt Hill
#
# Bulk Modulus (GPa) = 20.52993 35.97422 28.25208
# Shear Modulus (GPa) = -83.45734 9.39336 -37.03199
#
# Velocity S-wave (km/s) = -6.19091 2.07698 -4.12393
# Velocity P-wave (km/s) = 6.45561 4.71941 3.11465
#
# Compressibility (1/GPa) = 0.04870937
#
# Stress axis : x y z
#
# Youngs Moduli (GPa) = 66.13246 31.99862 108.74047
#
# Poissons Ratio (x) = -0.11699 0.52729
# Poissons Ratio (y) = -0.24178 0.24321
# Poissons Ratio (z) = 0.32068 0.07157
#
# Static dielectric constant tensor:
#      x y z
#    x 1.784310 0.000000 0.000000 
#    y 0.000000 1.817030 0.000000 
#    z 0.000000 0.000000 1.818450 
# 
# From -- ./inp_files/19528.got.cif
#   From: 2010.05.17/outbox.cif.g08.bks.cpg/sg51_10_cif.got.tgz:19528.got - 2010.06.03 11:52:47.
