data_PCOD9404602
_publ_section_title
;
Structure prediction by ZEFSAII (Michael W. Deem and Ramdas Pophale) SiO2 
 PCOD9404602
Probable space group: P M M A
;
_chemical_formula_sum "Si O2"
_cell_formula_units_Z 56
_cell_length_a 8.669654
_cell_length_b 22.146939
_cell_length_c 15.397476
_cell_angle_alpha 90.000000
_cell_angle_beta 90.000000
_cell_angle_gamma 90.000000
_cell_volume 2956.412370
_symmetry_space_group_name_H-M "P M M A"
_symmetry_group_IT_number 51
_symmetry_cell_setting 'orthorhombic'
loop_
_space_group_symop_operation_xyz
x,y,z
1/2-x,-y,z
1/2+x,-y,-z
-x,y,-z
-x,-y,-z
1/2+x,y,-z
1/2-x,y,z
x,-y,z
loop_
_atom_site_type_symbol
_atom_site_label
_atom_site_fract_x
_atom_site_fract_y
_atom_site_fract_z
Si Si1 0.564983 0.230591 0.749148
Si Si2 0.934193 0.305386 0.091383
Si Si3 0.932631 0.306462 0.409947
Si Si4 0.933764 0.432622 0.642448
Si Si5 0.065026 0.566420 0.836023
Si Si6 0.436658 0.000000 0.401233
Si Si7 0.937417 0.908226 0.749547
Si Si8 0.063201 0.000000 0.099134
O O1 0.750000 0.231432 0.748712
O O2 0.503189 0.264721 0.833246
O O3 0.503810 0.268254 0.667845
O O4 0.512273 0.161033 0.747990
O O5 0.750000 0.301730 0.092684
O O6 0.978375 0.375447 0.108378
O O7 0.000000 0.285391 0.000000
O O8 0.750000 0.302209 0.407947
O O9 0.000000 0.283203 0.500000
O O10 0.981359 0.376455 0.400259
O O11 0.750000 0.425948 0.631904
O O12 0.979034 0.500000 0.611785
O O13 0.977967 0.429935 0.744264
O O14 0.250000 0.569815 0.819226
O O15 0.033093 0.500000 0.874468
O O16 0.500000 0.000000 0.500000
O O17 0.483479 0.056365 0.338703
O O18 0.250000 0.000000 0.407458
O O19 0.750000 0.909704 0.749869
O O20 0.983430 0.943462 0.838193
O O21 0.250000 0.000000 0.092849
O O22 0.000000 0.000000 0.000000
#
# Coordination Sequence:
#
# PCOD9404602 Si02
#       8
#     8   8   8   8   8   4   8   4
#     4  11  22  40  62  85 117 155 196 243 290 342
#     4  11  23  38  57  83 114 153 197 243 294 350
#     4  12  25  41  60  84 114 153 196 242 294 351
#     4  10  20  35  58  86 113 145 187 237 296 356
#     4   9  18  34  56  80 109 146 188 237 295 352
#     4   9  17  35  60  88 120 151 187 227 274 332
#     4   8  18  36  59  84 116 157 190 225 282 341
#     4   9  17  35  60  88 120 153 191 233 278 332
#
# _framework density 18.941877999999999
#
# number of rings (size 3 to 8) (size 9 to 14) (size 15 to 20)
#    0.000    2.000    1.429    3.429    0.000    3.143 
#    0.000    7.143    0.000    0.000    0.000    0.000 
#    0.000    0.000    0.000    0.000    0.000    0.000 
#
# Total GULP energy -312565.817313 kJ/mol
# GULP energy per Si atom -5581.532452 kJ/mol
# Density = 1.889877 g / cm^3
# Si number density = 18.941878 Si / 1000 Ang^3
#
#
#
# Elastic Constant Matrix: (Units=GPa)
#
#
# Indices 1 2 3 4 5 6 
#
# 1 47.1649 44.3915 42.0000 0.0000 0.0000 0.0000
# 2 44.3915 150.8158 88.0500 0.0000 0.0000 0.0000
# 3 42.0000 88.0500 179.8538 0.0000 0.0000 0.0000
# 4 0.0000 0.0000 0.0000 -111.5284 0.0000 0.0000
# 5 0.0000 0.0000 0.0000 0.0000 32.0658 0.0000
# 6 0.0000 0.0000 0.0000 0.0000 0.0000 214.2395
#
#
#
# Elastic Compliance Matrix: (Units=1/GPa)
#
#
# Indices 1 2 3 4 5 6 
#
# 1 0.031167 -0.006896 -0.003903 0.000000 0.000000 0.000000
# 2 -0.006896 0.010810 -0.003682 0.000000 0.000000 0.000000
# 3 -0.003903 -0.003682 0.008274 0.000000 0.000000 0.000000
# 4 0.000000 0.000000 0.000000 -0.008966 0.000000 0.000000
# 5 0.000000 0.000000 0.000000 0.000000 0.031186 0.000000
# 6 0.000000 0.000000 0.000000 0.000000 0.000000 0.004668
#
#
# Mechanical properties :
#
#
# Convention : Reuss Voigt Hill
#
# Bulk Modulus (GPa) = 46.96732 80.74639 63.85685
# Shear Modulus (GPa) = 44.17148 40.51490 42.34319
#
# Velocity S-wave (km/s) = 4.83426 4.62985 4.73316
# Velocity P-wave (km/s) = 7.48395 8.44403 7.97845
#
# Compressibility (1/GPa) = 0.02129140
#
# Stress axis : x y z
#
# Youngs Moduli (GPa) = 32.08476 92.50874 120.86217
#
# Poissons Ratio (x) = 0.63790 0.47167
# Poissons Ratio (y) = 0.22124 0.44499
# Poissons Ratio (z) = 0.12521 0.34060
#
# Static dielectric constant tensor:
#      x y z
#    x 1.636390 0.000000 0.000000 
#    y 0.000000 1.669180 0.000000 
#    z 0.000000 0.000000 1.636020 
# 
# From -- ./inp_files/21874.got.cif
#   From: 2010.05.17/outbox.cif.g08.bks.cpg/sg51_11_cif.got.tgz:21874.got - 2010.06.03 11:52:47.
