data_PCOD9404771
_publ_section_title
;
Structure prediction by ZEFSAII (Michael W. Deem and Ramdas Pophale) SiO2 
 PCOD9404771
Probable space group: P M M A
;
_chemical_formula_sum "Si O2"
_cell_formula_units_Z 56
_cell_length_a 18.285109
_cell_length_b 18.219758
_cell_length_c 9.104735
_cell_angle_alpha 90.000000
_cell_angle_beta 90.000000
_cell_angle_gamma 90.000000
_cell_volume 3033.244841
_symmetry_space_group_name_H-M "P M M A"
_symmetry_group_IT_number 51
_symmetry_cell_setting 'orthorhombic'
loop_
_space_group_symop_operation_xyz
x,y,z
1/2-x,-y,z
1/2+x,-y,-z
-x,y,-z
-x,-y,-z
1/2+x,y,-z
1/2-x,y,z
x,-y,z
loop_
_atom_site_type_symbol
_atom_site_label
_atom_site_fract_x
_atom_site_fract_y
_atom_site_fract_z
Si Si1 0.386651 0.917084 0.588197
Si Si2 0.839300 0.500000 0.262636
Si Si3 0.660928 0.647824 0.426479
Si Si4 0.578159 0.780312 0.943283
Si Si5 0.166692 0.215064 0.762802
Si Si6 0.451341 0.083844 0.270298
Si Si7 0.838815 0.652930 0.768357
Si Si8 0.661301 0.500000 0.924155
O O1 0.337168 0.855223 0.658244
O O2 0.465669 0.911100 0.668877
O O3 0.401336 0.906246 0.415222
O O4 0.359711 0.000000 0.610409
O O5 0.750000 0.500000 0.261250
O O6 0.862563 0.427388 0.349373
O O7 0.863580 0.500000 0.093401
O O8 0.750000 0.648933 0.425251
O O9 0.635339 0.716560 0.329716
O O10 0.640171 0.652878 0.596675
O O11 0.564481 0.853229 0.846774
O O12 0.621565 0.719175 0.851531
O O13 0.500000 0.751850 0.000000
O O14 0.623497 0.798848 0.088774
O O15 0.250000 0.233061 0.801609
O O16 0.440991 0.000000 0.215304
O O17 0.750000 0.660615 0.779136
O O18 0.859467 0.574807 0.841084
O O19 0.750000 0.500000 0.926377
#
# Coordination Sequence:
#
# PCOD9404771 Si02
#       8
#     8   4   8   8   8   8   8   4
#     4   9  18  36  60  83 106 140 187 234 276 331
#     4   9  15  27  49  79 108 137 179 226 267 319
#     4   9  18  32  53  79 108 143 183 224 268 323
#     4  12  23  36  54  84 113 148 189 233 287 336
#     4  11  22  36  54  81 116 149 182 230 287 339
#     4   9  19  37  60  82 107 143 189 232 274 333
#     4  10  20  36  57  82 112 148 188 231 279 336
#     4   9  17  31  56  85 114 147 182 224 280 342
#
# _framework density 18.462078000000002
#
# number of rings (size 3 to 8) (size 9 to 14) (size 15 to 20)
#    0.000    2.143    1.429    3.429    0.000    5.143 
#    0.000    1.071    0.000    3.000    0.000    3.000 
#    0.000    0.000    0.000    0.000    0.000    0.000 
#
# Total GULP energy -312508.441690 kJ/mol
# GULP energy per Si atom -5580.507887 kJ/mol
# Density = 1.842006 g / cm^3
# Si number density = 18.462078 Si / 1000 Ang^3
#
#
#
# Elastic Constant Matrix: (Units=GPa)
#
#
# Indices 1 2 3 4 5 6 
#
# 1 31.2230 20.3317 25.1561 0.0000 0.0000 0.0000
# 2 20.3317 136.3741 78.3624 0.0000 0.0000 0.0000
# 3 25.1561 78.3624 123.8075 0.0000 0.0000 0.0000
# 4 0.0000 0.0000 0.0000 20.3475 0.0000 0.0000
# 5 0.0000 0.0000 0.0000 0.0000 21.8772 0.0000
# 6 0.0000 0.0000 0.0000 0.0000 0.0000 10.4726
#
#
#
# Elastic Compliance Matrix: (Units=1/GPa)
#
#
# Indices 1 2 3 4 5 6 
#
# 1 0.038629 -0.001963 -0.006606 0.000000 0.000000 0.000000
# 2 -0.001963 0.011624 -0.006958 0.000000 0.000000 0.000000
# 3 -0.006606 -0.006958 0.013824 0.000000 0.000000 0.000000
# 4 0.000000 0.000000 0.000000 0.049146 0.000000 0.000000
# 5 0.000000 0.000000 0.000000 0.000000 0.045710 0.000000
# 6 0.000000 0.000000 0.000000 0.000000 0.000000 0.095488
#
#
# Mechanical properties :
#
#
# Convention : Reuss Voigt Hill
#
# Bulk Modulus (GPa) = 30.28402 59.90054 45.09228
# Shear Modulus (GPa) = 16.86447 21.70976 19.28712
#
# Velocity S-wave (km/s) = 3.02564 3.43288 3.23567
# Velocity P-wave (km/s) = 5.35210 6.94467 6.19973
#
# Compressibility (1/GPa) = 0.03302071
#
# Stress axis : x y z
#
# Youngs Moduli (GPa) = 25.88752 86.03108 72.34039
#
# Poissons Ratio (x) = 0.16887 0.47791
# Poissons Ratio (y) = 0.05081 0.50336
# Poissons Ratio (z) = 0.17103 0.59863
#
# Static dielectric constant tensor:
#      x y z
#    x 1.640790 0.000000 0.000000 
#    y 0.000000 1.622930 0.000000 
#    z 0.000000 0.000000 1.615380 
# 
# From -- ./inp_files/11055.got.cif
#   From: 2010.05.17/outbox.cif.g08.bks.cpg/sg51_6_cif.got.tgz:11055.got - 2010.06.03 11:52:47.
