data_PCOD9404856
_publ_section_title
;
Structure prediction by ZEFSAII (Michael W. Deem and Ramdas Pophale) SiO2 
 PCOD9404856
Probable space group: P M M A
;
_chemical_formula_sum "Si O2"
_cell_formula_units_Z 38
_cell_length_a 8.782877
_cell_length_b 25.265515
_cell_length_c 9.327772
_cell_angle_alpha 90.000000
_cell_angle_beta 90.000000
_cell_angle_gamma 90.000000
_cell_volume 2069.869084
_symmetry_space_group_name_H-M "P M M A"
_symmetry_group_IT_number 51
_symmetry_cell_setting 'orthorhombic'
loop_
_space_group_symop_operation_xyz
x,y,z
1/2-x,-y,z
1/2+x,-y,-z
-x,y,-z
-x,-y,-z
1/2+x,y,-z
1/2-x,y,z
x,-y,z
loop_
_atom_site_type_symbol
_atom_site_label
_atom_site_fract_x
_atom_site_fract_y
_atom_site_fract_z
Si Si1 0.066766 0.191836 0.841187
Si Si2 0.566379 0.000000 0.160224
Si Si3 0.250000 0.500000 0.244506
Si Si4 0.082769 0.598973 0.353867
Si Si5 0.433114 0.902317 0.340518
Si Si6 0.930734 0.314439 0.156314
O O1 0.250000 0.184487 0.842109
O O2 0.033009 0.253341 0.806587
O O3 0.988379 0.152469 0.730156
O O4 0.000000 0.181353 0.000000
O O5 0.503544 0.051110 0.243740
O O6 0.750000 0.000000 0.157624
O O7 0.500000 0.000000 0.000000
O O8 0.119496 0.547138 0.259659
O O9 0.250000 0.620673 0.393917
O O10 0.000000 0.583144 0.500000
O O11 0.994238 0.643627 0.268352
O O12 0.500000 0.907074 0.500000
O O13 0.250000 0.905742 0.342469
O O14 0.750000 0.318997 0.147106
O O15 0.000000 0.325237 0.000000
#
# Coordination Sequence:
#
# PCOD9404856 Si02
#       6
#     8   4   2   8   8   8
#     4  10  21  39  62  89 119 157 200 245 298 359
#     4  12  25  44  67  92 124 166 210 252 299 358
#     4   8  22  36  60  82 118 148 198 236 298 344
#     4  10  20  36  59  83 114 148 194 238 291 350
#     4  12  25  42  63  91 126 162 204 253 305 354
#     4  10  21  38  61  87 119 155 195 244 299 354
#
# _framework density 18.358649
#
# number of rings (size 3 to 8) (size 9 to 14) (size 15 to 20)
#    0.632    0.842    0.000    6.000    0.000    3.368 
#    0.000    0.526    0.000    0.000    0.000    0.000 
#    0.000    0.000    0.000    0.000    0.000    0.000 
#
# Total GULP energy -211597.602556 kJ/mol
# GULP energy per Si atom -5568.357962 kJ/mol
# Density = 1.831686 g / cm^3
# Si number density = 18.358649 Si / 1000 Ang^3
#
#
#
# Elastic Constant Matrix: (Units=GPa)
#
#
# Indices 1 2 3 4 5 6 
#
# 1 122.3687 50.1996 41.9453 0.0000 0.0000 0.0000
# 2 50.1996 92.9379 54.0803 0.0000 0.0000 0.0000
# 3 41.9453 54.0803 81.6765 0.0000 0.0000 0.0000
# 4 0.0000 0.0000 0.0000 14.0849 0.0000 0.0000
# 5 0.0000 0.0000 0.0000 0.0000 34.9316 0.0000
# 6 0.0000 0.0000 0.0000 0.0000 0.0000 42.9481
#
#
#
# Elastic Compliance Matrix: (Units=1/GPa)
#
#
# Indices 1 2 3 4 5 6 
#
# 1 0.010867 -0.004266 -0.002756 0.000000 0.000000 0.000000
# 2 -0.004266 0.019179 -0.010508 0.000000 0.000000 0.000000
# 3 -0.002756 -0.010508 0.020617 0.000000 0.000000 0.000000
# 4 0.000000 0.000000 0.000000 0.070998 0.000000 0.000000
# 5 0.000000 0.000000 0.000000 0.000000 0.028627 0.000000
# 6 0.000000 0.000000 0.000000 0.000000 0.000000 0.023284
#
#
# Mechanical properties :
#
#
# Convention : Reuss Voigt Hill
#
# Bulk Modulus (GPa) = 64.09444 65.49261 64.79353
# Shear Modulus (GPa) = 23.38288 28.44345 25.91317
#
# Velocity S-wave (km/s) = 3.57272 3.94041 3.76106
# Velocity P-wave (km/s) = 7.21161 7.51358 7.36414
#
# Compressibility (1/GPa) = 0.01560198
#
# Stress axis : x y z
#
# Youngs Moduli (GPa) = 92.02398 52.14164 48.50483
#
# Poissons Ratio (x) = 0.22242 0.13369
# Poissons Ratio (y) = 0.39255 0.50969
# Poissons Ratio (z) = 0.25364 0.54790
#
# Static dielectric constant tensor:
#      x y z
#    x 1.624230 0.000000 0.000000 
#    y 0.000000 1.617190 0.000000 
#    z 0.000000 0.000000 1.602820 
# 
# From -- ./inp_files/5373.got.cif
#   From: 2010.05.17/outbox.cif.g08.bks.cpg/sg51_3_cif.got.tgz:5373.got - 2010.06.03 11:52:47.
