data_PCOD9404697
_publ_section_title
;
Structure prediction by ZEFSAII (Michael W. Deem and Ramdas Pophale) SiO2 
 PCOD9404697
Probable space group: P M M A
;
_chemical_formula_sum "Si O2"
_cell_formula_units_Z 64
_cell_length_a 31.787871
_cell_length_b 9.029462
_cell_length_c 10.969368
_cell_angle_alpha 90.000000
_cell_angle_beta 90.000000
_cell_angle_gamma 90.000000
_cell_volume 3148.508883
_symmetry_space_group_name_H-M "P M M A"
_symmetry_group_IT_number 51
_symmetry_cell_setting 'orthorhombic'
loop_
_space_group_symop_operation_xyz
x,y,z
1/2-x,-y,z
1/2+x,-y,-z
-x,y,-z
-x,-y,-z
1/2+x,y,-z
1/2-x,y,z
x,-y,z
loop_
_atom_site_type_symbol
_atom_site_label
_atom_site_fract_x
_atom_site_fract_y
_atom_site_fract_z
Si Si1 0.993834 0.163422 0.804618
Si Si2 0.200194 0.176485 0.959524
Si Si3 0.342701 0.174816 0.704811
Si Si4 0.342777 0.671881 0.192887
Si Si5 0.930755 0.661226 0.934060
Si Si6 0.862716 0.321586 0.536900
Si Si7 0.046072 0.829961 0.452757
Si Si8 0.922244 0.333230 0.213928
O O1 0.964928 0.213799 0.915534
O O2 0.962085 0.162158 0.691113
O O3 0.030124 0.279959 0.775860
O O4 0.012024 0.000000 0.819966
O O5 0.250000 0.202621 0.958273
O O6 0.181318 0.226665 0.828129
O O7 0.192169 0.000000 0.964803
O O8 0.180910 0.246144 0.082583
O O9 0.335974 0.259963 0.577443
O O10 0.391274 0.213232 0.731294
O O11 0.335498 0.000000 0.689447
O O12 0.329051 0.500000 0.192075
O O13 0.391803 0.675629 0.155565
O O14 0.342484 0.726615 0.332915
O O15 0.951216 0.500000 0.912936
O O16 0.913400 0.662971 0.069929
O O17 0.864047 0.500000 0.536211
O O18 0.911065 0.260848 0.526694
O O19 0.000000 0.775005 0.500000
O O20 0.051053 0.000000 0.499939
O O21 0.915792 0.500000 0.262829
#
# Coordination Sequence:
#
# PCOD9404697 Si02
#       8
#     8   8   8   8   8   8   8   8
#     4  11  22  33  50  79 116 159 210 262 310 359
#     4  10  23  44  71 101 128 157 197 246 306 378
#     4  11  23  40  63  91 126 162 200 251 308 368
#     4  10  21  40  65  94 127 164 207 255 308 369
#     4  10  20  36  55  79 116 159 204 255 309 362
#     4  11  23  39  62  90 123 165 211 255 304 366
#     4  10  21  36  52  74 111 160 212 263 308 353
#     4  11  22  36  56  81 116 161 210 259 309 366
#
# _framework density 20.327082999999998
#
# number of rings (size 3 to 8) (size 9 to 14) (size 15 to 20)
#    0.000    1.500    2.500    2.625    0.000    6.500 
#    0.000    0.625    0.000    2.250    0.000    0.000 
#    0.000    0.000    0.000    0.000    0.000    0.000 
#
# Total GULP energy -357049.044400 kJ/mol
# GULP energy per Si atom -5578.891319 kJ/mol
# Density = 2.028082 g / cm^3
# Si number density = 20.327083 Si / 1000 Ang^3
#
#
#
# Elastic Constant Matrix: (Units=GPa)
#
#
# Indices 1 2 3 4 5 6 
#
# 1 38.3486 22.1303 44.0309 0.0000 0.0000 0.0000
# 2 22.1303 53.8991 41.0333 0.0000 0.0000 0.0000
# 3 44.0309 41.0333 159.2480 0.0000 0.0000 0.0000
# 4 0.0000 0.0000 0.0000 32.2296 0.0000 0.0000
# 5 0.0000 0.0000 0.0000 0.0000 15.5563 0.0000
# 6 0.0000 0.0000 0.0000 0.0000 0.0000 -3.9217
#
#
#
# Elastic Compliance Matrix: (Units=1/GPa)
#
#
# Indices 1 2 3 4 5 6 
#
# 1 0.042572 -0.010597 -0.009040 0.000000 0.000000 0.000000
# 2 -0.010597 0.025719 -0.003697 0.000000 0.000000 0.000000
# 3 -0.009040 -0.003697 0.009732 0.000000 0.000000 0.000000
# 4 0.000000 0.000000 0.000000 0.031027 0.000000 0.000000
# 5 0.000000 0.000000 0.000000 0.000000 0.064282 0.000000
# 6 0.000000 0.000000 0.000000 0.000000 0.000000 -0.254990
#
#
# Mechanical properties :
#
#
# Convention : Reuss Voigt Hill
#
# Bulk Modulus (GPa) = 31.89427 51.76497 41.82962
# Shear Modulus (GPa) = -203.76210 18.39292 -92.68459
#
# Velocity S-wave (km/s) = -10.02294 3.01133 -6.75985
# Velocity P-wave (km/s) = 10.87295 6.13287 6.34858
#
# Compressibility (1/GPa) = 0.03135359
#
# Stress axis : x y z
#
# Youngs Moduli (GPa) = 23.48982 38.88225 102.75757
#
# Poissons Ratio (x) = 0.41204 0.92895
# Poissons Ratio (y) = 0.24892 0.37989
# Poissons Ratio (z) = 0.21235 0.14374
#
# Static dielectric constant tensor:
#      x y z
#    x 1.677300 0.000000 0.000000 
#    y 0.000000 1.730600 0.000000 
#    z 0.000000 0.000000 1.804890 
# 
# From -- ./inp_files/19588.got.cif
#   From: 2010.05.17/outbox.cif.g08.bks.cpg/sg51_10_cif.got.tgz:19588.got - 2010.06.03 11:52:47.
