data_PCOD9404803
_publ_section_title
;
Structure prediction by ZEFSAII (Michael W. Deem and Ramdas Pophale) SiO2 
 PCOD9404803
Probable space group: P M M A
;
_chemical_formula_sum "Si O2"
_cell_formula_units_Z 48
_cell_length_a 16.464211
_cell_length_b 8.981325
_cell_length_c 18.456404
_cell_angle_alpha 90.000000
_cell_angle_beta 90.000000
_cell_angle_gamma 90.000000
_cell_volume 2729.156393
_symmetry_space_group_name_H-M "P M M A"
_symmetry_group_IT_number 51
_symmetry_cell_setting 'orthorhombic'
loop_
_space_group_symop_operation_xyz
x,y,z
1/2-x,-y,z
1/2+x,-y,-z
-x,y,-z
-x,-y,-z
1/2+x,y,-z
1/2-x,y,z
x,-y,z
loop_
_atom_site_type_symbol
_atom_site_label
_atom_site_fract_x
_atom_site_fract_y
_atom_site_fract_z
Si Si1 0.250000 0.680227 0.948683
Si Si2 0.413628 0.679466 0.034617
Si Si3 0.007825 0.677914 0.416546
Si Si4 0.250000 0.179752 0.789634
Si Si5 0.417726 0.821040 0.713968
Si Si6 0.842548 0.822598 0.662117
Si Si7 0.073549 0.177317 0.190279
O O1 0.250000 0.500000 0.944953
O O2 0.332987 0.726323 0.990235
O O3 0.250000 0.746761 0.868382
O O4 0.413986 0.500000 0.035181
O O5 0.410247 0.738753 0.116231
O O6 0.500000 0.728884 0.000000
O O7 0.002477 0.500000 0.413087
O O8 0.941685 0.747580 0.362057
O O9 0.000000 0.725123 0.500000
O O10 0.093715 0.733347 0.385527
O O11 0.169447 0.221564 0.745235
O O12 0.250000 0.000000 0.798055
O O13 0.487258 0.781632 0.772857
O O14 0.420845 0.000000 0.705258
O O15 0.750000 0.788683 0.644332
O O16 0.861379 0.791470 0.746546
O O17 0.856870 0.000000 0.652343
O O18 0.072934 0.000000 0.176602
#
# Coordination Sequence:
#
# PCOD9404803 Si02
#       7
#     4   8   8   4   8   8   8
#     4  10  22  36  50  74 107 142 179 222 275 326
#     4  10  21  35  49  70 103 141 179 220 267 320
#     4  10  21  37  56  81 113 145 178 216 262 317
#     4  10  20  36  58  82 105 134 183 232 269 316
#     4   9  19  36  57  81 108 140 179 225 270 319
#     4   9  19  36  57  82 109 140 178 221 269 319
#     4   9  18  32  53  77 103 135 174 220 267 315
#
# _framework density 17.587852000000002
#
# number of rings (size 3 to 8) (size 9 to 14) (size 15 to 20)
#    0.000    2.500    0.000    2.500    1.167    6.000 
#    1.500    0.000    0.000    0.000    0.000    0.000 
#    0.000    0.000    0.000    0.000    0.000    0.000 
#
# Total GULP energy -267784.682541 kJ/mol
# GULP energy per Si atom -5578.847553 kJ/mol
# Density = 1.754782 g / cm^3
# Si number density = 17.587852 Si / 1000 Ang^3
#
#
#
# Elastic Constant Matrix: (Units=GPa)
#
#
# Indices 1 2 3 4 5 6 
#
# 1 128.0429 35.0948 82.4054 0.0000 0.0000 0.0000
# 2 35.0948 15.9766 45.1163 0.0000 0.0000 0.0000
# 3 82.4054 45.1163 164.1088 0.0000 0.0000 0.0000
# 4 0.0000 0.0000 0.0000 37.2865 0.0000 0.0000
# 5 0.0000 0.0000 0.0000 0.0000 11.2437 0.0000
# 6 0.0000 0.0000 0.0000 0.0000 0.0000 7.1018
#
#
#
# Elastic Compliance Matrix: (Units=1/GPa)
#
#
# Indices 1 2 3 4 5 6 
#
# 1 0.023065 -0.080298 0.010493 0.000000 0.000000 0.000000
# 2 -0.080298 0.559395 -0.113466 0.000000 0.000000 0.000000
# 3 0.010493 -0.113466 0.032018 0.000000 0.000000 0.000000
# 4 0.000000 0.000000 0.000000 0.026819 0.000000 0.000000
# 5 0.000000 0.000000 0.000000 0.000000 0.088939 0.000000
# 6 0.000000 0.000000 0.000000 0.000000 0.000000 0.140810
#
#
# Mechanical properties :
#
#
# Convention : Reuss Voigt Hill
#
# Bulk Modulus (GPa) = 4.03330 70.37347 37.20338
# Shear Modulus (GPa) = 3.78721 20.82718 12.30719
#
# Velocity S-wave (km/s) = 1.46901 3.44492 2.64816
# Velocity P-wave (km/s) = 2.27498 7.47815 5.52713
#
# Compressibility (1/GPa) = 0.24793604
#
# Stress axis : x y z
#
# Youngs Moduli (GPa) = 43.35546 1.78765 31.23217
#
# Poissons Ratio (x) = 0.14354 -0.32773
# Poissons Ratio (y) = 3.48136 3.54380
# Poissons Ratio (z) = -0.45495 0.20284
#
# Static dielectric constant tensor:
#      x y z
#    x 1.607220 0.000000 0.000000 
#    y 0.000000 1.589580 0.000000 
#    z 0.000000 0.000000 1.562180 
# 
# From -- ./inp_files/29626.got.cif
#   From: 2010.05.17/outbox.cif.g08.bks.cpg/sg51_15_cif.got.tgz:29626.got - 2010.06.03 11:52:47.
