data_PCOD9404365
_publ_section_title
;
Structure prediction by ZEFSAII (Michael W. Deem and Ramdas Pophale) SiO2 
 PCOD9404365
Probable space group: P M M A
;
_chemical_formula_sum "Si O2"
_cell_formula_units_Z 64
_cell_length_a 15.547852
_cell_length_b 21.329091
_cell_length_c 9.279457
_cell_angle_alpha 90.000000
_cell_angle_beta 90.000000
_cell_angle_gamma 90.000000
_cell_volume 3077.267915
_symmetry_space_group_name_H-M "P M M A"
_symmetry_group_IT_number 51
_symmetry_cell_setting 'orthorhombic'
loop_
_space_group_symop_operation_xyz
x,y,z
1/2-x,-y,z
1/2+x,-y,-z
-x,y,-z
-x,-y,-z
1/2+x,y,-z
1/2-x,y,z
x,-y,z
loop_
_atom_site_type_symbol
_atom_site_label
_atom_site_fract_x
_atom_site_fract_y
_atom_site_fract_z
Si Si1 0.644230 0.312411 0.076611
Si Si2 0.407800 0.069161 0.922217
Si Si3 0.907691 0.069525 0.421820
Si Si4 0.597571 0.429917 0.555830
Si Si5 0.851441 0.190759 0.586012
Si Si6 0.646051 0.570742 0.884310
Si Si7 0.148242 0.810133 0.091000
Si Si8 0.649251 0.694589 0.400770
O O1 0.750000 0.312663 0.078751
O O2 0.612187 0.309232 0.240320
O O3 0.618718 0.375753 0.994881
O O4 0.614161 0.251316 0.989605
O O5 0.415841 0.077811 0.750253
O O6 0.367334 0.000000 0.945748
O O7 0.500000 0.067374 0.000000
O O8 0.362792 0.127837 0.996102
O O9 0.860319 0.127801 0.493507
O O10 0.000000 0.069035 0.500000
O O11 0.868704 0.000000 0.446236
O O12 0.500000 0.429134 0.500000
O O13 0.633253 0.500000 0.525578
O O14 0.604674 0.420558 0.727302
O O15 0.642811 0.372241 0.477858
O O16 0.750000 0.203030 0.603523
O O17 0.888250 0.182930 0.747249
O O18 0.888767 0.250126 0.499604
O O19 0.750000 0.575338 0.864950
O O20 0.627146 0.500000 0.935288
O O21 0.250000 0.799994 0.103837
O O22 0.750000 0.709967 0.381977
#
# Coordination Sequence:
#
# PCOD9404365 Si02
#       8
#     8   8   8   8   8   8   8   8
#     4   9  18  33  54  80 107 134 171 220 266 310
#     4  10  21  37  56  78 106 139 177 221 265 313
#     4  10  21  37  57  80 108 143 181 222 268 318
#     4  10  21  36  53  76 107 141 177 217 262 314
#     4  10  21  36  56  82 110 141 178 221 268 318
#     4   9  17  32  55  79 104 138 177 215 260 316
#     4  10  20  35  55  78 108 143 176 215 264 318
#     4  10  20  35  56  80 106 137 176 222 268 316
#
# _framework density 20.797668000000002
#
# number of rings (size 3 to 8) (size 9 to 14) (size 15 to 20)
#    0.000    2.250    0.000    2.625    0.000    7.250 
#    0.000    8.125    0.000    2.250    0.000    0.000 
#    0.000    0.000    0.000    0.000    0.000    0.000 
#
# Total GULP energy -357198.546240 kJ/mol
# GULP energy per Si atom -5581.227285 kJ/mol
# Density = 2.075033 g / cm^3
# Si number density = 20.797668 Si / 1000 Ang^3
#
#
#
# Elastic Constant Matrix: (Units=GPa)
#
#
# Indices 1 2 3 4 5 6 
#
# 1 15.7695 6.5254 6.9053 0.0000 0.0000 0.0000
# 2 6.5254 180.5035 123.4466 0.0000 0.0000 0.0000
# 3 6.9053 123.4466 178.1020 0.0000 0.0000 0.0000
# 4 0.0000 0.0000 0.0000 176.3164 0.0000 0.0000
# 5 0.0000 0.0000 0.0000 0.0000 17.9604 0.0000
# 6 0.0000 0.0000 0.0000 0.0000 0.0000 -266.7557
#
#
#
# Elastic Compliance Matrix: (Units=1/GPa)
#
#
# Indices 1 2 3 4 5 6 
#
# 1 0.064642 -0.001184 -0.001686 0.000000 0.000000 0.000000
# 2 -0.001184 0.010555 -0.007270 0.000000 0.000000 0.000000
# 3 -0.001686 -0.007270 0.010719 0.000000 0.000000 0.000000
# 4 0.000000 0.000000 0.000000 0.005672 0.000000 0.000000
# 5 0.000000 0.000000 0.000000 0.000000 0.055678 0.000000
# 6 0.000000 0.000000 0.000000 0.000000 0.000000 -0.003749
#
#
# Mechanical properties :
#
#
# Convention : Reuss Voigt Hill
#
# Bulk Modulus (GPa) = 15.23547 72.01442 43.62495
# Shear Modulus (GPa) = 26.92895 1.33741 14.13318
#
# Velocity S-wave (km/s) = 3.60225 0.80278 2.60966
# Velocity P-wave (km/s) = 4.96417 5.96327 5.48651
#
# Compressibility (1/GPa) = 0.06563631
#
# Stress axis : x y z
#
# Youngs Moduli (GPa) = 15.46993 94.74468 93.29258
#
# Poissons Ratio (x) = 0.11219 0.15725
# Poissons Ratio (y) = 0.01832 0.67822
# Poissons Ratio (z) = 0.02607 0.68877
#
# Static dielectric constant tensor:
#      x y z
#    x 1.779290 0.000000 0.000000 
#    y 0.000000 1.743760 0.000000 
#    z 0.000000 0.000000 1.724110 
# 
# From -- ./inp_files/11222.got.cif
#   From: 2010.05.17/outbox.cif.g08.bks.cpg/sg51_6_cif.got.tgz:11222.got - 2010.06.03 11:52:47.
