data_PCOD9404863
_publ_section_title
;
Structure prediction by ZEFSAII (Michael W. Deem and Ramdas Pophale) SiO2 
 PCOD9404863
Probable space group: P M M A
;
_chemical_formula_sum "Si O2"
_cell_formula_units_Z 48
_cell_length_a 18.886726
_cell_length_b 9.113377
_cell_length_c 14.864534
_cell_angle_alpha 90.000000
_cell_angle_beta 90.000000
_cell_angle_gamma 90.000000
_cell_volume 2558.511156
_symmetry_space_group_name_H-M "P M M A"
_symmetry_group_IT_number 51
_symmetry_cell_setting 'orthorhombic'
loop_
_space_group_symop_operation_xyz
x,y,z
1/2-x,-y,z
1/2+x,-y,-z
-x,y,-z
-x,-y,-z
1/2+x,y,-z
1/2-x,y,z
x,-y,z
loop_
_atom_site_type_symbol
_atom_site_label
_atom_site_fract_x
_atom_site_fract_y
_atom_site_fract_z
Si Si1 0.549193 0.328314 0.144327
Si Si2 0.330828 0.825409 0.971567
Si Si3 0.556375 0.329509 0.358082
Si Si4 0.829942 0.174030 0.480802
Si Si5 0.891801 0.675437 0.651161
Si Si6 0.400809 0.174046 0.159046
O O1 0.537253 0.500000 0.124317
O O2 0.612680 0.263374 0.086387
O O3 0.566081 0.316419 0.250700
O O4 0.476910 0.238717 0.129493
O O5 0.250000 0.785437 0.950623
O O6 0.339971 0.000000 0.954741
O O7 0.347339 0.801639 0.076899
O O8 0.566922 0.500000 0.384057
O O9 0.611343 0.231738 0.411838
O O10 0.473971 0.292581 0.375094
O O11 0.750000 0.204821 0.448649
O O12 0.843188 0.254799 0.575210
O O13 0.837225 0.000000 0.493359
O O14 0.884488 0.500000 0.655854
O O15 0.879779 0.745182 0.749043
O O16 0.406994 0.000000 0.175247
#
# Coordination Sequence:
#
# PCOD9404863 Si02
#       6
#     8   8   8   8   8   8
#     4  10  21  37  58  84 112 143 184 233 278 326
#     4  10  22  38  55  79 113 150 185 225 276 331
#     4   9  20  38  58  81 109 141 180 227 276 325
#     4  11  24  38  54  81 114 147 184 225 271 327
#     4  10  21  38  60  85 111 142 183 230 278 329
#     4  10  20  36  59  84 111 146 186 229 277 328
#
# _framework density 18.760909999999999
#
# number of rings (size 3 to 8) (size 9 to 14) (size 15 to 20)
#    0.000    2.000    0.000    4.000    0.000   12.333 
#    0.000    5.000    0.000    0.000    0.000    0.000 
#    0.000    0.000    0.000    0.000    0.000    0.000 
#
# Total GULP energy -268207.969884 kJ/mol
# GULP energy per Si atom -5587.666039 kJ/mol
# Density = 1.871821 g / cm^3
# Si number density = 18.760910 Si / 1000 Ang^3
#
#
#
# Elastic Constant Matrix: (Units=GPa)
#
#
# Indices 1 2 3 4 5 6 
#
# 1 24.3020 20.7453 12.2268 0.0000 0.0000 0.0000
# 2 20.7453 55.9386 17.9125 0.0000 0.0000 0.0000
# 3 12.2268 17.9125 21.0267 0.0000 0.0000 0.0000
# 4 0.0000 0.0000 0.0000 73.8607 0.0000 0.0000
# 5 0.0000 0.0000 0.0000 0.0000 0.5429 0.0000
# 6 0.0000 0.0000 0.0000 0.0000 0.0000 10.1067
#
#
#
# Elastic Compliance Matrix: (Units=1/GPa)
#
#
# Indices 1 2 3 4 5 6 
#
# 1 0.068637 -0.017429 -0.025064 0.000000 0.000000 0.000000
# 2 -0.017429 0.029008 -0.014577 0.000000 0.000000 0.000000
# 3 -0.025064 -0.014577 0.074552 0.000000 0.000000 0.000000
# 4 0.000000 0.000000 0.000000 0.013539 0.000000 0.000000
# 5 0.000000 0.000000 0.000000 0.000000 1.842023 0.000000
# 6 0.000000 0.000000 0.000000 0.000000 0.000000 0.098944
#
#
# Mechanical properties :
#
#
# Convention : Reuss Voigt Hill
#
# Bulk Modulus (GPa) = 17.22471 22.55960 19.89216
# Shear Modulus (GPa) = 2.21220 20.26090 11.23655
#
# Velocity S-wave (km/s) = 1.08707 3.28983 2.44997
# Velocity P-wave (km/s) = 3.28279 5.14602 4.31615
#
# Compressibility (1/GPa) = 0.05805614
#
# Stress axis : x y z
#
# Youngs Moduli (GPa) = 14.56938 34.47299 13.41353
#
# Poissons Ratio (x) = 0.60081 0.33620
# Poissons Ratio (y) = 0.25392 0.19553
# Poissons Ratio (z) = 0.36517 0.50253
#
# Static dielectric constant tensor:
#      x y z
#    x 1.627560 0.000000 0.000000 
#    y 0.000000 1.625460 0.000000 
#    z 0.000000 0.000000 1.639670 
# 
# From -- ./inp_files/24708.got.cif
#   From: 2010.05.17/outbox.cif.g08.bks.cpg/sg51_13_cif.got.tgz:24708.got - 2010.06.03 11:52:47.
