data_PCOD9404626
_publ_section_title
;
Structure prediction by ZEFSAII (Michael W. Deem and Ramdas Pophale) SiO2 
 PCOD9404626
Probable space group: P M M A
;
_chemical_formula_sum "Si O2"
_cell_formula_units_Z 64
_cell_length_a 8.746518
_cell_length_b 24.326201
_cell_length_c 14.976939
_cell_angle_alpha 90.000000
_cell_angle_beta 90.000000
_cell_angle_gamma 90.000000
_cell_volume 3186.636645
_symmetry_space_group_name_H-M "P M M A"
_symmetry_group_IT_number 51
_symmetry_cell_setting 'orthorhombic'
loop_
_space_group_symop_operation_xyz
x,y,z
1/2-x,-y,z
1/2+x,-y,-z
-x,y,-z
-x,-y,-z
1/2+x,y,-z
1/2-x,y,z
x,-y,z
loop_
_atom_site_type_symbol
_atom_site_label
_atom_site_fract_x
_atom_site_fract_y
_atom_site_fract_z
Si Si1 0.434525 0.165209 0.098391
Si Si2 0.930183 0.258177 0.759988
Si Si3 0.930484 0.437842 0.651416
Si Si4 0.074447 0.067011 0.407641
Si Si5 0.426962 0.324883 0.909874
Si Si6 0.936791 0.062921 0.788769
Si Si7 0.931908 0.679470 0.405056
Si Si8 0.576555 0.440386 0.159411
O O1 0.250000 0.168879 0.092744
O O2 0.481592 0.206319 0.179114
O O3 0.480011 0.104830 0.133797
O O4 0.500000 0.176132 0.000000
O O5 0.750000 0.252443 0.743020
O O6 0.969105 0.307109 0.827916
O O7 0.011978 0.277234 0.669804
O O8 0.750000 0.433819 0.633183
O O9 0.981867 0.500000 0.622467
O O10 0.010548 0.383192 0.613658
O O11 0.962895 0.435790 0.757556
O O12 0.250000 0.084733 0.409657
O O13 0.009364 0.082099 0.310162
O O14 0.000000 0.085780 0.500000
O O15 0.071233 0.000000 0.407906
O O16 0.250000 0.307547 0.899155
O O17 0.432282 0.390536 0.907826
O O18 0.500000 0.302865 0.000000
O O19 0.750000 0.062686 0.784161
O O20 0.985550 0.000000 0.803646
O O21 0.750000 0.678677 0.405977
O O22 0.000000 0.696083 0.500000
O O23 0.750000 0.437478 0.198467
O O24 0.557706 0.500000 0.117204
#
# Coordination Sequence:
#
# PCOD9404626 Si02
#       8
#     8   8   8   8   8   8   8   8
#     4  10  22  39  61  88 117 153 196 243 296 354
#     4  11  23  41  62  84 114 149 191 244 295 352
#     4  10  20  35  58  88 121 157 196 239 292 353
#     4   8  13  23  43  71 104 144 186 225 266 317
#     4  11  22  35  55  82 110 147 192 240 292 349
#     4   8  15  31  55  83 118 159 198 237 289 354
#     4  12  25  42  65  91 119 155 197 244 297 355
#     4   9  18  33  52  76 109 149 191 236 288 346
#
# _framework density 20.083870000000001
#
# number of rings (size 3 to 8) (size 9 to 14) (size 15 to 20)
#    0.000    2.125    1.250    3.375    0.000    4.000 
#    0.000    1.250    0.000    2.250    0.000    0.000 
#    0.000    0.000    0.000    0.000    0.000    0.000 
#
# Total GULP energy -356756.381085 kJ/mol
# GULP energy per Si atom -5574.318454 kJ/mol
# Density = 2.003816 g / cm^3
# Si number density = 20.083870 Si / 1000 Ang^3
#
#
#
# Elastic Constant Matrix: (Units=GPa)
#
#
# Indices 1 2 3 4 5 6 
#
# 1 51.2333 30.0421 40.3183 0.0000 0.0000 0.0000
# 2 30.0421 96.4027 57.3336 0.0000 0.0000 0.0000
# 3 40.3183 57.3336 136.8104 0.0000 0.0000 0.0000
# 4 0.0000 0.0000 0.0000 14.9663 0.0000 0.0000
# 5 0.0000 0.0000 0.0000 0.0000 28.4600 0.0000
# 6 0.0000 0.0000 0.0000 0.0000 0.0000 11.3715
#
#
#
# Elastic Compliance Matrix: (Units=1/GPa)
#
#
# Indices 1 2 3 4 5 6 
#
# 1 0.027054 -0.004914 -0.005913 0.000000 0.000000 0.000000
# 2 -0.004914 0.014709 -0.004716 0.000000 0.000000 0.000000
# 3 -0.005913 -0.004716 0.011029 0.000000 0.000000 0.000000
# 4 0.000000 0.000000 0.000000 0.066817 0.000000 0.000000
# 5 0.000000 0.000000 0.000000 0.000000 0.035137 0.000000
# 6 0.000000 0.000000 0.000000 0.000000 0.000000 0.087939
#
#
# Mechanical properties :
#
#
# Convention : Reuss Voigt Hill
#
# Bulk Modulus (GPa) = 46.07349 59.98159 53.02754
# Shear Modulus (GPa) = 17.79320 21.40973 19.60147
#
# Velocity S-wave (km/s) = 2.97971 3.26853 3.12746
# Velocity P-wave (km/s) = 5.90158 6.64641 6.28504
#
# Compressibility (1/GPa) = 0.02170445
#
# Stress axis : x y z
#
# Youngs Moduli (GPa) = 36.96376 67.98419 90.67393
#
# Poissons Ratio (x) = 0.33406 0.53620
# Poissons Ratio (y) = 0.18163 0.42763
# Poissons Ratio (z) = 0.21858 0.32063
#
# Static dielectric constant tensor:
#      x y z
#    x 1.704320 0.000000 0.000000 
#    y 0.000000 1.762560 0.000000 
#    z 0.000000 0.000000 1.941420 
# 
# From -- ./inp_files/22200.got.cif
#   From: 2010.05.17/outbox.cif.g08.bks.cpg/sg51_12_cif.got.tgz:22200.got - 2010.06.03 11:52:47.
