data_PCOD9404661
_publ_section_title
;
Structure prediction by ZEFSAII (Michael W. Deem and Ramdas Pophale) SiO2 
 PCOD9404661
Probable space group: P M M A
;
_chemical_formula_sum "Si O2"
_cell_formula_units_Z 36
_cell_length_a 20.978920
_cell_length_b 11.280609
_cell_length_c 8.949341
_cell_angle_alpha 90.000000
_cell_angle_beta 90.000000
_cell_angle_gamma 90.000000
_cell_volume 2117.906239
_symmetry_space_group_name_H-M "P M M A"
_symmetry_group_IT_number 51
_symmetry_cell_setting 'orthorhombic'
loop_
_space_group_symop_operation_xyz
x,y,z
1/2-x,-y,z
1/2+x,-y,-z
-x,y,-z
-x,-y,-z
1/2+x,y,-z
1/2-x,y,z
x,-y,z
loop_
_atom_site_type_symbol
_atom_site_label
_atom_site_fract_x
_atom_site_fract_y
_atom_site_fract_z
Si Si1 0.066488 0.222675 0.083864
Si Si2 0.750000 0.793604 0.299181
Si Si3 0.856417 0.000000 0.807707
Si Si4 0.250000 0.000000 0.450092
Si Si5 0.250000 0.000000 0.942130
Si Si6 0.499268 0.365599 0.339112
Si Si7 0.864760 0.637999 0.181016
O O1 0.044452 0.310770 0.212991
O O2 0.100028 0.114514 0.167302
O O3 0.113712 0.288518 0.966980
O O4 0.000000 0.187745 0.000000
O O5 0.750000 0.885843 0.162345
O O6 0.811120 0.709026 0.273095
O O7 0.750000 0.880953 0.444742
O O8 0.812166 0.000000 0.659273
O O9 0.809861 0.000000 0.949751
O O10 0.500000 0.303834 0.500000
O O11 0.476624 0.500000 0.360409
O O12 0.570882 0.366157 0.277805
O O13 0.846731 0.500000 0.148276
#
# Coordination Sequence:
#
# PCOD9404661 Si02
#       7
#     8   4   4   2   2   8   8
#     4  10  20  35  60  87 115 142 187 235 280 338
#     4  11  21  40  57  81 110 148 194 232 275 332
#     4  11  21  40  56  82 109 153 192 230 277 332
#     4  10  28  38  56  76 110 158 192 230 284 328
#     4  10  20  38  60  72 104 156 186 228 272 320
#     4   9  19  35  56  84 118 151 178 222 292 346
#     4  10  20  35  61  87 111 144 186 233 280 333
#
# _framework density 16.997919
#
# number of rings (size 3 to 8) (size 9 to 14) (size 15 to 20)
#    0.000    2.000    2.222    1.333    3.111    2.667 
#    0.000    0.556    0.000    0.000    0.000    0.000 
#    0.000    0.000    0.000    0.000    0.000    0.000 
#
# Total GULP energy -200489.304681 kJ/mol
# GULP energy per Si atom -5569.147352 kJ/mol
# Density = 1.695923 g / cm^3
# Si number density = 16.997919 Si / 1000 Ang^3
#
#
#
# Elastic Constant Matrix: (Units=GPa)
#
#
# Indices 1 2 3 4 5 6 
#
# 1 62.1095 62.4718 44.4387 0.0000 0.0000 0.0000
# 2 62.4718 113.1289 46.6354 0.0000 0.0000 0.0000
# 3 44.4387 46.6354 117.2395 0.0000 0.0000 0.0000
# 4 0.0000 0.0000 0.0000 18.5457 0.0000 0.0000
# 5 0.0000 0.0000 0.0000 0.0000 10.7895 0.0000
# 6 0.0000 0.0000 0.0000 0.0000 0.0000 23.1215
#
#
#
# Elastic Compliance Matrix: (Units=1/GPa)
#
#
# Indices 1 2 3 4 5 6 
#
# 1 0.041582 -0.019694 -0.007927 0.000000 0.000000 0.000000
# 2 -0.019694 0.019901 -0.000451 0.000000 0.000000 0.000000
# 3 -0.007927 -0.000451 0.011714 0.000000 0.000000 0.000000
# 4 0.000000 0.000000 0.000000 0.053921 0.000000 0.000000
# 5 0.000000 0.000000 0.000000 0.000000 0.092683 0.000000
# 6 0.000000 0.000000 0.000000 0.000000 0.000000 0.043250
#
#
# Mechanical properties :
#
#
# Convention : Reuss Voigt Hill
#
# Bulk Modulus (GPa) = 58.64769 66.61883 62.63326
# Shear Modulus (GPa) = 15.39036 19.75348 17.57192
#
# Velocity S-wave (km/s) = 3.01229 3.41267 3.21872
# Velocity P-wave (km/s) = 6.83201 7.40310 7.12328
#
# Compressibility (1/GPa) = 0.01705097
#
# Stress axis : x y z
#
# Youngs Moduli (GPa) = 24.04913 50.24877 85.36948
#
# Poissons Ratio (x) = 0.98961 0.67674
# Poissons Ratio (y) = 0.47363 0.03852
# Poissons Ratio (z) = 0.19064 0.02268
#
# Static dielectric constant tensor:
#      x y z
#    x 1.591040 0.000000 0.000000 
#    y 0.000000 1.594560 0.000000 
#    z 0.000000 0.000000 1.564900 
# 
# From -- ./inp_files/10604.got.cif
#   From: 2010.05.17/outbox.cif.g08.bks.cpg/sg51_6_cif.got.tgz:10604.got - 2010.06.03 11:52:47.
