data_PCOD9404154
_publ_section_title
;
Structure prediction by ZEFSAII (Michael W. Deem and Ramdas Pophale) SiO2 
 PCOD9404154
Probable space group: P M M A
;
_chemical_formula_sum "Si O2"
_cell_formula_units_Z 56
_cell_length_a 15.933888
_cell_length_b 9.418044
_cell_length_c 21.325666
_cell_angle_alpha 90.000000
_cell_angle_beta 90.000000
_cell_angle_gamma 90.000000
_cell_volume 3200.258637
_symmetry_space_group_name_H-M "P M M A"
_symmetry_group_IT_number 51
_symmetry_cell_setting 'orthorhombic'
loop_
_space_group_symop_operation_xyz
x,y,z
1/2-x,-y,z
1/2+x,-y,-z
-x,y,-z
-x,-y,-z
1/2+x,y,-z
1/2-x,y,z
x,-y,z
loop_
_atom_site_type_symbol
_atom_site_label
_atom_site_fract_x
_atom_site_fract_y
_atom_site_fract_z
Si Si1 0.579873 0.669540 0.804361
Si Si2 0.651824 0.333775 0.375990
Si Si3 0.750000 0.331160 0.730954
Si Si4 0.007054 0.329898 0.928611
Si Si5 0.654980 0.164865 0.136643
Si Si6 0.932233 0.834305 0.265138
Si Si7 0.750000 0.169606 0.598437
Si Si8 0.601530 0.830570 0.499653
O O1 0.563225 0.500000 0.797476
O O2 0.669225 0.699856 0.773783
O O3 0.566725 0.703474 0.878292
O O4 0.512416 0.759966 0.765845
O O5 0.750000 0.321927 0.359253
O O6 0.629663 0.500000 0.377707
O O7 0.596978 0.249910 0.325689
O O8 0.637292 0.260881 0.442698
O O9 0.750000 0.500000 0.717246
O O10 0.750000 0.248715 0.665091
O O11 0.013913 0.500000 0.930653
O O12 0.089701 0.263826 0.898211
O O13 0.000000 0.278247 0.000000
O O14 0.750000 0.202289 0.121783
O O15 0.638339 0.174937 0.211020
O O16 0.639753 0.000000 0.119776
O O17 0.947681 0.000000 0.278968
O O18 0.836103 0.202073 0.558761
O O19 0.750000 0.000000 0.608606
O O20 0.500000 0.804091 0.500000
O O21 0.611303 0.000000 0.488456
#
# Coordination Sequence:
#
# PCOD9404154 Si02
#       8
#     8   8   4   8   8   8   4   8
#     4   9  19  37  56  80 113 147 188 232 280 333
#     4  11  23  37  55  82 113 143 178 224 278 334
#     4  10  22  38  58  80 110 153 190 233 284 335
#     4   9  18  34  55  81 112 146 184 226 273 326
#     4   9  18  33  52  77 107 140 179 220 266 324
#     4  10  20  34  56  81 108 144 182 223 275 331
#     4  10  22  40  60  84 116 147 186 243 288 337
#     4  10  22  40  60  82 108 143 185 231 287 342
#
# _framework density 17.498584999999999
#
# number of rings (size 3 to 8) (size 9 to 14) (size 15 to 20)
#    0.000    2.286    0.714    1.286    2.000    4.000 
#    1.286    0.000    0.000    0.000    0.000    0.000 
#    0.000    0.000    0.000    0.000    0.000    0.000 
#
# Total GULP energy -312131.617342 kJ/mol
# GULP energy per Si atom -5573.778881 kJ/mol
# Density = 1.745876 g / cm^3
# Si number density = 17.498585 Si / 1000 Ang^3
#
#
#
# Elastic Constant Matrix: (Units=GPa)
#
#
# Indices 1 2 3 4 5 6 
#
# 1 94.5738 44.2037 64.5544 0.0000 0.0000 0.0000
# 2 44.2037 47.2037 62.9375 0.0000 0.0000 0.0000
# 3 64.5544 62.9375 145.8418 0.0000 0.0000 0.0000
# 4 0.0000 0.0000 0.0000 26.1268 0.0000 0.0000
# 5 0.0000 0.0000 0.0000 0.0000 14.5023 0.0000
# 6 0.0000 0.0000 0.0000 0.0000 0.0000 13.7126
#
#
#
# Elastic Compliance Matrix: (Units=1/GPa)
#
#
# Indices 1 2 3 4 5 6 
#
# 1 0.018986 -0.015484 -0.001722 0.000000 0.000000 0.000000
# 2 -0.015484 0.062519 -0.020126 0.000000 0.000000 0.000000
# 3 -0.001722 -0.020126 0.016304 0.000000 0.000000 0.000000
# 4 0.000000 0.000000 0.000000 0.038275 0.000000 0.000000
# 5 0.000000 0.000000 0.000000 0.000000 0.068954 0.000000
# 6 0.000000 0.000000 0.000000 0.000000 0.000000 0.072926
#
#
# Mechanical properties :
#
#
# Convention : Reuss Voigt Hill
#
# Bulk Modulus (GPa) = 43.20422 70.11228 56.65825
# Shear Modulus (GPa) = 13.87561 18.59659 16.23610
#
# Velocity S-wave (km/s) = 2.81900 3.26352 3.04937
# Velocity P-wave (km/s) = 5.94470 7.37259 6.69681
#
# Compressibility (1/GPa) = 0.02314589
#
# Stress axis : x y z
#
# Youngs Moduli (GPa) = 52.66991 15.99506 61.33280
#
# Poissons Ratio (x) = 0.24766 0.10562
# Poissons Ratio (y) = 0.81552 1.23441
# Poissons Ratio (z) = 0.09070 0.32192
#
# Static dielectric constant tensor:
#      x y z
#    x 1.600840 0.000000 0.000000 
#    y 0.000000 1.575370 0.000000 
#    z 0.000000 0.000000 1.593250 
# 
# From -- ./inp_files/33532.got.cif
#   From: 2010.05.17/outbox.cif.g08.bks.cpg/sg51_17_cif.got.tgz:33532.got - 2010.06.03 11:52:47.
