data_PCOD9404006
_publ_section_title
;
Structure prediction by ZEFSAII (Michael W. Deem and Ramdas Pophale) SiO2 
 PCOD9404006
Probable space group: P M M A
;
_chemical_formula_sum "Si O2"
_cell_formula_units_Z 56
_cell_length_a 8.771620
_cell_length_b 14.684198
_cell_length_c 24.433820
_cell_angle_alpha 90.000000
_cell_angle_beta 90.000000
_cell_angle_gamma 90.000000
_cell_volume 3147.178757
_symmetry_space_group_name_H-M "P M M A"
_symmetry_group_IT_number 51
_symmetry_cell_setting 'orthorhombic'
loop_
_space_group_symop_operation_xyz
x,y,z
1/2-x,-y,z
1/2+x,-y,-z
-x,y,-z
-x,-y,-z
1/2+x,y,-z
1/2-x,y,z
x,-y,z
loop_
_atom_site_type_symbol
_atom_site_label
_atom_site_fract_x
_atom_site_fract_y
_atom_site_fract_z
Si Si1 0.067614 0.750409 0.140311
Si Si2 0.070850 0.108505 0.941296
Si Si3 0.566630 0.245408 0.560575
Si Si4 0.431684 0.393196 0.941560
Si Si5 0.566978 0.893538 0.353065
Si Si6 0.564976 0.603705 0.647534
Si Si7 0.934550 0.243801 0.733098
O O1 0.250000 0.746035 0.138577
O O2 0.019929 0.752718 0.203668
O O3 0.010415 0.838209 0.107236
O O4 0.999846 0.665325 0.107381
O O5 0.250000 0.130466 0.941483
O O6 0.052915 0.000000 0.934913
O O7 0.000000 0.133888 0.000000
O O8 0.500000 0.246268 0.500000
O O9 0.750000 0.241247 0.559144
O O10 0.504162 0.160428 0.595607
O O11 0.521400 0.336230 0.594668
O O12 0.250000 0.382774 0.943278
O O13 0.468506 0.500000 0.934741
O O14 0.500000 0.363545 0.000000
O O15 0.750000 0.886597 0.355300
O O16 0.505877 0.840591 0.299681
O O17 0.525134 0.000000 0.352794
O O18 0.750000 0.599883 0.647715
O O19 0.508218 0.500000 0.647663
O O20 0.520858 0.664514 0.700085
O O21 0.750000 0.236407 0.729990
#
# Coordination Sequence:
#
# PCOD9404006 Si02
#       7
#     8   8   8   8   8   8   8
#     4  11  22  35  54  80 109 141 177 218 267 321
#     4  10  21  37  56  77 103 136 174 218 269 324
#     4  10  20  34  54  81 112 143 176 216 260 308
#     4  10  21  37  56  78 106 140 178 221 269 322
#     4  10  21  37  57  79 105 140 178 218 266 313
#     4   8  15  31  54  77 103 137 175 213 254 300
#     4   9  20  36  54  78 106 139 177 217 260 307
#
# _framework density 17.793714000000001
#
# number of rings (size 3 to 8) (size 9 to 14) (size 15 to 20)
#    0.000    2.286    0.000    3.429    0.000    5.714 
#    0.000    4.286    0.000   10.286    0.000    0.000 
#    0.000    0.000    0.000    0.000    0.000    0.000 
#
# Total GULP energy -312595.562303 kJ/mol
# GULP energy per Si atom -5582.063613 kJ/mol
# Density = 1.775321 g / cm^3
# Si number density = 17.793714 Si / 1000 Ang^3
#
#
#
# Elastic Constant Matrix: (Units=GPa)
#
#
# Indices 1 2 3 4 5 6 
#
# 1 42.8466 38.2113 47.9419 0.0000 0.0000 0.0000
# 2 38.2113 139.2117 86.8397 0.0000 0.0000 0.0000
# 3 47.9419 86.8397 191.9196 0.0000 0.0000 0.0000
# 4 0.0000 0.0000 0.0000 0.1405 0.0000 0.0000
# 5 0.0000 0.0000 0.0000 0.0000 30.4243 0.0000
# 6 0.0000 0.0000 0.0000 0.0000 0.0000 32.6121
#
#
#
# Elastic Compliance Matrix: (Units=1/GPa)
#
#
# Indices 1 2 3 4 5 6 
#
# 1 0.035537 -0.005875 -0.006219 0.000000 0.000000 0.000000
# 2 -0.005875 0.010979 -0.003500 0.000000 0.000000 0.000000
# 3 -0.006219 -0.003500 0.008348 0.000000 0.000000 0.000000
# 4 0.000000 0.000000 0.000000 7.116901 0.000000 0.000000
# 5 0.000000 0.000000 0.000000 0.000000 0.032869 0.000000
# 6 0.000000 0.000000 0.000000 0.000000 0.000000 0.030663
#
#
# Mechanical properties :
#
#
# Convention : Reuss Voigt Hill
#
# Bulk Modulus (GPa) = 42.23742 79.99598 61.11670
# Shear Modulus (GPa) = 0.68734 26.03437 13.36086
#
# Velocity S-wave (km/s) = 0.62219 3.82923 2.74318
# Velocity P-wave (km/s) = 4.93001 8.03777 6.66748
#
# Compressibility (1/GPa) = 0.02367569
#
# Stress axis : x y z
#
# Youngs Moduli (GPa) = 28.13977 91.07957 119.79118
#
# Poissons Ratio (x) = 0.53509 0.74497
# Poissons Ratio (y) = 0.16532 0.41931
# Poissons Ratio (z) = 0.17500 0.31881
#
# Static dielectric constant tensor:
#      x y z
#    x 1.600080 0.000000 0.000000 
#    y 0.000000 1.607920 0.000000 
#    z 0.000000 0.000000 1.577740 
# 
# From -- ./inp_files/31902.got.cif
#   From: 2010.05.17/outbox.cif.g08.bks.cpg/sg51_16_cif.got.tgz:31902.got - 2010.06.03 11:52:47.
