data_PCOD9404460
_publ_section_title
;
Structure prediction by ZEFSAII (Michael W. Deem and Ramdas Pophale) SiO2 
 PCOD9404460
Probable space group: P M M A
;
_chemical_formula_sum "Si O2"
_cell_formula_units_Z 64
_cell_length_a 7.806019
_cell_length_b 15.873429
_cell_length_c 24.550634
_cell_angle_alpha 90.000000
_cell_angle_beta 90.000000
_cell_angle_gamma 90.000000
_cell_volume 3042.027037
_symmetry_space_group_name_H-M "P M M A"
_symmetry_group_IT_number 51
_symmetry_cell_setting 'orthorhombic'
loop_
_space_group_symop_operation_xyz
x,y,z
1/2-x,-y,z
1/2+x,-y,-z
-x,y,-z
-x,-y,-z
1/2+x,y,-z
1/2-x,y,z
x,-y,z
loop_
_atom_site_type_symbol
_atom_site_label
_atom_site_fract_x
_atom_site_fract_y
_atom_site_fract_z
Si Si1 0.943133 0.634749 0.821253
Si Si2 0.043992 0.094974 0.563421
Si Si3 0.946393 0.815060 0.166146
Si Si4 0.046429 0.592519 0.699280
Si Si5 0.557708 0.601303 0.940030
Si Si6 0.546045 0.096789 0.938774
Si Si7 0.040293 0.768047 0.650406
Si Si8 0.457227 0.910114 0.732980
O O1 0.750000 0.599905 0.822605
O O2 0.027922 0.617333 0.880839
O O3 0.942345 0.735298 0.819181
O O4 0.023213 0.604703 0.764533
O O5 0.250000 0.092903 0.569622
O O6 0.984607 0.176283 0.598063
O O7 0.000000 0.104829 0.500000
O O8 0.982876 0.000000 0.579984
O O9 0.750000 0.792331 0.179416
O O10 0.994690 0.893525 0.203994
O O11 0.962851 0.841456 0.104229
O O12 0.250000 0.590735 0.689537
O O13 0.975531 0.500000 0.684593
O O14 0.979690 0.673715 0.665459
O O15 0.750000 0.635431 0.933854
O O16 0.561307 0.500000 0.944296
O O17 0.500000 0.631830 0.000000
O O18 0.750000 0.099144 0.931657
O O19 0.487054 0.000000 0.930467
O O20 0.500000 0.120392 0.000000
O O21 0.250000 0.763981 0.648881
O O22 0.986773 0.829398 0.699573
O O23 0.250000 0.912987 0.726722
O O24 0.525251 0.000000 0.714459
#
# Coordination Sequence:
#
# PCOD9404460 Si02
#       8
#     8   8   8   8   8   8   8   8
#     4  11  22  36  53  74 105 139 175 218 274 337
#     4   9  17  30  52  81 114 151 188 225 266 314
#     4  11  21  34  52  75 104 133 171 220 270 325
#     4  10  20  35  56  81 107 138 181 232 281 330
#     4   9  19  35  53  72  93 120 158 206 261 325
#     4  10  21  37  55  74  98 131 175 224 274 332
#     4   9  16  30  51  79 110 140 181 225 266 316
#     4   9  16  27  48  76 103 132 169 214 262 313
#
# _framework density 21.038602999999998
#
# number of rings (size 3 to 8) (size 9 to 14) (size 15 to 20)
#    0.000    2.250    1.250    2.250    0.000    5.000 
#    0.000    3.125    0.000    0.375    0.000    0.000 
#    0.000    0.000    0.000    0.000    0.000    0.000 
#
# Total GULP energy -356762.659089 kJ/mol
# GULP energy per Si atom -5574.416548 kJ/mol
# Density = 2.099072 g / cm^3
# Si number density = 21.038603 Si / 1000 Ang^3
#
#
#
# Elastic Constant Matrix: (Units=GPa)
#
#
# Indices 1 2 3 4 5 6 
#
# 1 30.6680 9.5421 0.5914 0.0000 0.0000 0.0000
# 2 9.5421 162.3091 66.6944 0.0000 0.0000 0.0000
# 3 0.5914 66.6944 102.0214 0.0000 0.0000 0.0000
# 4 0.0000 0.0000 0.0000 -184.5453 0.0000 0.0000
# 5 0.0000 0.0000 0.0000 0.0000 16.8427 0.0000
# 6 0.0000 0.0000 0.0000 0.0000 0.0000 5.8129
#
#
#
# Elastic Compliance Matrix: (Units=1/GPa)
#
#
# Indices 1 2 3 4 5 6 
#
# 1 0.033380 -0.002574 0.001489 0.000000 0.000000 0.000000
# 2 -0.002574 0.008623 -0.005622 0.000000 0.000000 0.000000
# 3 0.001489 -0.005622 0.013468 0.000000 0.000000 0.000000
# 4 0.000000 0.000000 0.000000 -0.005419 0.000000 0.000000
# 5 0.000000 0.000000 0.000000 0.000000 0.059373 0.000000
# 6 0.000000 0.000000 0.000000 0.000000 0.000000 0.172030
#
#
# Mechanical properties :
#
#
# Convention : Reuss Voigt Hill
#
# Bulk Modulus (GPa) = 23.77735 49.85049 36.81392
# Shear Modulus (GPa) = 16.18712 -17.83324 -0.82306
#
# Velocity S-wave (km/s) = 2.77682 -2.91459 -0.62615
# Velocity P-wave (km/s) = 4.64836 3.52417 4.12474
#
# Compressibility (1/GPa) = 0.04205684
#
# Stress axis : x y z
#
# Youngs Moduli (GPa) = 29.95847 115.97539 74.24777
#
# Poissons Ratio (x) = 0.29857 -0.11059
# Poissons Ratio (y) = 0.07713 0.41741
# Poissons Ratio (z) = -0.04462 0.65200
#
# Static dielectric constant tensor:
#      x y z
#    x 1.786760 0.000000 0.000000 
#    y 0.000000 1.777980 0.000000 
#    z 0.000000 0.000000 1.778700 
# 
# From -- ./inp_files/34978.got.cif
#   From: 2010.05.17/outbox.cif.g08.bks.cpg/sg51_18_cif.got.tgz:34978.got - 2010.06.03 11:52:47.
