data_PCOD9404983
_publ_section_title
;
Structure prediction by ZEFSAII (Michael W. Deem and Ramdas Pophale) SiO2 
 PCOD9404983
Probable space group: P M M A
;
_chemical_formula_sum "Si O2"
_cell_formula_units_Z 64
_cell_length_a 9.214717
_cell_length_b 23.690575
_cell_length_c 15.521430
_cell_angle_alpha 90.000000
_cell_angle_beta 90.000000
_cell_angle_gamma 90.000000
_cell_volume 3388.358346
_symmetry_space_group_name_H-M "P M M A"
_symmetry_group_IT_number 51
_symmetry_cell_setting 'orthorhombic'
loop_
_space_group_symop_operation_xyz
x,y,z
1/2-x,-y,z
1/2+x,-y,-z
-x,y,-z
-x,-y,-z
1/2+x,y,-z
1/2-x,y,z
x,-y,z
loop_
_atom_site_type_symbol
_atom_site_label
_atom_site_fract_x
_atom_site_fract_y
_atom_site_fract_z
Si Si1 0.080659 0.565612 0.091506
Si Si2 0.077711 0.195119 0.411393
Si Si3 0.421799 0.315529 0.332121
Si Si4 0.417648 0.236052 0.078513
Si Si5 0.076754 0.561125 0.408004
Si Si6 0.079140 0.333854 0.836036
Si Si7 0.080475 0.144211 0.226948
Si Si8 0.081360 0.067560 0.909290
O O1 0.250000 0.581569 0.084429
O O2 0.073883 0.500000 0.116326
O O3 0.997182 0.605596 0.156775
O O4 0.000000 0.571562 0.000000
O O5 0.250000 0.185904 0.419866
O O6 0.057729 0.262569 0.395353
O O7 0.031760 0.162540 0.323199
O O8 0.000000 0.178465 0.500000
O O9 0.250000 0.314164 0.305102
O O10 0.455024 0.378416 0.365939
O O11 0.531348 0.307401 0.253988
O O12 0.250000 0.246272 0.057673
O O13 0.503963 0.293595 0.094608
O O14 0.423666 0.198865 0.164619
O O15 0.500000 0.206298 0.000000
O O16 0.250000 0.560826 0.419052
O O17 0.038533 0.500000 0.365218
O O18 0.000000 0.561117 0.500000
O O19 0.250000 0.337453 0.847290
O O20 0.250000 0.126793 0.232438
O O21 0.990304 0.098461 0.172716
O O22 0.250000 0.084510 0.917483
O O23 0.074585 0.000000 0.896358
O O24 0.000000 0.078909 0.000000
#
# Coordination Sequence:
#
# PCOD9404983 Si02
#       8
#     8   8   8   8   8   8   8   8
#     4  10  21  38  58  76  98 133 177 226 282 344
#     4  10  21  38  59  85 115 154 199 251 308 359
#     4  10  20  37  55  74 108 145 185 237 291 353
#     4  11  22  38  57  81 116 153 191 235 286 344
#     4   9  18  32  52  76 101 132 171 219 281 350
#     4  12  24  36  53  78 107 140 182 231 284 342
#     4  10  21  38  60  87 121 160 203 249 295 344
#     4  10  21  37  60  93 132 171 208 246 291 345
#
# _framework density 18.888204000000002
#
# number of rings (size 3 to 8) (size 9 to 14) (size 15 to 20)
#    0.000    1.750    1.250    3.375    0.000    5.500 
#    0.000    1.250    0.000    0.375    0.000    0.000 
#    0.000    0.000    0.000    0.000    0.000    0.000 
#
# Total GULP energy -357069.707058 kJ/mol
# GULP energy per Si atom -5579.214173 kJ/mol
# Density = 1.884521 g / cm^3
# Si number density = 18.888204 Si / 1000 Ang^3
#
#
#
# Elastic Constant Matrix: (Units=GPa)
#
#
# Indices 1 2 3 4 5 6 
#
# 1 112.8307 50.0965 60.6699 0.0000 0.0000 0.0000
# 2 50.0965 75.6485 38.3392 0.0000 0.0000 0.0000
# 3 60.6699 38.3392 124.4094 0.0000 0.0000 0.0000
# 4 0.0000 0.0000 0.0000 29.2976 0.0000 0.0000
# 5 0.0000 0.0000 0.0000 0.0000 32.7471 0.0000
# 6 0.0000 0.0000 0.0000 0.0000 0.0000 97.1100
#
#
#
# Elastic Compliance Matrix: (Units=1/GPa)
#
#
# Indices 1 2 3 4 5 6 
#
# 1 0.014750 -0.007255 -0.004957 0.000000 0.000000 0.000000
# 2 -0.007255 0.019235 -0.002389 0.000000 0.000000 0.000000
# 3 -0.004957 -0.002389 0.011192 0.000000 0.000000 0.000000
# 4 0.000000 0.000000 0.000000 0.034132 0.000000 0.000000
# 5 0.000000 0.000000 0.000000 0.000000 0.030537 0.000000
# 6 0.000000 0.000000 0.000000 0.000000 0.000000 0.010298
#
#
# Mechanical properties :
#
#
# Convention : Reuss Voigt Hill
#
# Bulk Modulus (GPa) = 62.60748 67.89998 65.25373
# Shear Modulus (GPa) = 32.32679 42.74981 37.53830
#
# Velocity S-wave (km/s) = 4.14149 4.76258 4.46286
# Velocity P-wave (km/s) = 7.48916 8.14060 7.82167
#
# Compressibility (1/GPa) = 0.01597253
#
# Stress axis : x y z
#
# Youngs Moduli (GPa) = 67.79857 51.98949 89.35255
#
# Poissons Ratio (x) = 0.37720 0.44292
# Poissons Ratio (y) = 0.49190 0.21350
# Poissons Ratio (z) = 0.33607 0.12422
#
# Static dielectric constant tensor:
#      x y z
#    x 1.625370 0.000000 0.000000 
#    y 0.000000 1.696420 0.000000 
#    z 0.000000 0.000000 1.733790 
# 
# From -- ./inp_files/22402.got.cif
#   From: 2010.05.17/outbox.cif.g08.bks.cpg/sg51_12_cif.got.tgz:22402.got - 2010.06.03 11:52:47.
