data_PCOD9404833
_publ_section_title
;
Structure prediction by ZEFSAII (Michael W. Deem and Ramdas Pophale) SiO2 
 PCOD9404833
Probable space group: P M M A
;
_chemical_formula_sum "Si O2"
_cell_formula_units_Z 48
_cell_length_a 17.501163
_cell_length_b 17.920891
_cell_length_c 7.858040
_cell_angle_alpha 90.000000
_cell_angle_beta 90.000000
_cell_angle_gamma 90.000000
_cell_volume 2464.567648
_symmetry_space_group_name_H-M "P M M A"
_symmetry_group_IT_number 51
_symmetry_cell_setting 'orthorhombic'
loop_
_space_group_symop_operation_xyz
x,y,z
1/2-x,-y,z
1/2+x,-y,-z
-x,y,-z
-x,-y,-z
1/2+x,y,-z
1/2-x,y,z
x,-y,z
loop_
_atom_site_type_symbol
_atom_site_label
_atom_site_fract_x
_atom_site_fract_y
_atom_site_fract_z
Si Si1 0.835975 0.691451 0.883296
Si Si2 0.006820 0.290245 0.305050
Si Si3 0.056126 0.866301 0.742071
Si Si4 0.105183 0.914823 0.390189
Si Si5 0.165856 0.863000 0.035120
Si Si6 0.075409 0.584505 0.879514
O O1 0.750000 0.680074 0.815153
O O2 0.906369 0.693995 0.750831
O O3 0.836663 0.772767 0.971344
O O4 0.858791 0.626739 0.016006
O O5 0.000000 0.270414 0.500000
O O6 0.974950 0.216490 0.213257
O O7 0.953323 0.360935 0.268244
O O8 0.106298 0.869376 0.567872
O O9 0.980975 0.911154 0.686031
O O10 0.102641 0.893623 0.905303
O O11 0.153328 0.883471 0.232523
O O12 0.125873 0.000000 0.427005
O O13 0.250000 0.888306 0.982132
O O14 0.094763 0.500000 0.830921
O O15 0.000000 0.581965 0.000000
#
# Coordination Sequence:
#
# PCOD9404833 Si02
#       6
#     8   8   8   8   8   8
#     4  10  20  36  58  86 118 155 202 246 295 357
#     4  11  19  35  62  88 117 158 201 248 297 354
#     4  11  20  38  63  87 115 157 204 249 293 367
#     4  11  24  40  61  88 118 153 201 255 304 359
#     4  11  23  38  60  88 117 156 202 247 302 362
#     4   9  19  34  57  87 118 153 194 238 288 348
#
# _framework density 19.476032
#
# number of rings (size 3 to 8) (size 9 to 14) (size 15 to 20)
#    0.000    1.500    5.000    1.500    0.000    3.667 
#    0.000    1.667    0.000    0.000    0.000    0.000 
#    0.000    0.000    0.000    0.000    0.000    0.000 
#
# Total GULP energy -267654.634130 kJ/mol
# GULP energy per Si atom -5576.138211 kJ/mol
# Density = 1.943170 g / cm^3
# Si number density = 19.476032 Si / 1000 Ang^3
#
#
#
# Elastic Constant Matrix: (Units=GPa)
#
#
# Indices 1 2 3 4 5 6 
#
# 1 94.6760 12.4686 29.5115 0.0000 0.0000 0.0000
# 2 12.4686 94.3834 -3.3019 0.0000 0.0000 0.0000
# 3 29.5115 -3.3019 55.7795 0.0000 0.0000 0.0000
# 4 0.0000 0.0000 0.0000 16.6113 0.0000 0.0000
# 5 0.0000 0.0000 0.0000 0.0000 15.4218 0.0000
# 6 0.0000 0.0000 0.0000 0.0000 0.0000 -16.4871
#
#
#
# Elastic Compliance Matrix: (Units=1/GPa)
#
#
# Indices 1 2 3 4 5 6 
#
# 1 0.013001 -0.001962 -0.006995 0.000000 0.000000 0.000000
# 2 -0.001962 0.010913 0.001684 0.000000 0.000000 0.000000
# 3 -0.006995 0.001684 0.021728 0.000000 0.000000 0.000000
# 4 0.000000 0.000000 0.000000 0.060200 0.000000 0.000000
# 5 0.000000 0.000000 0.000000 0.000000 0.064843 0.000000
# 6 0.000000 0.000000 0.000000 0.000000 0.000000 -0.060654
#
#
# Mechanical properties :
#
#
# Convention : Reuss Voigt Hill
#
# Bulk Modulus (GPa) = 32.15747 35.79949 33.97848
# Shear Modulus (GPa) = 37.05263 16.85325 26.95294
#
# Velocity S-wave (km/s) = 4.36647 2.94485 3.72412
# Velocity P-wave (km/s) = 6.47831 5.47577 5.99802
#
# Compressibility (1/GPa) = 0.03109697
#
# Stress axis : x y z
#
# Youngs Moduli (GPa) = 76.91672 91.63193 46.02323
#
# Poissons Ratio (x) = 0.17980 0.32192
# Poissons Ratio (y) = 0.15093 -0.07751
# Poissons Ratio (z) = 0.53801 -0.15432
#
# Static dielectric constant tensor:
#      x y z
#    x 1.706670 0.000000 0.000000 
#    y 0.000000 1.694930 0.000000 
#    z 0.000000 0.000000 1.683870 
# 
# From -- ./inp_files/8268.got.cif
#   From: 2010.05.17/outbox.cif.g08.bks.cpg/sg51_5_cif.got.tgz:8268.got - 2010.06.03 11:52:47.
