data_PCOD9404268
_publ_section_title
;
Structure prediction by ZEFSAII (Michael W. Deem and Ramdas Pophale) SiO2 
 PCOD9404268
Probable space group: P M M A
;
_chemical_formula_sum "Si O2"
_cell_formula_units_Z 64
_cell_length_a 32.019307
_cell_length_b 7.725223
_cell_length_c 12.485982
_cell_angle_alpha 90.000000
_cell_angle_beta 90.000000
_cell_angle_gamma 90.000000
_cell_volume 3088.486146
_symmetry_space_group_name_H-M "P M M A"
_symmetry_group_IT_number 51
_symmetry_cell_setting 'orthorhombic'
loop_
_space_group_symop_operation_xyz
x,y,z
1/2-x,-y,z
1/2+x,-y,-z
-x,y,-z
-x,-y,-z
1/2+x,y,-z
1/2-x,y,z
x,-y,z
loop_
_atom_site_type_symbol
_atom_site_label
_atom_site_fract_x
_atom_site_fract_y
_atom_site_fract_z
Si Si1 0.297857 0.209246 0.746451
Si Si2 0.125307 0.299070 0.606858
Si Si3 0.018372 0.210290 0.383395
Si Si4 0.554570 0.799355 0.229457
Si Si5 0.124685 0.707893 0.139274
Si Si6 0.953124 0.700027 0.996223
Si Si7 0.297295 0.208765 0.990684
Si Si8 0.886156 0.299568 0.627859
O O1 0.250000 0.254499 0.722638
O O2 0.330325 0.285231 0.663615
O O3 0.301477 0.000000 0.743303
O O4 0.306754 0.265234 0.868725
O O5 0.112446 0.500000 0.598420
O O6 0.091686 0.212832 0.684942
O O7 0.126033 0.222570 0.487245
O O8 0.063734 0.288660 0.368276
O O9 0.000000 0.256916 0.500000
O O10 0.986723 0.265915 0.290187
O O11 0.021332 0.000000 0.380642
O O12 0.563315 0.706029 0.118120
O O13 0.548277 0.000000 0.202177
O O14 0.119524 0.500000 0.146992
O O15 0.165797 0.739186 0.069344
O O16 0.129210 0.777576 0.259982
O O17 0.082650 0.776394 0.080694
O O18 0.958508 0.500000 0.962775
O O19 0.000000 0.777707 0.000000
O O20 0.250000 0.267958 0.018428
O O21 0.296096 0.000000 0.988808
O O22 0.872232 0.500000 0.625436
#
# Coordination Sequence:
#
# PCOD9404268 Si02
#       8
#     8   8   8   8   8   8   8   8
#     4   9  19  37  60  84 111 141 172 214 271 330
#     4  11  22  35  54  81 109 139 179 222 266 318
#     4  10  20  35  53  76 106 141 184 228 269 315
#     4  11  22  35  54  79 109 141 178 226 274 321
#     4  10  21  37  56  80 110 146 187 228 274 327
#     4  10  21  37  56  79 111 147 184 228 275 329
#     4   9  19  37  60  85 110 138 177 224 275 331
#     4  10  22  38  55  77 108 147 187 225 268 321
#
# _framework density 20.722125999999999
#
# number of rings (size 3 to 8) (size 9 to 14) (size 15 to 20)
#    0.000    2.000    1.250    3.000    0.000    7.000 
#    0.000    1.875    0.000    3.750    0.000    0.000 
#    0.000    0.000    0.000    0.000    0.000    0.000 
#
# Total GULP energy -357452.622226 kJ/mol
# GULP energy per Si atom -5585.197222 kJ/mol
# Density = 2.067496 g / cm^3
# Si number density = 20.722126 Si / 1000 Ang^3
#
#
#
# Elastic Constant Matrix: (Units=GPa)
#
#
# Indices 1 2 3 4 5 6 
#
# 1 106.5538 -3.3187 73.6291 0.0000 0.0000 0.0000
# 2 -3.3187 33.9669 -0.5963 0.0000 0.0000 0.0000
# 3 73.6291 -0.5963 142.3239 0.0000 0.0000 0.0000
# 4 0.0000 0.0000 0.0000 5.7409 0.0000 0.0000
# 5 0.0000 0.0000 0.0000 0.0000 37.8176 0.0000
# 6 0.0000 0.0000 0.0000 0.0000 0.0000 24.9047
#
#
#
# Elastic Compliance Matrix: (Units=1/GPa)
#
#
# Indices 1 2 3 4 5 6 
#
# 1 0.014664 0.001300 -0.007581 0.000000 0.000000 0.000000
# 2 0.001300 0.029558 -0.000548 0.000000 0.000000 0.000000
# 3 -0.007581 -0.000548 0.010946 0.000000 0.000000 0.000000
# 4 0.000000 0.000000 0.000000 0.174188 0.000000 0.000000
# 5 0.000000 0.000000 0.000000 0.000000 0.026443 0.000000
# 6 0.000000 0.000000 0.000000 0.000000 0.000000 0.040153
#
#
# Mechanical properties :
#
#
# Convention : Reuss Voigt Hill
#
# Bulk Modulus (GPa) = 24.09166 46.91922 35.50544
# Shear Modulus (GPa) = 15.45855 27.90134 21.67995
#
# Velocity S-wave (km/s) = 2.73425 3.67338 3.23804
# Velocity P-wave (km/s) = 4.64967 6.37832 5.58132
#
# Compressibility (1/GPa) = 0.04150814
#
# Stress axis : x y z
#
# Youngs Moduli (GPa) = 68.19615 33.83201 91.36090
#
# Poissons Ratio (x) = -0.04397 0.69256
# Poissons Ratio (y) = -0.08863 0.05011
# Poissons Ratio (z) = 0.51696 0.01856
#
# Static dielectric constant tensor:
#      x y z
#    x 1.708780 0.000000 0.000000 
#    y 0.000000 1.780070 0.000000 
#    z 0.000000 0.000000 1.758080 
# 
# From -- ./inp_files/19487.got.cif
#   From: 2010.05.17/outbox.cif.g08.bks.cpg/sg51_10_cif.got.tgz:19487.got - 2010.06.03 11:52:47.
