data_PCOD9404487
_publ_section_title
;
Structure prediction by ZEFSAII (Michael W. Deem and Ramdas Pophale) SiO2 
 PCOD9404487
Probable space group: P M M A
;
_chemical_formula_sum "Si O2"
_cell_formula_units_Z 64
_cell_length_a 19.077021
_cell_length_b 7.806180
_cell_length_c 20.447120
_cell_angle_alpha 90.000000
_cell_angle_beta 90.000000
_cell_angle_gamma 90.000000
_cell_volume 3044.957707
_symmetry_space_group_name_H-M "P M M A"
_symmetry_group_IT_number 51
_symmetry_cell_setting 'orthorhombic'
loop_
_space_group_symop_operation_xyz
x,y,z
1/2-x,-y,z
1/2+x,-y,-z
-x,y,-z
-x,-y,-z
1/2+x,y,-z
1/2-x,y,z
x,-y,z
loop_
_atom_site_type_symbol
_atom_site_label
_atom_site_fract_x
_atom_site_fract_y
_atom_site_fract_z
Si Si1 0.587904 0.293515 0.162955
Si Si2 0.916043 0.301193 0.636234
Si Si3 0.829493 0.207327 0.893711
Si Si4 0.421580 0.204977 0.985724
Si Si5 0.938542 0.705303 0.782024
Si Si6 0.432013 0.799025 0.593620
Si Si7 0.671587 0.798636 0.516437
Si Si8 0.829753 0.708033 0.289206
O O1 0.586254 0.500000 0.163315
O O2 0.599783 0.240015 0.088597
O O3 0.511839 0.229631 0.187896
O O4 0.645017 0.240450 0.216711
O O5 0.896437 0.500000 0.641237
O O6 0.922839 0.227372 0.709408
O O7 0.859553 0.217236 0.588779
O O8 0.993145 0.286682 0.604570
O O9 0.750000 0.269743 0.888998
O O10 0.876570 0.257858 0.832147
O O11 0.827645 0.000000 0.895915
O O12 0.867989 0.269974 0.959550
O O13 0.424695 0.000000 0.993587
O O14 0.500000 0.273053 0.000000
O O15 0.946895 0.500000 0.775481
O O16 0.385401 0.726132 0.534273
O O17 0.384429 0.778021 0.658086
O O18 0.446556 0.000000 0.581759
O O19 0.750000 0.725599 0.510476
O O20 0.676349 0.000000 0.500173
O O21 0.750000 0.761912 0.302677
O O22 0.832517 0.500000 0.292765
#
# Coordination Sequence:
#
# PCOD9404487 Si02
#       8
#     8   8   8   8   8   8   8   8
#     4  10  20  36  57  83 114 149 189 232 283 339
#     4  11  23  40  62  89 119 152 197 248 296 349
#     4  10  22  39  58  83 116 151 191 240 292 344
#     4  10  20  35  56  82 110 145 188 233 283 340
#     4  10  21  38  59  83 115 150 189 238 287 340
#     4  11  22  38  62  89 119 156 197 241 290 347
#     4  10  23  42  60  84 121 158 194 241 296 351
#     4  10  21  38  59  85 120 156 189 232 288 345
#
# _framework density 21.018355
#
# number of rings (size 3 to 8) (size 9 to 14) (size 15 to 20)
#    0.000    1.750    2.500    1.500    0.000    7.000 
#    0.000    2.500    0.000    0.000    0.000    0.000 
#    0.000    0.000    0.000    0.000    0.000    0.000 
#
# Total GULP energy -357656.766565 kJ/mol
# GULP energy per Si atom -5588.386978 kJ/mol
# Density = 2.097052 g / cm^3
# Si number density = 21.018355 Si / 1000 Ang^3
#
#
#
# Elastic Constant Matrix: (Units=GPa)
#
#
# Indices 1 2 3 4 5 6 
#
# 1 58.6624 -9.7088 18.7845 0.0000 0.0000 0.0000
# 2 -9.7088 22.3184 -10.1449 0.0000 0.0000 0.0000
# 3 18.7845 -10.1449 119.6089 0.0000 0.0000 0.0000
# 4 0.0000 0.0000 0.0000 29.2236 0.0000 0.0000
# 5 0.0000 0.0000 0.0000 0.0000 29.6070 0.0000
# 6 0.0000 0.0000 0.0000 0.0000 0.0000 40.9877
#
#
#
# Elastic Compliance Matrix: (Units=1/GPa)
#
#
# Indices 1 2 3 4 5 6 
#
# 1 0.018996 0.007184 -0.002374 0.000000 0.000000 0.000000
# 2 0.007184 0.049320 0.003055 0.000000 0.000000 0.000000
# 3 -0.002374 0.003055 0.008993 0.000000 0.000000 0.000000
# 4 0.000000 0.000000 0.000000 0.034219 0.000000 0.000000
# 5 0.000000 0.000000 0.000000 0.000000 0.033776 0.000000
# 6 0.000000 0.000000 0.000000 0.000000 0.000000 0.024398
#
#
# Mechanical properties :
#
#
# Convention : Reuss Voigt Hill
#
# Bulk Modulus (GPa) = 10.74817 22.05015 16.39916
# Shear Modulus (GPa) = 27.02950 33.40759 30.21855
#
# Velocity S-wave (km/s) = 3.58997 3.99111 3.79584
# Velocity P-wave (km/s) = 4.72320 5.63492 5.19908
#
# Compressibility (1/GPa) = 0.09303906
#
# Stress axis : x y z
#
# Youngs Moduli (GPa) = 52.64293 20.27574 111.20362
#
# Poissons Ratio (x) = -0.14567 0.26399
# Poissons Ratio (y) = -0.37821 -0.33972
# Poissons Ratio (z) = 0.12497 -0.06194
#
# Static dielectric constant tensor:
#      x y z
#    x 1.731080 0.000000 0.000000 
#    y 0.000000 1.818880 0.000000 
#    z 0.000000 0.000000 1.737280 
# 
# From -- ./inp_files/30640.got.cif
#   From: 2010.05.17/outbox.cif.g08.bks.cpg/sg51_16_cif.got.tgz:30640.got - 2010.06.03 11:52:47.
