data_PCOD9404668
_publ_section_title
;
Structure prediction by ZEFSAII (Michael W. Deem and Ramdas Pophale) SiO2 
 PCOD9404668
Probable space group: P M M A
;
_chemical_formula_sum "Si O2"
_cell_formula_units_Z 34
_cell_length_a 27.702532
_cell_length_b 7.654426
_cell_length_c 7.695233
_cell_angle_alpha 90.000000
_cell_angle_beta 90.000000
_cell_angle_gamma 90.000000
_cell_volume 1631.750927
_symmetry_space_group_name_H-M "P M M A"
_symmetry_group_IT_number 51
_symmetry_cell_setting 'orthorhombic'
loop_
_space_group_symop_operation_xyz
x,y,z
1/2-x,-y,z
1/2+x,-y,-z
-x,y,-z
-x,-y,-z
1/2+x,y,-z
1/2-x,y,z
x,-y,z
loop_
_atom_site_type_symbol
_atom_site_label
_atom_site_fract_x
_atom_site_fract_y
_atom_site_fract_z
Si Si1 0.012219 0.797020 0.811776
Si Si2 0.589994 0.704765 0.711632
Si Si3 0.250000 0.000000 0.041003
Si Si4 0.832854 0.296372 0.998752
Si Si5 0.386863 0.209672 0.663675
O O1 0.962723 0.790235 0.704655
O O2 0.059694 0.724222 0.719991
O O3 0.024092 0.000000 0.842268
O O4 0.000000 0.716614 0.000000
O O5 0.580952 0.500000 0.723382
O O6 0.619525 0.743203 0.537196
O O7 0.620713 0.755313 0.880721
O O8 0.208148 0.155181 0.036348
O O9 0.820724 0.500000 0.957472
O O10 0.849087 0.285167 0.199537
O O11 0.384400 0.000000 0.676295
#
# Coordination Sequence:
#
# PCOD9404668 Si02
#       5
#     8   8   2   8   8
#     4  10  20  35  60  93 135 178 224 262 306 383
#     4  11  24  39  62  96 137 178 217 268 321 383
#     4  12  26  48  78  96 124 170 206 284 358 388
#     4  11  25  46  70 100 130 165 221 273 330 402
#     4  11  22  39  66  97 134 181 220 262 321 383
#
# _framework density 20.836514999999999
#
# number of rings (size 3 to 8) (size 9 to 14) (size 15 to 20)
#    0.000    1.176    3.529    2.471    3.294    5.176 
#    0.000    2.353    0.000    2.824    0.000    0.000 
#    0.000    0.000    0.000    0.000    0.000    0.000 
#
# Total GULP energy -189422.054543 kJ/mol
# GULP energy per Si atom -5571.236898 kJ/mol
# Density = 2.078909 g / cm^3
# Si number density = 20.836515 Si / 1000 Ang^3
#
#
#
# Elastic Constant Matrix: (Units=GPa)
#
#
# Indices 1 2 3 4 5 6 
#
# 1 60.9556 29.4534 -22.3010 0.0000 0.0000 0.0000
# 2 29.4534 78.9078 -6.1847 0.0000 0.0000 0.0000
# 3 -22.3010 -6.1847 60.4993 0.0000 0.0000 0.0000
# 4 0.0000 0.0000 0.0000 -8.8759 0.0000 0.0000
# 5 0.0000 0.0000 0.0000 0.0000 -5.6943 0.0000
# 6 0.0000 0.0000 0.0000 0.0000 0.0000 -1.1652
#
#
#
# Elastic Compliance Matrix: (Units=1/GPa)
#
#
# Indices 1 2 3 4 5 6 
#
# 1 0.023094 -0.008017 0.007693 0.000000 0.000000 0.000000
# 2 -0.008017 0.015559 -0.001365 0.000000 0.000000 0.000000
# 3 0.007693 -0.001365 0.019225 0.000000 0.000000 0.000000
# 4 0.000000 0.000000 0.000000 -0.112664 0.000000 0.000000
# 5 0.000000 0.000000 0.000000 0.000000 -0.175615 0.000000
# 6 0.000000 0.000000 0.000000 0.000000 0.000000 -0.858253
#
#
# Mechanical properties :
#
#
# Convention : Reuss Voigt Hill
#
# Bulk Modulus (GPa) = 18.34844 22.47755 20.41300
# Shear Modulus (GPa) = -4.68555 10.14593 2.73019
#
# Velocity S-wave (km/s) = -1.50120 2.20904 1.14592
# Velocity P-wave (km/s) = 2.41251 4.16143 3.40130
#
# Compressibility (1/GPa) = 0.05450053
#
# Stress axis : x y z
#
# Youngs Moduli (GPa) = 43.30167 64.27339 52.01445
#
# Poissons Ratio (x) = 0.51528 -0.40016
# Poissons Ratio (y) = 0.34715 0.07098
# Poissons Ratio (z) = -0.33313 0.08771
#
# Static dielectric constant tensor:
#      x y z
#    x 1.730110 0.000000 0.000000 
#    y 0.000000 1.765820 0.000000 
#    z 0.000000 0.000000 1.773490 
# 
# From -- ./inp_files/12035.got.cif
#   From: 2010.05.17/outbox.cif.g08.bks.cpg/sg51_7_cif.got.tgz:12035.got - 2010.06.03 11:52:47.
