data_PCOD9404485
_publ_section_title
;
Structure prediction by ZEFSAII (Michael W. Deem and Ramdas Pophale) SiO2 
 PCOD9404485
Probable space group: P M M A
;
_chemical_formula_sum "Si O2"
_cell_formula_units_Z 48
_cell_length_a 10.299217
_cell_length_b 8.967325
_cell_length_c 29.835423
_cell_angle_alpha 90.000000
_cell_angle_beta 90.000000
_cell_angle_gamma 90.000000
_cell_volume 2755.493039
_symmetry_space_group_name_H-M "P M M A"
_symmetry_group_IT_number 51
_symmetry_cell_setting 'orthorhombic'
loop_
_space_group_symop_operation_xyz
x,y,z
1/2-x,-y,z
1/2+x,-y,-z
-x,y,-z
-x,-y,-z
1/2+x,y,-z
1/2-x,y,z
x,-y,z
loop_
_atom_site_type_symbol
_atom_site_label
_atom_site_fract_x
_atom_site_fract_y
_atom_site_fract_z
Si Si1 0.513609 0.322926 0.897949
Si Si2 0.400966 0.320515 0.287633
Si Si3 0.250000 0.675473 0.952010
Si Si4 0.399810 0.179669 0.538369
Si Si5 0.750000 0.177390 0.951691
Si Si6 0.904528 0.176815 0.808161
Si Si7 0.399890 0.679515 0.634696
O O1 0.537840 0.500000 0.896214
O O2 0.377036 0.297301 0.922297
O O3 0.624799 0.244675 0.927084
O O4 0.519766 0.256384 0.848164
O O5 0.250000 0.284574 0.298190
O O6 0.409591 0.500000 0.282504
O O7 0.434570 0.244223 0.240489
O O8 0.498927 0.274534 0.326964
O O9 0.250000 0.500000 0.965296
O O10 0.250000 0.772504 0.996746
O O11 0.500000 0.228043 0.500000
O O12 0.250000 0.219232 0.527355
O O13 0.430817 0.249302 0.586632
O O14 0.406741 0.000000 0.541809
O O15 0.750000 0.000000 0.947459
O O16 0.750000 0.202279 0.816050
O O17 0.926934 0.000000 0.808751
O O18 0.250000 0.718924 0.645912
O O19 0.406415 0.500000 0.630770
#
# Coordination Sequence:
#
# PCOD9404485 Si02
#       7
#     8   8   4   8   4   8   8
#     4  11  22  39  62  83 110 147 185 226 271 322
#     4   9  18  33  53  75 100 133 174 215 259 312
#     4  10  24  42  58  84 114 144 186 228 267 322
#     4   9  18  32  49  70  99 135 172 210 255 310
#     4  12  24  38  60  88 114 146 184 222 271 328
#     4  10  20  35  56  82 110 138 177 223 268 321
#     4   9  18  33  51  73 102 135 171 214 262 311
#
# _framework density 17.419750000000001
#
# number of rings (size 3 to 8) (size 9 to 14) (size 15 to 20)
#    0.000    2.167    0.833    2.250    0.000    5.667 
#    1.500    0.000    0.000    0.000    0.000    0.000 
#    0.000    0.000    0.000    0.000    0.000    0.000 
#
# Total GULP energy -267957.213588 kJ/mol
# GULP energy per Si atom -5582.441950 kJ/mol
# Density = 1.738010 g / cm^3
# Si number density = 17.419750 Si / 1000 Ang^3
#
#
#
# Elastic Constant Matrix: (Units=GPa)
#
#
# Indices 1 2 3 4 5 6 
#
# 1 113.6456 63.8583 99.7485 0.0000 0.0000 0.0000
# 2 63.8583 53.3846 68.7949 0.0000 0.0000 0.0000
# 3 99.7485 68.7949 168.8963 0.0000 0.0000 0.0000
# 4 0.0000 0.0000 0.0000 67.5881 0.0000 0.0000
# 5 0.0000 0.0000 0.0000 0.0000 23.1079 0.0000
# 6 0.0000 0.0000 0.0000 0.0000 0.0000 -3.7164
#
#
#
# Elastic Compliance Matrix: (Units=1/GPa)
#
#
# Indices 1 2 3 4 5 6 
#
# 1 0.029885 -0.027371 -0.006501 0.000000 0.000000 0.000000
# 2 -0.027371 0.064495 -0.010105 0.000000 0.000000 0.000000
# 3 -0.006501 -0.010105 0.013877 0.000000 0.000000 0.000000
# 4 0.000000 0.000000 0.000000 0.014795 0.000000 0.000000
# 5 0.000000 0.000000 0.000000 0.000000 0.043275 0.000000
# 6 0.000000 0.000000 0.000000 0.000000 0.000000 -0.269079
#
#
# Mechanical properties :
#
#
# Convention : Reuss Voigt Hill
#
# Bulk Modulus (GPa) = 49.25562 88.96998 69.11280
# Shear Modulus (GPa) = -622.71338 24.29758 -299.20790
#
# Velocity S-wave (km/s) = -18.92753 3.73879 -13.12008
# Velocity P-wave (km/s) = 21.19744 8.35603 13.77513
#
# Compressibility (1/GPa) = 0.02030225
#
# Stress axis : x y z
#
# Youngs Moduli (GPa) = 33.46110 15.50510 72.06398
#
# Poissons Ratio (x) = 0.42438 0.46852
# Poissons Ratio (y) = 0.91585 0.72823
# Poissons Ratio (z) = 0.21755 0.15668
#
# Static dielectric constant tensor:
#      x y z
#    x 1.584270 0.000000 0.000000 
#    y 0.000000 1.579530 0.000000 
#    z 0.000000 0.000000 1.558960 
# 
# From -- ./inp_files/37231.got.cif
#   From: 2010.05.17/outbox.cif.g08.bks.cpg/sg51_19_cif.got.tgz:37231.got - 2010.06.03 11:52:47.
