data_PCOD9404184
_publ_section_title
;
Structure prediction by ZEFSAII (Michael W. Deem and Ramdas Pophale) SiO2 
 PCOD9404184
Probable space group: P M M A
;
_chemical_formula_sum "Si O2"
_cell_formula_units_Z 48
_cell_length_a 8.827038
_cell_length_b 10.060720
_cell_length_c 29.577676
_cell_angle_alpha 90.000000
_cell_angle_beta 90.000000
_cell_angle_gamma 90.000000
_cell_volume 2626.685676
_symmetry_space_group_name_H-M "P M M A"
_symmetry_group_IT_number 51
_symmetry_cell_setting 'orthorhombic'
loop_
_space_group_symop_operation_xyz
x,y,z
1/2-x,-y,z
1/2+x,-y,-z
-x,y,-z
-x,-y,-z
1/2+x,y,-z
1/2-x,y,z
x,-y,z
loop_
_atom_site_type_symbol
_atom_site_label
_atom_site_fract_x
_atom_site_fract_y
_atom_site_fract_z
Si Si1 0.431765 0.152057 0.050129
Si Si2 0.429317 0.500000 0.449977
Si Si3 0.932012 0.343756 0.125234
Si Si4 0.930832 0.845573 0.799155
Si Si5 0.432820 0.260502 0.605745
Si Si6 0.070880 0.843366 0.701928
Si Si7 0.430966 0.000000 0.549530
O O1 0.250000 0.164281 0.048730
O O2 0.500367 0.263282 0.082727
O O3 0.466705 0.000000 0.065891
O O4 0.500000 0.165386 0.000000
O O5 0.250000 0.500000 0.454719
O O6 0.500000 0.500000 0.500000
O O7 0.486162 0.376085 0.420945
O O8 0.750000 0.338795 0.123564
O O9 0.976982 0.500000 0.126111
O O10 0.990453 0.260706 0.168378
O O11 0.750000 0.837374 0.804728
O O12 0.977989 0.818882 0.747385
O O13 0.975939 0.000000 0.809116
O O14 0.250000 0.277864 0.604137
O O15 0.474306 0.241798 0.658286
O O16 0.472749 0.127657 0.578652
O O17 0.250000 0.821211 0.710873
O O18 0.054919 0.000000 0.690109
O O19 0.500000 0.000000 0.500000
O O20 0.250000 0.000000 0.544758
#
# Coordination Sequence:
#
# PCOD9404184 Si02
#       7
#     8   4   8   8   8   8   4
#     4  10  21  38  62  91 121 156 199 245 294 348
#     4  12  26  42  58  80 112 152 194 232 277 336
#     4  11  24  40  58  84 118 157 202 246 292 347
#     4  10  21  37  59  87 117 150 190 238 290 345
#     4  10  20  38  61  85 114 147 185 231 282 338
#     4   9  17  34  61  89 115 146 185 231 283 342
#     4  10  20  34  56  86 114 142 182 228 279 336
#
# _framework density 18.273980000000002
#
# number of rings (size 3 to 8) (size 9 to 14) (size 15 to 20)
#    0.000    1.833    0.833    3.250    0.000    8.333 
#    1.500    0.000    0.000    0.000    0.000    0.000 
#    0.000    0.000    0.000    0.000    0.000    0.000 
#
# Total GULP energy -268049.303993 kJ/mol
# GULP energy per Si atom -5584.360500 kJ/mol
# Density = 1.823239 g / cm^3
# Si number density = 18.273980 Si / 1000 Ang^3
#
#
#
# Elastic Constant Matrix: (Units=GPa)
#
#
# Indices 1 2 3 4 5 6 
#
# 1 60.3012 71.6339 53.2091 0.0000 0.0000 0.0000
# 2 71.6339 166.5460 96.1029 0.0000 0.0000 0.0000
# 3 53.2091 96.1029 133.9906 0.0000 0.0000 0.0000
# 4 0.0000 0.0000 0.0000 35.1161 0.0000 0.0000
# 5 0.0000 0.0000 0.0000 0.0000 36.2131 0.0000
# 6 0.0000 0.0000 0.0000 0.0000 0.0000 37.9554
#
#
#
# Elastic Compliance Matrix: (Units=1/GPa)
#
#
# Indices 1 2 3 4 5 6 
#
# 1 0.036107 -0.012380 -0.005459 0.000000 0.000000 0.000000
# 2 -0.012380 0.014489 -0.005476 0.000000 0.000000 0.000000
# 3 -0.005459 -0.005476 0.013558 0.000000 0.000000 0.000000
# 4 0.000000 0.000000 0.000000 0.028477 0.000000 0.000000
# 5 0.000000 0.000000 0.000000 0.000000 0.027614 0.000000
# 6 0.000000 0.000000 0.000000 0.000000 0.000000 0.026347
#
#
# Mechanical properties :
#
#
# Convention : Reuss Voigt Hill
#
# Bulk Modulus (GPa) = 57.06211 89.19219 73.12715
# Shear Modulus (GPa) = 25.11754 31.18305 28.15030
#
# Velocity S-wave (km/s) = 3.71144 4.13536 3.92912
# Velocity P-wave (km/s) = 7.04699 8.46852 7.79025
#
# Compressibility (1/GPa) = 0.01752476
#
# Stress axis : x y z
#
# Youngs Moduli (GPa) = 27.69521 69.01833 73.75505
#
# Poissons Ratio (x) = 0.85446 0.40263
# Poissons Ratio (y) = 0.34287 0.40386
# Poissons Ratio (z) = 0.15119 0.37792
#
# Static dielectric constant tensor:
#      x y z
#    x 1.612780 0.000000 0.000000 
#    y 0.000000 1.600240 0.000000 
#    z 0.000000 0.000000 1.615140 
# 
# From -- ./inp_files/37223.got.cif
#   From: 2010.05.17/outbox.cif.g08.bks.cpg/sg51_19_cif.got.tgz:37223.got - 2010.06.03 11:52:47.
