data_PCOD9404281
_publ_section_title
;
Structure prediction by ZEFSAII (Michael W. Deem and Ramdas Pophale) SiO2 
 PCOD9404281
Probable space group: P M M A
;
_chemical_formula_sum "Si O2"
_cell_formula_units_Z 64
_cell_length_a 9.076677
_cell_length_b 14.711291
_cell_length_c 32.152105
_cell_angle_alpha 90.000000
_cell_angle_beta 90.000000
_cell_angle_gamma 90.000000
_cell_volume 4293.258899
_symmetry_space_group_name_H-M "P M M A"
_symmetry_group_IT_number 51
_symmetry_cell_setting 'orthorhombic'
loop_
_space_group_symop_operation_xyz
x,y,z
1/2-x,-y,z
1/2+x,-y,-z
-x,y,-z
-x,-y,-z
1/2+x,y,-z
1/2-x,y,z
x,-y,z
loop_
_atom_site_type_symbol
_atom_site_label
_atom_site_fract_x
_atom_site_fract_y
_atom_site_fract_z
Si Si1 0.927433 0.101591 0.830823
Si Si2 0.426430 0.706779 0.957229
Si Si3 0.919927 0.389202 0.542290
Si Si4 0.074281 0.608058 0.120468
Si Si5 0.071028 0.289743 0.205162
Si Si6 0.572740 0.607122 0.712335
Si Si7 0.580302 0.610612 0.373393
Si Si8 0.573041 0.101192 0.078696
O O1 0.750000 0.106074 0.835411
O O2 0.973552 0.185282 0.801892
O O3 0.998455 0.113074 0.876282
O O4 0.965378 0.000000 0.815771
O O5 0.250000 0.699187 0.959505
O O6 0.487981 0.651449 0.917965
O O7 0.467075 0.812817 0.949328
O O8 0.500000 0.675382 0.000000
O O9 0.750000 0.361594 0.542239
O O10 0.923305 0.500000 0.542365
O O11 0.000000 0.359790 0.500000
O O12 0.000065 0.359004 0.584460
O O13 0.250000 0.625303 0.115130
O O14 0.052594 0.500000 0.122473
O O15 0.027828 0.654228 0.163955
O O16 0.250000 0.292784 0.206405
O O17 0.020563 0.336073 0.247757
O O18 0.750000 0.614676 0.708846
O O19 0.539532 0.500000 0.718851
O O20 0.500596 0.637514 0.669079
O O21 0.750000 0.638905 0.373290
O O22 0.576888 0.500000 0.373969
O O23 0.750000 0.103183 0.083896
O O24 0.532235 0.000000 0.063033
#
# Coordination Sequence:
#
# PCOD9404281 Si02
#       8
#     8   8   8   8   8   8   8   8
#     4   9  16  27  47  72  93 113 137 167 204 248
#     4  11  23  37  53  71  92 116 141 171 207 249
#     4   9  15  22  33  49  69  97 136 180 223 264
#     4  10  20  35  54  72  90 114 144 178 213 249
#     4   9  16  28  47  69  90 110 138 173 208 250
#     4   9  16  26  40  57  78 108 143 175 209 249
#     4   9  16  25  35  49  73 103 136 178 222 258
#     4   9  18  33  51  71  94 116 137 164 202 247
#
# _framework density 14.907092
#
# number of rings (size 3 to 8) (size 9 to 14) (size 15 to 20)
#    0.000    2.625    1.250    1.500    0.000    5.750 
#    0.000    1.250    0.000    1.500    0.000    0.000 
#    0.000    0.000    0.000    0.000    0.000    0.625 
#
# Total GULP energy -356610.315602 kJ/mol
# GULP energy per Si atom -5572.036181 kJ/mol
# Density = 1.487316 g / cm^3
# Si number density = 14.907092 Si / 1000 Ang^3
#
#
#
# Elastic Constant Matrix: (Units=GPa)
#
#
# Indices 1 2 3 4 5 6 
#
# 1 40.1315 27.5743 48.1388 0.0000 0.0000 0.0000
# 2 27.5743 57.5490 48.9773 0.0000 0.0000 0.0000
# 3 48.1388 48.9773 144.2789 0.0000 0.0000 0.0000
# 4 0.0000 0.0000 0.0000 5.6432 0.0000 0.0000
# 5 0.0000 0.0000 0.0000 0.0000 23.0934 0.0000
# 6 0.0000 0.0000 0.0000 0.0000 0.0000 12.5339
#
#
#
# Elastic Compliance Matrix: (Units=1/GPa)
#
#
# Indices 1 2 3 4 5 6 
#
# 1 0.047650 -0.013079 -0.011458 0.000000 0.000000 0.000000
# 2 -0.013079 0.028026 -0.005150 0.000000 0.000000 0.000000
# 3 -0.011458 -0.005150 0.012502 0.000000 0.000000 0.000000
# 4 0.000000 0.000000 0.000000 0.177206 0.000000 0.000000
# 5 0.000000 0.000000 0.000000 0.000000 0.043302 0.000000
# 6 0.000000 0.000000 0.000000 0.000000 0.000000 0.079783
#
#
# Mechanical properties :
#
#
# Convention : Reuss Voigt Hill
#
# Bulk Modulus (GPa) = 34.71882 54.59335 44.65608
# Shear Modulus (GPa) = 10.93024 16.07202 13.50113
#
# Velocity S-wave (km/s) = 2.71075 3.28708 3.01273
# Velocity P-wave (km/s) = 5.75658 7.14901 6.49025
#
# Compressibility (1/GPa) = 0.02880282
#
# Stress axis : x y z
#
# Youngs Moduli (GPa) = 20.98654 35.68075 79.98513
#
# Poissons Ratio (x) = 0.46668 0.91650
# Poissons Ratio (y) = 0.27449 0.41192
# Poissons Ratio (z) = 0.24047 0.18375
#
# Static dielectric constant tensor:
#      x y z
#    x 1.500100 0.000000 0.000000 
#    y 0.000000 1.496450 0.000000 
#    z 0.000000 0.000000 1.477540 
# 
# From -- ./inp_files/37608.got.cif
#   From: 2010.05.17/outbox.cif.g08.bks.cpg/sg51_19_cif.got.tgz:37608.got - 2010.06.03 11:52:47.
