data_PCOD9404411
_publ_section_title
;
Structure prediction by ZEFSAII (Michael W. Deem and Ramdas Pophale) SiO2 
 PCOD9404411
Probable space group: P M M A
;
_chemical_formula_sum "Si O2"
_cell_formula_units_Z 64
_cell_length_a 15.682866
_cell_length_b 7.999694
_cell_length_c 24.483327
_cell_angle_alpha 90.000000
_cell_angle_beta 90.000000
_cell_angle_gamma 90.000000
_cell_volume 3071.632398
_symmetry_space_group_name_H-M "P M M A"
_symmetry_group_IT_number 51
_symmetry_cell_setting 'orthorhombic'
loop_
_space_group_symop_operation_xyz
x,y,z
1/2-x,-y,z
1/2+x,-y,-z
-x,y,-z
-x,-y,-z
1/2+x,y,-z
1/2-x,y,z
x,-y,z
loop_
_atom_site_type_symbol
_atom_site_label
_atom_site_fract_x
_atom_site_fract_y
_atom_site_fract_z
Si Si1 0.057062 0.186733 0.605143
Si Si2 0.152907 0.699097 0.501286
Si Si3 0.621673 0.310169 0.620130
Si Si4 0.486620 0.796947 0.793520
Si Si5 0.488806 0.796394 0.918425
Si Si6 0.149403 0.796282 0.008866
Si Si7 0.340810 0.197290 0.260714
Si Si8 0.845015 0.698186 0.293331
O O1 0.091238 0.217015 0.544599
O O2 0.129181 0.214224 0.650195
O O3 0.980457 0.308804 0.619559
O O4 0.022486 0.000000 0.610510
O O5 0.250000 0.720495 0.520101
O O6 0.133720 0.500000 0.500232
O O7 0.146414 0.760854 0.439070
O O8 0.653393 0.500000 0.622995
O O9 0.651127 0.217853 0.674179
O O10 0.478109 0.742365 0.856079
O O11 0.575595 0.733393 0.768209
O O12 0.411602 0.741099 0.753746
O O13 0.487342 0.000000 0.792807
O O14 0.581643 0.746196 0.943260
O O15 0.489394 0.000000 0.919921
O O16 0.407156 0.746175 0.955522
O O17 0.250000 0.741040 0.011077
O O18 0.153065 0.000000 0.009440
O O19 0.250000 0.270300 0.243059
O O20 0.339603 0.000000 0.248529
O O21 0.750000 0.747815 0.276824
O O22 0.846835 0.500000 0.303371
#
# Coordination Sequence:
#
# PCOD9404411 Si02
#       8
#     8   8   8   8   8   8   8   8
#     4  12  24  38  58  84 111 141 180 228 286 343
#     4  10  22  39  57  80 109 141 181 227 276 337
#     4  11  22  38  60  82 107 144 188 230 279 339
#     4  10  20  35  55  81 114 150 188 234 286 336
#     4   8  15  26  42  70 107 145 186 227 271 327
#     4   8  13  23  41  68 106 149 187 226 272 320
#     4  10  21  36  54  79 112 148 187 235 289 341
#     4  11  24  41  60  81 108 146 189 234 284 340
#
# _framework density 20.835826999999998
#
# number of rings (size 3 to 8) (size 9 to 14) (size 15 to 20)
#    0.000    2.000    1.250    3.750    0.000    7.000 
#    0.000    3.750    0.000    0.000    0.000    1.750 
#    0.000    1.000    0.000    0.000    0.000    0.000 
#
# Total GULP energy -357224.209077 kJ/mol
# GULP energy per Si atom -5581.628267 kJ/mol
# Density = 2.078840 g / cm^3
# Si number density = 20.835827 Si / 1000 Ang^3
#
#
#
# Elastic Constant Matrix: (Units=GPa)
#
#
# Indices 1 2 3 4 5 6 
#
# 1 141.5634 8.3181 28.6362 0.0000 0.0000 0.0000
# 2 8.3181 28.5457 -0.6399 0.0000 0.0000 0.0000
# 3 28.6362 -0.6399 79.5103 0.0000 0.0000 0.0000
# 4 0.0000 0.0000 0.0000 108.2617 0.0000 0.0000
# 5 0.0000 0.0000 0.0000 0.0000 64.6483 0.0000
# 6 0.0000 0.0000 0.0000 0.0000 0.0000 -35.7674
#
#
#
# Elastic Compliance Matrix: (Units=1/GPa)
#
#
# Indices 1 2 3 4 5 6 
#
# 1 0.007771 -0.002328 -0.002817 0.000000 0.000000 0.000000
# 2 -0.002328 0.035735 0.001126 0.000000 0.000000 0.000000
# 3 -0.002817 0.001126 0.013601 0.000000 0.000000 0.000000
# 4 0.000000 0.000000 0.000000 0.009237 0.000000 0.000000
# 5 0.000000 0.000000 0.000000 0.000000 0.015468 0.000000
# 6 0.000000 0.000000 0.000000 0.000000 0.000000 -0.027958
#
#
# Mechanical properties :
#
#
# Convention : Reuss Voigt Hill
#
# Bulk Modulus (GPa) = 20.37970 35.80536 28.09253
# Shear Modulus (GPa) = 63.89980 41.64882 52.77431
#
# Velocity S-wave (km/s) = 5.54390 4.47576 5.03822
# Velocity P-wave (km/s) = 7.12615 6.62810 6.88164
#
# Compressibility (1/GPa) = 0.04906843
#
# Stress axis : x y z
#
# Youngs Moduli (GPa) = 128.68930 27.98371 73.52530
#
# Poissons Ratio (x) = 0.06513 0.20715
# Poissons Ratio (y) = 0.29953 -0.08278
# Poissons Ratio (z) = 0.36257 -0.03151
#
# Static dielectric constant tensor:
#      x y z
#    x 1.763430 0.000000 0.000000 
#    y 0.000000 1.750430 0.000000 
#    z 0.000000 0.000000 1.718080 
# 
# From -- ./inp_files/35767.got.cif
#   From: 2010.05.17/outbox.cif.g08.bks.cpg/sg51_18_cif.got.tgz:35767.got - 2010.06.03 11:52:47.
