data_PCOD9404617
_publ_section_title
;
Structure prediction by ZEFSAII (Michael W. Deem and Ramdas Pophale) SiO2 
 PCOD9404617
Probable space group: P M M A
;
_chemical_formula_sum "Si O2"
_cell_formula_units_Z 56
_cell_length_a 21.562064
_cell_length_b 14.645920
_cell_length_c 9.100700
_cell_angle_alpha 90.000000
_cell_angle_beta 90.000000
_cell_angle_gamma 90.000000
_cell_volume 2873.967063
_symmetry_space_group_name_H-M "P M M A"
_symmetry_group_IT_number 51
_symmetry_cell_setting 'orthorhombic'
loop_
_space_group_symop_operation_xyz
x,y,z
1/2-x,-y,z
1/2+x,-y,-z
-x,y,-z
-x,-y,-z
1/2+x,y,-z
1/2-x,y,z
x,-y,z
loop_
_atom_site_type_symbol
_atom_site_label
_atom_site_fract_x
_atom_site_fract_y
_atom_site_fract_z
Si Si1 0.569713 0.391570 0.558816
Si Si2 0.008874 0.893389 0.674552
Si Si3 0.155027 0.104871 0.729702
Si Si4 0.908692 0.763074 0.786054
Si Si5 0.679520 0.390463 0.333522
Si Si6 0.319381 0.264756 0.945670
Si Si7 0.180092 0.105282 0.395470
O O1 0.500000 0.375594 0.500000
O O2 0.576267 0.500000 0.585872
O O3 0.578521 0.330815 0.702074
O O4 0.623695 0.364143 0.442913
O O5 0.970277 0.825325 0.777681
O O6 0.000000 0.870585 0.500000
O O7 0.080905 0.886841 0.714115
O O8 0.990172 0.000000 0.691886
O O9 0.179394 0.171827 0.852365
O O10 0.179935 0.127813 0.567989
O O11 0.170767 0.000000 0.761526
O O12 0.861911 0.825122 0.690927
O O13 0.874339 0.741982 0.937521
O O14 0.750000 0.366167 0.385092
O O15 0.677367 0.500000 0.319217
O O16 0.670759 0.343212 0.176098
O O17 0.250000 0.277043 0.011053
O O18 0.250000 0.108310 0.339015
O O19 0.157434 0.000000 0.384331
#
# Coordination Sequence:
#
# PCOD9404617 Si02
#       7
#     8   8   8   8   8   8   8
#     4  10  23  42  65  95 124 152 197 256 309 358
#     4  10  20  37  60  86 115 150 202 253 290 342
#     4  10  21  38  59  81 113 159 204 245 287 342
#     4  12  23  36  59  87 122 158 194 239 308 359
#     4   9  20  42  68  88 114 158 205 246 293 358
#     4  11  25  40  56  86 124 157 194 240 294 359
#     4  10  20  35  58  87 117 155 204 252 298 349
#
# _framework density 19.485261999999999
#
# number of rings (size 3 to 8) (size 9 to 14) (size 15 to 20)
#    0.000    1.714    1.429    2.571    2.000    5.429 
#    0.000    1.429    0.000    2.571    0.000    0.000 
#    0.000    0.000    0.000    0.000    0.000    0.000 
#
# Total GULP energy -312863.378868 kJ/mol
# GULP energy per Si atom -5586.846051 kJ/mol
# Density = 1.944091 g / cm^3
# Si number density = 19.485262 Si / 1000 Ang^3
#
#
#
# Elastic Constant Matrix: (Units=GPa)
#
#
# Indices 1 2 3 4 5 6 
#
# 1 116.4131 30.1160 28.2224 0.0000 0.0000 0.0000
# 2 30.1160 51.1641 27.5146 0.0000 0.0000 0.0000
# 3 28.2224 27.5146 42.1267 0.0000 0.0000 0.0000
# 4 0.0000 0.0000 0.0000 -64.9820 0.0000 0.0000
# 5 0.0000 0.0000 0.0000 0.0000 30.2391 0.0000
# 6 0.0000 0.0000 0.0000 0.0000 0.0000 17.9945
#
#
#
# Elastic Compliance Matrix: (Units=1/GPa)
#
#
# Indices 1 2 3 4 5 6 
#
# 1 0.010707 -0.003769 -0.004712 0.000000 0.000000 0.000000
# 2 -0.003769 0.031453 -0.018019 0.000000 0.000000 0.000000
# 3 -0.004712 -0.018019 0.038663 0.000000 0.000000 0.000000
# 4 0.000000 0.000000 0.000000 -0.015389 0.000000 0.000000
# 5 0.000000 0.000000 0.000000 0.000000 0.033070 0.000000
# 6 0.000000 0.000000 0.000000 0.000000 0.000000 0.055573
#
#
# Mechanical properties :
#
#
# Convention : Reuss Voigt Hill
#
# Bulk Modulus (GPa) = 35.93805 42.37888 39.15847
# Shear Modulus (GPa) = 23.11067 4.90705 14.00886
#
# Velocity S-wave (km/s) = 3.44766 1.58865 2.68423
# Velocity P-wave (km/s) = 5.85937 5.01612 5.45407
#
# Compressibility (1/GPa) = 0.02782566
#
# Stress axis : x y z
#
# Youngs Moduli (GPa) = 93.39384 31.79338 25.86439
#
# Poissons Ratio (x) = 0.11982 0.12187
# Poissons Ratio (y) = 0.35197 0.46604
# Poissons Ratio (z) = 0.44006 0.57287
#
# Static dielectric constant tensor:
#      x y z
#    x 1.731390 0.000000 0.000000 
#    y 0.000000 1.676500 0.000000 
#    z 0.000000 0.000000 1.645260 
# 
# From -- ./inp_files/10980.got.cif
#   From: 2010.05.17/outbox.cif.g08.bks.cpg/sg51_6_cif.got.tgz:10980.got - 2010.06.03 11:52:47.
