data_PCOD9404334
_publ_section_title
;
Structure prediction by ZEFSAII (Michael W. Deem and Ramdas Pophale) SiO2 
 PCOD9404334
Probable space group: P M M A
;
_chemical_formula_sum "Si O2"
_cell_formula_units_Z 44
_cell_length_a 8.681439
_cell_length_b 28.388253
_cell_length_c 10.079330
_cell_angle_alpha 90.000000
_cell_angle_beta 90.000000
_cell_angle_gamma 90.000000
_cell_volume 2484.059816
_symmetry_space_group_name_H-M "P M M A"
_symmetry_group_IT_number 51
_symmetry_cell_setting 'orthorhombic'
loop_
_space_group_symop_operation_xyz
x,y,z
1/2-x,-y,z
1/2+x,-y,-z
-x,y,-z
-x,-y,-z
1/2+x,y,-z
1/2-x,y,z
x,-y,z
loop_
_atom_site_type_symbol
_atom_site_label
_atom_site_fract_x
_atom_site_fract_y
_atom_site_fract_z
Si Si1 0.064614 0.264126 0.854131
Si Si2 0.935647 0.000000 0.850824
Si Si3 0.064371 0.185280 0.644481
Si Si4 0.435482 0.081398 0.354310
Si Si5 0.934456 0.554141 0.646385
Si Si6 0.434812 0.371326 0.853076
O O1 0.250000 0.263174 0.860235
O O2 0.015487 0.224476 0.750395
O O3 0.019295 0.317568 0.816169
O O4 0.000000 0.254555 0.000000
O O5 0.980982 0.954846 0.761439
O O6 0.750000 0.000000 0.859800
O O7 0.000000 0.000000 0.000000
O O8 0.250000 0.182922 0.640164
O O9 0.000000 0.198053 0.500000
O O10 0.998794 0.133505 0.675633
O O11 0.500000 0.067660 0.500000
O O12 0.250000 0.082469 0.362880
O O13 0.750000 0.557307 0.643316
O O14 0.976719 0.500000 0.680835
O O15 0.000000 0.563707 0.500000
O O16 0.000799 0.590948 0.750627
O O17 0.250000 0.373746 0.856188
O O18 0.500000 0.380239 0.000000
#
# Coordination Sequence:
#
# PCOD9404334 Si02
#       6
#     8   4   8   8   8   8
#     4   9  20  36  54  77 106 139 175 214 260 310
#     4  10  23  38  54  78 108 138 173 214 258 308
#     4  10  20  35  54  79 107 137 174 215 258 307
#     4  10  20  36  56  79 104 136 175 214 258 308
#     4  10  21  37  56  79 107 139 175 217 266 317
#     4  10  20  36  56  79 107 140 179 220 262 313
#
# _framework density 17.712938999999999
#
# number of rings (size 3 to 8) (size 9 to 14) (size 15 to 20)
#    0.000    2.182    0.000    3.545    0.000    6.545 
#    0.000    5.455    0.000    0.000    0.000    0.000 
#    0.000    0.000    0.000    0.000    0.000    0.000 
#
# Total GULP energy -245610.837800 kJ/mol
# GULP energy per Si atom -5582.064495 kJ/mol
# Density = 1.767262 g / cm^3
# Si number density = 17.712939 Si / 1000 Ang^3
#
#
#
# Elastic Constant Matrix: (Units=GPa)
#
#
# Indices 1 2 3 4 5 6 
#
# 1 52.3019 50.4399 49.7997 0.0000 0.0000 0.0000
# 2 50.4399 156.6482 144.8302 0.0000 0.0000 0.0000
# 3 49.7997 144.8302 162.2783 0.0000 0.0000 0.0000
# 4 0.0000 0.0000 0.0000 52.0917 0.0000 0.0000
# 5 0.0000 0.0000 0.0000 0.0000 36.0243 0.0000
# 6 0.0000 0.0000 0.0000 0.0000 0.0000 21.6816
#
#
#
# Elastic Compliance Matrix: (Units=1/GPa)
#
#
# Indices 1 2 3 4 5 6 
#
# 1 0.028005 -0.006129 -0.003124 0.000000 0.000000 0.000000
# 2 -0.006129 0.037851 -0.031900 0.000000 0.000000 0.000000
# 3 -0.003124 -0.031900 0.035591 0.000000 0.000000 0.000000
# 4 0.000000 0.000000 0.000000 0.019197 0.000000 0.000000
# 5 0.000000 0.000000 0.000000 0.000000 0.027759 0.000000
# 6 0.000000 0.000000 0.000000 0.000000 0.000000 0.046122
#
#
# Mechanical properties :
#
#
# Convention : Reuss Voigt Hill
#
# Bulk Modulus (GPa) = 52.24512 95.70756 73.97634
# Shear Modulus (GPa) = 17.65456 30.37011 24.01233
#
# Velocity S-wave (km/s) = 3.16049 4.14523 3.68589
# Velocity P-wave (km/s) = 6.54811 8.77841 7.74397
#
# Compressibility (1/GPa) = 0.01914054
#
# Stress axis : x y z
#
# Youngs Moduli (GPa) = 35.70744 26.41939 28.09671
#
# Poissons Ratio (x) = 0.16193 0.08777
# Poissons Ratio (y) = 0.21886 0.89629
# Poissons Ratio (z) = 0.11155 0.84279
#
# Static dielectric constant tensor:
#      x y z
#    x 1.597900 0.000000 0.000000 
#    y 0.000000 1.605280 0.000000 
#    z 0.000000 0.000000 1.566760 
# 
# From -- ./inp_files/5831.got.cif
#   From: 2010.05.17/outbox.cif.g08.bks.cpg/sg51_3_cif.got.tgz:5831.got - 2010.06.03 11:52:47.
