data_PCOD9404073
_publ_section_title
;
Structure prediction by ZEFSAII (Michael W. Deem and Ramdas Pophale) SiO2 
 PCOD9404073
Probable space group: P M M A
;
_chemical_formula_sum "Si O2"
_cell_formula_units_Z 36
_cell_length_a 9.283200
_cell_length_b 14.603632
_cell_length_c 14.741935
_cell_angle_alpha 90.000000
_cell_angle_beta 90.000000
_cell_angle_gamma 90.000000
_cell_volume 1998.541080
_symmetry_space_group_name_H-M "P M M A"
_symmetry_group_IT_number 51
_symmetry_cell_setting 'orthorhombic'
loop_
_space_group_symop_operation_xyz
x,y,z
1/2-x,-y,z
1/2+x,-y,-z
-x,y,-z
-x,-y,-z
1/2+x,y,-z
1/2-x,y,z
x,-y,z
loop_
_atom_site_type_symbol
_atom_site_label
_atom_site_fract_x
_atom_site_fract_y
_atom_site_fract_z
Si Si1 0.079593 0.000000 0.095117
Si Si2 0.577257 0.342196 0.238397
Si Si3 0.577366 0.851487 0.752422
Si Si4 0.576499 0.000000 0.598228
Si Si5 0.422469 0.500000 0.903975
Si Si6 0.088826 0.607891 0.417236
O O1 0.047353 0.086160 0.159669
O O2 0.250000 0.000000 0.077929
O O3 0.000000 0.000000 0.000000
O O4 0.750000 0.339707 0.246292
O O5 0.510777 0.241148 0.235279
O O6 0.540585 0.409525 0.154873
O O7 0.504920 0.383951 0.327643
O O8 0.750000 0.834234 0.749285
O O9 0.541466 0.911577 0.662263
O O10 0.500000 0.000000 0.500000
O O11 0.750000 0.000000 0.585870
O O12 0.250000 0.500000 0.916491
O O13 0.500000 0.500000 0.000000
O O14 0.250000 0.646894 0.407044
O O15 0.105333 0.500000 0.436236
O O16 0.000000 0.650839 0.500000
#
# Coordination Sequence:
#
# PCOD9404073 Si02
#       6
#     4   8   8   4   4   8
#     4   9  19  37  60  82 110 143 179 231 289 344
#     4  11  22  38  58  83 116 151 190 241 287 336
#     4   9  20  38  57  82 114 150 187 227 281 346
#     4   9  19  37  60  84 116 151 187 229 276 332
#     4  10  24  42  59  80 111 150 195 242 292 344
#     4  10  20  34  55  81 109 146 187 228 274 325
#
# _framework density 18.01314
#
# number of rings (size 3 to 8) (size 9 to 14) (size 15 to 20)
#    0.000    2.222    1.111    2.667    0.000    6.222 
#    0.000    8.889    0.000    0.000    0.000    0.000 
#    0.000    0.000    0.000    0.000    0.000    0.000 
#
# Total GULP energy -200735.510744 kJ/mol
# GULP energy per Si atom -5575.986410 kJ/mol
# Density = 1.797214 g / cm^3
# Si number density = 18.013140 Si / 1000 Ang^3
#
#
#
# Elastic Constant Matrix: (Units=GPa)
#
#
# Indices 1 2 3 4 5 6 
#
# 1 84.5776 64.1385 82.6785 0.0000 0.0000 0.0000
# 2 64.1385 105.2571 61.6882 0.0000 0.0000 0.0000
# 3 82.6785 61.6882 184.7200 0.0000 0.0000 0.0000
# 4 0.0000 0.0000 0.0000 12.0345 0.0000 0.0000
# 5 0.0000 0.0000 0.0000 0.0000 36.6737 0.0000
# 6 0.0000 0.0000 0.0000 0.0000 0.0000 27.6285
#
#
#
# Elastic Compliance Matrix: (Units=1/GPa)
#
#
# Indices 1 2 3 4 5 6 
#
# 1 0.031436 -0.013564 -0.009541 0.000000 0.000000 0.000000
# 2 -0.013564 0.017665 0.000172 0.000000 0.000000 0.000000
# 3 -0.009541 0.000172 0.009626 0.000000 0.000000 0.000000
# 4 0.000000 0.000000 0.000000 0.083094 0.000000 0.000000
# 5 0.000000 0.000000 0.000000 0.000000 0.027267 0.000000
# 6 0.000000 0.000000 0.000000 0.000000 0.000000 0.036195
#
#
# Mechanical properties :
#
#
# Convention : Reuss Voigt Hill
#
# Bulk Modulus (GPa) = 77.74946 87.95168 82.85057
# Shear Modulus (GPa) = 19.57430 26.33731 22.95581
#
# Velocity S-wave (km/s) = 3.30004 3.82791 3.57374
# Velocity P-wave (km/s) = 7.60110 8.27464 7.94501
#
# Compressibility (1/GPa) = 0.01286183
#
# Stress axis : x y z
#
# Youngs Moduli (GPa) = 31.81073 56.60860 103.88001
#
# Poissons Ratio (x) = 0.76784 0.99107
# Poissons Ratio (y) = 0.43148 -0.01784
# Poissons Ratio (z) = 0.30349 -0.00972
#
# Static dielectric constant tensor:
#      x y z
#    x 1.620750 0.000000 0.000000 
#    y 0.000000 1.606420 0.000000 
#    z 0.000000 0.000000 1.607880 
# 
# From -- ./inp_files/20418.got.cif
#   From: 2010.05.17/outbox.cif.g08.bks.cpg/sg51_11_cif.got.tgz:20418.got - 2010.06.03 11:52:47.
