data_PCOD9404339
_publ_section_title
;
Structure prediction by ZEFSAII (Michael W. Deem and Ramdas Pophale) SiO2 
 PCOD9404339
Probable space group: P M M A
;
_chemical_formula_sum "Si O2"
_cell_formula_units_Z 64
_cell_length_a 8.653869
_cell_length_b 26.999338
_cell_length_c 14.616910
_cell_angle_alpha 90.000000
_cell_angle_beta 90.000000
_cell_angle_gamma 90.000000
_cell_volume 3415.222519
_symmetry_space_group_name_H-M "P M M A"
_symmetry_group_IT_number 51
_symmetry_cell_setting 'orthorhombic'
loop_
_space_group_symop_operation_xyz
x,y,z
1/2-x,-y,z
1/2+x,-y,-z
-x,y,-z
-x,-y,-z
1/2+x,y,-z
1/2-x,y,z
x,-y,z
loop_
_atom_site_type_symbol
_atom_site_label
_atom_site_fract_x
_atom_site_fract_y
_atom_site_fract_z
Si Si1 0.436212 0.554309 0.777452
Si Si2 0.934953 0.700868 0.396943
Si Si3 0.936024 0.241006 0.103402
Si Si4 0.565459 0.188510 0.397648
Si Si5 0.063518 0.055942 0.101330
Si Si6 0.066773 0.401971 0.397504
Si Si7 0.564800 0.149422 0.780197
Si Si8 0.936759 0.647669 0.102696
O O1 0.250000 0.557225 0.772185
O O2 0.477451 0.500000 0.815396
O O3 0.502459 0.559594 0.675552
O O4 0.490789 0.600916 0.837752
O O5 0.750000 0.694364 0.396180
O O6 0.971055 0.755584 0.361445
O O7 0.000000 0.702425 0.500000
O O8 0.011701 0.651621 0.358739
O O9 0.750000 0.237872 0.102408
O O10 0.978785 0.296791 0.136569
O O11 0.001328 0.196666 0.164186
O O12 0.000000 0.236203 0.000000
O O13 0.500000 0.182970 0.500000
O O14 0.750000 0.184560 0.401586
O O15 0.495157 0.152110 0.323310
O O16 0.250000 0.056804 0.097538
O O17 0.013233 0.099195 0.169379
O O18 0.015740 0.000000 0.127726
O O19 0.000000 0.065785 0.000000
O O20 0.250000 0.403287 0.403262
O O21 0.000000 0.408090 0.500000
O O22 0.750000 0.151379 0.780723
O O23 0.750000 0.646239 0.100513
O O24 0.000000 0.643279 0.000000
#
# Coordination Sequence:
#
# PCOD9404339 Si02
#       8
#     8   8   8   8   8   8   8   8
#     4  10  22  40  59  79 105 139 180 225 272 326
#     4   9  17  31  51  74 102 136 175 216 262 317
#     4  10  20  35  54  80 114 148 181 222 275 335
#     4  10  21  36  54  78 112 151 190 233 278 328
#     4   9  19  36  57  82 114 152 192 237 284 330
#     4  11  22  36  56  81 108 140 176 220 271 327
#     4  11  22  34  54  84 116 151 191 233 279 334
#     4   9  20  38  59  81 107 140 176 219 272 326
#
# _framework density 18.739626999999999
#
# number of rings (size 3 to 8) (size 9 to 14) (size 15 to 20)
#    0.000    2.125    0.000    3.750    1.750    5.250 
#    0.000    0.000    0.000    0.375    0.000    0.000 
#    0.000    0.000    0.000    0.000    0.000    0.000 
#
# Total GULP energy -357188.410026 kJ/mol
# GULP energy per Si atom -5581.068907 kJ/mol
# Density = 1.869698 g / cm^3
# Si number density = 18.739627 Si / 1000 Ang^3
#
#
#
# Elastic Constant Matrix: (Units=GPa)
#
#
# Indices 1 2 3 4 5 6 
#
# 1 34.3085 39.6462 22.4665 0.0000 0.0000 0.0000
# 2 39.6462 143.5183 83.6739 0.0000 0.0000 0.0000
# 3 22.4665 83.6739 94.5418 0.0000 0.0000 0.0000
# 4 0.0000 0.0000 0.0000 32.9693 0.0000 0.0000
# 5 0.0000 0.0000 0.0000 0.0000 26.4823 0.0000
# 6 0.0000 0.0000 0.0000 0.0000 0.0000 120.5062
#
#
#
# Elastic Compliance Matrix: (Units=1/GPa)
#
#
# Indices 1 2 3 4 5 6 
#
# 1 0.042832 -0.012186 0.000607 0.000000 0.000000 0.000000
# 2 -0.012186 0.017863 -0.012914 0.000000 0.000000 0.000000
# 3 0.000607 -0.012914 0.021863 0.000000 0.000000 0.000000
# 4 0.000000 0.000000 0.000000 0.030331 0.000000 0.000000
# 5 0.000000 0.000000 0.000000 0.000000 0.037761 0.000000
# 6 0.000000 0.000000 0.000000 0.000000 0.000000 0.008298
#
#
# Mechanical properties :
#
#
# Convention : Reuss Voigt Hill
#
# Bulk Modulus (GPa) = 29.78741 62.66020 46.22380
# Shear Modulus (GPa) = 22.81814 44.43037 33.62425
#
# Velocity S-wave (km/s) = 3.49326 4.87450 4.24050
# Velocity P-wave (km/s) = 5.67454 8.07409 6.97823
#
# Compressibility (1/GPa) = 0.03357123
#
# Stress axis : x y z
#
# Youngs Moduli (GPa) = 23.34728 55.98169 45.74034
#
# Poissons Ratio (x) = 0.68217 -0.02774
# Poissons Ratio (y) = 0.28450 0.59068
# Poissons Ratio (z) = -0.01416 0.72294
#
# Static dielectric constant tensor:
#      x y z
#    x 1.626350 0.000000 0.000000 
#    y 0.000000 1.686240 0.000000 
#    z 0.000000 0.000000 1.630380 
# 
# From -- ./inp_files/22376.got.cif
#   From: 2010.05.17/outbox.cif.g08.bks.cpg/sg51_12_cif.got.tgz:22376.got - 2010.06.03 11:52:47.
