data_PCOD9404494
_publ_section_title
;
Structure prediction by ZEFSAII (Michael W. Deem and Ramdas Pophale) SiO2 
 PCOD9404494
Probable space group: P M M A
;
_chemical_formula_sum "Si O2"
_cell_formula_units_Z 48
_cell_length_a 8.683978
_cell_length_b 10.150377
_cell_length_c 29.933130
_cell_angle_alpha 90.000000
_cell_angle_beta 90.000000
_cell_angle_gamma 90.000000
_cell_volume 2638.475217
_symmetry_space_group_name_H-M "P M M A"
_symmetry_group_IT_number 51
_symmetry_cell_setting 'orthorhombic'
loop_
_space_group_symop_operation_xyz
x,y,z
1/2-x,-y,z
1/2+x,-y,-z
-x,y,-z
-x,-y,-z
1/2+x,y,-z
1/2-x,y,z
x,-y,z
loop_
_atom_site_type_symbol
_atom_site_label
_atom_site_fract_x
_atom_site_fract_y
_atom_site_fract_z
Si Si1 0.565385 0.243517 0.104837
Si Si2 0.066338 0.154624 0.195386
Si Si3 0.063959 0.152131 0.706793
Si Si4 0.566699 0.000000 0.950151
Si Si5 0.564095 0.149880 0.450381
Si Si6 0.062010 0.347139 0.627422
Si Si7 0.064964 0.500000 0.950251
O O1 0.750000 0.232245 0.104615
O O2 0.507305 0.237584 0.155575
O O3 0.492488 0.124489 0.077368
O O4 0.518586 0.373581 0.078279
O O5 0.250000 0.168867 0.195071
O O6 0.001346 0.184634 0.244392
O O7 0.029758 0.000000 0.186578
O O8 0.250000 0.153771 0.708537
O O9 0.014805 0.259399 0.670166
O O10 0.018742 0.000000 0.695691
O O11 0.750000 0.000000 0.952281
O O12 0.500000 0.000000 0.000000
O O13 0.500000 0.170964 0.500000
O O14 0.750000 0.152896 0.451900
O O15 0.513304 0.262728 0.415967
O O16 0.520321 0.000000 0.436145
O O17 0.250000 0.349296 0.627334
O O18 0.011127 0.500000 0.627947
O O19 0.250000 0.500000 0.953690
O O20 0.000000 0.500000 0.000000
#
# Coordination Sequence:
#
# PCOD9404494 Si02
#       7
#     8   8   8   4   8   8   4
#     4  11  22  39  61  85 113 146 186 230 275 326
#     4  10  20  35  56  83 112 140 177 222 272 326
#     4   9  17  31  53  76  98 131 174 216 262 314
#     4  12  24  38  58  88 118 148 186 228 275 328
#     4   9  17  30  49  73 101 134 174 218 262 314
#     4   9  17  30  49  74 102 133 173 220 266 313
#     4  10  24  42  60  84 112 146 186 226 269 324
#
# _framework density 18.192323999999999
#
# number of rings (size 3 to 8) (size 9 to 14) (size 15 to 20)
#    0.000    2.167    0.833    2.750    0.000    5.667 
#    1.500    0.833    0.000    5.000    0.000    0.000 
#    0.000    0.000    0.000    0.000    0.000    0.000 
#
# Total GULP energy -267882.397311 kJ/mol
# GULP energy per Si atom -5580.883277 kJ/mol
# Density = 1.815092 g / cm^3
# Si number density = 18.192324 Si / 1000 Ang^3
#
#
#
# Elastic Constant Matrix: (Units=GPa)
#
#
# Indices 1 2 3 4 5 6 
#
# 1 22.2199 38.8058 34.5535 0.0000 0.0000 0.0000
# 2 38.8058 174.8200 116.8229 0.0000 0.0000 0.0000
# 3 34.5535 116.8229 166.1612 0.0000 0.0000 0.0000
# 4 0.0000 0.0000 0.0000 35.6119 0.0000 0.0000
# 5 0.0000 0.0000 0.0000 0.0000 28.8988 0.0000
# 6 0.0000 0.0000 0.0000 0.0000 0.0000 36.1290
#
#
#
# Elastic Compliance Matrix: (Units=1/GPa)
#
#
# Indices 1 2 3 4 5 6 
#
# 1 0.078357 -0.012269 -0.007669 0.000000 0.000000 0.000000
# 2 -0.012269 0.012710 -0.006385 0.000000 0.000000 0.000000
# 3 -0.007669 -0.006385 0.012102 0.000000 0.000000 0.000000
# 4 0.000000 0.000000 0.000000 0.028080 0.000000 0.000000
# 5 0.000000 0.000000 0.000000 0.000000 0.034604 0.000000
# 6 0.000000 0.000000 0.000000 0.000000 0.000000 0.027679
#
#
# Mechanical properties :
#
#
# Convention : Reuss Voigt Hill
#
# Bulk Modulus (GPa) = 19.79239 82.61838 51.20538
# Shear Modulus (GPa) = 19.01014 31.66253 25.33634
#
# Velocity S-wave (km/s) = 3.23608 4.17638 3.73593
# Velocity P-wave (km/s) = 4.98659 8.29268 6.84232
#
# Compressibility (1/GPa) = 0.05052448
#
# Stress axis : x y z
#
# Youngs Moduli (GPa) = 12.76213 78.67701 82.63137
#
# Poissons Ratio (x) = 0.96527 0.63367
# Poissons Ratio (y) = 0.15658 0.52759
# Poissons Ratio (z) = 0.09787 0.50234
#
# Static dielectric constant tensor:
#      x y z
#    x 1.611000 0.000000 0.000000 
#    y 0.000000 1.608960 0.000000 
#    z 0.000000 0.000000 1.601110 
# 
# From -- ./inp_files/37201.got.cif
#   From: 2010.05.17/outbox.cif.g08.bks.cpg/sg51_19_cif.got.tgz:37201.got - 2010.06.03 11:52:47.
