data_PCOD9404107
_publ_section_title
;
Structure prediction by ZEFSAII (Michael W. Deem and Ramdas Pophale) SiO2 
 PCOD9404107
Probable space group: P M M A
;
_chemical_formula_sum "Si O2"
_cell_formula_units_Z 64
_cell_length_a 18.707959
_cell_length_b 8.906925
_cell_length_c 21.960746
_cell_angle_alpha 90.000000
_cell_angle_beta 90.000000
_cell_angle_gamma 90.000000
_cell_volume 3659.327621
_symmetry_space_group_name_H-M "P M M A"
_symmetry_group_IT_number 51
_symmetry_cell_setting 'orthorhombic'
loop_
_space_group_symop_operation_xyz
x,y,z
1/2-x,-y,z
1/2+x,-y,-z
-x,y,-z
-x,-y,-z
1/2+x,y,-z
1/2-x,y,z
x,-y,z
loop_
_atom_site_type_symbol
_atom_site_label
_atom_site_fract_x
_atom_site_fract_y
_atom_site_fract_z
Si Si1 0.542182 0.179543 0.813205
Si Si2 0.335317 0.176050 0.393020
Si Si3 0.583570 0.320189 0.493797
Si Si4 0.333255 0.679407 0.262451
Si Si5 0.834041 0.818536 0.379447
Si Si6 0.171018 0.319343 0.873246
Si Si7 0.975985 0.681389 0.067441
Si Si8 0.107634 0.819687 0.753085
O O1 0.613465 0.251300 0.786477
O O2 0.522440 0.244530 0.879238
O O3 0.474772 0.217374 0.768970
O O4 0.548010 0.000000 0.815660
O O5 0.250000 0.188755 0.402933
O O6 0.375782 0.255955 0.447638
O O7 0.351600 0.252080 0.328403
O O8 0.353683 0.000000 0.390860
O O9 0.500000 0.280110 0.500000
O O10 0.589455 0.500000 0.492078
O O11 0.620379 0.252395 0.433772
O O12 0.250000 0.715974 0.250083
O O13 0.340348 0.500000 0.264291
O O14 0.750000 0.777578 0.383468
O O15 0.866102 0.773719 0.313720
O O16 0.838271 0.000000 0.383887
O O17 0.250000 0.271627 0.893296
O O18 0.170069 0.500000 0.869062
O O19 0.106076 0.275883 0.917572
O O20 0.153766 0.253560 0.806810
O O21 0.981965 0.500000 0.072114
O O22 0.000000 0.725712 0.000000
O O23 0.115149 0.000000 0.757077
#
# Coordination Sequence:
#
# PCOD9404107 Si02
#       8
#     8   8   8   8   8   8   8   8
#     4  10  20  34  55  83 112 143 180 223 271 319
#     4  10  21  38  60  82 104 136 178 224 275 327
#     4  11  25  40  53  76 106 139 180 224 270 319
#     4  10  21  37  58  83 111 143 179 223 274 325
#     4  10  21  37  56  78 105 138 175 216 266 323
#     4   9  17  30  50  77 106 137 177 223 267 313
#     4   9  18  34  54  76 107 149 190 226 271 324
#     4   9  19  34  53  79 108 139 173 212 263 321
#
# _framework density 17.489553000000001
#
# number of rings (size 3 to 8) (size 9 to 14) (size 15 to 20)
#    0.000    2.250    0.000    2.250    1.750    6.250 
#    0.000    0.625    0.000    2.250    0.000    0.000 
#    0.000    0.000    0.000    0.000    0.000    0.000 
#
# Total GULP energy -357249.554089 kJ/mol
# GULP energy per Si atom -5582.024283 kJ/mol
# Density = 1.744975 g / cm^3
# Si number density = 17.489553 Si / 1000 Ang^3
#
#
#
# Elastic Constant Matrix: (Units=GPa)
#
#
# Indices 1 2 3 4 5 6 
#
# 1 116.4440 49.1178 115.0048 0.0000 0.0000 0.0000
# 2 49.1178 34.9276 51.3765 0.0000 0.0000 0.0000
# 3 115.0048 51.3765 163.3822 0.0000 0.0000 0.0000
# 4 0.0000 0.0000 0.0000 -2.6944 0.0000 0.0000
# 5 0.0000 0.0000 0.0000 0.0000 21.8036 0.0000
# 6 0.0000 0.0000 0.0000 0.0000 0.0000 21.8892
#
#
#
# Elastic Compliance Matrix: (Units=1/GPa)
#
#
# Indices 1 2 3 4 5 6 
#
# 1 0.037661 -0.025988 -0.018337 0.000000 0.000000 0.000000
# 2 -0.025988 0.071205 -0.004097 0.000000 0.000000 0.000000
# 3 -0.018337 -0.004097 0.020317 0.000000 0.000000 0.000000
# 4 0.000000 0.000000 0.000000 -0.371146 0.000000 0.000000
# 5 0.000000 0.000000 0.000000 0.000000 0.045864 0.000000
# 6 0.000000 0.000000 0.000000 0.000000 0.000000 0.045685
#
#
# Mechanical properties :
#
#
# Convention : Reuss Voigt Hill
#
# Bulk Modulus (GPa) = 30.92539 82.86134 56.89336
# Shear Modulus (GPa) = -116.84636 14.81666 -51.01485
#
# Velocity S-wave (km/s) = -8.18256 2.91378 -5.40667
# Velocity P-wave (km/s) = 8.45883 7.66816 2.52499
#
# Compressibility (1/GPa) = 0.03233589
#
# Stress axis : x y z
#
# Youngs Moduli (GPa) = 26.55293 14.04404 49.22073
#
# Poissons Ratio (x) = 0.36498 0.90257
# Poissons Ratio (y) = 0.69007 0.20168
# Poissons Ratio (z) = 0.48691 0.05755
#
# Static dielectric constant tensor:
#      x y z
#    x 3.062430 0.000000 0.000000 
#    y 0.000000 1.582270 0.000000 
#    z 0.000000 0.000000 1.554910 
# 
# From -- ./inp_files/33849.got.cif
#   From: 2010.05.17/outbox.cif.g08.bks.cpg/sg51_17_cif.got.tgz:33849.got - 2010.06.03 11:52:47.
