data_PCOD9404874
_publ_section_title
;
Structure prediction by ZEFSAII (Michael W. Deem and Ramdas Pophale) SiO2 
 PCOD9404874
Probable space group: P M M A
;
_chemical_formula_sum "Si O2"
_cell_formula_units_Z 56
_cell_length_a 24.257038
_cell_length_b 7.482286
_cell_length_c 12.348419
_cell_angle_alpha 90.000000
_cell_angle_beta 90.000000
_cell_angle_gamma 90.000000
_cell_volume 2241.214535
_symmetry_space_group_name_H-M "P M M A"
_symmetry_group_IT_number 51
_symmetry_cell_setting 'orthorhombic'
loop_
_space_group_symop_operation_xyz
x,y,z
1/2-x,-y,z
1/2+x,-y,-z
-x,y,-z
-x,-y,-z
1/2+x,y,-z
1/2-x,y,z
x,-y,z
loop_
_atom_site_type_symbol
_atom_site_label
_atom_site_fract_x
_atom_site_fract_y
_atom_site_fract_z
Si Si1 0.159332 0.716671 0.637106
Si Si2 0.424303 0.708082 0.297578
Si Si3 0.808737 0.791233 0.602038
Si Si4 0.955215 0.789764 0.087721
Si Si5 0.250000 0.281951 0.805570
Si Si6 0.961541 0.701668 0.335521
Si Si7 0.370975 0.715857 0.085674
Si Si8 0.750000 0.717787 0.943812
O O1 0.156741 0.500000 0.642986
O O2 0.189195 0.768122 0.526886
O O3 0.195898 0.775951 0.738932
O O4 0.096642 0.786128 0.632301
O O5 0.438543 0.500000 0.282869
O O6 0.365820 0.712835 0.356207
O O7 0.478129 0.784283 0.357176
O O8 0.411358 0.786439 0.179302
O O9 0.750000 0.715752 0.642420
O O10 0.810005 0.000000 0.628723
O O11 0.958657 0.699218 0.204034
O O12 0.964779 0.000000 0.104340
O O13 0.896268 0.763909 0.030009
O O14 0.000000 0.721853 0.000000
O O15 0.250000 0.500000 0.805296
O O16 0.250000 0.228242 0.929995
O O17 0.960486 0.500000 0.381593
O O18 0.370495 0.500000 0.092409
O O19 0.308413 0.777935 0.103949
O O20 0.750000 0.500000 0.939413
#
# Coordination Sequence:
#
# PCOD9404874 Si02
#       8
#     8   8   8   8   4   8   8   4
#     4  10  20  37  64  89 112 147 193 246 300 353
#     4  10  22  38  60  88 118 155 198 246 296 346
#     4  11  25  43  62  85 115 155 195 240 298 357
#     4  11  22  35  55  84 122 165 200 233 280 343
#     4   9  16  30  54  85 114 144 183 235 292 339
#     4  10  21  38  61  91 121 153 195 246 299 347
#     4  10  20  36  59  85 116 154 198 247 292 340
#     4   9  18  32  54  87 118 144 187 245 296 341
#
# _framework density 24.986450999999999
#
# number of rings (size 3 to 8) (size 9 to 14) (size 15 to 20)
#    0.000    1.857    2.143    1.714    1.000    6.000 
#    0.000    3.214    0.000    0.000    0.000    0.000 
#    0.000    0.000    0.000    0.000    0.000    0.000 
#
# Total GULP energy -313143.681731 kJ/mol
# GULP energy per Si atom -5591.851459 kJ/mol
# Density = 2.492958 g / cm^3
# Si number density = 24.986451 Si / 1000 Ang^3
#
#
#
# Elastic Constant Matrix: (Units=GPa)
#
#
# Indices 1 2 3 4 5 6 
#
# 1 224.3050 9.1166 13.6585 0.0000 0.0000 0.0000
# 2 9.1166 85.5301 -8.1433 0.0000 0.0000 0.0000
# 3 13.6585 -8.1433 33.7576 0.0000 0.0000 0.0000
# 4 0.0000 0.0000 0.0000 48.5063 0.0000 0.0000
# 5 0.0000 0.0000 0.0000 0.0000 46.2805 0.0000
# 6 0.0000 0.0000 0.0000 0.0000 0.0000 6.8530
#
#
#
# Elastic Compliance Matrix: (Units=1/GPa)
#
#
# Indices 1 2 3 4 5 6 
#
# 1 0.004610 -0.000685 -0.002030 0.000000 0.000000 0.000000
# 2 -0.000685 0.012068 0.003188 0.000000 0.000000 0.000000
# 3 -0.002030 0.003188 0.031214 0.000000 0.000000 0.000000
# 4 0.000000 0.000000 0.000000 0.020616 0.000000 0.000000
# 5 0.000000 0.000000 0.000000 0.000000 0.021607 0.000000
# 6 0.000000 0.000000 0.000000 0.000000 0.000000 0.145922
#
#
# Mechanical properties :
#
#
# Convention : Reuss Voigt Hill
#
# Bulk Modulus (GPa) = 20.47579 41.42848 30.95213
# Shear Modulus (GPa) = 19.89101 42.25867 31.07484
#
# Velocity S-wave (km/s) = 2.82454 4.11696 3.53039
# Velocity P-wave (km/s) = 4.34165 6.26223 5.38820
#
# Compressibility (1/GPa) = 0.04883817
#
# Stress axis : x y z
#
# Youngs Moduli (GPa) = 216.93531 82.86163 32.03738
#
# Poissons Ratio (x) = 0.05673 0.06504
# Poissons Ratio (y) = 0.14852 -0.10214
# Poissons Ratio (z) = 0.44043 -0.26418
#
# Static dielectric constant tensor:
#      x y z
#    x 2.013810 0.000000 0.000000 
#    y 0.000000 1.956400 0.000000 
#    z 0.000000 0.000000 1.945020 
# 
# From -- ./inp_files/25824.got.cif
#   From: 2010.05.17/outbox.cif.g08.bks.cpg/sg51_13_cif.got.tgz:25824.got - 2010.06.03 11:52:47.
