data_PCOD9404327
_publ_section_title
;
Structure prediction by ZEFSAII (Michael W. Deem and Ramdas Pophale) SiO2 
 PCOD9404327
Probable space group: P M M A
;
_chemical_formula_sum "Si O2"
_cell_formula_units_Z 64
_cell_length_a 28.429484
_cell_length_b 8.992280
_cell_length_c 13.329234
_cell_angle_alpha 90.000000
_cell_angle_beta 90.000000
_cell_angle_gamma 90.000000
_cell_volume 3407.563761
_symmetry_space_group_name_H-M "P M M A"
_symmetry_group_IT_number 51
_symmetry_cell_setting 'orthorhombic'
loop_
_space_group_symop_operation_xyz
x,y,z
1/2-x,-y,z
1/2+x,-y,-z
-x,y,-z
-x,-y,-z
1/2+x,y,-z
1/2-x,y,z
x,-y,z
loop_
_atom_site_type_symbol
_atom_site_label
_atom_site_fract_x
_atom_site_fract_y
_atom_site_fract_z
Si Si1 0.195769 0.319086 0.118545
Si Si2 0.847724 0.823612 0.298460
Si Si3 0.135170 0.679567 0.311188
Si Si4 0.558365 0.177706 0.199441
Si Si5 0.949756 0.177353 0.783276
Si Si6 0.804306 0.679445 0.495471
Si Si7 0.443009 0.668469 0.008149
Si Si8 0.806897 0.672308 0.102946
O O1 0.250000 0.270867 0.130872
O O2 0.196309 0.500000 0.116852
O O3 0.164985 0.273223 0.213096
O O4 0.177913 0.274369 0.008047
O O5 0.903089 0.789078 0.283747
O O6 0.824558 0.743159 0.392478
O O7 0.824128 0.769402 0.195185
O O8 0.842151 0.000000 0.309226
O O9 0.131747 0.500000 0.309803
O O10 0.083887 0.749572 0.298784
O O11 0.163344 0.724328 0.410630
O O12 0.504883 0.218508 0.227202
O O13 0.559008 0.000000 0.180503
O O14 0.572427 0.259463 0.096353
O O15 0.933553 0.237979 0.892145
O O16 0.946091 0.000000 0.780772
O O17 0.750000 0.725494 0.509873
O O18 0.804868 0.500000 0.490838
O O19 0.425321 0.500000 0.020002
O O20 0.500000 0.663424 0.000000
O O21 0.750000 0.672864 0.100625
O O22 0.821650 0.500000 0.117410
#
# Coordination Sequence:
#
# PCOD9404327 Si02
#       8
#     8   8   8   8   8   8   8   8
#     4   8  15  30  53  80 109 140 173 215 272 335
#     4  11  23  37  56  81 109 144 191 237 279 327
#     4  10  20  35  58  86 111 139 186 236 277 327
#     4   9  20  37  53  75 111 154 192 228 275 333
#     4  10  20  35  54  77 113 154 188 224 275 336
#     4  10  22  41  63  85 111 145 185 231 285 344
#     4   9  17  30  51  79 109 144 187 232 273 318
#     4   9  18  33  53  79 111 144 177 216 273 343
#
# _framework density 18.781746999999999
#
# number of rings (size 3 to 8) (size 9 to 14) (size 15 to 20)
#    0.000    2.500    0.000    2.625    1.750    7.000 
#    0.000    0.625    0.000    5.625    0.000    0.000 
#    0.000    0.000    0.000    0.000    0.000    0.000 
#
# Total GULP energy -357267.038397 kJ/mol
# GULP energy per Si atom -5582.297475 kJ/mol
# Density = 1.873900 g / cm^3
# Si number density = 18.781747 Si / 1000 Ang^3
#
#
#
# Elastic Constant Matrix: (Units=GPa)
#
#
# Indices 1 2 3 4 5 6 
#
# 1 71.2860 21.9068 30.4204 0.0000 0.0000 0.0000
# 2 21.9068 20.5762 18.4633 0.0000 0.0000 0.0000
# 3 30.4204 18.4633 88.4538 0.0000 0.0000 0.0000
# 4 0.0000 0.0000 0.0000 8.7879 0.0000 0.0000
# 5 0.0000 0.0000 0.0000 0.0000 35.5200 0.0000
# 6 0.0000 0.0000 0.0000 0.0000 0.0000 22.8441
#
#
#
# Elastic Compliance Matrix: (Units=1/GPa)
#
#
# Indices 1 2 3 4 5 6 
#
# 1 0.021574 -0.020071 -0.003230 0.000000 0.000000 0.000000
# 2 -0.020071 0.078473 -0.009477 0.000000 0.000000 0.000000
# 3 -0.003230 -0.009477 0.014394 0.000000 0.000000 0.000000
# 4 0.000000 0.000000 0.000000 0.113792 0.000000 0.000000
# 5 0.000000 0.000000 0.000000 0.000000 0.028153 0.000000
# 6 0.000000 0.000000 0.000000 0.000000 0.000000 0.043775
#
#
# Mechanical properties :
#
#
# Convention : Reuss Voigt Hill
#
# Bulk Modulus (GPa) = 20.45633 35.76635 28.11134
# Shear Modulus (GPa) = 13.08852 20.73211 16.91031
#
# Velocity S-wave (km/s) = 2.64270 3.32602 3.00385
# Velocity P-wave (km/s) = 4.49745 5.81673 5.19911
#
# Compressibility (1/GPa) = 0.04888463
#
# Stress axis : x y z
#
# Youngs Moduli (GPa) = 46.35104 12.74327 69.47112
#
# Poissons Ratio (x) = 0.25577 0.22441
# Poissons Ratio (y) = 0.93032 0.65839
# Poissons Ratio (z) = 0.14972 0.12077
#
# Static dielectric constant tensor:
#      x y z
#    x 1.697150 0.000000 0.000000 
#    y 0.000000 1.627300 0.000000 
#    z 0.000000 0.000000 1.618170 
# 
# From -- ./inp_files/19559.got.cif
#   From: 2010.05.17/outbox.cif.g08.bks.cpg/sg51_10_cif.got.tgz:19559.got - 2010.06.03 11:52:47.
