data_PCOD9404578
_publ_section_title
;
Structure prediction by ZEFSAII (Michael W. Deem and Ramdas Pophale) SiO2 
 PCOD9404578
Probable space group: P M M A
;
_chemical_formula_sum "Si O2"
_cell_formula_units_Z 44
_cell_length_a 8.541746
_cell_length_b 15.174191
_cell_length_c 17.207875
_cell_angle_alpha 90.000000
_cell_angle_beta 90.000000
_cell_angle_gamma 90.000000
_cell_volume 2230.382978
_symmetry_space_group_name_H-M "P M M A"
_symmetry_group_IT_number 51
_symmetry_cell_setting 'orthorhombic'
loop_
_space_group_symop_operation_xyz
x,y,z
1/2-x,-y,z
1/2+x,-y,-z
-x,y,-z
-x,-y,-z
1/2+x,y,-z
1/2-x,y,z
x,-y,z
loop_
_atom_site_type_symbol
_atom_site_label
_atom_site_fract_x
_atom_site_fract_y
_atom_site_fract_z
Si Si1 0.750000 0.102307 0.170276
Si Si2 0.988292 0.599151 0.173327
Si Si3 0.935617 0.400377 0.343487
Si Si4 0.750000 0.404710 0.957037
Si Si5 0.250000 0.276409 0.899958
Si Si6 0.568771 0.104490 0.728861
Si Si7 0.933776 0.769874 0.580536
O O1 0.750000 0.172148 0.100327
O O2 0.586354 0.118363 0.217512
O O3 0.750000 0.000000 0.147405
O O4 0.917327 0.500000 0.173288
O O5 0.108667 0.596829 0.102900
O O6 0.033706 0.610513 0.263281
O O7 0.890173 0.683539 0.150074
O O8 0.750000 0.393408 0.323271
O O9 0.961782 0.500000 0.373014
O O10 0.981034 0.322096 0.400115
O O11 0.750000 0.500000 0.999148
O O12 0.750000 0.326051 0.017817
O O13 0.750000 0.123734 0.758365
O O14 0.545361 0.163638 0.652439
O O15 0.567968 0.000000 0.710688
O O16 0.750000 0.752779 0.572057
O O17 0.000000 0.806612 0.500000
#
# Coordination Sequence:
#
# PCOD9404578 Si02
#       7
#     4   8   8   4   4   8   8
#     4  10  22  40  66  93 121 163 208 255 309 367
#     4  10  20  35  57  86 118 155 197 245 301 359
#     4  10  21  38  59  81 113 160 208 250 294 351
#     4  10  22  36  56  87 127 161 194 245 311 371
#     4  12  20  34  58  86 120 154 194 244 300 376
#     4   9  20  40  64  92 124 158 201 253 311 371
#     4  11  24  38  58  87 122 159 196 248 306 361
#
# _framework density 19.727553
#
# number of rings (size 3 to 8) (size 9 to 14) (size 15 to 20)
#    0.000    1.818    0.909    3.000    3.818    2.545 
#    1.636    0.000    0.000    2.182    0.000    0.000 
#    0.000    0.000    0.000    0.000    0.000    0.000 
#
# Total GULP energy -245102.024178 kJ/mol
# GULP energy per Si atom -5570.500550 kJ/mol
# Density = 1.968265 g / cm^3
# Si number density = 19.727553 Si / 1000 Ang^3
#
#
#
# Elastic Constant Matrix: (Units=GPa)
#
#
# Indices 1 2 3 4 5 6 
#
# 1 69.5936 47.4617 19.3721 0.0000 0.0000 0.0000
# 2 47.4617 98.9697 36.7652 0.0000 0.0000 0.0000
# 3 19.3721 36.7652 45.1273 0.0000 0.0000 0.0000
# 4 0.0000 0.0000 0.0000 21.0744 0.0000 0.0000
# 5 0.0000 0.0000 0.0000 0.0000 18.5590 0.0000
# 6 0.0000 0.0000 0.0000 0.0000 0.0000 22.1538
#
#
#
# Elastic Compliance Matrix: (Units=1/GPa)
#
#
# Indices 1 2 3 4 5 6 
#
# 1 0.021396 -0.009821 -0.001184 0.000000 0.000000 0.000000
# 2 -0.009821 0.018997 -0.011261 0.000000 0.000000 0.000000
# 3 -0.001184 -0.011261 0.031842 0.000000 0.000000 0.000000
# 4 0.000000 0.000000 0.000000 0.047451 0.000000 0.000000
# 5 0.000000 0.000000 0.000000 0.000000 0.053882 0.000000
# 6 0.000000 0.000000 0.000000 0.000000 0.000000 0.045139
#
#
# Mechanical properties :
#
#
# Convention : Reuss Voigt Hill
#
# Bulk Modulus (GPa) = 36.09596 46.76539 41.43068
# Shear Modulus (GPa) = 18.35039 19.69691 19.02365
#
# Velocity S-wave (km/s) = 3.05321 3.16325 3.10872
# Velocity P-wave (km/s) = 5.54675 6.09086 5.82516
#
# Compressibility (1/GPa) = 0.02770393
#
# Stress axis : x y z
#
# Youngs Moduli (GPa) = 46.73670 52.63955 31.40508
#
# Poissons Ratio (x) = 0.51698 0.03717
# Poissons Ratio (y) = 0.45901 0.35365
# Poissons Ratio (z) = 0.05532 0.59277
#
# Static dielectric constant tensor:
#      x y z
#    x 1.741810 0.000000 0.000000 
#    y 0.000000 1.680720 0.000000 
#    z 0.000000 0.000000 1.670360 
# 
# From -- ./inp_files/27465.got.cif
#   From: 2010.05.17/outbox.cif.g08.bks.cpg/sg51_14_cif.got.tgz:27465.got - 2010.06.03 11:52:47.
