data_PCOD9404857
_publ_section_title
;
Structure prediction by ZEFSAII (Michael W. Deem and Ramdas Pophale) SiO2 
 PCOD9404857
Probable space group: P M M A
;
_chemical_formula_sum "Si O2"
_cell_formula_units_Z 48
_cell_length_a 10.033485
_cell_length_b 7.528967
_cell_length_c 29.705075
_cell_angle_alpha 90.000000
_cell_angle_beta 90.000000
_cell_angle_gamma 90.000000
_cell_volume 2243.974165
_symmetry_space_group_name_H-M "P M M A"
_symmetry_group_IT_number 51
_symmetry_cell_setting 'orthorhombic'
loop_
_space_group_symop_operation_xyz
x,y,z
1/2-x,-y,z
1/2+x,-y,-z
-x,y,-z
-x,-y,-z
1/2+x,y,-z
1/2-x,y,z
x,-y,z
loop_
_atom_site_type_symbol
_atom_site_label
_atom_site_fract_x
_atom_site_fract_y
_atom_site_fract_z
Si Si1 0.458619 0.205351 0.897756
Si Si2 0.403430 0.217524 0.280272
Si Si3 0.250000 0.783859 0.970240
Si Si4 0.598931 0.286355 0.461614
Si Si5 0.750000 0.296823 0.925358
Si Si6 0.100762 0.217030 0.797995
Si Si7 0.401707 0.787956 0.641014
O O1 0.376816 0.275680 0.940519
O O2 0.614773 0.213632 0.906941
O O3 0.422668 0.281359 0.849011
O O4 0.416748 0.000000 0.895294
O O5 0.250000 0.275941 0.280865
O O6 0.485546 0.273552 0.236051
O O7 0.490382 0.277283 0.323180
O O8 0.401208 0.000000 0.280515
O O9 0.250000 0.000000 0.975145
O O10 0.250000 0.714267 0.020625
O O11 0.500000 0.219035 0.500000
O O12 0.750000 0.219346 0.467506
O O13 0.603146 0.500000 0.465385
O O14 0.557543 0.245208 0.410537
O O15 0.750000 0.500000 0.910998
O O16 0.250000 0.267042 0.782990
O O17 0.096837 0.000000 0.798442
O O18 0.250000 0.718268 0.647238
O O19 0.393977 0.000000 0.647346
#
# Coordination Sequence:
#
# PCOD9404857 Si02
#       7
#     8   8   4   8   4   8   8
#     4  10  20  36  59  84 107 135 175 222 266 307
#     4   9  17  27  44  75 109 135 160 200 253 305
#     4  10  20  38  60  84 108 134 176 226 265 306
#     4   9  18  32  49  69  94 127 168 211 252 296
#     4  12  26  38  52  78 112 148 178 210 259 318
#     4   9  16  29  51  79 106 131 165 210 259 308
#     4   9  17  30  47  69 100 135 168 203 246 296
#
# _framework density 21.390622
#
# number of rings (size 3 to 8) (size 9 to 14) (size 15 to 20)
#    0.000    2.500    0.833    1.750    1.167    5.667 
#    0.000    0.000    0.000    1.000    0.000    0.000 
#    0.000    0.000    0.000    0.000    0.000    0.000 
#
# Total GULP energy -268031.797678 kJ/mol
# GULP energy per Si atom -5583.995785 kJ/mol
# Density = 2.134194 g / cm^3
# Si number density = 21.390622 Si / 1000 Ang^3
#
#
#
# Elastic Constant Matrix: (Units=GPa)
#
#
# Indices 1 2 3 4 5 6 
#
# 1 152.3944 -1.9990 81.1784 0.0000 0.0000 0.0000
# 2 -1.9990 53.6644 -3.2960 0.0000 0.0000 0.0000
# 3 81.1784 -3.2960 128.6452 0.0000 0.0000 0.0000
# 4 0.0000 0.0000 0.0000 65.7099 0.0000 0.0000
# 5 0.0000 0.0000 0.0000 0.0000 56.2573 0.0000
# 6 0.0000 0.0000 0.0000 0.0000 0.0000 -22.4961
#
#
#
# Elastic Compliance Matrix: (Units=1/GPa)
#
#
# Indices 1 2 3 4 5 6 
#
# 1 0.009884 -0.000015 -0.006238 0.000000 0.000000 0.000000
# 2 -0.000015 0.018664 0.000488 0.000000 0.000000 0.000000
# 3 -0.006238 0.000488 0.011722 0.000000 0.000000 0.000000
# 4 0.000000 0.000000 0.000000 0.015218 0.000000 0.000000
# 5 0.000000 0.000000 0.000000 0.000000 0.017775 0.000000
# 6 0.000000 0.000000 0.000000 0.000000 0.000000 -0.044452
#
#
# Mechanical properties :
#
#
# Convention : Reuss Voigt Hill
#
# Bulk Modulus (GPa) = 34.79465 54.05231 44.42348
# Shear Modulus (GPa) = 100.15619 37.14893 68.65256
#
# Velocity S-wave (km/s) = 6.85012 4.17189 5.67136
# Velocity P-wave (km/s) = 8.88072 6.96636 7.98114
#
# Compressibility (1/GPa) = 0.02874005
#
# Stress axis : x y z
#
# Youngs Moduli (GPa) = 101.16866 53.57991 85.30974
#
# Poissons Ratio (x) = 0.00080 0.53214
# Poissons Ratio (y) = 0.00151 -0.04160
# Poissons Ratio (z) = 0.63106 -0.02612
#
# Static dielectric constant tensor:
#      x y z
#    x 2.642310 0.000000 0.000000 
#    y 0.000000 1.811240 0.000000 
#    z 0.000000 0.000000 1.741830 
# 
# From -- ./inp_files/37229.got.cif
#   From: 2010.05.17/outbox.cif.g08.bks.cpg/sg51_19_cif.got.tgz:37229.got - 2010.06.03 11:52:47.
