data_PCOD9404288
_publ_section_title
;
Structure prediction by ZEFSAII (Michael W. Deem and Ramdas Pophale) SiO2 
 PCOD9404288
Probable space group: P M M A
;
_chemical_formula_sum "Si O2"
_cell_formula_units_Z 56
_cell_length_a 8.718722
_cell_length_b 23.163386
_cell_length_c 15.239754
_cell_angle_alpha 90.000000
_cell_angle_beta 90.000000
_cell_angle_gamma 90.000000
_cell_volume 3077.746395
_symmetry_space_group_name_H-M "P M M A"
_symmetry_group_IT_number 51
_symmetry_cell_setting 'orthorhombic'
loop_
_space_group_symop_operation_xyz
x,y,z
1/2-x,-y,z
1/2+x,-y,-z
-x,y,-z
-x,-y,-z
1/2+x,y,-z
1/2-x,y,z
x,-y,z
loop_
_atom_site_type_symbol
_atom_site_label
_atom_site_fract_x
_atom_site_fract_y
_atom_site_fract_z
Si Si1 0.065908 0.793996 0.904315
Si Si2 0.934147 0.563806 0.778904
Si Si3 0.066261 0.260302 0.594061
Si Si4 0.066949 0.660032 0.904989
Si Si5 0.434405 0.166911 0.273891
Si Si6 0.065360 0.066365 0.405510
Si Si7 0.433320 0.389002 0.408974
O O1 0.250000 0.797662 0.905669
O O2 0.021929 0.726650 0.887161
O O3 0.998393 0.830582 0.824404
O O4 0.000000 0.809333 0.000000
O O5 0.750000 0.566699 0.789222
O O6 0.986080 0.500000 0.807214
O O7 0.967145 0.573121 0.676138
O O8 0.006614 0.615478 0.833591
O O9 0.250000 0.259029 0.592538
O O10 0.000000 0.240005 0.500000
O O11 0.002238 0.220464 0.671186
O O12 0.007521 0.325829 0.604856
O O13 0.250000 0.657966 0.908085
O O14 0.000000 0.644485 0.000000
O O15 0.250000 0.170795 0.272387
O O16 0.480015 0.109797 0.328358
O O17 0.250000 0.067341 0.411086
O O18 0.000000 0.084642 0.500000
O O19 0.016608 0.000000 0.389891
O O20 0.500000 0.412468 0.500000
O O21 0.250000 0.382181 0.416967
#
# Coordination Sequence:
#
# PCOD9404288 Si02
#       7
#     8   8   8   8   8   8   8
#     4  10  21  37  57  82 110 138 173 216 264 317
#     4  10  22  38  54  74 101 133 170 212 256 305
#     4  11  21  33  50  75 107 138 172 214 262 316
#     4  10  21  37  58  81 104 133 166 206 258 314
#     4  11  21  33  53  80 110 143 178 218 265 313
#     4   9  19  35  54  78 110 148 187 224 261 304
#     4  10  20  35  54  74 100 134 171 212 260 312
#
# _framework density 18.195129999999999
#
# number of rings (size 3 to 8) (size 9 to 14) (size 15 to 20)
#    0.000    1.857    0.000    5.143    0.000    8.286 
#    0.000    0.000    0.000    0.429    0.000    0.000 
#    0.000    0.000    0.000    0.000    0.000    0.000 
#
# Total GULP energy -312849.013751 kJ/mol
# GULP energy per Si atom -5586.589531 kJ/mol
# Density = 1.815372 g / cm^3
# Si number density = 18.195130 Si / 1000 Ang^3
#
#
#
# Elastic Constant Matrix: (Units=GPa)
#
#
# Indices 1 2 3 4 5 6 
#
# 1 61.3820 27.4735 46.7421 0.0000 0.0000 0.0000
# 2 27.4735 60.0531 61.2076 0.0000 0.0000 0.0000
# 3 46.7421 61.2076 141.0496 0.0000 0.0000 0.0000
# 4 0.0000 0.0000 0.0000 44.9270 0.0000 0.0000
# 5 0.0000 0.0000 0.0000 0.0000 36.3274 0.0000
# 6 0.0000 0.0000 0.0000 0.0000 0.0000 28.2810
#
#
#
# Elastic Compliance Matrix: (Units=1/GPa)
#
#
# Indices 1 2 3 4 5 6 
#
# 1 0.022549 -0.004841 -0.005372 0.000000 0.000000 0.000000
# 2 -0.004841 0.030897 -0.011803 0.000000 0.000000 0.000000
# 3 -0.005372 -0.011803 0.013992 0.000000 0.000000 0.000000
# 4 0.000000 0.000000 0.000000 0.022258 0.000000 0.000000
# 5 0.000000 0.000000 0.000000 0.000000 0.027527 0.000000
# 6 0.000000 0.000000 0.000000 0.000000 0.000000 0.035359
#
#
# Mechanical properties :
#
#
# Convention : Reuss Voigt Hill
#
# Bulk Modulus (GPa) = 42.72468 59.25901 50.99184
# Shear Modulus (GPa) = 24.45998 30.37783 27.41891
#
# Velocity S-wave (km/s) = 3.67047 4.09046 3.88614
# Velocity P-wave (km/s) = 6.44170 7.41272 6.94420
#
# Compressibility (1/GPa) = 0.02340568
#
# Stress axis : x y z
#
# Youngs Moduli (GPa) = 44.34873 32.36596 71.47035
#
# Poissons Ratio (x) = 0.15667 0.38392
# Poissons Ratio (y) = 0.21467 0.84359
# Poissons Ratio (z) = 0.23823 0.38203
#
# Static dielectric constant tensor:
#      x y z
#    x 1.609590 0.000000 0.000000 
#    y 0.000000 1.622140 0.000000 
#    z 0.000000 0.000000 1.616170 
# 
# From -- ./inp_files/21775.got.cif
#   From: 2010.05.17/outbox.cif.g08.bks.cpg/sg51_11_cif.got.tgz:21775.got - 2010.06.03 11:52:47.
