data_PCOD9404629
_publ_section_title
;
Structure prediction by ZEFSAII (Michael W. Deem and Ramdas Pophale) SiO2 
 PCOD9404629
Probable space group: P M M A
;
_chemical_formula_sum "Si O2"
_cell_formula_units_Z 56
_cell_length_a 14.542582
_cell_length_b 14.734595
_cell_length_c 12.056277
_cell_angle_alpha 90.000000
_cell_angle_beta 90.000000
_cell_angle_gamma 90.000000
_cell_volume 2583.407655
_symmetry_space_group_name_H-M "P M M A"
_symmetry_group_IT_number 51
_symmetry_cell_setting 'orthorhombic'
loop_
_space_group_symop_operation_xyz
x,y,z
1/2-x,-y,z
1/2+x,-y,-z
-x,y,-z
-x,-y,-z
1/2+x,y,-z
1/2-x,y,z
x,-y,z
loop_
_atom_site_type_symbol
_atom_site_label
_atom_site_fract_x
_atom_site_fract_y
_atom_site_fract_z
Si Si1 0.457236 0.602872 0.232376
Si Si2 0.092105 0.099354 0.427239
Si Si3 0.144305 0.344108 0.681258
Si Si4 0.646289 0.697281 0.568132
Si Si5 0.147345 0.815857 0.837616
Si Si6 0.643556 0.274762 0.933759
Si Si7 0.952760 0.900778 0.833505
O O1 0.423981 0.500000 0.241733
O O2 0.566687 0.605348 0.249292
O O3 0.418328 0.664339 0.333020
O O4 0.420395 0.648977 0.120239
O O5 0.143363 0.193884 0.446265
O O6 0.066082 0.099821 0.297599
O O7 0.000000 0.103460 0.500000
O O8 0.136026 0.000000 0.450582
O O9 0.250000 0.373938 0.698063
O O10 0.122697 0.346449 0.550564
O O11 0.139720 0.239667 0.723299
O O12 0.750000 0.670278 0.596887
O O13 0.250000 0.856306 0.846284
O O14 0.060669 0.880746 0.850526
O O15 0.139965 0.740072 0.934573
O O16 0.750000 0.289385 0.901587
O O17 0.606341 0.179307 0.886332
O O18 0.928213 0.000000 0.877972
#
# Coordination Sequence:
#
# PCOD9404629 Si02
#       7
#     8   8   8   8   8   8   8
#     4  12  25  42  67  93 122 163 210 262 324 383
#     4  10  20  35  58  88 126 171 212 251 304 369
#     4  10  22  41  66  94 124 162 207 257 318 380
#     4  11  22  38  63  93 129 166 207 259 310 371
#     4  10  21  40  65  90 126 170 208 252 306 366
#     4  11  24  42  63  89 127 168 210 261 312 370
#     4  11  22  37  63  95 128 166 210 257 306 366
#
# _framework density 21.676796
#
# number of rings (size 3 to 8) (size 9 to 14) (size 15 to 20)
#    0.000    1.286    2.857    3.000    0.000    4.571 
#    0.000    5.714    0.000    7.714    0.000    0.000 
#    0.000    0.000    0.000    0.000    0.000    0.000 
#
# Total GULP energy -312928.635437 kJ/mol
# GULP energy per Si atom -5588.011347 kJ/mol
# Density = 2.162746 g / cm^3
# Si number density = 21.676796 Si / 1000 Ang^3
#
#
#
# Elastic Constant Matrix: (Units=GPa)
#
#
# Indices 1 2 3 4 5 6 
#
# 1 79.1973 8.3490 1.7340 0.0000 0.0000 0.0000
# 2 8.3490 85.5639 -10.4334 0.0000 0.0000 0.0000
# 3 1.7340 -10.4334 55.2086 0.0000 0.0000 0.0000
# 4 0.0000 0.0000 0.0000 -0.0600 0.0000 0.0000
# 5 0.0000 0.0000 0.0000 0.0000 13.2218 0.0000
# 6 0.0000 0.0000 0.0000 0.0000 0.0000 8.2921
#
#
#
# Elastic Compliance Matrix: (Units=1/GPa)
#
#
# Indices 1 2 3 4 5 6 
#
# 1 0.012781 -0.001327 -0.000652 0.000000 0.000000 0.000000
# 2 -0.001327 0.012101 0.002328 0.000000 0.000000 0.000000
# 3 -0.000652 0.002328 0.018574 0.000000 0.000000 0.000000
# 4 0.000000 0.000000 0.000000-16.663373 0.000000 0.000000
# 5 0.000000 0.000000 0.000000 0.000000 0.075633 0.000000
# 6 0.000000 0.000000 0.000000 0.000000 0.000000 0.120597
#
#
# Mechanical properties :
#
#
# Convention : Reuss Voigt Hill
#
# Bulk Modulus (GPa) = 22.64782 24.36324 23.50553
# Shear Modulus (GPa) = -0.30470 18.97879 9.33704
#
# Velocity S-wave (km/s) = -0.37533 2.96215 2.07768
# Velocity P-wave (km/s) = 3.20668 4.79196 4.07711
#
# Compressibility (1/GPa) = 0.04415436
#
# Stress axis : x y z
#
# Youngs Moduli (GPa) = 78.24221 82.64095 53.83978
#
# Poissons Ratio (x) = 0.10963 0.03511
# Poissons Ratio (y) = 0.10380 -0.12536
# Poissons Ratio (z) = 0.05102 -0.19242
#
# Static dielectric constant tensor:
#      x y z
#    x 1.795560 0.000000 0.000000 
#    y 0.000000 1.792010 0.000000 
#    z 0.000000 0.000000 1.787980 
# 
# From -- ./inp_files/16568.got.cif
#   From: 2010.05.17/outbox.cif.g08.bks.cpg/sg51_9_cif.got.tgz:16568.got - 2010.06.03 11:52:47.
