data_PCOD9404053
_publ_section_title
;
Structure prediction by ZEFSAII (Michael W. Deem and Ramdas Pophale) SiO2 
 PCOD9404053
Probable space group: P M M A
;
_chemical_formula_sum "Si O2"
_cell_formula_units_Z 64
_cell_length_a 7.593288
_cell_length_b 20.280663
_cell_length_c 19.817743
_cell_angle_alpha 90.000000
_cell_angle_beta 90.000000
_cell_angle_gamma 90.000000
_cell_volume 3051.871284
_symmetry_space_group_name_H-M "P M M A"
_symmetry_group_IT_number 51
_symmetry_cell_setting 'orthorhombic'
loop_
_space_group_symop_operation_xyz
x,y,z
1/2-x,-y,z
1/2+x,-y,-z
-x,y,-z
-x,-y,-z
1/2+x,y,-z
1/2-x,y,z
x,-y,z
loop_
_atom_site_type_symbol
_atom_site_label
_atom_site_fract_x
_atom_site_fract_y
_atom_site_fract_z
Si Si1 0.961765 0.075388 0.078813
Si Si2 0.460993 0.071122 0.421284
Si Si3 0.535770 0.807319 0.665271
Si Si4 0.958898 0.682589 0.578759
Si Si5 0.956740 0.189570 0.180034
Si Si6 0.966443 0.337767 0.196095
Si Si7 0.458437 0.575023 0.678357
Si Si8 0.960428 0.574275 0.072763
O O1 0.750000 0.073036 0.086069
O O2 0.027924 0.132156 0.130541
O O3 0.026952 0.000000 0.091926
O O4 0.000000 0.090840 0.000000
O O5 0.500000 0.077416 0.500000
O O6 0.250000 0.070613 0.413356
O O7 0.527542 0.133546 0.381701
O O8 0.529321 0.000000 0.397972
O O9 0.750000 0.804946 0.666675
O O10 0.472358 0.739593 0.629810
O O11 0.474648 0.824156 0.740420
O O12 0.750000 0.684262 0.584325
O O13 0.000000 0.694159 0.500000
O O14 0.018671 0.611941 0.607214
O O15 0.750000 0.194622 0.162698
O O16 0.030392 0.264227 0.179059
O O17 0.750000 0.334437 0.199234
O O18 0.027442 0.374079 0.264545
O O19 0.023323 0.383938 0.135048
O O20 0.250000 0.569685 0.691325
O O21 0.529244 0.500000 0.681164
O O22 0.750000 0.570145 0.079242
O O23 0.032927 0.500000 0.073762
O O24 0.000000 0.604266 0.000000
#
# Coordination Sequence:
#
# PCOD9404053 Si02
#       8
#     8   8   8   8   8   8   8   8
#     4   9  19  36  56  80 111 147 187 228 270 317
#     4   9  18  33  52  75 104 137 174 215 258 310
#     4  10  21  36  53  78 110 142 176 218 269 321
#     4  11  23  38  57  80 108 141 178 221 271 326
#     4  10  20  34  55  79 105 138 178 221 263 312
#     4   9  17  32  53  76 102 135 174 215 262 316
#     4  10  20  36  59  82 103 135 180 225 272 328
#     4   9  17  30  48  71 100 132 166 205 250 304
#
# _framework density 20.970738000000001
#
# number of rings (size 3 to 8) (size 9 to 14) (size 15 to 20)
#    0.000    2.375    1.250    1.125    0.000    4.500 
#    0.000    1.250    0.000    1.500    0.000    0.000 
#    0.000    0.000    0.000    0.000    0.000    0.000 
#
# Total GULP energy -356892.208631 kJ/mol
# GULP energy per Si atom -5576.440760 kJ/mol
# Density = 2.092301 g / cm^3
# Si number density = 20.970738 Si / 1000 Ang^3
#
#
#
# Elastic Constant Matrix: (Units=GPa)
#
#
# Indices 1 2 3 4 5 6 
#
# 1 46.1834 7.1838 -9.2076 0.0000 0.0000 0.0000
# 2 7.1838 171.4428 90.2324 0.0000 0.0000 0.0000
# 3 -9.2076 90.2324 123.7217 0.0000 0.0000 0.0000
# 4 0.0000 0.0000 0.0000 60.6939 0.0000 0.0000
# 5 0.0000 0.0000 0.0000 0.0000 17.4416 0.0000
# 6 0.0000 0.0000 0.0000 0.0000 0.0000 1.2492
#
#
#
# Elastic Compliance Matrix: (Units=1/GPa)
#
#
# Indices 1 2 3 4 5 6 
#
# 1 0.022899 -0.003013 0.003902 0.000000 0.000000 0.000000
# 2 -0.003013 0.009863 -0.007418 0.000000 0.000000 0.000000
# 3 0.003902 -0.007418 0.013783 0.000000 0.000000 0.000000
# 4 0.000000 0.000000 0.000000 0.016476 0.000000 0.000000
# 5 0.000000 0.000000 0.000000 0.000000 0.057334 0.000000
# 6 0.000000 0.000000 0.000000 0.000000 0.000000 0.800510
#
#
# Mechanical properties :
#
#
# Convention : Reuss Voigt Hill
#
# Bulk Modulus (GPa) = 29.86199 57.52945 43.69572
# Shear Modulus (GPa) = 5.29053 32.75289 19.02171
#
# Velocity S-wave (km/s) = 1.59006 3.95630 3.01501
# Velocity P-wave (km/s) = 4.20021 6.95431 5.74475
#
# Compressibility (1/GPa) = 0.03348739
#
# Stress axis : x y z
#
# Youngs Moduli (GPa) = 43.66936 101.38866 72.55440
#
# Poissons Ratio (x) = 0.30549 -0.28308
# Poissons Ratio (y) = 0.13158 0.53817
# Poissons Ratio (z) = -0.17038 0.75205
#
# Static dielectric constant tensor:
#      x y z
#    x 1.784420 0.000000 0.000000 
#    y 0.000000 1.787450 0.000000 
#    z 0.000000 0.000000 1.740210 
# 
# From -- ./inp_files/28397.got.cif
#   From: 2010.05.17/outbox.cif.g08.bks.cpg/sg51_15_cif.got.tgz:28397.got - 2010.06.03 11:52:47.
