data_PCOD9404095
_publ_section_title
;
Structure prediction by ZEFSAII (Michael W. Deem and Ramdas Pophale) SiO2 
 PCOD9404095
Probable space group: P M M A
;
_chemical_formula_sum "Si O2"
_cell_formula_units_Z 48
_cell_length_a 8.647626
_cell_length_b 21.005283
_cell_length_c 14.497918
_cell_angle_alpha 90.000000
_cell_angle_beta 90.000000
_cell_angle_gamma 90.000000
_cell_volume 2633.486369
_symmetry_space_group_name_H-M "P M M A"
_symmetry_group_IT_number 51
_symmetry_cell_setting 'orthorhombic'
loop_
_space_group_symop_operation_xyz
x,y,z
1/2-x,-y,z
1/2+x,-y,-z
-x,y,-z
-x,-y,-z
1/2+x,y,-z
1/2-x,y,z
x,-y,z
loop_
_atom_site_type_symbol
_atom_site_label
_atom_site_fract_x
_atom_site_fract_y
_atom_site_fract_z
Si Si1 0.936536 0.125167 0.784867
Si Si2 0.064003 0.251751 0.103947
Si Si3 0.934966 0.926036 0.399927
Si Si4 0.936379 0.624199 0.206111
Si Si5 0.563408 0.000000 0.897175
Si Si6 0.064046 0.573941 0.598742
Si Si7 0.935398 0.500000 0.896710
O O1 0.750000 0.124395 0.779048
O O2 0.982732 0.188643 0.839312
O O3 0.003342 0.117166 0.682733
O O4 0.986752 0.063166 0.842880
O O5 0.250000 0.254157 0.099980
O O6 0.001496 0.313299 0.157446
O O7 0.000000 0.249894 0.000000
O O8 0.750000 0.924410 0.402092
O O9 0.000000 0.907862 0.500000
O O10 0.984026 0.000000 0.382844
O O11 0.750000 0.624014 0.200746
O O12 0.982413 0.615906 0.313476
O O13 0.001046 0.562363 0.154244
O O14 0.750000 0.000000 0.900309
O O15 0.500000 0.000000 0.000000
O O16 0.250000 0.573842 0.594684
O O17 0.014372 0.500000 0.613599
O O18 0.000000 0.594927 0.500000
O O19 0.750000 0.500000 0.897058
O O20 0.000000 0.500000 0.000000
#
# Coordination Sequence:
#
# PCOD9404095 Si02
#       7
#     8   8   8   8   4   8   4
#     4  10  21  38  59  83 116 153 194 241 292 349
#     4  11  24  41  60  85 116 157 199 240 292 349
#     4  10  20  34  57  88 119 152 191 239 294 351
#     4  11  22  40  61  85 118 155 195 240 290 347
#     4  10  20  34  55  82 111 146 187 240 294 342
#     4   9  18  34  57  86 117 148 184 230 283 337
#     4  12  24  38  59  86 115 148 191 246 296 346
#
# _framework density 18.226789
#
# number of rings (size 3 to 8) (size 9 to 14) (size 15 to 20)
#    0.000    1.667    1.667    3.250    0.000    4.000 
#    0.000    0.833    0.000    2.000    0.000    0.000 
#    0.000    0.000    0.000    0.000    0.000    0.000 
#
# Total GULP energy -268169.694776 kJ/mol
# GULP energy per Si atom -5586.868641 kJ/mol
# Density = 1.818530 g / cm^3
# Si number density = 18.226789 Si / 1000 Ang^3
#
#
#
# Elastic Constant Matrix: (Units=GPa)
#
#
# Indices 1 2 3 4 5 6 
#
# 1 47.0305 46.1014 51.5217 0.0000 0.0000 0.0000
# 2 46.1014 155.2836 104.9653 0.0000 0.0000 0.0000
# 3 51.5217 104.9653 211.5520 0.0000 0.0000 0.0000
# 4 0.0000 0.0000 0.0000 32.2983 0.0000 0.0000
# 5 0.0000 0.0000 0.0000 0.0000 37.7072 0.0000
# 6 0.0000 0.0000 0.0000 0.0000 0.0000 10.9751
#
#
#
# Elastic Compliance Matrix: (Units=1/GPa)
#
#
# Indices 1 2 3 4 5 6 
#
# 1 0.032899 -0.006547 -0.004764 0.000000 0.000000 0.000000
# 2 -0.006547 0.010993 -0.003860 0.000000 0.000000 0.000000
# 3 -0.004764 -0.003860 0.007802 0.000000 0.000000 0.000000
# 4 0.000000 0.000000 0.000000 0.030961 0.000000 0.000000
# 5 0.000000 0.000000 0.000000 0.000000 0.026520 0.000000
# 6 0.000000 0.000000 0.000000 0.000000 0.000000 0.091116
#
#
# Mechanical properties :
#
#
# Convention : Reuss Voigt Hill
#
# Bulk Modulus (GPa) = 46.83231 91.00475 68.91853
# Shear Modulus (GPa) = 21.03049 30.28131 25.65590
#
# Velocity S-wave (km/s) = 3.40048 4.08040 3.75586
# Velocity P-wave (km/s) = 6.41621 8.49924 7.53010
#
# Compressibility (1/GPa) = 0.02135278
#
# Stress axis : x y z
#
# Youngs Moduli (GPa) = 30.39572 90.97084 128.16903
#
# Poissons Ratio (x) = 0.59560 0.61058
# Poissons Ratio (y) = 0.19901 0.49469
# Poissons Ratio (z) = 0.14480 0.35111
#
# Static dielectric constant tensor:
#      x y z
#    x 1.615070 0.000000 0.000000 
#    y 0.000000 1.608310 0.000000 
#    z 0.000000 0.000000 1.594140 
# 
# From -- ./inp_files/21165.got.cif
#   From: 2010.05.17/outbox.cif.g08.bks.cpg/sg51_11_cif.got.tgz:21165.got - 2010.06.03 11:52:47.
