data_PCOD9404355
_publ_section_title
;
Structure prediction by ZEFSAII (Michael W. Deem and Ramdas Pophale) SiO2 
 PCOD9404355
Probable space group: P M M A
;
_chemical_formula_sum "Si O2"
_cell_formula_units_Z 56
_cell_length_a 18.914925
_cell_length_b 9.349892
_cell_length_c 17.565256
_cell_angle_alpha 90.000000
_cell_angle_beta 90.000000
_cell_angle_gamma 90.000000
_cell_volume 3106.459541
_symmetry_space_group_name_H-M "P M M A"
_symmetry_group_IT_number 51
_symmetry_cell_setting 'orthorhombic'
loop_
_space_group_symop_operation_xyz
x,y,z
1/2-x,-y,z
1/2+x,-y,-z
-x,y,-z
-x,-y,-z
1/2+x,y,-z
1/2-x,y,z
x,-y,z
loop_
_atom_site_type_symbol
_atom_site_label
_atom_site_fract_x
_atom_site_fract_y
_atom_site_fract_z
Si Si1 0.330509 0.833651 0.720045
Si Si2 0.332766 0.168382 0.474878
Si Si3 0.077023 0.329345 0.601671
Si Si4 0.452177 0.168602 0.170983
Si Si5 0.885196 0.833866 0.118683
Si Si6 0.582996 0.335278 0.974812
Si Si7 0.440305 0.830879 0.346392
O O1 0.250000 0.821636 0.692634
O O2 0.380464 0.726063 0.675673
O O3 0.334648 0.806152 0.810126
O O4 0.353588 0.000000 0.708743
O O5 0.250000 0.204684 0.477188
O O6 0.379008 0.262892 0.531959
O O7 0.366969 0.184117 0.391384
O O8 0.339928 0.000000 0.496458
O O9 0.073156 0.500000 0.597387
O O10 0.999893 0.259051 0.609790
O O11 0.535708 0.186768 0.152994
O O12 0.411852 0.254199 0.105288
O O13 0.437570 0.212653 0.257860
O O14 0.436535 0.000000 0.164041
O O15 0.879453 0.000000 0.096456
O O16 0.876315 0.738686 0.044314
O O17 0.602157 0.500000 0.966772
O O18 0.500000 0.327326 0.000000
O O19 0.460012 0.000000 0.348186
#
# Coordination Sequence:
#
# PCOD9404355 Si02
#       7
#     8   8   8   8   8   8   8
#     4  10  20  35  55  77 105 144 187 228 273 326
#     4  10  22  40  61  82 106 140 181 224 271 324
#     4  12  24  36  54  81 113 144 179 221 270 326
#     4   9  16  29  50  75 101 132 171 217 266 310
#     4   9  16  29  48  71 100 134 175 218 263 311
#     4   9  17  27  43  70 103 136 170 209 256 309
#     4  10  20  37  60  83 108 139 180 227 274 321
#
# _framework density 18.026954
#
# number of rings (size 3 to 8) (size 9 to 14) (size 15 to 20)
#    0.000    2.143    1.429    2.571    0.000    7.429 
#    0.000    0.000    0.000    0.857    0.000    4.000 
#    0.000    0.000    0.000    0.000    0.000    0.000 
#
# Total GULP energy -312489.395881 kJ/mol
# GULP energy per Si atom -5580.167784 kJ/mol
# Density = 1.798592 g / cm^3
# Si number density = 18.026954 Si / 1000 Ang^3
#
#
#
# Elastic Constant Matrix: (Units=GPa)
#
#
# Indices 1 2 3 4 5 6 
#
# 1 40.3947 26.9157 38.8228 0.0000 0.0000 0.0000
# 2 26.9157 71.1584 63.9119 0.0000 0.0000 0.0000
# 3 38.8228 63.9119 120.8247 0.0000 0.0000 0.0000
# 4 0.0000 0.0000 0.0000 -17.7722 0.0000 0.0000
# 5 0.0000 0.0000 0.0000 0.0000 10.3656 0.0000
# 6 0.0000 0.0000 0.0000 0.0000 0.0000 4.8405
#
#
#
# Elastic Compliance Matrix: (Units=1/GPa)
#
#
# Indices 1 2 3 4 5 6 
#
# 1 0.037271 -0.006366 -0.008608 0.000000 0.000000 0.000000
# 2 -0.006366 0.027860 -0.012692 0.000000 0.000000 0.000000
# 3 -0.008608 -0.012692 0.017756 0.000000 0.000000 0.000000
# 4 0.000000 0.000000 0.000000 -0.056268 0.000000 0.000000
# 5 0.000000 0.000000 0.000000 0.000000 0.096473 0.000000
# 6 0.000000 0.000000 0.000000 0.000000 0.000000 0.206591
#
#
# Mechanical properties :
#
#
# Convention : Reuss Voigt Hill
#
# Bulk Modulus (GPa) = 36.29093 54.63095 45.46094
# Shear Modulus (GPa) = 12.68392 6.33527 9.50959
#
# Velocity S-wave (km/s) = 2.65544 1.87669 2.29927
# Velocity P-wave (km/s) = 5.43847 5.92173 5.68524
#
# Compressibility (1/GPa) = 0.02755509
#
# Stress axis : x y z
#
# Youngs Moduli (GPa) = 26.83057 35.89345 56.31970
#
# Poissons Ratio (x) = 0.22850 0.48481
# Poissons Ratio (y) = 0.17081 0.71478
# Poissons Ratio (z) = 0.23096 0.45554
#
# Static dielectric constant tensor:
#      x y z
#    x 1.604910 0.000000 0.000000 
#    y 0.000000 1.598720 0.000000 
#    z 0.000000 0.000000 1.630260 
# 
# From -- ./inp_files/25718.got.cif
#   From: 2010.05.17/outbox.cif.g08.bks.cpg/sg51_13_cif.got.tgz:25718.got - 2010.06.03 11:52:47.
