data_PCOD9404292
_publ_section_title
;
Structure prediction by ZEFSAII (Michael W. Deem and Ramdas Pophale) SiO2 
 PCOD9404292
Probable space group: P M M A
;
_chemical_formula_sum "Si O2"
_cell_formula_units_Z 64
_cell_length_a 8.562651
_cell_length_b 29.219007
_cell_length_c 15.169374
_cell_angle_alpha 90.000000
_cell_angle_beta 90.000000
_cell_angle_gamma 90.000000
_cell_volume 3795.258439
_symmetry_space_group_name_H-M "P M M A"
_symmetry_group_IT_number 51
_symmetry_cell_setting 'orthorhombic'
loop_
_space_group_symop_operation_xyz
x,y,z
1/2-x,-y,z
1/2+x,-y,-z
-x,y,-z
-x,-y,-z
1/2+x,y,-z
1/2-x,y,z
x,-y,z
loop_
_atom_site_type_symbol
_atom_site_label
_atom_site_fract_x
_atom_site_fract_y
_atom_site_fract_z
Si Si1 0.438418 0.629534 0.096622
Si Si2 0.061132 0.149873 0.599973
Si Si3 0.561393 0.049121 0.399757
Si Si4 0.063448 0.688924 0.404764
Si Si5 0.438248 0.550411 0.228117
Si Si6 0.935538 0.585967 0.406478
Si Si7 0.937351 0.264974 0.902854
Si Si8 0.062536 0.233962 0.722710
O O1 0.250000 0.628866 0.095869
O O2 0.492988 0.592302 0.167261
O O3 0.486612 0.681978 0.114979
O O4 0.500000 0.617535 0.000000
O O5 0.250000 0.150935 0.595570
O O6 0.012334 0.099186 0.634019
O O7 0.010598 0.189928 0.665775
O O8 0.000000 0.156351 0.500000
O O9 0.500000 0.048679 0.500000
O O10 0.750000 0.049088 0.400466
O O11 0.510967 0.000000 0.359440
O O12 0.250000 0.688808 0.405779
O O13 0.000000 0.705115 0.500000
O O14 0.003427 0.637189 0.393041
O O15 0.001931 0.721774 0.328579
O O16 0.250000 0.553478 0.234869
O O17 0.477015 0.500000 0.192036
O O18 0.509070 0.556281 0.324591
O O19 0.750000 0.588725 0.410692
O O20 0.000000 0.569003 0.500000
O O21 0.750000 0.263339 0.903583
O O22 0.001898 0.235145 0.822567
O O23 0.000000 0.252831 0.000000
O O24 0.250000 0.235333 0.722918
#
# Coordination Sequence:
#
# PCOD9404292 Si02
#       8
#     8   8   8   8   8   8   8   8
#     4   9  19  35  55  77  99 123 151 186 227 274
#     4   9  18  29  42  64  96 132 168 206 244 285
#     4   8  13  23  39  58  83 120 165 207 244 281
#     4  11  21  34  51  72  98 128 163 198 236 283
#     4  10  21  37  55  76 103 131 157 188 228 274
#     4  11  22  37  56  75  96 124 160 200 239 279
#     4  10  20  35  54  74  96 124 160 200 241 286
#     4  11  21  32  47  70 100 131 163 199 242 289
#
# _framework density 16.863147000000001
#
# number of rings (size 3 to 8) (size 9 to 14) (size 15 to 20)
#    0.000    2.125    0.000    4.875    0.000    4.750 
#    0.000    0.000    0.000    0.000    0.000    0.000 
#    0.000    0.500    0.000    0.875    0.000    1.500 
#
# Total GULP energy -357043.260071 kJ/mol
# GULP energy per Si atom -5578.800939 kJ/mol
# Density = 1.682477 g / cm^3
# Si number density = 16.863147 Si / 1000 Ang^3
#
#
#
# Elastic Constant Matrix: (Units=GPa)
#
#
# Indices 1 2 3 4 5 6 
#
# 1 39.3757 20.9074 19.5902 0.0000 0.0000 0.0000
# 2 20.9074 69.4706 54.8906 0.0000 0.0000 0.0000
# 3 19.5902 54.8906 94.8849 0.0000 0.0000 0.0000
# 4 0.0000 0.0000 0.0000 16.6622 0.0000 0.0000
# 5 0.0000 0.0000 0.0000 0.0000 27.2836 0.0000
# 6 0.0000 0.0000 0.0000 0.0000 0.0000 18.2105
#
#
#
# Elastic Compliance Matrix: (Units=1/GPa)
#
#
# Indices 1 2 3 4 5 6 
#
# 1 0.030395 -0.007716 -0.001812 0.000000 0.000000 0.000000
# 2 -0.007716 0.028472 -0.014878 0.000000 0.000000 0.000000
# 3 -0.001812 -0.014878 0.019520 0.000000 0.000000 0.000000
# 4 0.000000 0.000000 0.000000 0.060016 0.000000 0.000000
# 5 0.000000 0.000000 0.000000 0.000000 0.036652 0.000000
# 6 0.000000 0.000000 0.000000 0.000000 0.000000 0.054913
#
#
# Mechanical properties :
#
#
# Convention : Reuss Voigt Hill
#
# Bulk Modulus (GPa) = 33.81164 43.83417 38.82291
# Shear Modulus (GPa) = 17.32272 19.65413 18.48843
#
# Velocity S-wave (km/s) = 3.20856 3.41766 3.31476
# Velocity P-wave (km/s) = 5.81555 6.45169 6.14186
#
# Compressibility (1/GPa) = 0.02957561
#
# Stress axis : x y z
#
# Youngs Moduli (GPa) = 32.90053 35.12192 51.22936
#
# Poissons Ratio (x) = 0.27099 0.09282
# Poissons Ratio (y) = 0.25386 0.76219
# Poissons Ratio (z) = 0.05961 0.52255
#
# Static dielectric constant tensor:
#      x y z
#    x 1.562800 0.000000 0.000000 
#    y 0.000000 1.609190 0.000000 
#    z 0.000000 0.000000 1.549330 
# 
# From -- ./inp_files/22585.got.cif
#   From: 2010.05.17/outbox.cif.g08.bks.cpg/sg51_12_cif.got.tgz:22585.got - 2010.06.03 11:52:47.
