data_PCOD9404522
_publ_section_title
;
Structure prediction by ZEFSAII (Michael W. Deem and Ramdas Pophale) SiO2 
 PCOD9404522
Probable space group: P M M A
;
_chemical_formula_sum "Si O2"
_cell_formula_units_Z 48
_cell_length_a 7.785989
_cell_length_b 9.399130
_cell_length_c 31.894377
_cell_angle_alpha 90.000000
_cell_angle_beta 90.000000
_cell_angle_gamma 90.000000
_cell_volume 2334.079077
_symmetry_space_group_name_H-M "P M M A"
_symmetry_group_IT_number 51
_symmetry_cell_setting 'orthorhombic'
loop_
_space_group_symop_operation_xyz
x,y,z
1/2-x,-y,z
1/2+x,-y,-z
-x,y,-z
-x,-y,-z
1/2+x,y,-z
1/2-x,y,z
x,-y,z
loop_
_atom_site_type_symbol
_atom_site_label
_atom_site_fract_x
_atom_site_fract_y
_atom_site_fract_z
Si Si1 0.455894 0.161517 0.291482
Si Si2 0.956521 0.838866 0.873704
Si Si3 0.954868 0.661632 0.208872
Si Si4 0.039373 0.336399 0.372492
Si Si5 0.956660 0.662859 0.953219
Si Si6 0.043575 0.162795 0.453292
O O1 0.250000 0.152129 0.295823
O O2 0.490601 0.249785 0.249548
O O3 0.519170 0.245969 0.332343
O O4 0.523011 0.000000 0.288985
O O5 0.750000 0.847194 0.877276
O O6 0.021753 0.761567 0.915734
O O7 0.993836 0.744289 0.833125
O O8 0.022305 0.000000 0.869185
O O9 0.750000 0.653588 0.209476
O O10 0.024166 0.500000 0.209542
O O11 0.250000 0.336147 0.372332
O O12 0.984655 0.500000 0.369794
O O13 0.982372 0.261452 0.415489
O O14 0.750000 0.657833 0.950100
O O15 0.020883 0.500000 0.948920
O O16 0.000000 0.713525 0.000000
O O17 0.250000 0.157239 0.450262
O O18 0.000000 0.214064 0.500000
O O19 0.978891 0.000000 0.449108
#
# Coordination Sequence:
#
# PCOD9404522 Si02
#       6
#     8   8   8   8   8   8
#     4  10  20  35  57  82 105 133 172 215 259 310
#     4  10  21  37  57  81 108 140 180 221 260 308
#     4  11  24  39  55  78 108 140 174 214 262 314
#     4   9  17  30  50  75 101 131 169 211 253 300
#     4   9  18  33  53  77 106 140 177 217 260 306
#     4   9  17  30  48  70  97 129 166 208 253 302
#
# _framework density 20.564854
#
# number of rings (size 3 to 8) (size 9 to 14) (size 15 to 20)
#    0.000    2.333    0.000    2.500    0.000    8.667 
#    0.000    2.500    0.000    3.000    0.000    0.000 
#    0.000    0.000    0.000    0.000    0.000    0.000 
#
# Total GULP energy -268090.630476 kJ/mol
# GULP energy per Si atom -5585.221468 kJ/mol
# Density = 2.051805 g / cm^3
# Si number density = 20.564854 Si / 1000 Ang^3
#
#
#
# Elastic Constant Matrix: (Units=GPa)
#
#
# Indices 1 2 3 4 5 6 
#
# 1 26.2813 8.3169 0.4397 0.0000 0.0000 0.0000
# 2 8.3169 198.6414 146.6853 0.0000 0.0000 0.0000
# 3 0.4397 146.6853 227.3530 0.0000 0.0000 0.0000
# 4 0.0000 0.0000 0.0000 45.2503 0.0000 0.0000
# 5 0.0000 0.0000 0.0000 0.0000 24.2650 0.0000
# 6 0.0000 0.0000 0.0000 0.0000 0.0000 26.0117
#
#
#
# Elastic Compliance Matrix: (Units=1/GPa)
#
#
# Indices 1 2 3 4 5 6 
#
# 1 0.038971 -0.003010 0.001867 0.000000 0.000000 0.000000
# 2 -0.003010 0.009848 -0.006348 0.000000 0.000000 0.000000
# 3 0.001867 -0.006348 0.008490 0.000000 0.000000 0.000000
# 4 0.000000 0.000000 0.000000 0.022099 0.000000 0.000000
# 5 0.000000 0.000000 0.000000 0.000000 0.041212 0.000000
# 6 0.000000 0.000000 0.000000 0.000000 0.000000 0.038444
#
#
# Mechanical properties :
#
#
# Convention : Reuss Voigt Hill
#
# Bulk Modulus (GPa) = 23.62567 84.79553 54.21060
# Shear Modulus (GPa) = 26.57372 38.89432 32.73402
#
# Velocity S-wave (km/s) = 3.59861 4.35363 3.99400
# Velocity P-wave (km/s) = 5.36469 8.16057 6.90560
#
# Compressibility (1/GPa) = 0.04232683
#
# Stress axis : x y z
#
# Youngs Moduli (GPa) = 25.65997 101.54631 117.78059
#
# Poissons Ratio (x) = 0.30567 -0.21987
# Poissons Ratio (y) = 0.07724 0.74765
# Poissons Ratio (z) = -0.04790 0.64460
#
# Static dielectric constant tensor:
#      x y z
#    x 1.760280 0.000000 0.000000 
#    y 0.000000 1.727730 0.000000 
#    z 0.000000 0.000000 1.692460 
# 
# From -- ./inp_files/36886.got.cif
#   From: 2010.05.17/outbox.cif.g08.bks.cpg/sg51_19_cif.got.tgz:36886.got - 2010.06.03 11:52:47.
