data_PCOD9404370
_publ_section_title
;
Structure prediction by ZEFSAII (Michael W. Deem and Ramdas Pophale) SiO2 
 PCOD9404370
Probable space group: P M M A
;
_chemical_formula_sum "Si O2"
_cell_formula_units_Z 36
_cell_length_a 8.548677
_cell_length_b 23.420782
_cell_length_c 9.769371
_cell_angle_alpha 90.000000
_cell_angle_beta 90.000000
_cell_angle_gamma 90.000000
_cell_volume 1955.991227
_symmetry_space_group_name_H-M "P M M A"
_symmetry_group_IT_number 51
_symmetry_cell_setting 'orthorhombic'
loop_
_space_group_symop_operation_xyz
x,y,z
1/2-x,-y,z
1/2+x,-y,-z
-x,y,-z
-x,-y,-z
1/2+x,y,-z
1/2-x,y,z
x,-y,z
loop_
_atom_site_type_symbol
_atom_site_label
_atom_site_fract_x
_atom_site_fract_y
_atom_site_fract_z
Si Si1 0.561056 0.332908 0.653583
Si Si2 0.062054 0.896654 0.848298
Si Si3 0.562103 0.770560 0.848451
Si Si4 0.061196 0.000000 0.653785
Si Si5 0.061088 0.565256 0.150882
O O1 0.500000 0.332066 0.500000
O O2 0.750000 0.333397 0.650618
O O3 0.512302 0.277112 0.739669
O O4 0.508478 0.389073 0.736910
O O5 0.250000 0.895322 0.853381
O O6 0.000387 0.833545 0.813793
O O7 0.011432 0.944051 0.738999
O O8 0.000000 0.911108 0.000000
O O9 0.750000 0.772260 0.853542
O O10 0.500000 0.756055 0.000000
O O11 0.000000 0.000000 0.500000
O O12 0.250000 0.000000 0.650475
O O13 0.250000 0.566206 0.147040
O O14 0.011266 0.500000 0.180527
O O15 0.000000 0.580578 0.000000
#
# Coordination Sequence:
#
# PCOD9404370 Si02
#       5
#     8   8   8   4   8
#     4  10  22  36  51  75 107 140 173 211 257 308
#     4  10  20  36  57  81 105 134 173 214 257 305
#     4  10  20  35  55  79 104 134 173 215 258 304
#     4  10  23  38  54  78 108 140 173 210 256 308
#     4   9  18  34  55  78 103 133 172 216 259 305
#
# _framework density 18.404992
#
# number of rings (size 3 to 8) (size 9 to 14) (size 15 to 20)
#    0.000    2.222    0.000    3.667    0.000    5.778 
#    0.000    4.444    0.000    0.000    0.000    0.000 
#    0.000    0.000    0.000    0.000    0.000    0.000 
#
# Total GULP energy -201012.994206 kJ/mol
# GULP energy per Si atom -5583.694284 kJ/mol
# Density = 1.836310 g / cm^3
# Si number density = 18.404992 Si / 1000 Ang^3
#
#
#
# Elastic Constant Matrix: (Units=GPa)
#
#
# Indices 1 2 3 4 5 6 
#
# 1 28.1307 33.1139 31.5084 0.0000 0.0000 0.0000
# 2 33.1139 154.7852 148.2105 0.0000 0.0000 0.0000
# 3 31.5084 148.2105 185.0450 0.0000 0.0000 0.0000
# 4 0.0000 0.0000 0.0000 -200.9994 0.0000 0.0000
# 5 0.0000 0.0000 0.0000 0.0000 36.0369 0.0000
# 6 0.0000 0.0000 0.0000 0.0000 0.0000 19.0533
#
#
#
# Elastic Compliance Matrix: (Units=1/GPa)
#
#
# Indices 1 2 3 4 5 6 
#
# 1 0.047516 -0.010375 0.000219 0.000000 0.000000 0.000000
# 2 -0.010375 0.029984 -0.022249 0.000000 0.000000 0.000000
# 3 0.000219 -0.022249 0.023187 0.000000 0.000000 0.000000
# 4 0.000000 0.000000 0.000000 -0.004975 0.000000 0.000000
# 5 0.000000 0.000000 0.000000 0.000000 0.027749 0.000000
# 6 0.000000 0.000000 0.000000 0.000000 0.000000 0.052484
#
#
# Mechanical properties :
#
#
# Convention : Reuss Voigt Hill
#
# Bulk Modulus (GPa) = 27.87297 88.18071 58.02684
# Shear Modulus (GPa) = 19.78527 -18.83994 0.47266
#
# Velocity S-wave (km/s) = 3.28227 -3.20290 0.50732
# Velocity P-wave (km/s) = 5.43521 5.85980 5.65149
#
# Compressibility (1/GPa) = 0.03587705
#
# Stress axis : x y z
#
# Youngs Moduli (GPa) = 21.04560 33.35130 43.12812
#
# Poissons Ratio (x) = 0.34602 -0.00945
# Poissons Ratio (y) = 0.21835 0.95955
# Poissons Ratio (z) = -0.00461 0.74202
#
# Static dielectric constant tensor:
#      x y z
#    x 1.631020 0.000000 0.000000 
#    y 0.000000 1.641360 0.000000 
#    z 0.000000 0.000000 1.589590 
# 
# From -- ./inp_files/5279.got.cif
#   From: 2010.05.17/outbox.cif.g08.bks.cpg/sg51_3_cif.got.tgz:5279.got - 2010.06.03 11:52:47.
