data_PCOD9404673
_publ_section_title
;
Structure prediction by ZEFSAII (Michael W. Deem and Ramdas Pophale) SiO2 
 PCOD9404673
Probable space group: P M M A
;
_chemical_formula_sum "Si O2"
_cell_formula_units_Z 64
_cell_length_a 30.656401
_cell_length_b 18.403747
_cell_length_c 5.187215
_cell_angle_alpha 90.000000
_cell_angle_beta 90.000000
_cell_angle_gamma 90.000000
_cell_volume 2926.588566
_symmetry_space_group_name_H-M "P M M A"
_symmetry_group_IT_number 51
_symmetry_cell_setting 'orthorhombic'
loop_
_space_group_symop_operation_xyz
x,y,z
1/2-x,-y,z
1/2+x,-y,-z
-x,y,-z
-x,-y,-z
1/2+x,y,-z
1/2-x,y,z
x,-y,z
loop_
_atom_site_type_symbol
_atom_site_label
_atom_site_fract_x
_atom_site_fract_y
_atom_site_fract_z
Si Si1 0.549249 0.162723 0.538022
Si Si2 0.877313 0.790084 0.161950
Si Si3 0.955618 0.325348 0.643564
Si Si4 0.699111 0.809668 0.546466
Si Si5 0.132906 0.085116 0.229515
Si Si6 0.091784 0.640787 0.878568
Si Si7 0.798467 0.338678 0.793993
Si Si8 0.174944 0.418415 0.702533
O O1 0.500000 0.133595 0.500000
O O2 0.575458 0.191034 0.287349
O O3 0.542801 0.238101 0.696653
O O4 0.585630 0.108128 0.651129
O O5 0.837110 0.777244 0.353554
O O6 0.884157 0.714157 0.016402
O O7 0.865413 0.863228 0.016304
O O8 0.922207 0.340098 0.411854
O O9 0.000000 0.345456 0.500000
O O10 0.944933 0.367967 0.905293
O O11 0.750000 0.817196 0.466453
O O12 0.675265 0.885551 0.615657
O O13 0.698291 0.749002 0.772899
O O14 0.134519 0.000000 0.185635
O O15 0.127174 0.579785 0.835391
O O16 0.750000 0.355175 0.692021
O O17 0.827124 0.380313 0.578154
O O18 0.800820 0.370062 0.081850
O O19 0.192237 0.500000 0.677861
#
# Coordination Sequence:
#
# PCOD9404673 Si02
#       8
#     8   8   8   8   8   8   8   8
#     4   9  20  36  57  87 120 158 204 257 318 385
#     4  10  20  37  62  86 121 161 208 267 315 379
#     4  10  20  35  62  94 121 161 216 272 315 366
#     4  10  23  42  65  89 117 163 219 270 317 377
#     4  11  23  39  59  87 125 165 207 263 328 383
#     4  11  20  37  62  87 127 164 213 261 310 384
#     4  11  24  42  66  93 126 168 214 264 318 381
#     4  12  25  40  63  96 134 171 207 254 323 391
#
# _framework density 21.868465
#
# number of rings (size 3 to 8) (size 9 to 14) (size 15 to 20)
#    0.000    1.500    2.500    2.625    1.750    5.000 
#    0.000    0.625    0.000    2.250    0.000    0.000 
#    0.000    0.000    0.000    0.000    0.000    0.000 
#
# Total GULP energy -356427.056364 kJ/mol
# GULP energy per Si atom -5569.172756 kJ/mol
# Density = 2.181869 g / cm^3
# Si number density = 21.868465 Si / 1000 Ang^3
#
#
#
# Elastic Constant Matrix: (Units=GPa)
#
#
# Indices 1 2 3 4 5 6 
#
# 1 129.9775 20.2510 3.3991 0.0000 0.0000 0.0000
# 2 20.2510 83.4785 14.9626 0.0000 0.0000 0.0000
# 3 3.3991 14.9626 62.2313 0.0000 0.0000 0.0000
# 4 0.0000 0.0000 0.0000 12.7078 0.0000 0.0000
# 5 0.0000 0.0000 0.0000 0.0000 26.1987 0.0000
# 6 0.0000 0.0000 0.0000 0.0000 0.0000 9.1377
#
#
#
# Elastic Compliance Matrix: (Units=1/GPa)
#
#
# Indices 1 2 3 4 5 6 
#
# 1 0.007996 -0.001945 0.000031 0.000000 0.000000 0.000000
# 2 -0.001945 0.012992 -0.003017 0.000000 0.000000 0.000000
# 3 0.000031 -0.003017 0.016793 0.000000 0.000000 0.000000
# 4 0.000000 0.000000 0.000000 0.078692 0.000000 0.000000
# 5 0.000000 0.000000 0.000000 0.000000 0.038170 0.000000
# 6 0.000000 0.000000 0.000000 0.000000 0.000000 0.109437
#
#
# Mechanical properties :
#
#
# Convention : Reuss Voigt Hill
#
# Bulk Modulus (GPa) = 35.82026 39.21254 37.51640
# Shear Modulus (GPa) = 17.65235 25.41381 21.53308
#
# Velocity S-wave (km/s) = 2.84422 3.41269 3.14134
# Velocity P-wave (km/s) = 5.21551 5.78780 5.50909
#
# Compressibility (1/GPa) = 0.02791716
#
# Stress axis : x y z
#
# Youngs Moduli (GPa) = 125.06393 76.97110 59.54900
#
# Poissons Ratio (x) = 0.14973 -0.00184
# Poissons Ratio (y) = 0.24328 0.17969
# Poissons Ratio (z) = -0.00387 0.23226
#
# Static dielectric constant tensor:
#      x y z
#    x 1.910990 0.000000 0.000000 
#    y 0.000000 1.759590 0.000000 
#    z 0.000000 0.000000 1.902360 
# 
# From -- ./inp_files/4115.got.cif
#   From: 2010.05.17/outbox.cif.g08.bks.cpg/sg51_3_cif.got.tgz:4115.got - 2010.06.03 11:52:47.
