data_PCOD9404709
_publ_section_title
;
Structure prediction by ZEFSAII (Michael W. Deem and Ramdas Pophale) SiO2 
 PCOD9404709
Probable space group: P M M A
;
_chemical_formula_sum "Si O2"
_cell_formula_units_Z 48
_cell_length_a 13.287331
_cell_length_b 13.680273
_cell_length_c 11.808297
_cell_angle_alpha 90.000000
_cell_angle_beta 90.000000
_cell_angle_gamma 90.000000
_cell_volume 2146.445105
_symmetry_space_group_name_H-M "P M M A"
_symmetry_group_IT_number 51
_symmetry_cell_setting 'orthorhombic'
loop_
_space_group_symop_operation_xyz
x,y,z
1/2-x,-y,z
1/2+x,-y,-z
-x,y,-z
-x,-y,-z
1/2+x,y,-z
1/2-x,y,z
x,-y,z
loop_
_atom_site_type_symbol
_atom_site_label
_atom_site_fract_x
_atom_site_fract_y
_atom_site_fract_z
Si Si1 0.033157 0.387113 0.378821
Si Si2 0.130420 0.115825 0.435021
Si Si3 0.630896 0.682954 0.203903
Si Si4 0.862825 0.755694 0.761458
Si Si5 0.372246 0.112055 0.692062
Si Si6 0.629258 0.610940 0.948916
O O1 0.056290 0.500000 0.389385
O O2 0.940291 0.370301 0.293863
O O3 0.000000 0.347953 0.500000
O O4 0.129075 0.331833 0.329418
O O5 0.250000 0.141172 0.432764
O O6 0.089798 0.159677 0.316405
O O7 0.095809 0.140506 0.562947
O O8 0.120747 0.000000 0.429190
O O9 0.750000 0.668992 0.228900
O O10 0.608902 0.799046 0.220737
O O11 0.613636 0.638591 0.079425
O O12 0.750000 0.785867 0.792370
O O13 0.907482 0.701234 0.871142
O O14 0.250000 0.106253 0.686288
O O15 0.405702 0.000000 0.717789
O O16 0.750000 0.607993 0.930372
O O17 0.592912 0.500000 0.922359
#
# Coordination Sequence:
#
# PCOD9404709 Si02
#       6
#     8   8   8   8   8   8
#     4  11  24  37  52  80 109 135 179 228 268 324
#     4   8  14  27  50  78 105 136 175 216 261 317
#     4  10  20  36  56  77 107 144 177 218 270 315
#     4  10  20  36  56  77 107 144 177 218 270 315
#     4   8  14  27  50  78 105 136 175 216 261 317
#     4   9  18  33  54  78 102 138 189 227 256 310
#
# _framework density 22.362556999999999
#
# number of rings (size 3 to 8) (size 9 to 14) (size 15 to 20)
#    0.000    2.667    0.000    3.000    0.000    4.667 
#    0.000    5.000    0.000    8.000    0.000    2.333 
#    0.000    0.000    0.000    0.000    0.000    0.000 
#
# Total GULP energy -267703.120578 kJ/mol
# GULP energy per Si atom -5577.148345 kJ/mol
# Density = 2.231166 g / cm^3
# Si number density = 22.362557 Si / 1000 Ang^3
#
#
#
# Elastic Constant Matrix: (Units=GPa)
#
#
# Indices 1 2 3 4 5 6 
#
# 1 64.2928 -14.5510 2.3455 0.0000 0.0000 0.0000
# 2 -14.5510 93.8389 24.8345 0.0000 0.0000 0.0000
# 3 2.3455 24.8345 114.4103 0.0000 0.0000 0.0000
# 4 0.0000 0.0000 0.0000 44.9319 0.0000 0.0000
# 5 0.0000 0.0000 0.0000 0.0000 28.4760 0.0000
# 6 0.0000 0.0000 0.0000 0.0000 0.0000 18.6597
#
#
#
# Elastic Compliance Matrix: (Units=1/GPa)
#
#
# Indices 1 2 3 4 5 6 
#
# 1 0.016213 0.002761 -0.000932 0.000000 0.000000 0.000000
# 2 0.002761 0.011776 -0.002613 0.000000 0.000000 0.000000
# 3 -0.000932 -0.002613 0.009327 0.000000 0.000000 0.000000
# 4 0.000000 0.000000 0.000000 0.022256 0.000000 0.000000
# 5 0.000000 0.000000 0.000000 0.000000 0.035117 0.000000
# 6 0.000000 0.000000 0.000000 0.000000 0.000000 0.053591
#
#
# Mechanical properties :
#
#
# Convention : Reuss Voigt Hill
#
# Bulk Modulus (GPa) = 27.97378 33.08888 30.53133
# Shear Modulus (GPa) = 30.90931 35.74105 33.32518
#
# Velocity S-wave (km/s) = 3.72182 4.00215 3.86453
# Velocity P-wave (km/s) = 5.56826 6.01540 5.79614
#
# Compressibility (1/GPa) = 0.03574776
#
# Stress axis : x y z
#
# Youngs Moduli (GPa) = 61.68038 84.91781 107.21893
#
# Poissons Ratio (x) = -0.23442 0.09988
# Poissons Ratio (y) = -0.17027 0.28014
# Poissons Ratio (z) = 0.05746 0.22187
#
# Static dielectric constant tensor:
#      x y z
#    x 2.001880 0.000000 0.000000 
#    y 0.000000 1.830740 0.000000 
#    z 0.000000 0.000000 1.834820 
# 
# From -- ./inp_files/9637.got.cif
#   From: 2010.05.17/outbox.cif.g08.bks.cpg/sg51_5_cif.got.tgz:9637.got - 2010.06.03 11:52:47.
