data_PCOD9404024
_publ_section_title
;
Structure prediction by ZEFSAII (Michael W. Deem and Ramdas Pophale) SiO2 
 PCOD9404024
Probable space group: P M M A
;
_chemical_formula_sum "Si O2"
_cell_formula_units_Z 64
_cell_length_a 18.223142
_cell_length_b 8.876266
_cell_length_c 22.098334
_cell_angle_alpha 90.000000
_cell_angle_beta 90.000000
_cell_angle_gamma 90.000000
_cell_volume 3574.481891
_symmetry_space_group_name_H-M "P M M A"
_symmetry_group_IT_number 51
_symmetry_cell_setting 'orthorhombic'
loop_
_space_group_symop_operation_xyz
x,y,z
1/2-x,-y,z
1/2+x,-y,-z
-x,y,-z
-x,-y,-z
1/2+x,y,-z
1/2-x,y,z
x,-y,z
loop_
_atom_site_type_symbol
_atom_site_label
_atom_site_fract_x
_atom_site_fract_y
_atom_site_fract_z
Si Si1 0.102556 0.821035 0.248428
Si Si2 0.336112 0.680063 0.500145
Si Si3 0.578090 0.179562 0.388734
Si Si4 0.668785 0.318972 0.869365
Si Si5 0.053339 0.820665 0.815405
Si Si6 0.836416 0.680028 0.275242
Si Si7 0.916905 0.320245 0.624655
Si Si8 0.018263 0.318184 0.068400
O O1 0.152971 0.754732 0.195543
O O2 0.114405 0.744600 0.312895
O O3 0.018742 0.790743 0.226297
O O4 0.111714 0.000000 0.252869
O O5 0.250000 0.715130 0.505329
O O6 0.345225 0.500000 0.510788
O O7 0.382746 0.768581 0.549717
O O8 0.366067 0.712596 0.433105
O O9 0.625297 0.243749 0.332977
O O10 0.496643 0.247715 0.385632
O O11 0.574015 0.000000 0.384443
O O12 0.750000 0.277314 0.891258
O O13 0.666099 0.500000 0.862513
O O14 0.601610 0.276423 0.913091
O O15 0.121705 0.741077 0.783701
O O16 0.033666 0.756310 0.881284
O O17 0.063765 0.000000 0.817737
O O18 0.750000 0.714486 0.274036
O O19 0.845328 0.500000 0.279542
O O20 0.924849 0.500000 0.629714
O O21 0.011471 0.500000 0.072851
O O22 0.000000 0.273629 0.000000
#
# Coordination Sequence:
#
# PCOD9404024 Si02
#       8
#     8   8   8   8   8   8   8   8
#     4  10  20  34  54  82 112 143 180 227 283 337
#     4  10  23  42  59  78 107 144 188 235 284 339
#     4  12  24  38  58  84 112 145 186 232 284 342
#     4   9  18  33  54  80 111 149 192 235 281 336
#     4  10  20  35  56  82 114 147 182 228 281 337
#     4  11  23  38  59  85 112 146 188 234 284 338
#     4  11  22  37  60  84 109 146 188 232 279 337
#     4   9  18  34  57  83 113 153 198 240 281 330
#
# _framework density 17.904693999999999
#
# number of rings (size 3 to 8) (size 9 to 14) (size 15 to 20)
#    0.000    1.750    1.250    3.375    0.000    7.250 
#    0.000    1.875    0.000    2.250    0.000    0.000 
#    0.000    0.000    0.000    0.000    0.000    0.000 
#
# Total GULP energy -357568.933279 kJ/mol
# GULP energy per Si atom -5587.014582 kJ/mol
# Density = 1.786394 g / cm^3
# Si number density = 17.904694 Si / 1000 Ang^3
#
#
#
# Elastic Constant Matrix: (Units=GPa)
#
#
# Indices 1 2 3 4 5 6 
#
# 1 55.6100 18.6272 27.1252 0.0000 0.0000 0.0000
# 2 18.6272 33.5446 33.5893 0.0000 0.0000 0.0000
# 3 27.1252 33.5893 122.3818 0.0000 0.0000 0.0000
# 4 0.0000 0.0000 0.0000 -33.2227 0.0000 0.0000
# 5 0.0000 0.0000 0.0000 0.0000 15.1363 0.0000
# 6 0.0000 0.0000 0.0000 0.0000 0.0000 -5.9753
#
#
#
# Elastic Compliance Matrix: (Units=1/GPa)
#
#
# Indices 1 2 3 4 5 6 
#
# 1 0.022493 -0.010340 -0.002148 0.000000 0.000000 0.000000
# 2 -0.010340 0.045862 -0.010296 0.000000 0.000000 0.000000
# 3 -0.002148 -0.010296 0.011473 0.000000 0.000000 0.000000
# 4 0.000000 0.000000 0.000000 -0.030100 0.000000 0.000000
# 5 0.000000 0.000000 0.000000 0.000000 0.066066 0.000000
# 6 0.000000 0.000000 0.000000 0.000000 0.000000 -0.167355
#
#
# Mechanical properties :
#
#
# Convention : Reuss Voigt Hill
#
# Bulk Modulus (GPa) = 29.18688 41.13555 35.16122
# Shear Modulus (GPa) = 921.19560 4.00063 462.59811
#
# Velocity S-wave (km/s) = 22.70719 1.49641 16.09124
# Velocity P-wave (km/s) = 26.52970 5.10003 19.10282
#
# Compressibility (1/GPa) = 0.03426196
#
# Stress axis : x y z
#
# Youngs Moduli (GPa) = 44.45735 21.80437 87.16160
#
# Poissons Ratio (x) = 0.22546 0.18719
# Poissons Ratio (y) = 0.45969 0.89739
# Poissons Ratio (z) = 0.09548 0.22449
#
# Static dielectric constant tensor:
#      x y z
#    x 1.602330 0.000000 0.000000 
#    y 0.000000 1.593840 0.000000 
#    z 0.000000 0.000000 1.586360 
# 
# From -- ./inp_files/33825.got.cif
#   From: 2010.05.17/outbox.cif.g08.bks.cpg/sg51_17_cif.got.tgz:33825.got - 2010.06.03 11:52:47.
