data_PCOD9404531
_publ_section_title
;
Structure prediction by ZEFSAII (Michael W. Deem and Ramdas Pophale) SiO2 
 PCOD9404531
Probable space group: P M M A
;
_chemical_formula_sum "Si O2"
_cell_formula_units_Z 56
_cell_length_a 20.215934
_cell_length_b 7.849842
_cell_length_c 17.936078
_cell_angle_alpha 90.000000
_cell_angle_beta 90.000000
_cell_angle_gamma 90.000000
_cell_volume 2846.310077
_symmetry_space_group_name_H-M "P M M A"
_symmetry_group_IT_number 51
_symmetry_cell_setting 'orthorhombic'
loop_
_space_group_symop_operation_xyz
x,y,z
1/2-x,-y,z
1/2+x,-y,-z
-x,y,-z
-x,-y,-z
1/2+x,y,-z
1/2-x,y,z
x,-y,z
loop_
_atom_site_type_symbol
_atom_site_label
_atom_site_fract_x
_atom_site_fract_y
_atom_site_fract_z
Si Si1 0.420569 0.700764 0.730964
Si Si2 0.055671 0.205868 0.896338
Si Si3 0.824462 0.797794 0.397275
Si Si4 0.573652 0.794050 0.521471
Si Si5 0.066864 0.704528 0.309522
Si Si6 0.908425 0.794381 0.940968
Si Si7 0.823668 0.296815 0.805466
O O1 0.420620 0.500000 0.716529
O O2 0.414828 0.730944 0.819095
O O3 0.362500 0.774935 0.680612
O O4 0.492700 0.771505 0.706244
O O5 0.978907 0.261244 0.905475
O O6 0.055885 0.000000 0.894774
O O7 0.091537 0.260527 0.972728
O O8 0.750000 0.727055 0.397062
O O9 0.872173 0.729174 0.462649
O O10 0.819368 0.000000 0.410282
O O11 0.500000 0.732860 0.500000
O O12 0.587198 0.743639 0.606244
O O13 0.572633 0.000000 0.517365
O O14 0.063606 0.500000 0.300053
O O15 0.120783 0.772460 0.251055
O O16 0.849837 0.732950 0.888820
O O17 0.908588 0.000000 0.940653
O O18 0.750000 0.227002 0.794156
O O19 0.820654 0.500000 0.793402
#
# Coordination Sequence:
#
# PCOD9404531 Si02
#       7
#     8   8   8   8   8   8   8
#     4  11  21  34  56  85 113 143 184 229 270 323
#     4   9  18  33  55  82 110 141 179 227 278 323
#     4  10  22  40  59  80 110 146 181 223 279 332
#     4  10  20  35  57  83 107 138 180 224 269 320
#     4  10  21  35  53  81 112 144 183 224 270 322
#     4   9  18  33  54  81 109 139 182 230 273 323
#     4  10  21  37  54  76 113 154 185 220 274 331
#
# _framework density 19.674595
#
# number of rings (size 3 to 8) (size 9 to 14) (size 15 to 20)
#    0.000    2.143    2.857    1.286    0.000    3.714 
#    0.000    2.143    0.000    0.857    0.000    0.000 
#    0.000    0.000    0.000    0.000    0.000    0.000 
#
# Total GULP energy -312591.605340 kJ/mol
# GULP energy per Si atom -5581.992952 kJ/mol
# Density = 1.962981 g / cm^3
# Si number density = 19.674595 Si / 1000 Ang^3
#
#
#
# Elastic Constant Matrix: (Units=GPa)
#
#
# Indices 1 2 3 4 5 6 
#
# 1 156.4033 10.6042 76.3691 0.0000 0.0000 0.0000
# 2 10.6042 18.9733 -10.6000 0.0000 0.0000 0.0000
# 3 76.3691 -10.6000 133.6188 0.0000 0.0000 0.0000
# 4 0.0000 0.0000 0.0000 30.2717 0.0000 0.0000
# 5 0.0000 0.0000 0.0000 0.0000 20.7792 0.0000
# 6 0.0000 0.0000 0.0000 0.0000 0.0000 36.8202
#
#
#
# Elastic Compliance Matrix: (Units=1/GPa)
#
#
# Indices 1 2 3 4 5 6 
#
# 1 0.010262 -0.009431 -0.006614 0.000000 0.000000 0.000000
# 2 -0.009431 0.063816 0.010453 0.000000 0.000000 0.000000
# 3 -0.006614 0.010453 0.012093 0.000000 0.000000 0.000000
# 4 0.000000 0.000000 0.000000 0.033034 0.000000 0.000000
# 5 0.000000 0.000000 0.000000 0.000000 0.048125 0.000000
# 6 0.000000 0.000000 0.000000 0.000000 0.000000 0.027159
#
#
# Mechanical properties :
#
#
# Convention : Reuss Voigt Hill
#
# Bulk Modulus (GPa) = 13.33540 51.30465 32.32003
# Shear Modulus (GPa) = 21.67610 33.08238 27.37924
#
# Velocity S-wave (km/s) = 3.32283 4.10503 3.73447
# Velocity P-wave (km/s) = 4.63835 6.97148 5.92098
#
# Compressibility (1/GPa) = 0.07498836
#
# Stress axis : x y z
#
# Youngs Moduli (GPa) = 97.44314 15.67006 82.69174
#
# Poissons Ratio (x) = 0.14778 0.54689
# Poissons Ratio (y) = 0.91894 -0.86434
# Poissons Ratio (z) = 0.64444 -0.16379
#
# Static dielectric constant tensor:
#      x y z
#    x 1.695810 0.000000 0.000000 
#    y 0.000000 1.716330 0.000000 
#    z 0.000000 0.000000 1.672740 
# 
# From -- ./inp_files/25722.got.cif
#   From: 2010.05.17/outbox.cif.g08.bks.cpg/sg51_13_cif.got.tgz:25722.got - 2010.06.03 11:52:47.
