data_PCOD9404049
_publ_section_title
;
Structure prediction by ZEFSAII (Michael W. Deem and Ramdas Pophale) SiO2 
 PCOD9404049
Probable space group: P M M A
;
_chemical_formula_sum "Si O2"
_cell_formula_units_Z 56
_cell_length_a 14.226145
_cell_length_b 20.051527
_cell_length_c 8.356104
_cell_angle_alpha 90.000000
_cell_angle_beta 90.000000
_cell_angle_gamma 90.000000
_cell_volume 2383.628222
_symmetry_space_group_name_H-M "P M M A"
_symmetry_group_IT_number 51
_symmetry_cell_setting 'orthorhombic'
loop_
_space_group_symop_operation_xyz
x,y,z
1/2-x,-y,z
1/2+x,-y,-z
-x,y,-z
-x,-y,-z
1/2+x,y,-z
1/2-x,y,z
x,-y,z
loop_
_atom_site_type_symbol
_atom_site_label
_atom_site_fract_x
_atom_site_fract_y
_atom_site_fract_z
Si Si1 0.857612 0.788604 0.052418
Si Si2 0.858617 0.209386 0.671339
Si Si3 0.400973 0.357090 0.338894
Si Si4 0.638827 0.927798 0.169809
Si Si5 0.391145 0.579041 0.657830
Si Si6 0.860861 0.070990 0.553152
Si Si7 0.604895 0.360925 0.022425
O O1 0.750000 0.783592 0.114588
O O2 0.854278 0.795770 0.862069
O O3 0.902474 0.716383 0.080088
O O4 0.902288 0.856736 0.117147
O O5 0.750000 0.215031 0.611127
O O6 0.909332 0.278025 0.630327
O O7 0.902030 0.140302 0.611742
O O8 0.502102 0.392662 0.332967
O O9 0.352462 0.389050 0.494048
O O10 0.356323 0.362844 0.159839
O O11 0.750000 0.926010 0.121391
O O12 0.636516 0.929002 0.361724
O O13 0.601741 0.000000 0.112150
O O14 0.390020 0.500000 0.642943
O O15 0.350076 0.600704 0.829516
O O16 0.750000 0.071503 0.600894
O O17 0.901517 0.000000 0.611044
O O18 0.500000 0.388157 0.000000
#
# Coordination Sequence:
#
# PCOD9404049 Si02
#       7
#     8   8   8   8   8   8   8
#     4   9  17  29  46  69  97 126 159 198 240 284
#     4   9  17  28  44  68  97 129 157 188 240 288
#     4   9  18  32  49  73 100 120 153 200 232 277
#     4   8  14  24  39  62  91 123 160 200 238 274
#     4  10  20  34  55  76  90 118 158 195 241 284
#     4   8  14  24  38  61  93 126 160 196 232 273
#     4   9  19  33  50  74 100 125 158 196 239 285
#
# _framework density 23.493596
#
# number of rings (size 3 to 8) (size 9 to 14) (size 15 to 20)
#    0.000    3.143    0.000    1.714    2.000    3.714 
#    0.000    2.857    0.000    3.429    0.000   15.000 
#    0.000    0.000    0.000    0.000    0.000    0.000 
#
# Total GULP energy -312207.308970 kJ/mol
# GULP energy per Si atom -5575.130517 kJ/mol
# Density = 2.344012 g / cm^3
# Si number density = 23.493596 Si / 1000 Ang^3
#
#
#
# Elastic Constant Matrix: (Units=GPa)
#
#
# Indices 1 2 3 4 5 6 
#
# 1 69.0902 2.9408 11.9165 0.0000 0.0000 0.0000
# 2 2.9408 217.6478 82.6297 0.0000 0.0000 0.0000
# 3 11.9165 82.6297 121.1692 0.0000 0.0000 0.0000
# 4 0.0000 0.0000 0.0000 130.5362 0.0000 0.0000
# 5 0.0000 0.0000 0.0000 0.0000 -4.2430 0.0000
# 6 0.0000 0.0000 0.0000 0.0000 0.0000 2.9962
#
#
#
# Elastic Compliance Matrix: (Units=1/GPa)
#
#
# Indices 1 2 3 4 5 6 
#
# 1 0.014760 0.000474 -0.001775 0.000000 0.000000 0.000000
# 2 0.000474 0.006215 -0.004285 0.000000 0.000000 0.000000
# 3 -0.001775 -0.004285 0.011349 0.000000 0.000000 0.000000
# 4 0.000000 0.000000 0.000000 0.007661 0.000000 0.000000
# 5 0.000000 0.000000 0.000000 0.000000 -0.235684 0.000000
# 6 0.000000 0.000000 0.000000 0.000000 0.000000 0.333762
#
#
# Mechanical properties :
#
#
# Convention : Reuss Voigt Hill
#
# Bulk Modulus (GPa) = 47.27409 66.98681 57.13045
# Shear Modulus (GPa) = 31.99299 46.55256 39.27277
#
# Velocity S-wave (km/s) = 3.69423 4.45623 4.09300
# Velocity P-wave (km/s) = 6.19372 7.41971 6.83426
#
# Compressibility (1/GPa) = 0.02115324
#
# Stress axis : x y z
#
# Youngs Moduli (GPa) = 67.75153 160.90373 88.10972
#
# Poissons Ratio (x) = -0.07635 0.15641
# Poissons Ratio (y) = -0.03215 0.37754
# Poissons Ratio (z) = 0.12027 0.68945
#
# Static dielectric constant tensor:
#      x y z
#    x 2.034520 0.000000 0.000000 
#    y 0.000000 1.878540 0.000000 
#    z 0.000000 0.000000 1.907730 
# 
# From -- ./inp_files/11134.got.cif
#   From: 2010.05.17/outbox.cif.g08.bks.cpg/sg51_6_cif.got.tgz:11134.got - 2010.06.03 11:52:47.
