data_PCOD9404387
_publ_section_title
;
Structure prediction by ZEFSAII (Michael W. Deem and Ramdas Pophale) SiO2 
 PCOD9404387
Probable space group: P M M A
;
_chemical_formula_sum "Si O2"
_cell_formula_units_Z 44
_cell_length_a 8.916677
_cell_length_b 27.747265
_cell_length_c 10.145548
_cell_angle_alpha 90.000000
_cell_angle_beta 90.000000
_cell_angle_gamma 90.000000
_cell_volume 2510.144522
_symmetry_space_group_name_H-M "P M M A"
_symmetry_group_IT_number 51
_symmetry_cell_setting 'orthorhombic'
loop_
_space_group_symop_operation_xyz
x,y,z
1/2-x,-y,z
1/2+x,-y,-z
-x,y,-z
-x,-y,-z
1/2+x,y,-z
1/2-x,y,z
x,-y,z
loop_
_atom_site_type_symbol
_atom_site_label
_atom_site_fract_x
_atom_site_fract_y
_atom_site_fract_z
Si Si1 0.428859 0.626543 0.143261
Si Si2 0.431302 0.000000 0.854044
Si Si3 0.570311 0.191683 0.358950
Si Si4 0.429822 0.079144 0.640916
Si Si5 0.071048 0.738782 0.143195
Si Si6 0.571058 0.556246 0.357153
O O1 0.250000 0.619964 0.137101
O O2 0.458790 0.682663 0.177369
O O3 0.500189 0.591171 0.249531
O O4 0.500000 0.617581 0.000000
O O5 0.475837 0.954166 0.763518
O O6 0.250000 0.000000 0.866326
O O7 0.500000 0.000000 0.000000
O O8 0.500000 0.204597 0.500000
O O9 0.750000 0.196231 0.362970
O O10 0.533098 0.135264 0.334872
O O11 0.501847 0.225657 0.248082
O O12 0.500000 0.064780 0.500000
O O13 0.250000 0.074985 0.628268
O O14 0.250000 0.745457 0.137966
O O15 0.000000 0.747531 0.000000
O O16 0.500000 0.566051 0.500000
O O17 0.750000 0.562608 0.362912
O O18 0.540246 0.500000 0.325312
#
# Coordination Sequence:
#
# PCOD9404387 Si02
#       6
#     8   4   8   8   8   8
#     4  10  21  37  57  80 107 140 179 220 263 314
#     4  10  21  36  52  76 108 138 173 216 260 310
#     4  10  20  35  55  80 108 139 177 220 264 314
#     4   9  19  35  55  78 104 136 175 216 260 311
#     4  10  21  37  56  79 107 141 178 218 266 316
#     4  10  21  37  57  81 109 141 177 218 265 315
#
# _framework density 17.528870999999999
#
# number of rings (size 3 to 8) (size 9 to 14) (size 15 to 20)
#    0.000    2.182    0.000    2.455    0.000    6.545 
#    0.000    1.818    0.000    0.000    0.000    0.000 
#    0.000    0.000    0.000    0.000    0.000    0.000 
#
# Total GULP energy -245664.242794 kJ/mol
# GULP energy per Si atom -5583.278245 kJ/mol
# Density = 1.748897 g / cm^3
# Si number density = 17.528871 Si / 1000 Ang^3
#
#
#
# Elastic Constant Matrix: (Units=GPa)
#
#
# Indices 1 2 3 4 5 6 
#
# 1 71.3868 73.5629 79.1030 0.0000 0.0000 0.0000
# 2 73.5629 120.9837 128.8355 0.0000 0.0000 0.0000
# 3 79.1030 128.8355 179.4908 0.0000 0.0000 0.0000
# 4 0.0000 0.0000 0.0000 44.7722 0.0000 0.0000
# 5 0.0000 0.0000 0.0000 0.0000 41.3546 0.0000
# 6 0.0000 0.0000 0.0000 0.0000 0.0000 29.4071
#
#
#
# Elastic Compliance Matrix: (Units=1/GPa)
#
#
# Indices 1 2 3 4 5 6 
#
# 1 0.037532 -0.022097 -0.000680 0.000000 0.000000 0.000000
# 2 -0.022097 0.048088 -0.024778 0.000000 0.000000 0.000000
# 3 -0.000680 -0.024778 0.023656 0.000000 0.000000 0.000000
# 4 0.000000 0.000000 0.000000 0.022335 0.000000 0.000000
# 5 0.000000 0.000000 0.000000 0.000000 0.024181 0.000000
# 6 0.000000 0.000000 0.000000 0.000000 0.000000 0.034005
#
#
# Mechanical properties :
#
#
# Convention : Reuss Voigt Hill
#
# Bulk Modulus (GPa) = 70.59167 103.87376 87.23272
# Shear Modulus (GPa) = 17.26336 29.13079 23.19708
#
# Velocity S-wave (km/s) = 3.14164 4.08103 3.64175
# Velocity P-wave (km/s) = 7.31567 9.03293 8.21927
#
# Compressibility (1/GPa) = 0.01416598
#
# Stress axis : x y z
#
# Youngs Moduli (GPa) = 26.64381 20.79521 42.27203
#
# Poissons Ratio (x) = 0.45952 0.02873
# Poissons Ratio (y) = 0.58876 1.04743
# Poissons Ratio (z) = 0.01811 0.51527
#
# Static dielectric constant tensor:
#      x y z
#    x 1.582820 0.000000 0.000000 
#    y 0.000000 1.595750 0.000000 
#    z 0.000000 0.000000 1.556560 
# 
# From -- ./inp_files/5864.got.cif
#   From: 2010.05.17/outbox.cif.g08.bks.cpg/sg51_3_cif.got.tgz:5864.got - 2010.06.03 11:52:47.
