data_PCOD9404212
_publ_section_title
;
Structure prediction by ZEFSAII (Michael W. Deem and Ramdas Pophale) SiO2 
 PCOD9404212
Probable space group: P M M A
;
_chemical_formula_sum "Si O2"
_cell_formula_units_Z 64
_cell_length_a 15.216924
_cell_length_b 23.418114
_cell_length_c 9.266173
_cell_angle_alpha 90.000000
_cell_angle_beta 90.000000
_cell_angle_gamma 90.000000
_cell_volume 3302.016139
_symmetry_space_group_name_H-M "P M M A"
_symmetry_group_IT_number 51
_symmetry_cell_setting 'orthorhombic'
loop_
_space_group_symop_operation_xyz
x,y,z
1/2-x,-y,z
1/2+x,-y,-z
-x,y,-z
-x,-y,-z
1/2+x,y,-z
1/2-x,y,z
x,-y,z
loop_
_atom_site_type_symbol
_atom_site_label
_atom_site_fract_x
_atom_site_fract_y
_atom_site_fract_z
Si Si1 0.916372 0.337498 0.597263
Si Si2 0.033978 0.376041 0.854261
Si Si3 0.652854 0.147891 0.168924
Si Si4 0.476541 0.119961 0.341036
Si Si5 0.902800 0.063203 0.929278
Si Si6 0.353278 0.564632 0.612278
Si Si7 0.649229 0.775054 0.711690
Si Si8 0.351910 0.269801 0.967993
O O1 0.873785 0.390693 0.514837
O O2 0.856569 0.282363 0.617260
O O3 0.000000 0.320412 0.500000
O O4 0.953857 0.356966 0.751728
O O5 0.094712 0.414430 0.752864
O O6 0.087594 0.320205 0.908477
O O7 0.000000 0.405075 0.000000
O O8 0.750000 0.137410 0.232007
O O9 0.570343 0.130143 0.264412
O O10 0.643955 0.214814 0.134943
O O11 0.646364 0.112218 0.019024
O O12 0.500000 0.098859 0.500000
O O13 0.419520 0.079404 0.236615
O O14 0.419857 0.178414 0.344176
O O15 0.863890 0.000000 0.945574
O O16 0.000000 0.061882 0.000000
O O17 0.250000 0.565754 0.641779
O O18 0.379255 0.500000 0.573056
O O19 0.750000 0.796293 0.714617
O O20 0.624115 0.755018 0.874143
O O21 0.250000 0.289117 0.976609
#
# Coordination Sequence:
#
# PCOD9404212 Si02
#       8
#     8   8   8   8   8   8   8   8
#     4  10  21  36  59  86 115 156 196 240 293 358
#     4  11  21  35  60  89 116 146 189 245 302 355
#     4  10  21  38  61  87 117 162 209 253 301 357
#     4  11  23  37  57  88 127 164 197 252 311 369
#     4   9  19  37  61  85 113 156 208 251 291 350
#     4  10  23  44  63  81 114 158 200 242 293 359
#     4  11  21  35  57  87 124 161 203 249 302 367
#     4  10  20  34  57  86 119 154 193 241 301 359
#
# _framework density 19.382097000000002
#
# number of rings (size 3 to 8) (size 9 to 14) (size 15 to 20)
#    0.000    1.750    2.500    1.875    0.000    4.500 
#    0.000    2.500    0.000    1.500    0.000    1.750 
#    0.000    0.000    0.000    0.000    0.000    0.000 
#
# Total GULP energy -357270.174182 kJ/mol
# GULP energy per Si atom -5582.346472 kJ/mol
# Density = 1.933798 g / cm^3
# Si number density = 19.382097 Si / 1000 Ang^3
#
#
#
# Elastic Constant Matrix: (Units=GPa)
#
#
# Indices 1 2 3 4 5 6 
#
# 1 66.1282 14.2260 7.8381 0.0000 0.0000 0.0000
# 2 14.2260 76.2388 10.6636 0.0000 0.0000 0.0000
# 3 7.8381 10.6636 85.0138 0.0000 0.0000 0.0000
# 4 0.0000 0.0000 0.0000 21.1155 0.0000 0.0000
# 5 0.0000 0.0000 0.0000 0.0000 16.1403 0.0000
# 6 0.0000 0.0000 0.0000 0.0000 0.0000 -4.1582
#
#
#
# Elastic Compliance Matrix: (Units=1/GPa)
#
#
# Indices 1 2 3 4 5 6 
#
# 1 0.015857 -0.002804 -0.001110 0.000000 0.000000 0.000000
# 2 -0.002804 0.013847 -0.001478 0.000000 0.000000 0.000000
# 3 -0.001110 -0.001478 0.012051 0.000000 0.000000 0.000000
# 4 0.000000 0.000000 0.000000 0.047359 0.000000 0.000000
# 5 0.000000 0.000000 0.000000 0.000000 0.061957 0.000000
# 6 0.000000 0.000000 0.000000 0.000000 0.000000 -0.240488
#
#
# Mechanical properties :
#
#
# Convention : Reuss Voigt Hill
#
# Bulk Modulus (GPa) = 32.28969 32.53736 32.41353
# Shear Modulus (GPa) = -73.19528 19.59637 -26.79945
#
# Velocity S-wave (km/s) = -6.15194 3.18316 -3.72249
# Velocity P-wave (km/s) = 5.81086 5.50761 1.31002
#
# Compressibility (1/GPa) = 0.03096963
#
# Stress axis : x y z
#
# Youngs Moduli (GPa) = 63.06413 72.21989 82.98340
#
# Poissons Ratio (x) = 0.20247 0.09214
# Poissons Ratio (y) = 0.17680 0.12268
# Poissons Ratio (z) = 0.07002 0.10677
#
# Static dielectric constant tensor:
#      x y z
#    x 1.680580 0.000000 0.000000 
#    y 0.000000 1.666790 0.000000 
#    z 0.000000 0.000000 1.695870 
# 
# From -- ./inp_files/8717.got.cif
#   From: 2010.05.17/outbox.cif.g08.bks.cpg/sg51_5_cif.got.tgz:8717.got - 2010.06.03 11:52:47.
