data_PCOD9404220
_publ_section_title
;
Structure prediction by ZEFSAII (Michael W. Deem and Ramdas Pophale) SiO2 
 PCOD9404220
Probable space group: P M M A
;
_chemical_formula_sum "Si O2"
_cell_formula_units_Z 64
_cell_length_a 8.519386
_cell_length_b 14.935654
_cell_length_c 25.919058
_cell_angle_alpha 90.000000
_cell_angle_beta 90.000000
_cell_angle_gamma 90.000000
_cell_volume 3298.008371
_symmetry_space_group_name_H-M "P M M A"
_symmetry_group_IT_number 51
_symmetry_cell_setting 'orthorhombic'
loop_
_space_group_symop_operation_xyz
x,y,z
1/2-x,-y,z
1/2+x,-y,-z
-x,y,-z
-x,-y,-z
1/2+x,y,-z
1/2-x,y,z
x,-y,z
loop_
_atom_site_type_symbol
_atom_site_label
_atom_site_fract_x
_atom_site_fract_y
_atom_site_fract_z
Si Si1 0.438448 0.710450 0.944524
Si Si2 0.437926 0.099940 0.213700
Si Si3 0.061543 0.395817 0.154255
Si Si4 0.938168 0.291595 0.558291
Si Si5 0.561789 0.717373 0.251408
Si Si6 0.939584 0.904423 0.558947
Si Si7 0.439492 0.099033 0.903356
Si Si8 0.060681 0.398847 0.651962
O O1 0.250000 0.709036 0.943838
O O2 0.500747 0.649159 0.898280
O O3 0.492561 0.813375 0.934253
O O4 0.500000 0.680641 0.000000
O O5 0.250000 0.105320 0.211299
O O6 0.501761 0.181498 0.246955
O O7 0.504055 0.109412 0.155611
O O8 0.481605 0.000000 0.232096
O O9 0.250000 0.391913 0.154893
O O10 0.013068 0.500000 0.157986
O O11 0.997108 0.338505 0.202061
O O12 0.750000 0.294339 0.557049
O O13 0.989554 0.192737 0.579204
O O14 0.000000 0.301552 0.500000
O O15 0.002043 0.365420 0.596872
O O16 0.750000 0.717739 0.250465
O O17 0.506080 0.667580 0.303005
O O18 0.750000 0.904365 0.558627
O O19 0.000000 0.905196 0.500000
O O20 0.990968 0.000000 0.582668
O O21 0.250000 0.099166 0.903547
O O22 0.492626 0.000000 0.921622
O O23 0.250000 0.397824 0.651884
O O24 0.008487 0.500000 0.662808
#
# Coordination Sequence:
#
# PCOD9404220 Si02
#       8
#     8   8   8   8   8   8   8   8
#     4  11  23  38  58  84 117 157 197 244 295 347
#     4  10  20  34  57  89 122 156 192 232 281 340
#     4  11  24  41  62  87 114 147 191 244 299 357
#     4  10  20  35  58  86 117 154 194 236 285 341
#     4  11  22  39  64  90 117 151 190 239 294 350
#     4   8  14  26  46  74 107 142 180 221 266 318
#     4   9  18  34  56  83 115 153 195 235 282 342
#     4  10  23  42  61  83 113 149 192 242 293 344
#
# _framework density 19.405650999999999
#
# number of rings (size 3 to 8) (size 9 to 14) (size 15 to 20)
#    0.000    2.000    1.250    2.250    0.000    5.250 
#    0.000    0.625    0.000    2.250    0.000    0.000 
#    0.000    0.000    0.000    0.000    0.000    0.000 
#
# Total GULP energy -357208.288212 kJ/mol
# GULP energy per Si atom -5581.379503 kJ/mol
# Density = 1.936148 g / cm^3
# Si number density = 19.405651 Si / 1000 Ang^3
#
#
#
# Elastic Constant Matrix: (Units=GPa)
#
#
# Indices 1 2 3 4 5 6 
#
# 1 10.8350 14.6806 5.5787 0.0000 0.0000 0.0000
# 2 14.6806 120.0412 50.8585 0.0000 0.0000 0.0000
# 3 5.5787 50.8585 87.7718 0.0000 0.0000 0.0000
# 4 0.0000 0.0000 0.0000 -4.7044 0.0000 0.0000
# 5 0.0000 0.0000 0.0000 0.0000 22.8547 0.0000
# 6 0.0000 0.0000 0.0000 0.0000 0.0000 21.0775
#
#
#
# Elastic Compliance Matrix: (Units=1/GPa)
#
#
# Indices 1 2 3 4 5 6 
#
# 1 0.110701 -0.013992 0.001072 0.000000 0.000000 0.000000
# 2 -0.013992 0.012810 -0.006533 0.000000 0.000000 0.000000
# 3 0.001072 -0.006533 0.015111 0.000000 0.000000 0.000000
# 4 0.000000 0.000000 0.000000 -0.212567 0.000000 0.000000
# 5 0.000000 0.000000 0.000000 0.000000 0.043755 0.000000
# 6 0.000000 0.000000 0.000000 0.000000 0.000000 0.047444
#
#
# Mechanical properties :
#
#
# Convention : Reuss Voigt Hill
#
# Bulk Modulus (GPa) = 10.02873 40.09817 25.06345
# Shear Modulus (GPa) = 55.93016 17.68092 36.80554
#
# Velocity S-wave (km/s) = 5.37440 3.02175 4.35977
# Velocity P-wave (km/s) = 6.60994 5.73434 6.18765
#
# Compressibility (1/GPa) = 0.09971349
#
# Stress axis : x y z
#
# Youngs Moduli (GPa) = 9.03337 78.06660 66.17888
#
# Poissons Ratio (x) = 1.09234 -0.07093
# Poissons Ratio (y) = 0.12640 0.43235
# Poissons Ratio (z) = -0.00968 0.51001
#
# Static dielectric constant tensor:
#      x y z
#    x 1.664650 0.000000 0.000000 
#    y 0.000000 1.722310 0.000000 
#    z 0.000000 0.000000 1.617240 
# 
# From -- ./inp_files/35028.got.cif
#   From: 2010.05.17/outbox.cif.g08.bks.cpg/sg51_18_cif.got.tgz:35028.got - 2010.06.03 11:52:47.
