data_PCOD9404122
_publ_section_title
;
Structure prediction by ZEFSAII (Michael W. Deem and Ramdas Pophale) SiO2 
 PCOD9404122
Probable space group: P M M A
;
_chemical_formula_sum "Si O2"
_cell_formula_units_Z 48
_cell_length_a 28.932292
_cell_length_b 8.762584
_cell_length_c 10.527355
_cell_angle_alpha 90.000000
_cell_angle_beta 90.000000
_cell_angle_gamma 90.000000
_cell_volume 2668.912294
_symmetry_space_group_name_H-M "P M M A"
_symmetry_group_IT_number 51
_symmetry_cell_setting 'orthorhombic'
loop_
_space_group_symop_operation_xyz
x,y,z
1/2-x,-y,z
1/2+x,-y,-z
-x,y,-z
-x,-y,-z
1/2+x,y,-z
1/2-x,y,z
x,-y,z
loop_
_atom_site_type_symbol
_atom_site_label
_atom_site_fract_x
_atom_site_fract_y
_atom_site_fract_z
Si Si1 0.397658 0.815980 0.997978
Si Si2 0.697412 0.317608 0.604435
Si Si3 0.550223 0.681889 0.759363
Si Si4 0.447877 0.184226 0.738278
Si Si5 0.605142 0.817327 0.519978
Si Si6 0.801867 0.816377 0.886692
O O1 0.427795 0.744336 0.110551
O O2 0.344183 0.773455 0.022355
O O3 0.400971 0.000000 0.008262
O O4 0.417661 0.772532 0.861194
O O5 0.750000 0.277474 0.566896
O O6 0.692656 0.500000 0.601740
O O7 0.657627 0.241223 0.521569
O O8 0.691147 0.260005 0.749316
O O9 0.551966 0.500000 0.758554
O O10 0.497875 0.739799 0.746295
O O11 0.579541 0.746317 0.641388
O O12 0.421778 0.224982 0.608348
O O13 0.453821 0.000000 0.739445
O O14 0.604650 0.000000 0.532209
O O15 0.750000 0.776820 0.931523
O O16 0.803489 0.000000 0.869267
#
# Coordination Sequence:
#
# PCOD9404122 Si02
#       6
#     8   8   8   8   8   8
#     4  10  20  37  59  83 113 148 184 230 281 330
#     4  10  20  34  55  84 115 145 182 229 277 327
#     4  12  24  37  57  84 111 146 191 236 281 333
#     4  10  23  40  57  80 113 151 189 231 281 334
#     4  11  22  38  59  83 112 149 190 232 278 329
#     4   9  17  31  55  84 110 141 182 224 271 328
#
# _framework density 17.984857000000002
#
# number of rings (size 3 to 8) (size 9 to 14) (size 15 to 20)
#    0.000    1.667    1.667    3.500    0.000    7.000 
#    0.000    0.833    0.000    3.000    0.000    2.333 
#    0.000    0.000    0.000    0.000    0.000    0.000 
#
# Total GULP energy -268132.965244 kJ/mol
# GULP energy per Si atom -5586.103443 kJ/mol
# Density = 1.794392 g / cm^3
# Si number density = 17.984857 Si / 1000 Ang^3
#
#
#
# Elastic Constant Matrix: (Units=GPa)
#
#
# Indices 1 2 3 4 5 6 
#
# 1 124.0595 29.5857 29.5653 0.0000 0.0000 0.0000
# 2 29.5857 25.5533 21.4158 0.0000 0.0000 0.0000
# 3 29.5653 21.4158 75.6401 0.0000 0.0000 0.0000
# 4 0.0000 0.0000 0.0000 -18.5946 0.0000 0.0000
# 5 0.0000 0.0000 0.0000 0.0000 -5.8725 0.0000
# 6 0.0000 0.0000 0.0000 0.0000 0.0000 20.1339
#
#
#
# Elastic Compliance Matrix: (Units=1/GPa)
#
#
# Indices 1 2 3 4 5 6 
#
# 1 0.011184 -0.012174 -0.000925 0.000000 0.000000 0.000000
# 2 -0.012174 0.064560 -0.013520 0.000000 0.000000 0.000000
# 3 -0.000925 -0.013520 0.017410 0.000000 0.000000 0.000000
# 4 0.000000 0.000000 0.000000 -0.053779 0.000000 0.000000
# 5 0.000000 0.000000 0.000000 0.000000 -0.170285 0.000000
# 6 0.000000 0.000000 0.000000 0.000000 0.000000 0.049667
#
#
# Mechanical properties :
#
#
# Convention : Reuss Voigt Hill
#
# Bulk Modulus (GPa) = 25.05259 42.93183 33.99221
# Shear Modulus (GPa) = -340.18154 8.77911 -165.70122
#
# Velocity S-wave (km/s) = -13.76806 2.21178 -9.60905
# Velocity P-wave (km/s) = 15.45270 5.51775 10.20638
#
# Compressibility (1/GPa) = 0.03991604
#
# Stress axis : x y z
#
# Youngs Moduli (GPa) = 89.41080 15.48942 57.43855
#
# Poissons Ratio (x) = 0.18857 0.05312
# Poissons Ratio (y) = 1.08851 0.77658
# Poissons Ratio (z) = 0.08268 0.20942
#
# Static dielectric constant tensor:
#      x y z
#    x 1.624930 0.000000 0.000000 
#    y 0.000000 1.600270 0.000000 
#    z 0.000000 0.000000 1.578520 
# 
# From -- ./inp_files/12832.got.cif
#   From: 2010.05.17/outbox.cif.g08.bks.cpg/sg51_7_cif.got.tgz:12832.got - 2010.06.03 11:52:47.
