data_PCOD9404860
_publ_section_title
;
Structure prediction by ZEFSAII (Michael W. Deem and Ramdas Pophale) SiO2 
 PCOD9404860
Probable space group: P M M A
;
_chemical_formula_sum "Si O2"
_cell_formula_units_Z 48
_cell_length_a 16.463012
_cell_length_b 8.517034
_cell_length_c 18.644660
_cell_angle_alpha 90.000000
_cell_angle_beta 90.000000
_cell_angle_gamma 90.000000
_cell_volume 2614.280261
_symmetry_space_group_name_H-M "P M M A"
_symmetry_group_IT_number 51
_symmetry_cell_setting 'orthorhombic'
loop_
_space_group_symop_operation_xyz
x,y,z
1/2-x,-y,z
1/2+x,-y,-z
-x,y,-z
-x,-y,-z
1/2+x,y,-z
1/2-x,y,z
x,-y,z
loop_
_atom_site_type_symbol
_atom_site_label
_atom_site_fract_x
_atom_site_fract_y
_atom_site_fract_z
Si Si1 0.413318 0.812020 0.283492
Si Si2 0.503314 0.690104 0.417577
Si Si3 0.838770 0.310875 0.331810
Si Si4 0.250000 0.687930 0.212166
Si Si5 0.425557 0.189290 0.802517
Si Si6 0.912418 0.190239 0.032718
Si Si7 0.750000 0.311462 0.954112
O O1 0.435055 0.752137 0.363127
O O2 0.329840 0.747811 0.252501
O O3 0.487497 0.761399 0.230938
O O4 0.411412 0.000000 0.284043
O O5 0.500000 0.741177 0.500000
O O6 0.499959 0.500000 0.416432
O O7 0.588543 0.743198 0.382824
O O8 0.750000 0.256339 0.354718
O O9 0.839785 0.500000 0.332497
O O10 0.858912 0.254308 0.251957
O O11 0.250000 0.500000 0.212266
O O12 0.250000 0.741532 0.129093
O O13 0.412513 0.239915 0.884004
O O14 0.423353 0.000000 0.801153
O O15 0.909372 0.000000 0.029704
O O16 0.832688 0.252508 0.992141
O O17 0.000000 0.238085 0.000000
O O18 0.750000 0.500000 0.955889
#
# Coordination Sequence:
#
# PCOD9404860 Si02
#       7
#     8   8   8   4   8   8   4
#     4  10  20  36  59  84 109 143 186 231 277 324
#     4   9  18  35  56  80 113 149 183 220 269 324
#     4   9  18  32  51  76 105 140 180 220 263 315
#     4  11  23  39  57  79 110 145 186 229 273 334
#     4   9  19  34  54  78 105 140 181 225 272 325
#     4  10  21  38  58  80 109 147 190 233 282 338
#     4  11  25  39  55  83 116 149 188 237 291 338
#
# _framework density 18.360695
#
# number of rings (size 3 to 8) (size 9 to 14) (size 15 to 20)
#    0.000    2.333    0.000    2.000    1.167    5.000 
#    1.500    0.000    0.000    0.000    0.000    0.000 
#    0.000    0.000    0.000    0.000    0.000    0.000 
#
# Total GULP energy -267842.468134 kJ/mol
# GULP energy per Si atom -5580.051419 kJ/mol
# Density = 1.831890 g / cm^3
# Si number density = 18.360695 Si / 1000 Ang^3
#
#
#
# Elastic Constant Matrix: (Units=GPa)
#
#
# Indices 1 2 3 4 5 6 
#
# 1 137.6370 22.7751 85.3436 0.0000 0.0000 0.0000
# 2 22.7751 15.7463 28.3390 0.0000 0.0000 0.0000
# 3 85.3436 28.3390 183.7276 0.0000 0.0000 0.0000
# 4 0.0000 0.0000 0.0000 25.0922 0.0000 0.0000
# 5 0.0000 0.0000 0.0000 0.0000 14.4347 0.0000
# 6 0.0000 0.0000 0.0000 0.0000 0.0000 24.9971
#
#
#
# Elastic Compliance Matrix: (Units=1/GPa)
#
#
# Indices 1 2 3 4 5 6 
#
# 1 0.011127 -0.009401 -0.003718 0.000000 0.000000 0.000000
# 2 -0.009401 0.095855 -0.010418 0.000000 0.000000 0.000000
# 3 -0.003718 -0.010418 0.008777 0.000000 0.000000 0.000000
# 4 0.000000 0.000000 0.000000 0.039853 0.000000 0.000000
# 5 0.000000 0.000000 0.000000 0.000000 0.069278 0.000000
# 6 0.000000 0.000000 0.000000 0.000000 0.000000 0.040005
#
#
# Mechanical properties :
#
#
# Convention : Reuss Voigt Hill
#
# Bulk Modulus (GPa) = 14.55967 67.78071 41.17019
# Shear Modulus (GPa) = 14.93143 26.28167 20.60655
#
# Velocity S-wave (km/s) = 2.85481 3.78750 3.35374
# Velocity P-wave (km/s) = 4.33746 7.49154 6.12114
#
# Compressibility (1/GPa) = 0.06868289
#
# Stress axis : x y z
#
# Youngs Moduli (GPa) = 89.87298 10.43244 113.93400
#
# Poissons Ratio (x) = 0.09808 0.42365
# Poissons Ratio (y) = 0.84494 1.18697
# Poissons Ratio (z) = 0.33418 0.10869
#
# Static dielectric constant tensor:
#      x y z
#    x 1.623760 0.000000 0.000000 
#    y 0.000000 1.628320 0.000000 
#    z 0.000000 0.000000 1.616270 
# 
# From -- ./inp_files/29599.got.cif
#   From: 2010.05.17/outbox.cif.g08.bks.cpg/sg51_15_cif.got.tgz:29599.got - 2010.06.03 11:52:47.
