data_PCOD9404612
_publ_section_title
;
Structure prediction by ZEFSAII (Michael W. Deem and Ramdas Pophale) SiO2 
 PCOD9404612
Probable space group: P M M A
;
_chemical_formula_sum "Si O2"
_cell_formula_units_Z 52
_cell_length_a 7.808885
_cell_length_b 15.582681
_cell_length_c 20.905268
_cell_angle_alpha 90.000000
_cell_angle_beta 90.000000
_cell_angle_gamma 90.000000
_cell_volume 2543.823334
_symmetry_space_group_name_H-M "P M M A"
_symmetry_group_IT_number 51
_symmetry_cell_setting 'orthorhombic'
loop_
_space_group_symop_operation_xyz
x,y,z
1/2-x,-y,z
1/2+x,-y,-z
-x,y,-z
-x,-y,-z
1/2+x,y,-z
1/2-x,y,z
x,-y,z
loop_
_atom_site_type_symbol
_atom_site_label
_atom_site_fract_x
_atom_site_fract_y
_atom_site_fract_z
Si Si1 0.044528 0.093431 0.292283
Si Si2 0.455185 0.598194 0.775470
Si Si3 0.456056 0.097274 0.072733
Si Si4 0.453979 0.500000 0.426978
Si Si5 0.453369 0.162694 0.573503
Si Si6 0.449326 0.669289 0.642604
Si Si7 0.456985 0.776315 0.184044
O O1 0.250000 0.094090 0.286476
O O2 0.982293 0.173447 0.248920
O O3 0.002662 0.101711 0.367428
O O4 0.983181 0.000000 0.268717
O O5 0.250000 0.590661 0.768267
O O6 0.517712 0.500000 0.786594
O O7 0.528852 0.640009 0.710014
O O8 0.488151 0.677279 0.823014
O O9 0.250000 0.094480 0.078182
O O10 0.517011 0.164860 0.125207
O O11 0.520106 0.000000 0.084147
O O12 0.500000 0.120886 0.000000
O O13 0.250000 0.500000 0.416033
O O14 0.500000 0.500000 0.500000
O O15 0.537481 0.583663 0.397570
O O16 0.500000 0.142911 0.500000
O O17 0.250000 0.167700 0.572107
O O18 0.525284 0.253739 0.600292
O O19 0.250000 0.691164 0.654531
O O20 0.250000 0.776407 0.185437
#
# Coordination Sequence:
#
# PCOD9404612 Si02
#       7
#     8   8   8   4   8   8   8
#     4  10  21  37  57  81 109 142 181 226 278 335
#     4  10  20  36  57  80 110 145 181 226 280 332
#     4   9  18  34  57  88 125 160 190 223 267 320
#     4  12  24  34  50  74 100 132 173 222 281 346
#     4  11  23  38  56  75 100 137 181 230 282 336
#     4  10  20  37  55  73 101 135 174 225 284 339
#     4  10  20  35  58  86 117 149 185 228 274 324
#
# _framework density 20.441669999999998
#
# number of rings (size 3 to 8) (size 9 to 14) (size 15 to 20)
#    0.000    1.846    2.308    2.077    0.000    6.462 
#    0.000    0.000    0.000    3.231    0.000    0.000 
#    0.000    0.000    0.000    0.000    0.000    0.000 
#
# Total GULP energy -289916.486941 kJ/mol
# GULP energy per Si atom -5575.317057 kJ/mol
# Density = 2.039514 g / cm^3
# Si number density = 20.441670 Si / 1000 Ang^3
#
#
#
# Elastic Constant Matrix: (Units=GPa)
#
#
# Indices 1 2 3 4 5 6 
#
# 1 38.3691 7.6196 1.3295 0.0000 0.0000 0.0000
# 2 7.6196 151.9361 65.5142 0.0000 0.0000 0.0000
# 3 1.3295 65.5142 104.0424 0.0000 0.0000 0.0000
# 4 0.0000 0.0000 0.0000 31.3279 0.0000 0.0000
# 5 0.0000 0.0000 0.0000 0.0000 17.4694 0.0000
# 6 0.0000 0.0000 0.0000 0.0000 0.0000 20.8740
#
#
#
# Elastic Compliance Matrix: (Units=1/GPa)
#
#
# Indices 1 2 3 4 5 6 
#
# 1 0.026360 -0.001615 0.000680 0.000000 0.000000 0.000000
# 2 -0.001615 0.009134 -0.005731 0.000000 0.000000 0.000000
# 3 0.000680 -0.005731 0.013211 0.000000 0.000000 0.000000
# 4 0.000000 0.000000 0.000000 0.031920 0.000000 0.000000
# 5 0.000000 0.000000 0.000000 0.000000 0.057243 0.000000
# 6 0.000000 0.000000 0.000000 0.000000 0.000000 0.047906
#
#
# Mechanical properties :
#
#
# Convention : Reuss Voigt Hill
#
# Bulk Modulus (GPa) = 28.26980 49.25266 38.76123
# Shear Modulus (GPa) = 23.70818 28.59322 26.15070
#
# Velocity S-wave (km/s) = 3.40927 3.74407 3.58059
# Velocity P-wave (km/s) = 5.41821 6.54502 6.00809
#
# Compressibility (1/GPa) = 0.03537344
#
# Stress axis : x y z
#
# Youngs Moduli (GPa) = 37.93653 109.48317 75.69223
#
# Poissons Ratio (x) = 0.17685 -0.05149
# Poissons Ratio (y) = 0.06128 0.43378
# Poissons Ratio (z) = -0.02581 0.62743
#
# Static dielectric constant tensor:
#      x y z
#    x 1.750480 0.000000 0.000000 
#    y 0.000000 1.774240 0.000000 
#    z 0.000000 0.000000 1.766220 
# 
# From -- ./inp_files/31774.got.cif
#   From: 2010.05.17/outbox.cif.g08.bks.cpg/sg51_16_cif.got.tgz:31774.got - 2010.06.03 11:52:47.
