data_PCOD9404878
_publ_section_title
;
Structure prediction by ZEFSAII (Michael W. Deem and Ramdas Pophale) SiO2 
 PCOD9404878
Probable space group: P M M A
;
_chemical_formula_sum "Si O2"
_cell_formula_units_Z 48
_cell_length_a 8.597904
_cell_length_b 31.958840
_cell_length_c 9.164241
_cell_angle_alpha 90.000000
_cell_angle_beta 90.000000
_cell_angle_gamma 90.000000
_cell_volume 2518.141328
_symmetry_space_group_name_H-M "P M M A"
_symmetry_group_IT_number 51
_symmetry_cell_setting 'orthorhombic'
loop_
_space_group_symop_operation_xyz
x,y,z
1/2-x,-y,z
1/2+x,-y,-z
-x,y,-z
-x,-y,-z
1/2+x,y,-z
1/2-x,y,z
x,-y,z
loop_
_atom_site_type_symbol
_atom_site_label
_atom_site_fract_x
_atom_site_fract_y
_atom_site_fract_z
Si Si1 0.436462 0.079284 0.164934
Si Si2 0.936570 0.171624 0.834321
Si Si3 0.063415 0.580678 0.835466
Si Si4 0.436383 0.338852 0.335734
Si Si5 0.435898 0.258801 0.833809
Si Si6 0.565008 0.000000 0.337520
Si Si7 0.563364 0.500000 0.664598
O O1 0.250000 0.076036 0.160427
O O2 0.475450 0.125650 0.227193
O O3 0.505291 0.041337 0.255722
O O4 0.500000 0.076758 0.000000
O O5 0.750000 0.176350 0.836316
O O6 0.012286 0.213543 0.771293
O O7 0.000000 0.170088 0.000000
O O8 0.250000 0.579826 0.836493
O O9 0.003964 0.622450 0.756089
O O10 0.998776 0.540828 0.748051
O O11 0.000000 0.579658 0.000000
O O12 0.500000 0.341101 0.500000
O O13 0.250000 0.340766 0.336168
O O14 0.493112 0.296180 0.260068
O O15 0.250000 0.261531 0.837526
O O16 0.500000 0.261850 0.000000
O O17 0.500000 0.000000 0.500000
O O18 0.750000 0.000000 0.338644
O O19 0.750000 0.500000 0.663606
O O20 0.500000 0.500000 0.500000
#
# Coordination Sequence:
#
# PCOD9404878 Si02
#       7
#     8   8   8   8   8   4   4
#     4  10  20  36  59  86 115 147 189 235 284 339
#     4   9  17  31  54  84 115 148 187 236 286 339
#     4  12  25  44  67  95 126 162 205 252 301 353
#     4  12  25  43  63  88 121 159 201 248 299 355
#     4  11  21  36  59  88 120 156 195 240 290 346
#     4  12  25  40  57  78 110 148 188 234 289 346
#     4  12  25  44  67  96 130 168 206 248 301 358
#
# _framework density 19.061679000000002
#
# number of rings (size 3 to 8) (size 9 to 14) (size 15 to 20)
#    0.000    1.000    0.000    9.500    0.000    2.000 
#    0.000    0.833    0.000    4.000    0.000    0.000 
#    0.000    0.000    0.000    0.000    0.000    0.000 
#
# Total GULP energy -268426.063927 kJ/mol
# GULP energy per Si atom -5592.209665 kJ/mol
# Density = 1.901829 g / cm^3
# Si number density = 19.061679 Si / 1000 Ang^3
#
#
#
# Elastic Constant Matrix: (Units=GPa)
#
#
# Indices 1 2 3 4 5 6 
#
# 1 200.2080 95.3273 67.2862 0.0000 0.0000 0.0000
# 2 95.3273 220.9149 99.8572 0.0000 0.0000 0.0000
# 3 67.2862 99.8572 131.9712 0.0000 0.0000 0.0000
# 4 0.0000 0.0000 0.0000 -69.0285 0.0000 0.0000
# 5 0.0000 0.0000 0.0000 0.0000 34.2456 0.0000
# 6 0.0000 0.0000 0.0000 0.0000 0.0000 26.2526
#
#
#
# Elastic Compliance Matrix: (Units=1/GPa)
#
#
# Indices 1 2 3 4 5 6 
#
# 1 0.006565 -0.002006 -0.001829 0.000000 0.000000 0.000000
# 2 -0.002006 0.007493 -0.004647 0.000000 0.000000 0.000000
# 3 -0.001829 -0.004647 0.012026 0.000000 0.000000 0.000000
# 4 0.000000 0.000000 0.000000 -0.014487 0.000000 0.000000
# 5 0.000000 0.000000 0.000000 0.000000 0.029201 0.000000
# 6 0.000000 0.000000 0.000000 0.000000 0.000000 0.038091
#
#
# Mechanical properties :
#
#
# Convention : Reuss Voigt Hill
#
# Bulk Modulus (GPa) = 109.65275 119.78173 114.71724
# Shear Modulus (GPa) = 50.56022 17.66883 34.11452
#
# Velocity S-wave (km/s) = 5.15578 3.04785 4.23506
# Velocity P-wave (km/s) = 9.64847 8.68109 9.17753
#
# Compressibility (1/GPa) = 0.00911970
#
# Stress axis : x y z
#
# Youngs Moduli (GPa) = 152.33067 133.46655 83.15353
#
# Poissons Ratio (x) = 0.26772 0.15211
# Poissons Ratio (y) = 0.30556 0.38638
# Poissons Ratio (z) = 0.27865 0.62016
#
# Static dielectric constant tensor:
#      x y z
#    x 1.633010 0.000000 0.000000 
#    y 0.000000 1.676940 0.000000 
#    z 0.000000 0.000000 1.661050 
# 
# From -- ./inp_files/6095.got.cif
#   From: 2010.05.17/outbox.cif.g08.bks.cpg/sg51_4_cif.got.tgz:6095.got - 2010.06.03 11:52:47.
