data_PCOD9404468
_publ_section_title
;
Structure prediction by ZEFSAII (Michael W. Deem and Ramdas Pophale) SiO2 
 PCOD9404468
Probable space group: P M M A
;
_chemical_formula_sum "Si O2"
_cell_formula_units_Z 64
_cell_length_a 16.761949
_cell_length_b 15.670210
_cell_length_c 13.389708
_cell_angle_alpha 90.000000
_cell_angle_beta 90.000000
_cell_angle_gamma 90.000000
_cell_volume 3516.984365
_symmetry_space_group_name_H-M "P M M A"
_symmetry_group_IT_number 51
_symmetry_cell_setting 'orthorhombic'
loop_
_space_group_symop_operation_xyz
x,y,z
1/2-x,-y,z
1/2+x,-y,-z
-x,y,-z
-x,-y,-z
1/2+x,y,-z
1/2-x,y,z
x,-y,z
loop_
_atom_site_type_symbol
_atom_site_label
_atom_site_fract_x
_atom_site_fract_y
_atom_site_fract_z
Si Si1 0.048650 0.257065 0.397641
Si Si2 0.157192 0.902513 0.416304
Si Si3 0.337100 0.099267 0.656741
Si Si4 0.844758 0.756079 0.035473
Si Si5 0.845008 0.597900 0.665390
Si Si6 0.960624 0.205530 0.217900
Si Si7 0.572309 0.097562 0.920469
Si Si8 0.653451 0.595773 0.898592
O O1 0.098517 0.170301 0.379286
O O2 0.109594 0.335020 0.402273
O O3 0.000000 0.248634 0.500000
O O4 0.994107 0.270596 0.300036
O O5 0.250000 0.888804 0.386997
O O6 0.154032 0.896344 0.537224
O O7 0.135149 0.000000 0.389002
O O8 0.250000 0.136136 0.682653
O O9 0.406722 0.143246 0.715666
O O10 0.336717 0.000000 0.683361
O O11 0.750000 0.750100 0.058693
O O12 0.902827 0.759166 0.131286
O O13 0.861370 0.842915 0.972634
O O14 0.870169 0.674592 0.968221
O O15 0.750000 0.609478 0.657147
O O16 0.863784 0.500000 0.640460
O O17 0.866301 0.611200 0.782404
O O18 0.032317 0.151970 0.168004
O O19 0.596622 0.000000 0.895276
O O20 0.500000 0.090995 0.000000
O O21 0.750000 0.593369 0.902759
O O22 0.625122 0.500000 0.926796
#
# Coordination Sequence:
#
# PCOD9404468 Si02
#       8
#     8   8   8   8   8   8   8   8
#     4  12  23  35  53  82 115 152 184 227 285 331
#     4   9  19  36  55  76 105 143 190 237 273 315
#     4   9  17  31  51  73 100 141 192 234 264 309
#     4  10  20  35  56  81 109 142 180 224 272 335
#     4   9  19  38  63  85 105 139 189 235 275 329
#     4  11  21  34  50  78 114 147 183 222 279 335
#     4   9  19  34  51  72 104 142 178 221 270 321
#     4   8  15  32  59  85 104 127 167 220 274 325
#
# _framework density 18.197407999999999
#
# number of rings (size 3 to 8) (size 9 to 14) (size 15 to 20)
#    0.000    2.375    1.250    3.375    0.000    2.250 
#    0.000    1.250    0.000    4.875    0.000    1.750 
#    0.000    0.000    0.000    0.000    0.000    0.000 
#
# Total GULP energy -356763.300276 kJ/mol
# GULP energy per Si atom -5574.426567 kJ/mol
# Density = 1.815599 g / cm^3
# Si number density = 18.197408 Si / 1000 Ang^3
#
#
#
# Elastic Constant Matrix: (Units=GPa)
#
#
# Indices 1 2 3 4 5 6 
#
# 1 59.8634 47.4289 33.0303 0.0000 0.0000 0.0000
# 2 47.4289 92.3928 32.7470 0.0000 0.0000 0.0000
# 3 33.0303 32.7470 44.8054 0.0000 0.0000 0.0000
# 4 0.0000 0.0000 0.0000 12.0714 0.0000 0.0000
# 5 0.0000 0.0000 0.0000 0.0000 7.6384 0.0000
# 6 0.0000 0.0000 0.0000 0.0000 0.0000 14.3009
#
#
#
# Elastic Compliance Matrix: (Units=1/GPa)
#
#
# Indices 1 2 3 4 5 6 
#
# 1 0.036243 -0.012329 -0.017707 0.000000 0.000000 0.000000
# 2 -0.012329 0.018801 -0.004653 0.000000 0.000000 0.000000
# 3 -0.017707 -0.004653 0.038773 0.000000 0.000000 0.000000
# 4 0.000000 0.000000 0.000000 0.082840 0.000000 0.000000
# 5 0.000000 0.000000 0.000000 0.000000 0.130917 0.000000
# 6 0.000000 0.000000 0.000000 0.000000 0.000000 0.069926
#
#
# Mechanical properties :
#
#
# Convention : Reuss Voigt Hill
#
# Bulk Modulus (GPa) = 40.91703 47.05265 43.98484
# Shear Modulus (GPa) = 10.98844 12.39251 11.69047
#
# Velocity S-wave (km/s) = 2.45999 2.61244 2.53736
# Velocity P-wave (km/s) = 5.53197 5.91715 5.72780
#
# Compressibility (1/GPa) = 0.02443970
#
# Stress axis : x y z
#
# Youngs Moduli (GPa) = 27.59164 53.18787 25.79129
#
# Poissons Ratio (x) = 0.65575 0.45669
# Poissons Ratio (y) = 0.34018 0.11999
# Poissons Ratio (z) = 0.48857 0.24746
#
# Static dielectric constant tensor:
#      x y z
#    x 1.671270 0.000000 0.000000 
#    y 0.000000 1.624180 0.000000 
#    z 0.000000 0.000000 1.632840 
# 
# From -- ./inp_files/17587.got.cif
#   From: 2010.05.17/outbox.cif.g08.bks.cpg/sg51_9_cif.got.tgz:17587.got - 2010.06.03 11:52:47.
