data_PCOD9404604
_publ_section_title
;
Structure prediction by ZEFSAII (Michael W. Deem and Ramdas Pophale) SiO2 
 PCOD9404604
Probable space group: P M M A
;
_chemical_formula_sum "Si O2"
_cell_formula_units_Z 40
_cell_length_a 17.986853
_cell_length_b 7.725195
_cell_length_c 12.842337
_cell_angle_alpha 90.000000
_cell_angle_beta 90.000000
_cell_angle_gamma 90.000000
_cell_volume 1784.467728
_symmetry_space_group_name_H-M "P M M A"
_symmetry_group_IT_number 51
_symmetry_cell_setting 'orthorhombic'
loop_
_space_group_symop_operation_xyz
x,y,z
1/2-x,-y,z
1/2+x,-y,-z
-x,y,-z
-x,-y,-z
1/2+x,y,-z
1/2-x,y,z
x,-y,z
loop_
_atom_site_type_symbol
_atom_site_label
_atom_site_fract_x
_atom_site_fract_y
_atom_site_fract_z
Si Si1 0.833936 0.209742 0.159947
Si Si2 0.052455 0.304571 0.660709
Si Si3 0.167852 0.790109 0.484154
Si Si4 0.895746 0.803202 0.725751
Si Si5 0.419706 0.211378 0.043423
O O1 0.750000 0.265278 0.181892
O O2 0.892472 0.281855 0.241875
O O3 0.836902 0.000000 0.168525
O O4 0.859220 0.255854 0.043495
O O5 0.024948 0.500000 0.654429
O O6 0.101710 0.264581 0.559948
O O7 0.979565 0.192330 0.680531
O O8 0.250000 0.736144 0.521137
O O9 0.153107 0.725675 0.366903
O O10 0.166731 0.000000 0.482710
O O11 0.901450 0.723932 0.840829
O O12 0.868318 0.000000 0.740447
O O13 0.423738 0.000000 0.049568
O O14 0.500000 0.268780 0.000000
#
# Coordination Sequence:
#
# PCOD9404604 Si02
#       5
#     8   8   8   8   8
#     4  10  20  35  58  86 114 147 188 233 283 338
#     4  12  24  37  56  82 114 151 193 236 279 331
#     4  10  22  39  59  84 113 146 186 233 285 339
#     4  10  20  37  62  86 113 148 187 231 281 337
#     4   9  16  31  57  85 112 141 177 224 277 330
#
# _framework density 22.415648999999998
#
# number of rings (size 3 to 8) (size 9 to 14) (size 15 to 20)
#    0.000    1.800    2.000    3.000    0.000    7.200 
#    0.000    6.000    0.000    0.000    0.000    2.800 
#    0.000    0.000    0.000    0.000    0.000    0.000 
#
# Total GULP energy -223555.717742 kJ/mol
# GULP energy per Si atom -5588.892944 kJ/mol
# Density = 2.236463 g / cm^3
# Si number density = 22.415649 Si / 1000 Ang^3
#
#
#
# Elastic Constant Matrix: (Units=GPa)
#
#
# Indices 1 2 3 4 5 6 
#
# 1 39.4213 -5.8110 -12.0399 0.0000 0.0000 0.0000
# 2 -5.8110 50.1190 1.0931 0.0000 0.0000 0.0000
# 3 -12.0399 1.0931 123.4163 0.0000 0.0000 0.0000
# 4 0.0000 0.0000 0.0000 137.5793 0.0000 0.0000
# 5 0.0000 0.0000 0.0000 0.0000 -29.4600 0.0000
# 6 0.0000 0.0000 0.0000 0.0000 0.0000 -18.2043
#
#
#
# Elastic Compliance Matrix: (Units=1/GPa)
#
#
# Indices 1 2 3 4 5 6 
#
# 1 0.026598 0.003028 0.002568 0.000000 0.000000 0.000000
# 2 0.003028 0.020301 0.000116 0.000000 0.000000 0.000000
# 3 0.002568 0.000116 0.008352 0.000000 0.000000 0.000000
# 4 0.000000 0.000000 0.000000 0.007269 0.000000 0.000000
# 5 0.000000 0.000000 0.000000 0.000000 -0.033944 0.000000
# 6 0.000000 0.000000 0.000000 0.000000 0.000000 -0.054932
#
#
# Mechanical properties :
#
#
# Convention : Reuss Voigt Hill
#
# Bulk Modulus (GPa) = 14.99847 19.93789 17.46818
# Shear Modulus (GPa) = -321.43581 33.29728 -144.06926
#
# Velocity S-wave (km/s) = -11.98788 3.85833 -8.02566
# Velocity P-wave (km/s) = 13.59804 5.36311 8.83583
#
# Compressibility (1/GPa) = 0.06667345
#
# Stress axis : x y z
#
# Youngs Moduli (GPa) = 37.59735 49.25857 119.72969
#
# Poissons Ratio (x) = -0.14915 -0.30746
# Poissons Ratio (y) = -0.11384 -0.01384
# Poissons Ratio (z) = -0.09655 -0.00569
#
# Static dielectric constant tensor:
#      x y z
#    x 1.775940 0.000000 0.000000 
#    y 0.000000 1.868330 0.000000 
#    z 0.000000 0.000000 1.824830 
# 
# From -- ./inp_files/17064.got.cif
#   From: 2010.05.17/outbox.cif.g08.bks.cpg/sg51_9_cif.got.tgz:17064.got - 2010.06.03 11:52:47.
