data_PCOD9404902
_publ_section_title
;
Structure prediction by ZEFSAII (Michael W. Deem and Ramdas Pophale) SiO2 
 PCOD9404902
Probable space group: P M M A
;
_chemical_formula_sum "Si O2"
_cell_formula_units_Z 48
_cell_length_a 17.705858
_cell_length_b 15.528811
_cell_length_c 9.692897
_cell_angle_alpha 90.000000
_cell_angle_beta 90.000000
_cell_angle_gamma 90.000000
_cell_volume 2665.070972
_symmetry_space_group_name_H-M "P M M A"
_symmetry_group_IT_number 51
_symmetry_cell_setting 'orthorhombic'
loop_
_space_group_symop_operation_xyz
x,y,z
1/2-x,-y,z
1/2+x,-y,-z
-x,y,-z
-x,-y,-z
1/2+x,y,-z
1/2-x,y,z
x,-y,z
loop_
_atom_site_type_symbol
_atom_site_label
_atom_site_fract_x
_atom_site_fract_y
_atom_site_fract_z
Si Si1 0.573000 0.098320 0.249167
Si Si2 0.662588 0.798041 0.466528
Si Si3 0.495049 0.404532 0.834464
Si Si4 0.162956 0.182400 0.987212
Si Si5 0.833750 0.659065 0.226680
Si Si6 0.931753 0.227849 0.743014
O O1 0.628689 0.125417 0.373307
O O2 0.617201 0.114870 0.106160
O O3 0.503700 0.164705 0.255032
O O4 0.548455 0.000000 0.260979
O O5 0.750000 0.814130 0.501038
O O6 0.659824 0.714406 0.366972
O O7 0.612763 0.782931 0.600901
O O8 0.524732 0.500000 0.800624
O O9 0.407208 0.398521 0.791723
O O10 0.538699 0.325140 0.765439
O O11 0.500000 0.393158 0.000000
O O12 0.250000 0.156662 0.006240
O O13 0.162520 0.269658 0.895309
O O14 0.121478 0.201616 0.129630
O O15 0.750000 0.618695 0.221884
#
# Coordination Sequence:
#
# PCOD9404902 Si02
#       6
#     8   8   8   8   8   8
#     4  11  23  39  62  87 115 154 199 244 293 351
#     4  10  22  38  60  83 116 157 193 237 295 354
#     4  11  21  36  60  90 120 155 197 245 295 344
#     4  10  20  36  60  83 115 157 195 237 290 345
#     4   9  18  36  57  81 110 151 197 236 283 342
#     4  12  21  38  59  90 122 150 194 248 297 347
#
# _framework density 18.010777999999998
#
# number of rings (size 3 to 8) (size 9 to 14) (size 15 to 20)
#    0.000    1.500    5.000    3.000    0.000    4.333 
#    0.000    1.667    0.000    6.000    0.000    0.000 
#    0.000    0.000    0.000    0.000    0.000    0.000 
#
# Total GULP energy -267981.538447 kJ/mol
# GULP energy per Si atom -5582.948718 kJ/mol
# Density = 1.796978 g / cm^3
# Si number density = 18.010778 Si / 1000 Ang^3
#
#
#
# Elastic Constant Matrix: (Units=GPa)
#
#
# Indices 1 2 3 4 5 6 
#
# 1 120.3267 31.0515 45.5279 0.0000 0.0000 0.0000
# 2 31.0515 95.2748 25.3616 0.0000 0.0000 0.0000
# 3 45.5279 25.3616 81.1593 0.0000 0.0000 0.0000
# 4 0.0000 0.0000 0.0000 9.1963 0.0000 0.0000
# 5 0.0000 0.0000 0.0000 0.0000 48.7665 0.0000
# 6 0.0000 0.0000 0.0000 0.0000 0.0000 0.2160
#
#
#
# Elastic Compliance Matrix: (Units=1/GPa)
#
#
# Indices 1 2 3 4 5 6 
#
# 1 0.010923 -0.002104 -0.005470 0.000000 0.000000 0.000000
# 2 -0.002104 0.011854 -0.002524 0.000000 0.000000 0.000000
# 3 -0.005470 -0.002524 0.016179 0.000000 0.000000 0.000000
# 4 0.000000 0.000000 0.000000 0.108739 0.000000 0.000000
# 5 0.000000 0.000000 0.000000 0.000000 0.020506 0.000000
# 6 0.000000 0.000000 0.000000 0.000000 0.000000 4.629886
#
#
# Mechanical properties :
#
#
# Convention : Reuss Voigt Hill
#
# Bulk Modulus (GPa) = 53.30611 55.62698 54.46654
# Shear Modulus (GPa) = 1.03637 24.62375 12.83006
#
# Velocity S-wave (km/s) = 0.75938 3.70153 2.67189
# Velocity P-wave (km/s) = 5.51633 7.01576 6.31074
#
# Compressibility (1/GPa) = 0.01875958
#
# Stress axis : x y z
#
# Youngs Moduli (GPa) = 91.54640 84.36327 61.80940
#
# Poissons Ratio (x) = 0.17750 0.33811
# Poissons Ratio (y) = 0.19261 0.15600
# Poissons Ratio (z) = 0.50078 0.21292
#
# Static dielectric constant tensor:
#      x y z
#    x 1.623730 0.000000 0.000000 
#    y 0.000000 1.614840 0.000000 
#    z 0.000000 0.000000 1.592810 
# 
# From -- ./inp_files/9563.got.cif
#   From: 2010.05.17/outbox.cif.g08.bks.cpg/sg51_5_cif.got.tgz:9563.got - 2010.06.03 11:52:47.
