data_PCOD9404703
_publ_section_title
;
Structure prediction by ZEFSAII (Michael W. Deem and Ramdas Pophale) SiO2 
 PCOD9404703
Probable space group: P M M A
;
_chemical_formula_sum "Si O2"
_cell_formula_units_Z 56
_cell_length_a 8.645363
_cell_length_b 21.754870
_cell_length_c 15.479130
_cell_angle_alpha 90.000000
_cell_angle_beta 90.000000
_cell_angle_gamma 90.000000
_cell_volume 2911.295393
_symmetry_space_group_name_H-M "P M M A"
_symmetry_group_IT_number 51
_symmetry_cell_setting 'orthorhombic'
loop_
_space_group_symop_operation_xyz
x,y,z
1/2-x,-y,z
1/2+x,-y,-z
-x,y,-z
-x,-y,-z
1/2+x,y,-z
1/2-x,y,z
x,-y,z
loop_
_atom_site_type_symbol
_atom_site_label
_atom_site_fract_x
_atom_site_fract_y
_atom_site_fract_z
Si Si1 0.929218 0.632623 0.650264
Si Si2 0.063786 0.071751 0.405023
Si Si3 0.070761 0.251543 0.589951
Si Si4 0.564785 0.500000 0.595407
Si Si5 0.433345 0.829470 0.264040
Si Si6 0.437367 0.500000 0.096455
Si Si7 0.933600 0.767271 0.092792
Si Si8 0.929268 0.637645 0.852995
O O1 0.750000 0.639761 0.619703
O O2 0.931337 0.648518 0.750759
O O3 0.043049 0.675862 0.597671
O O4 0.979856 0.562392 0.641929
O O5 0.250000 0.077462 0.409283
O O6 0.012159 0.111551 0.321526
O O7 0.000000 0.090122 0.500000
O O8 0.023325 0.000000 0.393055
O O9 0.250000 0.235402 0.597489
O O10 0.000000 0.230110 0.500000
O O11 0.972946 0.224149 0.668264
O O12 0.250000 0.500000 0.407026
O O13 0.500000 0.500000 0.500000
O O14 0.250000 0.834967 0.250945
O O15 0.506384 0.809177 0.172795
O O16 0.250000 0.500000 0.103279
O O17 0.486361 0.432686 0.132715
O O18 0.500000 0.500000 0.000000
O O19 0.750000 0.770417 0.091756
O O20 0.983085 0.695679 0.106476
O O21 0.000000 0.787300 0.000000
O O22 0.750000 0.640107 0.883222
#
# Coordination Sequence:
#
# PCOD9404703 Si02
#       8
#     8   8   8   4   8   4   8   8
#     4  10  20  36  56  76 104 141 186 237 292 352
#     4   9  19  36  61  95 133 170 205 241 285 340
#     4  12  24  37  55  82 116 153 195 240 289 345
#     4  10  21  35  51  73  99 140 188 236 290 351
#     4  11  22  39  62  89 123 160 199 244 294 345
#     4  10  21  35  53  79 105 140 182 234 298 367
#     4  12  25  41  62  88 119 156 202 252 305 362
#     4  10  20  37  59  81 110 145 189 242 303 365
#
# _framework density 19.235422
#
# number of rings (size 3 to 8) (size 9 to 14) (size 15 to 20)
#    0.000    1.429    1.429    4.714    0.000    7.429 
#    0.000    0.000    0.000    3.000    0.000    0.000 
#    0.000    0.000    0.000    0.000    0.000    0.000 
#
# Total GULP energy -312515.776641 kJ/mol
# GULP energy per Si atom -5580.638869 kJ/mol
# Density = 1.919164 g / cm^3
# Si number density = 19.235422 Si / 1000 Ang^3
#
#
#
# Elastic Constant Matrix: (Units=GPa)
#
#
# Indices 1 2 3 4 5 6 
#
# 1 49.0526 30.9292 36.7303 0.0000 0.0000 0.0000
# 2 30.9292 119.3137 56.8538 0.0000 0.0000 0.0000
# 3 36.7303 56.8538 142.2571 0.0000 0.0000 0.0000
# 4 0.0000 0.0000 0.0000 16.8694 0.0000 0.0000
# 5 0.0000 0.0000 0.0000 0.0000 31.5420 0.0000
# 6 0.0000 0.0000 0.0000 0.0000 0.0000 36.2597
#
#
#
# Elastic Compliance Matrix: (Units=1/GPa)
#
#
# Indices 1 2 3 4 5 6 
#
# 1 0.027148 -0.004567 -0.005184 0.000000 0.000000 0.000000
# 2 -0.004567 0.011121 -0.003265 0.000000 0.000000 0.000000
# 3 -0.005184 -0.003265 0.009673 0.000000 0.000000 0.000000
# 4 0.000000 0.000000 0.000000 0.059279 0.000000 0.000000
# 5 0.000000 0.000000 0.000000 0.000000 0.031704 0.000000
# 6 0.000000 0.000000 0.000000 0.000000 0.000000 0.027579
#
#
# Mechanical properties :
#
#
# Convention : Reuss Voigt Hill
#
# Bulk Modulus (GPa) = 45.64402 62.18332 53.91367
# Shear Modulus (GPa) = 25.02002 29.34158 27.18080
#
# Velocity S-wave (km/s) = 3.61047 3.90987 3.76315
# Velocity P-wave (km/s) = 6.41571 7.26501 6.85353
#
# Compressibility (1/GPa) = 0.02190868
#
# Stress axis : x y z
#
# Youngs Moduli (GPa) = 36.83525 89.91853 103.37928
#
# Poissons Ratio (x) = 0.41067 0.53594
# Poissons Ratio (y) = 0.16823 0.33758
# Poissons Ratio (z) = 0.19096 0.29362
#
# Static dielectric constant tensor:
#      x y z
#    x 1.670310 0.000000 0.000000 
#    y 0.000000 1.729550 0.000000 
#    z 0.000000 0.000000 1.652220 
# 
# From -- ./inp_files/21908.got.cif
#   From: 2010.05.17/outbox.cif.g08.bks.cpg/sg51_11_cif.got.tgz:21908.got - 2010.06.03 11:52:47.
