data_PCOD9404636
_publ_section_title
;
Structure prediction by ZEFSAII (Michael W. Deem and Ramdas Pophale) SiO2 
 PCOD9404636
Probable space group: P M M A
;
_chemical_formula_sum "Si O2"
_cell_formula_units_Z 40
_cell_length_a 15.708050
_cell_length_b 8.789150
_cell_length_c 14.808943
_cell_angle_alpha 90.000000
_cell_angle_beta 90.000000
_cell_angle_gamma 90.000000
_cell_volume 2044.528708
_symmetry_space_group_name_H-M "P M M A"
_symmetry_group_IT_number 51
_symmetry_cell_setting 'orthorhombic'
loop_
_space_group_symop_operation_xyz
x,y,z
1/2-x,-y,z
1/2+x,-y,-z
-x,y,-z
-x,-y,-z
1/2+x,y,-z
1/2-x,y,z
x,-y,z
loop_
_atom_site_type_symbol
_atom_site_label
_atom_site_fract_x
_atom_site_fract_y
_atom_site_fract_z
Si Si1 0.353083 0.321913 0.595841
Si Si2 0.647065 0.821507 0.595827
Si Si3 0.413181 0.317488 0.217931
Si Si4 0.907383 0.819084 0.216812
Si Si5 0.250000 0.684764 0.101863
Si Si6 0.250000 0.683176 0.893069
O O1 0.250000 0.310242 0.602930
O O2 0.375592 0.500000 0.600113
O O3 0.378220 0.250942 0.499847
O O4 0.392489 0.234078 0.680046
O O5 0.750000 0.807683 0.602858
O O6 0.606654 0.735553 0.680278
O O7 0.625373 0.000000 0.598539
O O8 0.419671 0.500000 0.214985
O O9 0.501143 0.243406 0.187308
O O10 0.334217 0.266990 0.155650
O O11 0.832702 0.746044 0.157601
O O12 0.903757 0.000000 0.211396
O O13 0.250000 0.500000 0.103171
O O14 0.250000 0.731300 0.997743
O O15 0.250000 0.500000 0.888000
#
# Coordination Sequence:
#
# PCOD9404636 Si02
#       6
#     8   8   8   8   4   4
#     4  10  20  36  61  90 122 166 214 256 300 361
#     4  10  20  35  58  91 130 168 204 252 311 367
#     4  11  22  41  66  94 125 164 212 258 304 367
#     4  12  25  41  62  94 130 165 204 255 315 373
#     4   9  22  43  70  95 120 157 207 262 312 363
#     4  11  23  45  70  93 120 159 207 258 314 373
#
# _framework density 19.564409999999999
#
# number of rings (size 3 to 8) (size 9 to 14) (size 15 to 20)
#    0.000    1.400    2.000    3.900    0.000    3.200 
#    0.000   12.000    0.000    0.000    0.000    0.000 
#    0.000    0.000    0.000    0.000    0.000    0.000 
#
# Total GULP energy -223776.623502 kJ/mol
# GULP energy per Si atom -5594.415588 kJ/mol
# Density = 1.951988 g / cm^3
# Si number density = 19.564410 Si / 1000 Ang^3
#
#
#
# Elastic Constant Matrix: (Units=GPa)
#
#
# Indices 1 2 3 4 5 6 
#
# 1 141.6092 64.4369 88.2426 0.0000 0.0000 0.0000
# 2 64.4369 128.3293 50.6231 0.0000 0.0000 0.0000
# 3 88.2426 50.6231 146.4433 0.0000 0.0000 0.0000
# 4 0.0000 0.0000 0.0000 -121.1947 0.0000 0.0000
# 5 0.0000 0.0000 0.0000 0.0000 -9.3817 0.0000
# 6 0.0000 0.0000 0.0000 0.0000 0.0000 28.0185
#
#
#
# Elastic Compliance Matrix: (Units=1/GPa)
#
#
# Indices 1 2 3 4 5 6 
#
# 1 0.012813 -0.003923 -0.006365 0.000000 0.000000 0.000000
# 2 -0.003923 0.010224 -0.001170 0.000000 0.000000 0.000000
# 3 -0.006365 -0.001170 0.011068 0.000000 0.000000 0.000000
# 4 0.000000 0.000000 0.000000 -0.008251 0.000000 0.000000
# 5 0.000000 0.000000 0.000000 0.000000 -0.106591 0.000000
# 6 0.000000 0.000000 0.000000 0.000000 0.000000 0.035691
#
#
# Mechanical properties :
#
#
# Convention : Reuss Voigt Hill
#
# Bulk Modulus (GPa) = 89.37140 91.44301 90.40721
# Shear Modulus (GPa) = -271.72689 -6.30630 -139.01659
#
# Velocity S-wave (km/s) = -11.79788 -1.79732 -8.43861
# Velocity P-wave (km/s) = 11.82399 6.52179 6.97398
#
# Compressibility (1/GPa) = 0.01118926
#
# Stress axis : x y z
#
# Youngs Moduli (GPa) = 78.04747 97.80976 90.34848
#
# Poissons Ratio (x) = 0.38370 0.57502
# Poissons Ratio (y) = 0.30617 0.10575
# Poissons Ratio (z) = 0.49673 0.11448
#
# Static dielectric constant tensor:
#      x y z
#    x 1.695300 0.000000 0.000000 
#    y 0.000000 1.648220 0.000000 
#    z 0.000000 0.000000 1.648670 
# 
# From -- ./inp_files/23744.got.cif
#   From: 2010.05.17/outbox.cif.g08.bks.cpg/sg51_12_cif.got.tgz:23744.got - 2010.06.03 11:52:47.
