data_PCOD9404733
_publ_section_title
;
Structure prediction by ZEFSAII (Michael W. Deem and Ramdas Pophale) SiO2 
 PCOD9404733
Probable space group: P M M A
;
_chemical_formula_sum "Si O2"
_cell_formula_units_Z 40
_cell_length_a 7.336625
_cell_length_b 16.806546
_cell_length_c 14.071687
_cell_angle_alpha 90.000000
_cell_angle_beta 90.000000
_cell_angle_gamma 90.000000
_cell_volume 1735.085803
_symmetry_space_group_name_H-M "P M M A"
_symmetry_group_IT_number 51
_symmetry_cell_setting 'orthorhombic'
loop_
_space_group_symop_operation_xyz
x,y,z
1/2-x,-y,z
1/2+x,-y,-z
-x,y,-z
-x,-y,-z
1/2+x,y,-z
1/2-x,y,z
x,-y,z
loop_
_atom_site_type_symbol
_atom_site_label
_atom_site_fract_x
_atom_site_fract_y
_atom_site_fract_z
Si Si1 0.967163 0.740462 0.610939
Si Si2 0.472672 0.337759 0.206533
Si Si3 0.032541 0.500000 0.111949
Si Si4 0.032313 0.085281 0.385868
Si Si5 0.967263 0.826718 0.887144
Si Si6 0.967942 0.000000 0.885483
O O1 0.750000 0.745820 0.621009
O O2 0.027913 0.673248 0.683779
O O3 0.038372 0.827852 0.642265
O O4 0.000000 0.726871 0.500000
O O5 0.250000 0.338991 0.200773
O O6 0.537847 0.418474 0.158256
O O7 0.534088 0.256131 0.155896
O O8 0.250000 0.500000 0.126978
O O9 0.000000 0.500000 0.000000
O O10 0.250000 0.084928 0.368885
O O11 0.000000 0.084421 0.500000
O O12 0.962339 0.000000 0.349384
O O13 0.750000 0.828037 0.869951
O O14 0.036285 0.913343 0.851808
O O15 0.000000 0.824180 0.000000
O O16 0.750000 0.000000 0.869492
O O17 0.000000 0.000000 0.000000
#
# Coordination Sequence:
#
# PCOD9404733 Si02
#       6
#     8   8   4   8   8   4
#     4   9  17  31  48  67  94 127 161 198 237 279
#     4   9  18  32  50  72  97 125 158 195 239 288
#     4  10  20  36  57  78 100 126 155 194 243 292
#     4   8  13  22  38  60  84 114 152 192 231 268
#     4   9  16  28  45  67  93 122 154 190 233 283
#     4   8  14  24  40  62  89 120 152 186 227 276
#
# _framework density 23.053616000000002
#
# number of rings (size 3 to 8) (size 9 to 14) (size 15 to 20)
#    0.000    3.200    0.000    0.600    0.000    0.000 
#    1.800    2.500    0.000    0.000    0.000    0.000 
#    0.000    0.000    0.000    0.000    0.000    0.000 
#
# Total GULP energy -223199.180260 kJ/mol
# GULP energy per Si atom -5579.979506 kJ/mol
# Density = 2.300114 g / cm^3
# Si number density = 23.053616 Si / 1000 Ang^3
#
#
#
# Elastic Constant Matrix: (Units=GPa)
#
#
# Indices 1 2 3 4 5 6 
#
# 1 94.0035 12.4911 -5.4495 0.0000 0.0000 0.0000
# 2 12.4911 250.5505 119.3076 0.0000 0.0000 0.0000
# 3 -5.4495 119.3076 128.7069 0.0000 0.0000 0.0000
# 4 0.0000 0.0000 0.0000 58.9160 0.0000 0.0000
# 5 0.0000 0.0000 0.0000 0.0000 5.8108 0.0000
# 6 0.0000 0.0000 0.0000 0.0000 0.0000 -3.7609
#
#
#
# Elastic Compliance Matrix: (Units=1/GPa)
#
#
# Indices 1 2 3 4 5 6 
#
# 1 0.010920 -0.001369 0.001731 0.000000 0.000000 0.000000
# 2 -0.001369 0.007317 -0.006840 0.000000 0.000000 0.000000
# 3 0.001731 -0.006840 0.014184 0.000000 0.000000 0.000000
# 4 0.000000 0.000000 0.000000 0.016973 0.000000 0.000000
# 5 0.000000 0.000000 0.000000 0.000000 0.172092 0.000000
# 6 0.000000 0.000000 0.000000 0.000000 0.000000 -0.265893
#
#
# Mechanical properties :
#
#
# Convention : Reuss Voigt Hill
#
# Bulk Modulus (GPa) = 51.37513 80.66215 66.01864
# Shear Modulus (GPa) = -200.29734 35.32064 -82.48835
#
# Velocity S-wave (km/s) = -9.33123 3.91846 -5.98822
# Velocity P-wave (km/s) = 9.68310 7.45234 4.37179
#
# Compressibility (1/GPa) = 0.01946467
#
# Stress axis : x y z
#
# Youngs Moduli (GPa) = 91.57394 136.67393 70.50367
#
# Poissons Ratio (x) = 0.18708 -0.12205
# Poissons Ratio (y) = 0.12534 0.48227
# Poissons Ratio (z) = -0.15853 0.93489
#
# Static dielectric constant tensor:
#      x y z
#    x 2.652600 0.000000 0.000000 
#    y 0.000000 1.864660 0.000000 
#    z 0.000000 0.000000 1.896970 
# 
# From -- ./inp_files/20565.got.cif
#   From: 2010.05.17/outbox.cif.g08.bks.cpg/sg51_11_cif.got.tgz:20565.got - 2010.06.03 11:52:47.
