data_PCOD9404007
_publ_section_title
;
Structure prediction by ZEFSAII (Michael W. Deem and Ramdas Pophale) SiO2 
 PCOD9404007
Probable space group: P M M A
;
_chemical_formula_sum "Si O2"
_cell_formula_units_Z 48
_cell_length_a 8.789570
_cell_length_b 14.592791
_cell_length_c 21.200738
_cell_angle_alpha 90.000000
_cell_angle_beta 90.000000
_cell_angle_gamma 90.000000
_cell_volume 2719.299048
_symmetry_space_group_name_H-M "P M M A"
_symmetry_group_IT_number 51
_symmetry_cell_setting 'orthorhombic'
loop_
_space_group_symop_operation_xyz
x,y,z
1/2-x,-y,z
1/2+x,-y,-z
-x,y,-z
-x,-y,-z
1/2+x,y,-z
1/2-x,y,z
x,-y,z
loop_
_atom_site_type_symbol
_atom_site_label
_atom_site_fract_x
_atom_site_fract_y
_atom_site_fract_z
Si Si1 0.068368 0.212182 0.064953
Si Si2 0.433094 0.892387 0.192996
Si Si3 0.067494 0.780485 0.690073
Si Si4 0.932095 0.603843 0.114266
Si Si5 0.069845 0.395137 0.254079
Si Si6 0.566692 0.106003 0.432449
O O1 0.250000 0.212415 0.061154
O O2 0.023041 0.154067 0.126626
O O3 0.009052 0.315457 0.075305
O O4 0.000000 0.175234 0.000000
O O5 0.250000 0.882303 0.199603
O O6 0.512390 0.840743 0.250624
O O7 0.469392 0.000000 0.193287
O O8 0.250000 0.774363 0.690952
O O9 0.019090 0.830338 0.625577
O O10 0.995800 0.680539 0.699306
O O11 0.750000 0.612415 0.111308
O O12 0.974173 0.500000 0.094603
O O13 0.987269 0.615026 0.186562
O O14 0.250000 0.380386 0.244419
O O15 0.046805 0.500000 0.275265
O O16 0.500000 0.133766 0.500000
O O17 0.750000 0.108000 0.435859
O O18 0.520651 0.000000 0.420638
#
# Coordination Sequence:
#
# PCOD9404007 Si02
#       6
#     8   8   8   8   8   8
#     4  11  23  38  56  77 106 143 183 228 277 330
#     4  10  22  39  57  79 107 141 184 229 273 326
#     4  11  21  34  57  86 115 145 182 227 273 322
#     4  10  20  35  56  81 108 138 175 222 276 331
#     4  10  20  34  54  81 112 145 181 222 270 325
#     4   9  19  35  54  81 116 151 186 223 267 320
#
# _framework density 17.651608
#
# number of rings (size 3 to 8) (size 9 to 14) (size 15 to 20)
#    0.000    1.833    1.667    2.500    0.000    5.667 
#    0.000    1.667    0.000    0.500    0.000    0.000 
#    0.000    0.000    0.000    0.000    0.000    0.000 
#
# Total GULP energy -268104.321701 kJ/mol
# GULP energy per Si atom -5585.506702 kJ/mol
# Density = 1.761143 g / cm^3
# Si number density = 17.651608 Si / 1000 Ang^3
#
#
#
# Elastic Constant Matrix: (Units=GPa)
#
#
# Indices 1 2 3 4 5 6 
#
# 1 36.0715 30.6112 31.7656 0.0000 0.0000 0.0000
# 2 30.6112 92.7409 56.9193 0.0000 0.0000 0.0000
# 3 31.7656 56.9193 120.8157 0.0000 0.0000 0.0000
# 4 0.0000 0.0000 0.0000 20.6728 0.0000 0.0000
# 5 0.0000 0.0000 0.0000 0.0000 30.8436 0.0000
# 6 0.0000 0.0000 0.0000 0.0000 0.0000 25.5952
#
#
#
# Elastic Compliance Matrix: (Units=1/GPa)
#
#
# Indices 1 2 3 4 5 6 
#
# 1 0.041656 -0.009886 -0.006295 0.000000 0.000000 0.000000
# 2 -0.009886 0.017515 -0.005652 0.000000 0.000000 0.000000
# 3 -0.006295 -0.005652 0.012595 0.000000 0.000000 0.000000
# 4 0.000000 0.000000 0.000000 0.048373 0.000000 0.000000
# 5 0.000000 0.000000 0.000000 0.000000 0.032422 0.000000
# 6 0.000000 0.000000 0.000000 0.000000 0.000000 0.039070
#
#
# Mechanical properties :
#
#
# Convention : Reuss Voigt Hill
#
# Bulk Modulus (GPa) = 35.58817 54.24670 44.91743
# Shear Modulus (GPa) = 20.43629 24.11111 22.27370
#
# Velocity S-wave (km/s) = 3.40628 3.69988 3.55611
# Velocity P-wave (km/s) = 5.97290 7.00362 6.50869
#
# Compressibility (1/GPa) = 0.02809923
#
# Stress axis : x y z
#
# Youngs Moduli (GPa) = 24.00643 57.09402 79.39556
#
# Poissons Ratio (x) = 0.56443 0.49978
# Poissons Ratio (y) = 0.23733 0.44878
# Poissons Ratio (z) = 0.15112 0.32272
#
# Static dielectric constant tensor:
#      x y z
#    x 1.589650 0.000000 0.000000 
#    y 0.000000 1.604940 0.000000 
#    z 0.000000 0.000000 1.580470 
# 
# From -- ./inp_files/27512.got.cif
#   From: 2010.05.17/outbox.cif.g08.bks.cpg/sg51_14_cif.got.tgz:27512.got - 2010.06.03 11:52:47.
