data_PCOD9404800
_publ_section_title
;
Structure prediction by ZEFSAII (Michael W. Deem and Ramdas Pophale) SiO2 
 PCOD9404800
Probable space group: P M M A
;
_chemical_formula_sum "Si O2"
_cell_formula_units_Z 40
_cell_length_a 15.145111
_cell_length_b 8.096730
_cell_length_c 17.663228
_cell_angle_alpha 90.000000
_cell_angle_beta 90.000000
_cell_angle_gamma 90.000000
_cell_volume 2165.968782
_symmetry_space_group_name_H-M "P M M A"
_symmetry_group_IT_number 51
_symmetry_cell_setting 'orthorhombic'
loop_
_space_group_symop_operation_xyz
x,y,z
1/2-x,-y,z
1/2+x,-y,-z
-x,y,-z
-x,-y,-z
1/2+x,y,-z
1/2-x,y,z
x,-y,z
loop_
_atom_site_type_symbol
_atom_site_label
_atom_site_fract_x
_atom_site_fract_y
_atom_site_fract_z
Si Si1 0.928574 0.177455 0.067697
Si Si2 0.851756 0.500000 0.002110
Si Si3 0.009773 0.299523 0.619756
Si Si4 0.355432 0.500000 0.169280
Si Si5 0.958634 0.185000 0.779737
Si Si6 0.148100 0.299215 0.491693
O O1 0.873755 0.338259 0.049190
O O2 0.977026 0.191371 0.147886
O O3 0.880787 0.000000 0.065220
O O4 0.000000 0.173543 0.000000
O O5 0.750000 0.500000 0.985637
O O6 0.893146 0.500000 0.917485
O O7 0.010504 0.500000 0.626369
O O8 0.009517 0.218798 0.701784
O O9 0.918303 0.252715 0.576674
O O10 0.093105 0.252207 0.567142
O O11 0.250000 0.500000 0.170953
O O12 0.390460 0.665458 0.209090
O O13 0.919304 0.000000 0.778636
O O14 0.250000 0.241076 0.487676
O O15 0.151062 0.500000 0.491180
#
# Coordination Sequence:
#
# PCOD9404800 Si02
#       6
#     8   4   8   4   8   8
#     4  10  20  36  58  81 109 150 191 228 275 333
#     4  11  22  36  58  84 110 144 191 241 282 335
#     4   9  17  31  54  83 111 145 189 235 282 339
#     4  11  23  37  55  82 116 149 183 233 288 339
#     4  11  22  37  58  83 113 149 189 234 279 333
#     4   8  15  30  53  80 111 147 186 231 287 343
#
# _framework density 18.467487999999999
#
# number of rings (size 3 to 8) (size 9 to 14) (size 15 to 20)
#    0.000    2.200    3.000    2.100    0.000    1.600 
#    0.000    5.000    0.000    3.000    0.000    0.000 
#    0.000    0.000    0.000    0.000    0.000    0.000 
#
# Total GULP energy -222920.093936 kJ/mol
# GULP energy per Si atom -5573.002348 kJ/mol
# Density = 1.842545 g / cm^3
# Si number density = 18.467488 Si / 1000 Ang^3
#
#
#
# Elastic Constant Matrix: (Units=GPa)
#
#
# Indices 1 2 3 4 5 6 
#
# 1 69.1825 14.8171 24.5816 0.0000 0.0000 0.0000
# 2 14.8171 103.5252 15.0496 0.0000 0.0000 0.0000
# 3 24.5816 15.0496 127.9275 0.0000 0.0000 0.0000
# 4 0.0000 0.0000 0.0000 225.0175 0.0000 0.0000
# 5 0.0000 0.0000 0.0000 0.0000 13.5518 0.0000
# 6 0.0000 0.0000 0.0000 0.0000 0.0000 288.8063
#
#
#
# Elastic Compliance Matrix: (Units=1/GPa)
#
#
# Indices 1 2 3 4 5 6 
#
# 1 0.015858 -0.001858 -0.002828 0.000000 0.000000 0.000000
# 2 -0.001858 0.010045 -0.000825 0.000000 0.000000 0.000000
# 3 -0.002828 -0.000825 0.008457 0.000000 0.000000 0.000000
# 4 0.000000 0.000000 0.000000 0.004444 0.000000 0.000000
# 5 0.000000 0.000000 0.000000 0.000000 0.073791 0.000000
# 6 0.000000 0.000000 0.000000 0.000000 0.000000 0.003463
#
#
# Mechanical properties :
#
#
# Convention : Reuss Voigt Hill
#
# Bulk Modulus (GPa) = 42.84992 45.50355 44.17673
# Shear Modulus (GPa) = 37.07554 121.88759 79.48156
#
# Velocity S-wave (km/s) = 4.48550 8.13292 6.56750
# Velocity P-wave (km/s) = 7.07669 10.62478 9.02678
#
# Compressibility (1/GPa) = 0.02333727
#
# Stress axis : x y z
#
# Youngs Moduli (GPa) = 63.06150 99.54855 118.23922
#
# Poissons Ratio (x) = 0.18500 0.33443
# Poissons Ratio (y) = 0.11720 0.09751
# Poissons Ratio (z) = 0.17837 0.08209
#
# Static dielectric constant tensor:
#      x y z
#    x 1.612890 0.000000 0.000000 
#    y 0.000000 1.659440 0.000000 
#    z 0.000000 0.000000 1.643930 
# 
# From -- ./inp_files/23818.got.cif
#   From: 2010.05.17/outbox.cif.g08.bks.cpg/sg51_12_cif.got.tgz:23818.got - 2010.06.03 11:52:47.
