data_PCOD9404514
_publ_section_title
;
Structure prediction by ZEFSAII (Michael W. Deem and Ramdas Pophale) SiO2 
 PCOD9404514
Probable space group: P M M A
;
_chemical_formula_sum "Si O2"
_cell_formula_units_Z 56
_cell_length_a 14.243837
_cell_length_b 22.807995
_cell_length_c 8.592098
_cell_angle_alpha 90.000000
_cell_angle_beta 90.000000
_cell_angle_gamma 90.000000
_cell_volume 2791.343773
_symmetry_space_group_name_H-M "P M M A"
_symmetry_group_IT_number 51
_symmetry_cell_setting 'orthorhombic'
loop_
_space_group_symop_operation_xyz
x,y,z
1/2-x,-y,z
1/2+x,-y,-z
-x,y,-z
-x,-y,-z
1/2+x,y,-z
1/2-x,y,z
x,-y,z
loop_
_atom_site_type_symbol
_atom_site_label
_atom_site_fract_x
_atom_site_fract_y
_atom_site_fract_z
Si Si1 0.507009 0.850172 0.673384
Si Si2 0.354611 0.069124 0.201988
Si Si3 0.147112 0.324010 0.885967
Si Si4 0.099859 0.434816 0.085974
Si Si5 0.863030 0.068729 0.159232
Si Si6 0.965912 0.347785 0.673813
Si Si7 0.359673 0.755315 0.183413
O O1 0.500000 0.824778 0.500000
O O2 0.578319 0.904637 0.669945
O O3 0.413958 0.880372 0.742859
O O4 0.563656 0.805348 0.783757
O O5 0.250000 0.092999 0.218554
O O6 0.351070 0.000000 0.218154
O O7 0.385808 0.079594 0.023442
O O8 0.250000 0.316290 0.810909
O O9 0.057742 0.329294 0.774742
O O10 0.149890 0.383963 0.987370
O O11 0.132066 0.272029 0.010563
O O12 0.141121 0.500000 0.091079
O O13 0.077648 0.406836 0.253475
O O14 0.000000 0.439575 0.000000
O O15 0.750000 0.071605 0.174819
O O16 0.890268 0.000000 0.193869
O O17 0.000000 0.354699 0.500000
O O18 0.889146 0.297208 0.700504
O O19 0.250000 0.771589 0.205515
#
# Coordination Sequence:
#
# PCOD9404514 Si02
#       7
#     8   8   8   8   8   8   8
#     4  12  24  36  55  86 118 144 176 225 286 341
#     4   9  19  37  59  81 107 144 188 228 266 317
#     4   9  19  36  59  83 109 149 198 239 275 325
#     4   8  15  30  53  80 113 154 196 233 270 321
#     4   9  20  39  60  82 111 149 191 230 270 326
#     4  10  20  35  56  86 119 148 184 235 298 352
#     4  10  22  41  58  74 105 149 195 239 280 334
#
# _framework density 20.062021999999999
#
# number of rings (size 3 to 8) (size 9 to 14) (size 15 to 20)
#    0.000    2.429    0.000    3.857    0.000    6.857 
#    0.000    3.571    0.000    0.000    0.000    4.000 
#    0.000    0.000    0.000    0.000    0.000    0.000 
#
# Total GULP energy -312218.439137 kJ/mol
# GULP energy per Si atom -5575.329270 kJ/mol
# Density = 2.001636 g / cm^3
# Si number density = 20.062022 Si / 1000 Ang^3
#
#
#
# Elastic Constant Matrix: (Units=GPa)
#
#
# Indices 1 2 3 4 5 6 
#
# 1 99.6978 33.8056 21.0704 0.0000 0.0000 0.0000
# 2 33.8056 97.4356 27.8413 0.0000 0.0000 0.0000
# 3 21.0704 27.8413 53.6281 0.0000 0.0000 0.0000
# 4 0.0000 0.0000 0.0000 12.1905 0.0000 0.0000
# 5 0.0000 0.0000 0.0000 0.0000 10.6811 0.0000
# 6 0.0000 0.0000 0.0000 0.0000 0.0000 8.1709
#
#
#
# Elastic Compliance Matrix: (Units=1/GPa)
#
#
# Indices 1 2 3 4 5 6 
#
# 1 0.011748 -0.003237 -0.002935 0.000000 0.000000 0.000000
# 2 -0.003237 0.012943 -0.005447 0.000000 0.000000 0.000000
# 3 -0.002935 -0.005447 0.022628 0.000000 0.000000 0.000000
# 4 0.000000 0.000000 0.000000 0.082031 0.000000 0.000000
# 5 0.000000 0.000000 0.000000 0.000000 0.093623 0.000000
# 6 0.000000 0.000000 0.000000 0.000000 0.000000 0.122385
#
#
# Mechanical properties :
#
#
# Convention : Reuss Voigt Hill
#
# Bulk Modulus (GPa) = 41.52916 46.24404 43.88660
# Shear Modulus (GPa) = 13.27576 17.41144 15.34360
#
# Velocity S-wave (km/s) = 2.57521 2.94918 2.76852
# Velocity P-wave (km/s) = 5.43945 5.89045 5.66944
#
# Compressibility (1/GPa) = 0.02407947
#
# Stress axis : x y z
#
# Youngs Moduli (GPa) = 85.11802 77.26194 44.19257
#
# Poissons Ratio (x) = 0.25013 0.12971
# Poissons Ratio (y) = 0.27556 0.24074
# Poissons Ratio (z) = 0.24984 0.42088
#
# Static dielectric constant tensor:
#      x y z
#    x 1.729260 0.000000 0.000000 
#    y 0.000000 1.756320 0.000000 
#    z 0.000000 0.000000 1.697640 
# 
# From -- ./inp_files/8565.got.cif
#   From: 2010.05.17/outbox.cif.g08.bks.cpg/sg51_5_cif.got.tgz:8565.got - 2010.06.03 11:52:47.
