data_PCOD9404384
_publ_section_title
;
Structure prediction by ZEFSAII (Michael W. Deem and Ramdas Pophale) SiO2 
 PCOD9404384
Probable space group: P M M A
;
_chemical_formula_sum "Si O2"
_cell_formula_units_Z 56
_cell_length_a 16.602593
_cell_length_b 8.067621
_cell_length_c 19.371199
_cell_angle_alpha 90.000000
_cell_angle_beta 90.000000
_cell_angle_gamma 90.000000
_cell_volume 2594.644797
_symmetry_space_group_name_H-M "P M M A"
_symmetry_group_IT_number 51
_symmetry_cell_setting 'orthorhombic'
loop_
_space_group_symop_operation_xyz
x,y,z
1/2-x,-y,z
1/2+x,-y,-z
-x,y,-z
-x,-y,-z
1/2+x,y,-z
1/2-x,y,z
x,-y,z
loop_
_atom_site_type_symbol
_atom_site_label
_atom_site_fract_x
_atom_site_fract_y
_atom_site_fract_z
Si Si1 0.501485 0.299751 0.920824
Si Si2 0.576637 0.199356 0.545392
Si Si3 0.660735 0.801893 0.157876
Si Si4 0.100524 0.810430 0.300373
Si Si5 0.161717 0.303459 0.158381
Si Si6 0.839785 0.196980 0.410552
Si Si7 0.569229 0.312446 0.284981
O O1 0.505319 0.500000 0.920036
O O2 0.416802 0.253453 0.885729
O O3 0.581932 0.237760 0.880987
O O4 0.500000 0.242858 0.000000
O O5 0.500000 0.259154 0.500000
O O6 0.595622 0.263448 0.621971
O O7 0.648447 0.225110 0.491606
O O8 0.563292 0.000000 0.554753
O O9 0.750000 0.742892 0.135583
O O10 0.641065 0.739316 0.234865
O O11 0.662038 0.000000 0.158194
O O12 0.149980 0.722778 0.240341
O O13 0.007876 0.802466 0.275188
O O14 0.128653 0.000000 0.305055
O O15 0.250000 0.235306 0.137737
O O16 0.163297 0.500000 0.145103
O O17 0.750000 0.239429 0.389358
O O18 0.901718 0.293520 0.363134
O O19 0.853597 0.000000 0.398907
O O20 0.544360 0.500000 0.269166
#
# Coordination Sequence:
#
# PCOD9404384 Si02
#       7
#     8   8   8   8   8   8   8
#     4  10  22  41  67  98 130 166 206 246 294 359
#     4   9  17  32  54  79 107 143 192 249 308 361
#     4  11  24  41  63  93 127 163 204 253 306 359
#     4  11  21  36  62  89 115 152 205 259 305 358
#     4  10  22  41  63  90 127 167 204 248 305 364
#     4  10  20  35  55  79 109 148 195 248 303 359
#     4  12  23  36  57  85 119 157 199 248 308 370
#
# _framework density 21.582915
#
# number of rings (size 3 to 8) (size 9 to 14) (size 15 to 20)
#    0.000    1.571    2.857    2.571    0.000    4.857 
#    0.000    5.000    0.000    0.000    0.000    0.000 
#    0.000    0.000    0.000    0.000    0.000    0.000 
#
# Total GULP energy -312558.541059 kJ/mol
# GULP energy per Si atom -5581.402519 kJ/mol
# Density = 2.153379 g / cm^3
# Si number density = 21.582915 Si / 1000 Ang^3
#
#
#
# Elastic Constant Matrix: (Units=GPa)
#
#
# Indices 1 2 3 4 5 6 
#
# 1 131.1073 11.0253 60.4682 0.0000 0.0000 0.0000
# 2 11.0253 19.5414 4.2507 0.0000 0.0000 0.0000
# 3 60.4682 4.2507 127.2997 0.0000 0.0000 0.0000
# 4 0.0000 0.0000 0.0000 22.3135 0.0000 0.0000
# 5 0.0000 0.0000 0.0000 0.0000 10.5642 0.0000
# 6 0.0000 0.0000 0.0000 0.0000 0.0000 15.9882
#
#
#
# Elastic Compliance Matrix: (Units=1/GPa)
#
#
# Indices 1 2 3 4 5 6 
#
# 1 0.010183 -0.004727 -0.004679 0.000000 0.000000 0.000000
# 2 -0.004727 0.053743 0.000451 0.000000 0.000000 0.000000
# 3 -0.004679 0.000451 0.010063 0.000000 0.000000 0.000000
# 4 0.000000 0.000000 0.000000 0.044816 0.000000 0.000000
# 5 0.000000 0.000000 0.000000 0.000000 0.094659 0.000000
# 6 0.000000 0.000000 0.000000 0.000000 0.000000 0.062546
#
#
# Mechanical properties :
#
#
# Convention : Reuss Voigt Hill
#
# Bulk Modulus (GPa) = 17.83246 47.71522 32.77384
# Shear Modulus (GPa) = 15.99421 23.25347 19.62384
#
# Velocity S-wave (km/s) = 2.72519 3.28594 3.01862
# Velocity P-wave (km/s) = 4.26409 6.04586 5.23139
#
# Compressibility (1/GPa) = 0.05607751
#
# Stress axis : x y z
#
# Youngs Moduli (GPa) = 98.20333 18.60721 99.37368
#
# Poissons Ratio (x) = 0.08796 0.46498
# Poissons Ratio (y) = 0.46425 -0.04482
# Poissons Ratio (z) = 0.45950 -0.00839
#
# Static dielectric constant tensor:
#      x y z
#    x 1.811340 0.000000 0.000000 
#    y 0.000000 1.786690 0.000000 
#    z 0.000000 0.000000 1.802580 
# 
# From -- ./inp_files/33442.got.cif
#   From: 2010.05.17/outbox.cif.g08.bks.cpg/sg51_17_cif.got.tgz:33442.got - 2010.06.03 11:52:47.
