data_PCOD9404842
_publ_section_title
;
Structure prediction by ZEFSAII (Michael W. Deem and Ramdas Pophale) SiO2 
 PCOD9404842
Probable space group: P M M A
;
_chemical_formula_sum "Si O2"
_cell_formula_units_Z 56
_cell_length_a 14.136950
_cell_length_b 8.552269
_cell_length_c 20.966882
_cell_angle_alpha 90.000000
_cell_angle_beta 90.000000
_cell_angle_gamma 90.000000
_cell_volume 2534.958919
_symmetry_space_group_name_H-M "P M M A"
_symmetry_group_IT_number 51
_symmetry_cell_setting 'orthorhombic'
loop_
_space_group_symop_operation_xyz
x,y,z
1/2-x,-y,z
1/2+x,-y,-z
-x,y,-z
-x,-y,-z
1/2+x,y,-z
1/2-x,y,z
x,-y,z
loop_
_atom_site_type_symbol
_atom_site_label
_atom_site_fract_x
_atom_site_fract_y
_atom_site_fract_z
Si Si1 0.138746 0.500000 0.816703
Si Si2 0.139278 0.833688 0.806673
Si Si3 0.645091 0.315618 0.369165
Si Si4 0.138275 0.322630 0.239275
Si Si5 0.522060 0.500000 0.925903
Si Si6 0.552356 0.183245 0.639330
Si Si7 0.857632 0.181136 0.508472
Si Si8 0.046009 0.171156 0.122596
O O1 0.250000 0.500000 0.835338
O O2 0.122504 0.660768 0.778405
O O3 0.068651 0.500000 0.877579
O O4 0.250000 0.835239 0.824070
O O5 0.067359 0.834006 0.866505
O O6 0.120842 0.000000 0.772850
O O7 0.750000 0.263951 0.346782
O O8 0.635113 0.500000 0.357618
O O9 0.556335 0.218097 0.345325
O O10 0.642103 0.285154 0.445600
O O11 0.250000 0.316465 0.228283
O O12 0.104955 0.500000 0.224763
O O13 0.114612 0.280757 0.311559
O O14 0.087344 0.199468 0.193342
O O15 0.572085 0.667536 0.912551
O O16 0.500000 0.500000 0.000000
O O17 0.574747 0.227915 0.566188
O O18 0.574105 0.000000 0.645247
O O19 0.750000 0.182660 0.534024
O O20 0.878911 0.000000 0.489718
O O21 0.075719 0.000000 0.097713
#
# Coordination Sequence:
#
# PCOD9404842 Si02
#       8
#     4   8   8   8   4   8   8   8
#     4   8  14  26  46  72 104 142 176 213 263 312
#     4   8  14  26  48  78 107 136 173 214 260 321
#     4  10  21  36  54  78 113 155 197 247 312 380
#     4  11  24  42  63  86 116 157 203 253 306 361
#     4  10  20  36  58  88 124 156 197 243 287 346
#     4  11  22  36  57  84 113 150 201 258 311 368
#     4   9  18  33  53  79 112 150 194 247 311 379
#     4  10  20  37  61  86 118 159 198 242 296 350
#
# _framework density 22.091087999999999
#
# number of rings (size 3 to 8) (size 9 to 14) (size 15 to 20)
#    0.000    2.286    0.714    2.143    0.000    5.714 
#    0.000    2.857    0.000    2.571    0.000    2.000 
#    0.000    0.000    0.000    0.000    0.000    0.000 
#
# Total GULP energy -312439.827008 kJ/mol
# GULP energy per Si atom -5579.282625 kJ/mol
# Density = 2.204081 g / cm^3
# Si number density = 22.091088 Si / 1000 Ang^3
#
#
#
# Elastic Constant Matrix: (Units=GPa)
#
#
# Indices 1 2 3 4 5 6 
#
# 1 68.3737 7.0240 -1.3795 0.0000 0.0000 0.0000
# 2 7.0240 173.6544 20.3893 0.0000 0.0000 0.0000
# 3 -1.3795 20.3893 50.5208 0.0000 0.0000 0.0000
# 4 0.0000 0.0000 0.0000 14.3430 0.0000 0.0000
# 5 0.0000 0.0000 0.0000 0.0000 9.1277 0.0000
# 6 0.0000 0.0000 0.0000 0.0000 0.0000 16.9883
#
#
#
# Elastic Compliance Matrix: (Units=1/GPa)
#
#
# Indices 1 2 3 4 5 6 
#
# 1 0.014708 -0.000674 0.000674 0.000000 0.000000 0.000000
# 2 -0.000674 0.006076 -0.002471 0.000000 0.000000 0.000000
# 3 0.000674 -0.002471 0.020809 0.000000 0.000000 0.000000
# 4 0.000000 0.000000 0.000000 0.069720 0.000000 0.000000
# 5 0.000000 0.000000 0.000000 0.000000 0.109556 0.000000
# 6 0.000000 0.000000 0.000000 0.000000 0.000000 0.058864
#
#
# Mechanical properties :
#
#
# Convention : Reuss Voigt Hill
#
# Bulk Modulus (GPa) = 27.28388 38.29074 32.78731
# Shear Modulus (GPa) = 16.84108 25.85948 21.35028
#
# Velocity S-wave (km/s) = 2.76406 3.42509 3.11218
# Velocity P-wave (km/s) = 4.75017 5.74564 5.27146
#
# Compressibility (1/GPa) = 0.03665168
#
# Stress axis : x y z
#
# Youngs Moduli (GPa) = 67.98868 164.58473 48.05547
#
# Poissons Ratio (x) = 0.11093 -0.03237
# Poissons Ratio (y) = 0.04583 0.11872
# Poissons Ratio (z) = -0.04580 0.40661
#
# Static dielectric constant tensor:
#      x y z
#    x 1.838200 0.000000 0.000000 
#    y 0.000000 1.846730 0.000000 
#    z 0.000000 0.000000 1.781090 
# 
# From -- ./inp_files/33569.got.cif
#   From: 2010.05.17/outbox.cif.g08.bks.cpg/sg51_17_cif.got.tgz:33569.got - 2010.06.03 11:52:47.
