data_PCOD9404079
_publ_section_title
;
Structure prediction by ZEFSAII (Michael W. Deem and Ramdas Pophale) SiO2 
 PCOD9404079
Probable space group: P M M A
;
_chemical_formula_sum "Si O2"
_cell_formula_units_Z 56
_cell_length_a 15.457696
_cell_length_b 17.549849
_cell_length_c 11.029849
_cell_angle_alpha 90.000000
_cell_angle_beta 90.000000
_cell_angle_gamma 90.000000
_cell_volume 2992.179981
_symmetry_space_group_name_H-M "P M M A"
_symmetry_group_IT_number 51
_symmetry_cell_setting 'orthorhombic'
loop_
_space_group_symop_operation_xyz
x,y,z
1/2-x,-y,z
1/2+x,-y,-z
-x,y,-z
-x,-y,-z
1/2+x,y,-z
1/2-x,y,z
x,-y,z
loop_
_atom_site_type_symbol
_atom_site_label
_atom_site_fract_x
_atom_site_fract_y
_atom_site_fract_z
Si Si1 0.652998 0.144775 0.817378
Si Si2 0.150903 0.682689 0.758324
Si Si3 0.406107 0.211292 0.540399
Si Si4 0.155241 0.707118 0.312842
Si Si5 0.995821 0.587784 0.647751
Si Si6 0.972979 0.089451 0.285453
Si Si7 0.591135 0.189853 0.063106
O O1 0.750000 0.120750 0.781942
O O2 0.644921 0.236204 0.799101
O O3 0.575159 0.106795 0.740957
O O4 0.641187 0.140558 0.961919
O O5 0.250000 0.655562 0.761395
O O6 0.137430 0.742633 0.648629
O O7 0.130862 0.733325 0.878353
O O8 0.080961 0.618928 0.718332
O O9 0.500000 0.243129 0.500000
O O10 0.351120 0.231432 0.422861
O O11 0.431949 0.129453 0.595448
O O12 0.250000 0.671716 0.315373
O O13 0.081981 0.644273 0.318019
O O14 0.980264 0.500000 0.681325
O O15 0.000000 0.589541 0.500000
O O16 0.928253 0.132951 0.173994
O O17 0.959291 0.000000 0.286735
O O18 0.500000 0.209653 0.000000
#
# Coordination Sequence:
#
# PCOD9404079 Si02
#       7
#     8   8   8   8   8   8   8
#     4  10  20  34  55  82 107 138 187 236 275 329
#     4  11  20  34  59  84 113 151 193 236 279 330
#     4  11  18  35  56  77 106 143 190 230 277 329
#     4  11  20  36  60  81 108 147 189 233 278 332
#     4  11  22  35  53  84 122 149 177 222 282 342
#     4  10  21  35  54  78 107 147 185 227 289 349
#     4   9  19  35  58  81 107 143 195 242 282 333
#
# _framework density 18.715451999999999
#
# number of rings (size 3 to 8) (size 9 to 14) (size 15 to 20)
#    0.000    1.571    4.286    2.571    0.000    3.714 
#    0.000    1.429    0.000   18.857    0.000    4.000 
#    0.000    0.000    0.000    0.000    0.000    0.000 
#
# Total GULP energy -311767.389152 kJ/mol
# GULP energy per Si atom -5567.274806 kJ/mol
# Density = 1.867285 g / cm^3
# Si number density = 18.715452 Si / 1000 Ang^3
#
#
#
# Elastic Constant Matrix: (Units=GPa)
#
#
# Indices 1 2 3 4 5 6 
#
# 1 117.9125 50.2389 10.4065 0.0000 0.0000 0.0000
# 2 50.2389 106.2173 31.8831 0.0000 0.0000 0.0000
# 3 10.4065 31.8831 25.8294 0.0000 0.0000 0.0000
# 4 0.0000 0.0000 0.0000 6.0963 0.0000 0.0000
# 5 0.0000 0.0000 0.0000 0.0000 11.7642 0.0000
# 6 0.0000 0.0000 0.0000 0.0000 0.0000 20.3368
#
#
#
# Elastic Compliance Matrix: (Units=1/GPa)
#
#
# Indices 1 2 3 4 5 6 
#
# 1 0.010775 -0.006026 0.003097 0.000000 0.000000 0.000000
# 2 -0.006026 0.018326 -0.020194 0.000000 0.000000 0.000000
# 3 0.003097 -0.020194 0.062394 0.000000 0.000000 0.000000
# 4 0.000000 0.000000 0.000000 0.164033 0.000000 0.000000
# 5 0.000000 0.000000 0.000000 0.000000 0.085004 0.000000
# 6 0.000000 0.000000 0.000000 0.000000 0.000000 0.049172
#
#
# Mechanical properties :
#
#
# Convention : Reuss Voigt Hill
#
# Bulk Modulus (GPa) = 22.09915 48.33515 35.21715
# Shear Modulus (GPa) = 11.08565 18.13483 14.61024
#
# Velocity S-wave (km/s) = 2.43641 3.11622 2.79704
# Velocity P-wave (km/s) = 4.44392 6.23138 5.41196
#
# Compressibility (1/GPa) = 0.04525061
#
# Stress axis : x y z
#
# Youngs Moduli (GPa) = 92.80693 54.56593 16.02708
#
# Poissons Ratio (x) = 0.32882 -0.04964
# Poissons Ratio (y) = 0.55927 0.32365
# Poissons Ratio (z) = -0.28745 1.10189
#
# Static dielectric constant tensor:
#      x y z
#    x 1.690450 0.000000 0.000000 
#    y 0.000000 1.612940 0.000000 
#    z 0.000000 0.000000 1.766240 
# 
# From -- ./inp_files/16581.got.cif
#   From: 2010.05.17/outbox.cif.g08.bks.cpg/sg51_9_cif.got.tgz:16581.got - 2010.06.03 11:52:47.
