data_PCOD9404880
_publ_section_title
;
Structure prediction by ZEFSAII (Michael W. Deem and Ramdas Pophale) SiO2 
 PCOD9404880
Probable space group: P M M A
;
_chemical_formula_sum "Si O2"
_cell_formula_units_Z 40
_cell_length_a 23.121943
_cell_length_b 7.629594
_cell_length_c 9.989076
_cell_angle_alpha 90.000000
_cell_angle_beta 90.000000
_cell_angle_gamma 90.000000
_cell_volume 1762.183262
_symmetry_space_group_name_H-M "P M M A"
_symmetry_group_IT_number 51
_symmetry_cell_setting 'orthorhombic'
loop_
_space_group_symop_operation_xyz
x,y,z
1/2-x,-y,z
1/2+x,-y,-z
-x,y,-z
-x,-y,-z
1/2+x,y,-z
1/2-x,y,z
x,-y,z
loop_
_atom_site_type_symbol
_atom_site_label
_atom_site_fract_x
_atom_site_fract_y
_atom_site_fract_z
Si Si1 0.407209 0.298496 0.215215
Si Si2 0.686523 0.294528 0.984812
Si Si3 0.313694 0.788032 0.431254
Si Si4 0.020622 0.203214 0.642446
Si Si5 0.854086 0.788032 0.276094
O O1 0.421292 0.500000 0.183508
O O2 0.367807 0.219176 0.097063
O O3 0.364928 0.288882 0.343313
O O4 0.467247 0.211212 0.256019
O O5 0.750000 0.218285 0.954337
O O6 0.688381 0.500000 0.947128
O O7 0.674419 0.282133 0.141998
O O8 0.250000 0.733562 0.384191
O O9 0.321725 0.742184 0.586656
O O10 0.317730 0.000000 0.421385
O O11 0.079800 0.275140 0.703781
O O12 0.000000 0.282009 0.500000
O O13 0.034838 0.000000 0.612614
O O14 0.852881 0.000000 0.263525
#
# Coordination Sequence:
#
# PCOD9404880 Si02
#       5
#     8   8   8   8   8
#     4  11  23  38  59  86 119 157 198 241 288 347
#     4  10  23  42  59  81 120 162 195 236 291 348
#     4  10  20  36  59  86 115 150 196 246 295 346
#     4  10  20  39  63  86 119 154 191 243 297 347
#     4  10  21  38  62  88 114 150 195 244 292 345
#
# _framework density 22.699116
#
# number of rings (size 3 to 8) (size 9 to 14) (size 15 to 20)
#    0.000    1.800    2.000    1.800    0.000    6.800 
#    0.000    4.000    0.000    0.000    0.000    0.000 
#    0.000    0.000    0.000    0.000    0.000    0.000 
#
# Total GULP energy -223566.213550 kJ/mol
# GULP energy per Si atom -5589.155339 kJ/mol
# Density = 2.264745 g / cm^3
# Si number density = 22.699116 Si / 1000 Ang^3
#
#
#
# Elastic Constant Matrix: (Units=GPa)
#
#
# Indices 1 2 3 4 5 6 
#
# 1 112.4262 -3.8964 -4.6089 0.0000 0.0000 0.0000
# 2 -3.8964 44.0596 -9.4217 0.0000 0.0000 0.0000
# 3 -4.6089 -9.4217 69.3084 0.0000 0.0000 0.0000
# 4 0.0000 0.0000 0.0000 22.4205 0.0000 0.0000
# 5 0.0000 0.0000 0.0000 0.0000 79.4758 0.0000
# 6 0.0000 0.0000 0.0000 0.0000 0.0000 8.5313
#
#
#
# Elastic Compliance Matrix: (Units=1/GPa)
#
#
# Indices 1 2 3 4 5 6 
#
# 1 0.008957 0.000947 0.000724 0.000000 0.000000 0.000000
# 2 0.000947 0.023476 0.003254 0.000000 0.000000 0.000000
# 3 0.000724 0.003254 0.014919 0.000000 0.000000 0.000000
# 4 0.000000 0.000000 0.000000 0.044602 0.000000 0.000000
# 5 0.000000 0.000000 0.000000 0.000000 0.012582 0.000000
# 6 0.000000 0.000000 0.000000 0.000000 0.000000 0.117215
#
#
# Mechanical properties :
#
#
# Convention : Reuss Voigt Hill
#
# Bulk Modulus (GPa) = 17.48138 21.10445 19.29292
# Shear Modulus (GPa) = 21.64798 38.33361 29.99080
#
# Velocity S-wave (km/s) = 3.09154 4.11392 3.63882
# Velocity P-wave (km/s) = 4.52345 5.64655 5.11591
#
# Compressibility (1/GPa) = 0.05720371
#
# Stress axis : x y z
#
# Youngs Moduli (GPa) = 111.64150 42.59636 67.02942
#
# Poissons Ratio (x) = -0.04034 -0.04856
# Poissons Ratio (y) = -0.10573 -0.21813
# Poissons Ratio (z) = -0.08087 -0.13862
#
# Static dielectric constant tensor:
#      x y z
#    x 1.972360 0.000000 0.000000 
#    y 0.000000 1.939170 0.000000 
#    z 0.000000 0.000000 1.816070 
# 
# From -- ./inp_files/11409.got.cif
#   From: 2010.05.17/outbox.cif.g08.bks.cpg/sg51_6_cif.got.tgz:11409.got - 2010.06.03 11:52:47.
