data_PCOD9404984
_publ_section_title
;
Structure prediction by ZEFSAII (Michael W. Deem and Ramdas Pophale) SiO2 
 PCOD9404984
Probable space group: P M M A
;
_chemical_formula_sum "Si O2"
_cell_formula_units_Z 52
_cell_length_a 9.349714
_cell_length_b 14.961832
_cell_length_c 20.220002
_cell_angle_alpha 90.000000
_cell_angle_beta 90.000000
_cell_angle_gamma 90.000000
_cell_volume 2828.552829
_symmetry_space_group_name_H-M "P M M A"
_symmetry_group_IT_number 51
_symmetry_cell_setting 'orthorhombic'
loop_
_space_group_symop_operation_xyz
x,y,z
1/2-x,-y,z
1/2+x,-y,-z
-x,y,-z
-x,-y,-z
1/2+x,y,-z
1/2-x,y,z
x,-y,z
loop_
_atom_site_type_symbol
_atom_site_label
_atom_site_fract_x
_atom_site_fract_y
_atom_site_fract_z
Si Si1 0.592858 0.646073 0.629919
Si Si2 0.078424 0.223745 0.820934
Si Si3 0.082435 0.099486 0.696476
Si Si4 0.579941 0.105107 0.930123
Si Si5 0.914014 0.500000 0.433273
Si Si6 0.915994 0.844214 0.569138
Si Si7 0.086111 0.605856 0.215076
O O1 0.750000 0.609282 0.610136
O O2 0.463484 0.586311 0.606169
O O3 0.581325 0.742085 0.595914
O O4 0.589508 0.639806 0.708951
O O5 0.250000 0.220920 0.829864
O O6 0.045885 0.174232 0.750825
O O7 0.996386 0.167066 0.876338
O O8 0.019625 0.325001 0.820208
O O9 0.250000 0.111163 0.679474
O O10 0.991362 0.105261 0.629716
O O11 0.065004 0.000000 0.725875
O O12 0.750000 0.123801 0.935259
O O13 0.564412 0.000000 0.912261
O O14 0.500000 0.117819 0.000000
O O15 0.750000 0.500000 0.446619
O O16 0.000000 0.500000 0.500000
O O17 0.750000 0.870300 0.560705
O O18 0.000000 0.852860 0.500000
O O19 0.250000 0.613949 0.190031
O O20 0.048203 0.500000 0.213576
#
# Coordination Sequence:
#
# PCOD9404984 Si02
#       7
#     8   8   8   8   4   8   8
#     4  10  20  37  56  76 104 138 181 236 297 355
#     4  11  22  37  61  91 126 160 196 243 294 348
#     4  10  22  39  58  82 113 149 191 240 293 349
#     4  10  21  38  63  96 133 170 206 242 285 341
#     4  12  24  34  50  74 102 136 179 230 293 364
#     4  11  23  38  57  77 103 141 187 240 297 357
#     4  10  20  37  60  84 115 153 195 243 294 349
#
# _framework density 18.383959000000001
#
# number of rings (size 3 to 8) (size 9 to 14) (size 15 to 20)
#    0.000    1.538    2.308    3.000    0.000    6.154 
#    0.000    0.000    0.000    0.462    0.000    0.000 
#    0.000    0.000    0.000    0.000    0.000    0.000 
#
# Total GULP energy -290196.326187 kJ/mol
# GULP energy per Si atom -5580.698581 kJ/mol
# Density = 1.834212 g / cm^3
# Si number density = 18.383959 Si / 1000 Ang^3
#
#
#
# Elastic Constant Matrix: (Units=GPa)
#
#
# Indices 1 2 3 4 5 6 
#
# 1 135.6763 66.6426 64.6815 0.0000 0.0000 0.0000
# 2 66.6426 98.7053 44.4764 0.0000 0.0000 0.0000
# 3 64.6815 44.4764 86.2863 0.0000 0.0000 0.0000
# 4 0.0000 0.0000 0.0000 26.9962 0.0000 0.0000
# 5 0.0000 0.0000 0.0000 0.0000 31.9634 0.0000
# 6 0.0000 0.0000 0.0000 0.0000 0.0000 19.2988
#
#
#
# Elastic Compliance Matrix: (Units=1/GPa)
#
#
# Indices 1 2 3 4 5 6 
#
# 1 0.013783 -0.006057 -0.007210 0.000000 0.000000 0.000000
# 2 -0.006057 0.015858 -0.003634 0.000000 0.000000 0.000000
# 3 -0.007210 -0.003634 0.018867 0.000000 0.000000 0.000000
# 4 0.000000 0.000000 0.000000 0.037042 0.000000 0.000000
# 5 0.000000 0.000000 0.000000 0.000000 0.031286 0.000000
# 6 0.000000 0.000000 0.000000 0.000000 0.000000 0.051817
#
#
# Mechanical properties :
#
#
# Convention : Reuss Voigt Hill
#
# Bulk Modulus (GPa) = 67.99516 74.69656 71.34586
# Shear Modulus (GPa) = 24.11327 25.30950 24.71138
#
# Velocity S-wave (km/s) = 3.62560 3.71444 3.67029
# Velocity P-wave (km/s) = 7.38871 7.68867 7.54018
#
# Compressibility (1/GPa) = 0.01470693
#
# Stress axis : x y z
#
# Youngs Moduli (GPa) = 72.55484 63.05997 53.00340
#
# Poissons Ratio (x) = 0.38195 0.38214
# Poissons Ratio (y) = 0.43946 0.19259
# Poissons Ratio (z) = 0.52309 0.22913
#
# Static dielectric constant tensor:
#      x y z
#    x 1.620010 0.000000 0.000000 
#    y 0.000000 1.659660 0.000000 
#    z 0.000000 0.000000 1.615630 
# 
# From -- ./inp_files/31712.got.cif
#   From: 2010.05.17/outbox.cif.g08.bks.cpg/sg51_16_cif.got.tgz:31712.got - 2010.06.03 11:52:47.
