data_PCOD9404380
_publ_section_title
;
Structure prediction by ZEFSAII (Michael W. Deem and Ramdas Pophale) SiO2 
 PCOD9404380
Probable space group: P M M A
;
_chemical_formula_sum "Si O2"
_cell_formula_units_Z 52
_cell_length_a 21.724352
_cell_length_b 9.553267
_cell_length_c 13.933200
_cell_angle_alpha 90.000000
_cell_angle_beta 90.000000
_cell_angle_gamma 90.000000
_cell_volume 2891.675917
_symmetry_space_group_name_H-M "P M M A"
_symmetry_group_IT_number 51
_symmetry_cell_setting 'orthorhombic'
loop_
_space_group_symop_operation_xyz
x,y,z
1/2-x,-y,z
1/2+x,-y,-z
-x,y,-z
-x,-y,-z
1/2+x,y,-z
1/2-x,y,z
x,-y,z
loop_
_atom_site_type_symbol
_atom_site_label
_atom_site_fract_x
_atom_site_fract_y
_atom_site_fract_z
Si Si1 0.027466 0.656772 0.707521
Si Si2 0.635491 0.163132 0.571182
Si Si3 0.250000 0.669511 0.520974
Si Si4 0.121414 0.160933 0.806584
Si Si5 0.412872 0.832901 0.221876
Si Si6 0.500000 0.744384 0.500000
Si Si7 0.250000 0.155382 0.710463
Si Si8 0.571243 0.830659 0.989903
O O1 0.027896 0.500000 0.744911
O O2 0.088908 0.738908 0.731181
O O3 0.974616 0.748797 0.755946
O O4 0.015488 0.658334 0.594588
O O5 0.687652 0.263198 0.525847
O O6 0.630414 0.193748 0.686065
O O7 0.565269 0.179152 0.528045
O O8 0.652842 0.000000 0.557997
O O9 0.250000 0.500000 0.514320
O O10 0.250000 0.725885 0.630128
O O11 0.191758 0.161762 0.779012
O O12 0.098175 0.000000 0.796805
O O13 0.106735 0.210811 0.913974
O O14 0.397699 0.792786 0.111951
O O15 0.424694 0.000000 0.223555
O O16 0.250000 0.000000 0.662458
O O17 0.569585 0.000000 0.990353
O O18 0.500000 0.783158 0.000000
#
# Coordination Sequence:
#
# PCOD9404380 Si02
#       8
#     8   8   4   8   8   4   4   8
#     4  11  21  32  49  76 109 144 181 225 274 331
#     4  10  21  38  61  87 115 148 194 242 286 339
#     4  12  26  42  61  82 116 162 199 232 289 352
#     4  10  20  35  55  79 108 142 183 228 280 335
#     4   9  18  34  56  83 111 143 180 224 276 330
#     4  10  22  36  56  84 114 148 186 240 300 346
#     4  10  22  38  57  80 106 140 187 238 277 326
#     4   9  15  29  56  84 112 143 175 222 282 340
#
# _framework density 17.982651000000001
#
# number of rings (size 3 to 8) (size 9 to 14) (size 15 to 20)
#    0.000    2.000    1.538    2.538    0.000    8.000 
#    0.000    2.308    0.000    3.692    0.000    1.077 
#    0.000    0.000    0.000    0.000    0.000    0.000 
#
# Total GULP energy -289613.281571 kJ/mol
# GULP energy per Si atom -5569.486184 kJ/mol
# Density = 1.794172 g / cm^3
# Si number density = 17.982651 Si / 1000 Ang^3
#
#
#
# Elastic Constant Matrix: (Units=GPa)
#
#
# Indices 1 2 3 4 5 6 
#
# 1 91.6691 45.0749 48.2987 0.0000 0.0000 0.0000
# 2 45.0749 65.8390 28.1121 0.0000 0.0000 0.0000
# 3 48.2987 28.1121 112.0876 0.0000 0.0000 0.0000
# 4 0.0000 0.0000 0.0000 -11.2620 0.0000 0.0000
# 5 0.0000 0.0000 0.0000 0.0000 17.6048 0.0000
# 6 0.0000 0.0000 0.0000 0.0000 0.0000 -14.7936
#
#
#
# Elastic Compliance Matrix: (Units=1/GPa)
#
#
# Indices 1 2 3 4 5 6 
#
# 1 0.019093 -0.010705 -0.005542 0.000000 0.000000 0.000000
# 2 -0.010705 0.023012 -0.001159 0.000000 0.000000 0.000000
# 3 -0.005542 -0.001159 0.011600 0.000000 0.000000 0.000000
# 4 0.000000 0.000000 0.000000 -0.088794 0.000000 0.000000
# 5 0.000000 0.000000 0.000000 0.000000 0.056803 0.000000
# 6 0.000000 0.000000 0.000000 0.000000 0.000000 -0.067597
#
#
# Mechanical properties :
#
#
# Convention : Reuss Voigt Hill
#
# Bulk Modulus (GPa) = 52.92853 56.95191 54.94022
# Shear Modulus (GPa) = -1047.46144 8.18382 -519.63881
#
# Velocity S-wave (km/s) = -24.16090 2.13561 -17.01746
# Velocity P-wave (km/s) = 27.36485 6.14982 18.85490
#
# Compressibility (1/GPa) = 0.01889340
#
# Stress axis : x y z
#
# Youngs Moduli (GPa) = 52.37634 43.45530 86.20406
#
# Poissons Ratio (x) = 0.46518 0.47776
# Poissons Ratio (y) = 0.56068 0.09990
# Poissons Ratio (z) = 0.29028 0.05036
#
# Static dielectric constant tensor:
#      x y z
#    x 1.628320 0.000000 0.000000 
#    y 0.000000 1.611340 0.000000 
#    z 0.000000 0.000000 1.646430 
# 
# From -- ./inp_files/25592.got.cif
#   From: 2010.05.17/outbox.cif.g08.bks.cpg/sg51_13_cif.got.tgz:25592.got - 2010.06.03 11:52:47.
