data_PCOD9404669
_publ_section_title
;
Structure prediction by ZEFSAII (Michael W. Deem and Ramdas Pophale) SiO2 
 PCOD9404669
Probable space group: P M M A
;
_chemical_formula_sum "Si O2"
_cell_formula_units_Z 26
_cell_length_a 28.228148
_cell_length_b 7.414461
_cell_length_c 5.133589
_cell_angle_alpha 90.000000
_cell_angle_beta 90.000000
_cell_angle_gamma 90.000000
_cell_volume 1074.442223
_symmetry_space_group_name_H-M "P M M A"
_symmetry_group_IT_number 51
_symmetry_cell_setting 'orthorhombic'
loop_
_space_group_symop_operation_xyz
x,y,z
1/2-x,-y,z
1/2+x,-y,-z
-x,y,-z
-x,-y,-z
1/2+x,y,-z
1/2-x,y,z
x,-y,z
loop_
_atom_site_type_symbol
_atom_site_label
_atom_site_fract_x
_atom_site_fract_y
_atom_site_fract_z
Si Si1 0.140634 0.717743 0.417151
Si Si2 0.303482 0.280390 0.921345
Si Si3 0.542590 0.206360 0.312620
Si Si4 0.500000 0.500000 0.000000
O O1 0.137825 0.500000 0.411454
O O2 0.158862 0.780772 0.137347
O O3 0.090495 0.782827 0.523702
O O4 0.179251 0.769740 0.634738
O O5 0.250000 0.220824 0.976526
O O6 0.303124 0.500000 0.931164
O O7 0.500000 0.274011 0.500000
O O8 0.539300 0.341894 0.073020
O O9 0.533987 0.000000 0.240392
#
# Coordination Sequence:
#
# PCOD9404669 Si02
#       4
#     8   8   8   2
#     4  10  20  35  61  90 127 173 218 273 335 397
#     4   9  18  33  58  92 126 166 221 274 329 398
#     4  11  26  43  65  98 136 177 225 281 340 405
#     4  12  24  44  72  92 130 176 228 276 334 402
#
# _framework density 24.198604
#
# number of rings (size 3 to 8) (size 9 to 14) (size 15 to 20)
#    0.000    1.846    1.538    1.846    4.308    3.692 
#    0.000    0.000    0.000    5.538    0.000    0.000 
#    0.000    0.000    0.000    0.000    0.000    0.000 
#
# Total GULP energy -145072.576551 kJ/mol
# GULP energy per Si atom -5579.714483 kJ/mol
# Density = 2.414353 g / cm^3
# Si number density = 24.198604 Si / 1000 Ang^3
#
#
#
# Elastic Constant Matrix: (Units=GPa)
#
#
# Indices 1 2 3 4 5 6 
#
# 1 92.5198 -6.6963 -20.1656 0.0000 0.0000 0.0000
# 2 -6.6963 108.6231 8.2970 0.0000 0.0000 0.0000
# 3 -20.1656 8.2970 52.0537 0.0000 0.0000 0.0000
# 4 0.0000 0.0000 0.0000 -15.5771 0.0000 0.0000
# 5 0.0000 0.0000 0.0000 0.0000 44.2016 0.0000
# 6 0.0000 0.0000 0.0000 0.0000 0.0000 17.7338
#
#
#
# Elastic Compliance Matrix: (Units=1/GPa)
#
#
# Indices 1 2 3 4 5 6 
#
# 1 0.011821 0.000384 0.004518 0.000000 0.000000 0.000000
# 2 0.000384 0.009332 -0.001339 0.000000 0.000000 0.000000
# 3 0.004518 -0.001339 0.021175 0.000000 0.000000 0.000000
# 4 0.000000 0.000000 0.000000 -0.064197 0.000000 0.000000
# 5 0.000000 0.000000 0.000000 0.000000 0.022624 0.000000
# 6 0.000000 0.000000 0.000000 0.000000 0.000000 0.056389
#
#
# Mechanical properties :
#
#
# Convention : Reuss Voigt Hill
#
# Bulk Modulus (GPa) = 20.22078 24.00742 22.11410
# Shear Modulus (GPa) = 75.18491 27.38910 51.28700
#
# Velocity S-wave (km/s) = 5.58009 3.36794 4.60871
# Velocity P-wave (km/s) = 7.06334 5.00665 6.12199
#
# Compressibility (1/GPa) = 0.04945407
#
# Stress axis : x y z
#
# Youngs Moduli (GPa) = 84.59461 107.15745 47.22606
#
# Poissons Ratio (x) = -0.04111 -0.21338
# Poissons Ratio (y) = -0.03245 0.06323
# Poissons Ratio (z) = -0.38223 0.14347
#
# Static dielectric constant tensor:
#      x y z
#    x 1.919410 0.000000 0.000000 
#    y 0.000000 1.914630 0.000000 
#    z 0.000000 0.000000 2.065760 
# 
# From -- ./inp_files/3289.got.cif
#   From: 2010.05.17/outbox.cif.g08.bks.cpg/sg51_2_cif.got.tgz:3289.got - 2010.06.03 11:52:47.
