data_PCOD9404594
_publ_section_title
;
Structure prediction by ZEFSAII (Michael W. Deem and Ramdas Pophale) SiO2 
 PCOD9404594
Probable space group: P M M A
;
_chemical_formula_sum "Si O2"
_cell_formula_units_Z 48
_cell_length_a 28.927580
_cell_length_b 7.632050
_cell_length_c 10.366763
_cell_angle_alpha 90.000000
_cell_angle_beta 90.000000
_cell_angle_gamma 90.000000
_cell_volume 2288.740108
_symmetry_space_group_name_H-M "P M M A"
_symmetry_group_IT_number 51
_symmetry_cell_setting 'orthorhombic'
loop_
_space_group_symop_operation_xyz
x,y,z
1/2-x,-y,z
1/2+x,-y,-z
-x,y,-z
-x,-y,-z
1/2+x,y,-z
1/2-x,y,z
x,-y,z
loop_
_atom_site_type_symbol
_atom_site_label
_atom_site_fract_x
_atom_site_fract_y
_atom_site_fract_z
Si Si1 0.347162 0.712569 0.522332
Si Si2 0.750000 0.288061 0.595132
Si Si3 0.600860 0.794460 0.223387
Si Si4 0.410255 0.291173 0.285217
Si Si5 0.750000 0.792038 0.898133
Si Si6 0.350694 0.210924 0.032520
Si Si7 0.990362 0.204855 0.357506
O O1 0.347593 0.500000 0.524490
O O2 0.296627 0.770332 0.475796
O O3 0.362260 0.777805 0.661680
O O4 0.384303 0.771368 0.414833
O O5 0.750000 0.500000 0.594969
O O6 0.750000 0.232356 0.743885
O O7 0.553070 0.717913 0.280313
O O8 0.592018 0.000000 0.197042
O O9 0.621886 0.719603 0.091864
O O10 0.414145 0.500000 0.293832
O O11 0.379049 0.247682 0.162411
O O12 0.461854 0.217479 0.280419
O O13 0.798279 0.720335 0.953238
O O14 0.750000 0.000000 0.923375
O O15 0.347366 0.000000 0.020111
O O16 0.000000 0.282392 0.500000
O O17 0.978901 0.000000 0.378678
#
# Coordination Sequence:
#
# PCOD9404594 Si02
#       7
#     8   4   8   8   4   8   8
#     4  10  21  36  57  84 114 146 185 234 283 333
#     4  10  20  37  58  84 116 148 188 235 282 340
#     4  10  22  39  59  84 116 153 190 235 290 341
#     4  11  22  36  59  87 113 149 191 236 284 335
#     4  10  20  35  58  84 110 146 188 231 280 334
#     4  10  22  39  58  83 116 150 188 235 287 343
#     4  10  20  36  59  84 113 152 194 236 285 344
#
# _framework density 20.972238999999998
#
# number of rings (size 3 to 8) (size 9 to 14) (size 15 to 20)
#    0.000    1.833    3.333    0.500    0.000    4.333 
#    0.000    4.167    0.000    0.000    0.000    0.000 
#    0.000    0.000    0.000    0.000    0.000    0.000 
#
# Total GULP energy -268150.835177 kJ/mol
# GULP energy per Si atom -5586.475733 kJ/mol
# Density = 2.092450 g / cm^3
# Si number density = 20.972239 Si / 1000 Ang^3
#
#
#
# Elastic Constant Matrix: (Units=GPa)
#
#
# Indices 1 2 3 4 5 6 
#
# 1 116.2197 -3.8901 21.5974 0.0000 0.0000 0.0000
# 2 -3.8901 38.3344 -10.2451 0.0000 0.0000 0.0000
# 3 21.5974 -10.2451 96.1213 0.0000 0.0000 0.0000
# 4 0.0000 0.0000 0.0000 31.5668 0.0000 0.0000
# 5 0.0000 0.0000 0.0000 0.0000 26.0014 0.0000
# 6 0.0000 0.0000 0.0000 0.0000 0.0000 22.6321
#
#
#
# Elastic Compliance Matrix: (Units=1/GPa)
#
#
# Indices 1 2 3 4 5 6 
#
# 1 0.008985 0.000383 -0.001978 0.000000 0.000000 0.000000
# 2 0.000383 0.026867 0.002778 0.000000 0.000000 0.000000
# 3 -0.001978 0.002778 0.011144 0.000000 0.000000 0.000000
# 4 0.000000 0.000000 0.000000 0.031679 0.000000 0.000000
# 5 0.000000 0.000000 0.000000 0.000000 0.038459 0.000000
# 6 0.000000 0.000000 0.000000 0.000000 0.000000 0.044185
#
#
# Mechanical properties :
#
#
# Convention : Reuss Voigt Hill
#
# Bulk Modulus (GPa) = 20.25857 29.51106 24.88481
# Shear Modulus (GPa) = 28.50498 32.25427 30.37962
#
# Velocity S-wave (km/s) = 3.69070 3.92593 3.81013
# Velocity P-wave (km/s) = 5.27659 5.88664 5.58994
#
# Compressibility (1/GPa) = 0.04936184
#
# Stress axis : x y z
#
# Youngs Moduli (GPa) = 111.29926 37.21975 89.73446
#
# Poissons Ratio (x) = -0.01426 0.17749
# Poissons Ratio (y) = -0.04264 -0.24925
# Poissons Ratio (z) = 0.22014 -0.10338
#
# Static dielectric constant tensor:
#      x y z
#    x 1.759140 0.000000 0.000000 
#    y 0.000000 1.901630 0.000000 
#    z 0.000000 0.000000 1.716510 
# 
# From -- ./inp_files/12954.got.cif
#   From: 2010.05.17/outbox.cif.g08.bks.cpg/sg51_7_cif.got.tgz:12954.got - 2010.06.03 11:52:47.
