data_PCOD9404889
_publ_section_title
;
Structure prediction by ZEFSAII (Michael W. Deem and Ramdas Pophale) SiO2 
 PCOD9404889
Probable space group: P M M A
;
_chemical_formula_sum "Si O2"
_cell_formula_units_Z 40
_cell_length_a 13.286660
_cell_length_b 9.100630
_cell_length_c 16.677130
_cell_angle_alpha 90.000000
_cell_angle_beta 90.000000
_cell_angle_gamma 90.000000
_cell_volume 2016.548138
_symmetry_space_group_name_H-M "P M M A"
_symmetry_group_IT_number 51
_symmetry_cell_setting 'orthorhombic'
loop_
_space_group_symop_operation_xyz
x,y,z
1/2-x,-y,z
1/2+x,-y,-z
-x,y,-z
-x,-y,-z
1/2+x,y,-z
1/2-x,y,z
x,-y,z
loop_
_atom_site_type_symbol
_atom_site_label
_atom_site_fract_x
_atom_site_fract_y
_atom_site_fract_z
Si Si1 0.468050 0.177240 0.590649
Si Si2 0.250000 0.822100 0.850328
Si Si3 0.383851 0.329717 0.978452
Si Si4 0.750000 0.821985 0.339558
Si Si5 0.629595 0.673599 0.705609
Si Si6 0.636005 0.160627 0.859997
O O1 0.500000 0.215781 0.500000
O O2 0.355158 0.226305 0.618093
O O3 0.555603 0.242346 0.646180
O O4 0.469154 0.000000 0.597525
O O5 0.250000 0.785298 0.755696
O O6 0.250000 0.000000 0.858867
O O7 0.155432 0.750216 0.898312
O O8 0.351428 0.500000 0.978529
O O9 0.352264 0.230063 0.053230
O O10 0.500000 0.334864 0.000000
O O11 0.750000 0.000000 0.343900
O O12 0.750000 0.700731 0.691176
O O13 0.615605 0.500000 0.699182
O O14 0.595617 0.726913 0.794410
O O15 0.750000 0.139626 0.831636
O O16 0.585359 0.000000 0.861765
#
# Coordination Sequence:
#
# PCOD9404889 Si02
#       6
#     8   4   8   4   8   8
#     4  10  22  41  69  97 127 166 213 270 331 398
#     4  11  23  41  63  88 127 174 219 269 322 381
#     4  11  24  39  58  86 123 165 212 263 315 371
#     4   9  22  43  63  96 133 166 211 271 332 387
#     4  10  22  39  61  91 129 167 208 264 326 384
#     4  10  20  36  59  87 117 155 206 255 309 367
#
# _framework density 19.835875999999999
#
# number of rings (size 3 to 8) (size 9 to 14) (size 15 to 20)
#    0.000    1.800    1.000    2.100    4.200    4.000 
#    0.000    1.500    0.000    0.000    0.000    0.000 
#    0.000    0.000    0.000    0.000    0.000    0.000 
#
# Total GULP energy -222671.529980 kJ/mol
# GULP energy per Si atom -5566.788249 kJ/mol
# Density = 1.979073 g / cm^3
# Si number density = 19.835876 Si / 1000 Ang^3
#
#
#
# Elastic Constant Matrix: (Units=GPa)
#
#
# Indices 1 2 3 4 5 6 
#
# 1 131.0454 29.4530 58.7222 0.0000 0.0000 0.0000
# 2 29.4530 46.8152 36.3221 0.0000 0.0000 0.0000
# 3 58.7222 36.3221 147.3961 0.0000 0.0000 0.0000
# 4 0.0000 0.0000 0.0000 -24.6308 0.0000 0.0000
# 5 0.0000 0.0000 0.0000 0.0000 30.2559 0.0000
# 6 0.0000 0.0000 0.0000 0.0000 0.0000 31.5500
#
#
#
# Elastic Compliance Matrix: (Units=1/GPa)
#
#
# Indices 1 2 3 4 5 6 
#
# 1 0.009831 -0.003890 -0.002958 0.000000 0.000000 0.000000
# 2 -0.003890 0.027949 -0.005338 0.000000 0.000000 0.000000
# 3 -0.002958 -0.005338 0.009278 0.000000 0.000000 0.000000
# 4 0.000000 0.000000 0.000000 -0.040600 0.000000 0.000000
# 5 0.000000 0.000000 0.000000 0.000000 0.033051 0.000000
# 6 0.000000 0.000000 0.000000 0.000000 0.000000 0.031696
#
#
# Mechanical properties :
#
#
# Convention : Reuss Voigt Hill
#
# Bulk Modulus (GPa) = 44.07794 63.80570 53.94182
# Shear Modulus (GPa) = 48.47830 20.81898 34.64864
#
# Velocity S-wave (km/s) = 4.94902 3.24321 4.18397
# Velocity P-wave (km/s) = 7.41125 6.80156 7.11294
#
# Compressibility (1/GPa) = 0.02268709
#
# Stress axis : x y z
#
# Youngs Moduli (GPa) = 101.72242 35.77927 107.77931
#
# Poissons Ratio (x) = 0.13918 0.31881
# Poissons Ratio (y) = 0.39568 0.57529
# Poissons Ratio (z) = 0.30089 0.19098
#
# Static dielectric constant tensor:
#      x y z
#    x 1.741330 0.000000 0.000000 
#    y 0.000000 1.704790 0.000000 
#    z 0.000000 0.000000 1.678010 
# 
# From -- ./inp_files/23750.got.cif
#   From: 2010.05.17/outbox.cif.g08.bks.cpg/sg51_12_cif.got.tgz:23750.got - 2010.06.03 11:52:47.
