data_PCOD9404055
_publ_section_title
;
Structure prediction by ZEFSAII (Michael W. Deem and Ramdas Pophale) SiO2 
 PCOD9404055
Probable space group: P M M A
;
_chemical_formula_sum "Si O2"
_cell_formula_units_Z 40
_cell_length_a 13.992094
_cell_length_b 13.245741
_cell_length_c 9.859467
_cell_angle_alpha 90.000000
_cell_angle_beta 90.000000
_cell_angle_gamma 90.000000
_cell_volume 1827.310756
_symmetry_space_group_name_H-M "P M M A"
_symmetry_group_IT_number 51
_symmetry_cell_setting 'orthorhombic'
loop_
_space_group_symop_operation_xyz
x,y,z
1/2-x,-y,z
1/2+x,-y,-z
-x,y,-z
-x,-y,-z
1/2+x,y,-z
1/2-x,y,z
x,-y,z
loop_
_atom_site_type_symbol
_atom_site_label
_atom_site_fract_x
_atom_site_fract_y
_atom_site_fract_z
Si Si1 0.363145 0.107759 0.613202
Si Si2 0.044102 0.811461 0.864691
Si Si3 0.453918 0.351770 0.279978
Si Si4 0.362904 0.610420 0.993872
Si Si5 0.861232 0.663458 0.446613
O O1 0.250000 0.103424 0.601474
O O2 0.390949 0.120409 0.771102
O O3 0.386025 0.216437 0.548740
O O4 0.401274 0.000000 0.562020
O O5 0.963626 0.766393 0.763683
O O6 0.099358 0.709498 0.915431
O O7 0.000000 0.857738 0.000000
O O8 0.417210 0.394494 0.137903
O O9 0.557857 0.378921 0.344653
O O10 0.381142 0.373578 0.401505
O O11 0.250000 0.622874 0.015802
O O12 0.377052 0.500000 0.927576
O O13 0.750000 0.649076 0.406032
#
# Coordination Sequence:
#
# PCOD9404055 Si02
#       5
#     8   8   8   8   8
#     4   9  17  30  50  74 100 134 173 210 252 305
#     4   9  18  31  48  72 104 136 168 211 259 304
#     4   9  18  32  51  75 101 132 171 212 255 301
#     4  10  20  34  55  80 104 135 173 212 258 310
#     4   9  17  32  52  73 101 137 174 212 257 305
#
# _framework density 21.890091000000002
#
# number of rings (size 3 to 8) (size 9 to 14) (size 15 to 20)
#    0.000    2.800    0.000    1.200    0.000    4.800 
#    0.000   10.000    0.000    4.200    0.000   19.600 
#    0.000    0.000    0.000    0.000    0.000    0.000 
#
# Total GULP energy -222729.501516 kJ/mol
# GULP energy per Si atom -5568.237538 kJ/mol
# Density = 2.184027 g / cm^3
# Si number density = 21.890091 Si / 1000 Ang^3
#
#
#
# Elastic Constant Matrix: (Units=GPa)
#
#
# Indices 1 2 3 4 5 6 
#
# 1 107.5585 15.2306 13.8725 0.0000 0.0000 0.0000
# 2 15.2306 96.7080 -5.0129 0.0000 0.0000 0.0000
# 3 13.8725 -5.0129 66.9927 0.0000 0.0000 0.0000
# 4 0.0000 0.0000 0.0000 -1.5736 0.0000 0.0000
# 5 0.0000 0.0000 0.0000 0.0000 26.3958 0.0000
# 6 0.0000 0.0000 0.0000 0.0000 0.0000 4.7424
#
#
#
# Elastic Compliance Matrix: (Units=1/GPa)
#
#
# Indices 1 2 3 4 5 6 
#
# 1 0.009810 -0.001657 -0.002155 0.000000 0.000000 0.000000
# 2 -0.001657 0.010660 0.001141 0.000000 0.000000 0.000000
# 3 -0.002155 0.001141 0.015459 0.000000 0.000000 0.000000
# 4 0.000000 0.000000 0.000000 -0.635487 0.000000 0.000000
# 5 0.000000 0.000000 0.000000 0.000000 0.037885 0.000000
# 6 0.000000 0.000000 0.000000 0.000000 0.000000 0.210863
#
#
# Mechanical properties :
#
#
# Convention : Reuss Voigt Hill
#
# Bulk Modulus (GPa) = 32.69423 35.49329 34.09376
# Shear Modulus (GPa) = -14.91324 22.39085 3.73881
#
# Velocity S-wave (km/s) = -2.61296 3.20171 1.30832
# Velocity P-wave (km/s) = 2.42170 5.46969 4.22978
#
# Compressibility (1/GPa) = 0.03058644
#
# Stress axis : x y z
#
# Youngs Moduli (GPa) = 101.93837 93.80465 64.68857
#
# Poissons Ratio (x) = 0.15540 0.13943
# Poissons Ratio (y) = 0.16888 -0.07379
# Poissons Ratio (z) = 0.21971 -0.10701
#
# Static dielectric constant tensor:
#      x y z
#    x 1.817130 0.000000 0.000000 
#    y 0.000000 1.925510 0.000000 
#    z 0.000000 0.000000 1.807940 
# 
# From -- ./inp_files/16286.got.cif
#   From: 2010.05.17/outbox.cif.g08.bks.cpg/sg51_9_cif.got.tgz:16286.got - 2010.06.03 11:52:47.
