data_PCOD9404091
_publ_section_title
;
Structure prediction by ZEFSAII (Michael W. Deem and Ramdas Pophale) SiO2 
 PCOD9404091
Probable space group: P M M A
;
_chemical_formula_sum "Si O2"
_cell_formula_units_Z 56
_cell_length_a 14.386264
_cell_length_b 8.490776
_cell_length_c 22.534403
_cell_angle_alpha 90.000000
_cell_angle_beta 90.000000
_cell_angle_gamma 90.000000
_cell_volume 2752.589610
_symmetry_space_group_name_H-M "P M M A"
_symmetry_group_IT_number 51
_symmetry_cell_setting 'orthorhombic'
loop_
_space_group_symop_operation_xyz
x,y,z
1/2-x,-y,z
1/2+x,-y,-z
-x,y,-z
-x,-y,-z
1/2+x,y,-z
1/2-x,y,z
x,-y,z
loop_
_atom_site_type_symbol
_atom_site_label
_atom_site_fract_x
_atom_site_fract_y
_atom_site_fract_z
Si Si1 0.009332 0.812400 0.931229
Si Si2 0.853217 0.182823 0.722496
Si Si3 0.355099 0.808094 0.463941
Si Si4 0.051729 0.684122 0.710709
Si Si5 0.052883 0.188925 0.587039
Si Si6 0.147554 0.320881 0.150985
Si Si7 0.859166 0.311083 0.165400
O O1 0.101201 0.766365 0.894385
O O2 0.929118 0.724832 0.895364
O O3 0.996792 0.000000 0.927575
O O4 0.000000 0.767032 0.000000
O O5 0.750000 0.232157 0.701811
O O6 0.852983 0.203456 0.793641
O O7 0.941992 0.282479 0.704989
O O8 0.866415 0.000000 0.705735
O O9 0.250000 0.754667 0.448835
O O10 0.383403 0.763250 0.531303
O O11 0.445670 0.757800 0.425772
O O12 0.353381 0.000000 0.460866
O O13 0.071487 0.500000 0.710599
O O14 0.091037 0.757415 0.650436
O O15 0.087912 0.745486 0.774604
O O16 0.049881 0.000000 0.586671
O O17 0.250000 0.315673 0.123761
O O18 0.132220 0.500000 0.173587
O O19 0.750000 0.281899 0.172411
O O20 0.874006 0.500000 0.160695
#
# Coordination Sequence:
#
# PCOD9404091 Si02
#       7
#     8   8   8   8   8   8   8
#     4  11  24  40  60  87 117 149 189 240 293 344
#     4  10  20  34  55  82 111 144 182 228 282 339
#     4   8  15  31  54  78 107 144 188 238 287 334
#     4  11  22  36  56  83 118 155 190 236 289 344
#     4   9  18  32  53  81 109 143 190 238 282 337
#     4  10  20  35  57  84 112 144 182 224 277 341
#     4  10  23  43  63  83 112 154 200 242 288 344
#
# _framework density 20.344480000000001
#
# number of rings (size 3 to 8) (size 9 to 14) (size 15 to 20)
#    0.000    2.143    1.429    2.571    0.000    5.429 
#    0.000    5.714    0.000    0.857    0.000    0.000 
#    0.000    0.000    0.000    0.000    0.000    0.000 
#
# Total GULP energy -312361.336450 kJ/mol
# GULP energy per Si atom -5577.881008 kJ/mol
# Density = 2.029817 g / cm^3
# Si number density = 20.344480 Si / 1000 Ang^3
#
#
#
# Elastic Constant Matrix: (Units=GPa)
#
#
# Indices 1 2 3 4 5 6 
#
# 1 70.0529 7.2694 23.4188 0.0000 0.0000 0.0000
# 2 7.2694 16.2154 10.6098 0.0000 0.0000 0.0000
# 3 23.4188 10.6098 113.9024 0.0000 0.0000 0.0000
# 4 0.0000 0.0000 0.0000 136.0895 0.0000 0.0000
# 5 0.0000 0.0000 0.0000 0.0000 2.1945 0.0000
# 6 0.0000 0.0000 0.0000 0.0000 0.0000 16.1074
#
#
#
# Elastic Compliance Matrix: (Units=1/GPa)
#
#
# Indices 1 2 3 4 5 6 
#
# 1 0.015739 -0.005259 -0.002746 0.000000 0.000000 0.000000
# 2 -0.005259 0.067430 -0.005200 0.000000 0.000000 0.000000
# 3 -0.002746 -0.005200 0.009828 0.000000 0.000000 0.000000
# 4 0.000000 0.000000 0.000000 0.007348 0.000000 0.000000
# 5 0.000000 0.000000 0.000000 0.000000 0.455694 0.000000
# 6 0.000000 0.000000 0.000000 0.000000 0.000000 0.062083
#
#
# Mechanical properties :
#
#
# Convention : Reuss Voigt Hill
#
# Bulk Modulus (GPa) = 15.01788 31.41852 23.21820
# Shear Modulus (GPa) = 7.49932 41.46979 24.48455
#
# Velocity S-wave (km/s) = 1.92202 4.51974 3.47291
# Velocity P-wave (km/s) = 3.51047 6.53561 5.24584
#
# Compressibility (1/GPa) = 0.06658731
#
# Stress axis : x y z
#
# Youngs Moduli (GPa) = 63.53789 14.83029 101.74607
#
# Poissons Ratio (x) = 0.07799 0.27940
# Poissons Ratio (y) = 0.33414 0.52905
# Poissons Ratio (z) = 0.17448 0.07711
#
# Static dielectric constant tensor:
#      x y z
#    x 1.756780 0.000000 0.000000 
#    y 0.000000 1.700680 0.000000 
#    z 0.000000 0.000000 1.736320 
# 
# From -- ./inp_files/33335.got.cif
#   From: 2010.05.17/outbox.cif.g08.bks.cpg/sg51_17_cif.got.tgz:33335.got - 2010.06.03 11:52:47.
