data_PCOD9404606
_publ_section_title
;
Structure prediction by ZEFSAII (Michael W. Deem and Ramdas Pophale) SiO2 
 PCOD9404606
Probable space group: P M M A
;
_chemical_formula_sum "Si O2"
_cell_formula_units_Z 52
_cell_length_a 9.502074
_cell_length_b 15.465629
_cell_length_c 19.457309
_cell_angle_alpha 90.000000
_cell_angle_beta 90.000000
_cell_angle_gamma 90.000000
_cell_volume 2859.359569
_symmetry_space_group_name_H-M "P M M A"
_symmetry_group_IT_number 51
_symmetry_cell_setting 'orthorhombic'
loop_
_space_group_symop_operation_xyz
x,y,z
1/2-x,-y,z
1/2+x,-y,-z
-x,y,-z
-x,-y,-z
1/2+x,y,-z
1/2-x,y,z
x,-y,z
loop_
_atom_site_type_symbol
_atom_site_label
_atom_site_fract_x
_atom_site_fract_y
_atom_site_fract_z
Si Si1 0.592763 0.603150 0.437489
Si Si2 0.415656 0.397591 0.154296
Si Si3 0.414049 0.133859 0.310567
Si Si4 0.419656 0.745349 0.928336
Si Si5 0.581257 0.000000 0.571831
Si Si6 0.082642 0.904131 0.827200
Si Si7 0.911726 0.340325 0.688610
O O1 0.500000 0.639109 0.500000
O O2 0.750000 0.639475 0.438228
O O3 0.602548 0.500000 0.447217
O O4 0.516462 0.619064 0.365825
O O5 0.250000 0.379156 0.139033
O O6 0.438140 0.500000 0.145863
O O7 0.517151 0.340041 0.107696
O O8 0.438999 0.371252 0.233814
O O9 0.250000 0.112945 0.297202
O O10 0.453733 0.082528 0.379689
O O11 0.504204 0.106100 0.245049
O O12 0.425310 0.236979 0.316800
O O13 0.250000 0.740139 0.936583
O O14 0.453579 0.826626 0.878743
O O15 0.500000 0.756705 0.000000
O O16 0.500000 0.000000 0.500000
O O17 0.750000 0.000000 0.559665
O O18 0.250000 0.898931 0.815147
O O19 0.051090 0.000000 0.855618
O O20 0.750000 0.364458 0.671868
#
# Coordination Sequence:
#
# PCOD9404606 Si02
#       7
#     8   8   8   8   4   8   8
#     4  10  21  36  54  77 108 147 189 235 289 345
#     4  10  21  38  62  90 120 158 201 245 299 360
#     4  10  20  36  60  86 113 150 195 239 287 346
#     4  11  24  41  62  89 123 159 198 245 296 353
#     4  10  22  38  56  84 119 156 197 240 289 346
#     4  10  21  38  62  91 121 153 193 239 293 353
#     4  10  20  35  58  86 115 146 190 244 295 350
#
# _framework density 18.185891000000002
#
# number of rings (size 3 to 8) (size 9 to 14) (size 15 to 20)
#    0.000    1.846    2.308    1.385    0.000    5.538 
#    0.000    1.538    0.000    0.000    0.000    0.000 
#    0.000    0.000    0.000    0.000    0.000    0.000 
#
# Total GULP energy -290280.663455 kJ/mol
# GULP energy per Si atom -5582.320451 kJ/mol
# Density = 1.814450 g / cm^3
# Si number density = 18.185891 Si / 1000 Ang^3
#
#
#
# Elastic Constant Matrix: (Units=GPa)
#
#
# Indices 1 2 3 4 5 6 
#
# 1 89.1610 47.7023 81.8109 0.0000 0.0000 0.0000
# 2 47.7023 87.7876 51.3322 0.0000 0.0000 0.0000
# 3 81.8109 51.3322 132.4004 0.0000 0.0000 0.0000
# 4 0.0000 0.0000 0.0000 28.9292 0.0000 0.0000
# 5 0.0000 0.0000 0.0000 0.0000 34.2484 0.0000
# 6 0.0000 0.0000 0.0000 0.0000 0.0000 24.5360
#
#
#
# Elastic Compliance Matrix: (Units=1/GPa)
#
#
# Indices 1 2 3 4 5 6 
#
# 1 0.028698 -0.006757 -0.015113 0.000000 0.000000 0.000000
# 2 -0.006757 0.016322 -0.002153 0.000000 0.000000 0.000000
# 3 -0.015113 -0.002153 0.017726 0.000000 0.000000 0.000000
# 4 0.000000 0.000000 0.000000 0.034567 0.000000 0.000000
# 5 0.000000 0.000000 0.000000 0.000000 0.029198 0.000000
# 6 0.000000 0.000000 0.000000 0.000000 0.000000 0.040756
#
#
# Mechanical properties :
#
#
# Convention : Reuss Voigt Hill
#
# Bulk Modulus (GPa) = 68.02717 74.55997 71.29357
# Shear Modulus (GPa) = 22.70544 26.10963 24.40753
#
# Velocity S-wave (km/s) = 3.53727 3.79318 3.66746
# Velocity P-wave (km/s) = 7.36008 7.76351 7.56449
#
# Compressibility (1/GPa) = 0.01470001
#
# Stress axis : x y z
#
# Youngs Moduli (GPa) = 34.84619 61.26883 56.41528
#
# Poissons Ratio (x) = 0.41399 0.85259
# Poissons Ratio (y) = 0.23545 0.12145
# Poissons Ratio (z) = 0.52662 0.13190
#
# Static dielectric constant tensor:
#      x y z
#    x 1.616970 0.000000 0.000000 
#    y 0.000000 1.639550 0.000000 
#    z 0.000000 0.000000 1.586160 
# 
# From -- ./inp_files/27943.got.cif
#   From: 2010.05.17/outbox.cif.g08.bks.cpg/sg51_14_cif.got.tgz:27943.got - 2010.06.03 11:52:47.
