data_PCOD9404141
_publ_section_title
;
Structure prediction by ZEFSAII (Michael W. Deem and Ramdas Pophale) SiO2 
 PCOD9404141
Probable space group: P M M A
;
_chemical_formula_sum "Si O2"
_cell_formula_units_Z 64
_cell_length_a 14.805894
_cell_length_b 8.677881
_cell_length_c 24.903897
_cell_angle_alpha 90.000000
_cell_angle_beta 90.000000
_cell_angle_gamma 90.000000
_cell_volume 3199.746978
_symmetry_space_group_name_H-M "P M M A"
_symmetry_group_IT_number 51
_symmetry_cell_setting 'orthorhombic'
loop_
_space_group_symop_operation_xyz
x,y,z
1/2-x,-y,z
1/2+x,-y,-z
-x,y,-z
-x,-y,-z
1/2+x,y,-z
1/2-x,y,z
x,-y,z
loop_
_atom_site_type_symbol
_atom_site_label
_atom_site_fract_x
_atom_site_fract_y
_atom_site_fract_z
Si Si1 0.493408 0.184925 0.063016
Si Si2 0.646286 0.683026 0.409681
Si Si3 0.646032 0.185633 0.846064
Si Si4 0.965213 0.816420 0.631548
Si Si5 0.651036 0.676336 0.131000
Si Si6 0.350114 0.180701 0.754935
Si Si7 0.455938 0.318812 0.258131
Si Si8 0.356473 0.180729 0.473821
O O1 0.404094 0.225003 0.097808
O O2 0.573494 0.275365 0.091452
O O3 0.505969 0.000000 0.068826
O O4 0.500000 0.219514 0.000000
O O5 0.750000 0.732563 0.398620
O O6 0.640222 0.500000 0.401388
O O7 0.569392 0.767020 0.375852
O O8 0.627888 0.724375 0.472028
O O9 0.750000 0.239495 0.844607
O O10 0.589610 0.246570 0.794875
O O11 0.646334 0.000000 0.842348
O O12 0.921358 0.746170 0.685052
O O13 0.913817 0.767339 0.577265
O O14 0.959886 0.000000 0.635334
O O15 0.750000 0.683520 0.105220
O O16 0.638138 0.500000 0.150794
O O17 0.651292 0.791845 0.181014
O O18 0.250000 0.230033 0.735199
O O19 0.437979 0.275753 0.739340
O O20 0.362249 0.000000 0.742570
O O21 0.444029 0.500000 0.255562
O O22 0.250000 0.189914 0.461125
O O23 0.377914 0.000000 0.484868
#
# Coordination Sequence:
#
# PCOD9404141 Si02
#       8
#     8   8   8   8   8   8   8   8
#     4  10  21  37  61  92 123 157 200 249 296 348
#     4  10  21  37  58  86 121 159 196 241 301 360
#     4  10  22  42  65  87 118 162 207 249 296 352
#     4  11  23  38  59  86 117 156 201 248 298 355
#     4  10  20  34  55  85 119 153 187 230 289 350
#     4  10  20  36  60  86 112 147 190 235 288 353
#     4  12  25  40  60  87 120 157 199 251 305 359
#     4   9  19  37  60  85 114 151 197 246 297 355
#
# _framework density 20.001581999999999
#
# number of rings (size 3 to 8) (size 9 to 14) (size 15 to 20)
#    0.000    1.750    1.250    3.000    0.000    6.750 
#    0.000    2.500    0.000    0.000    0.000    0.000 
#    0.000    0.000    0.000    0.000    0.000    0.000 
#
# Total GULP energy -357359.828365 kJ/mol
# GULP energy per Si atom -5583.747318 kJ/mol
# Density = 1.995606 g / cm^3
# Si number density = 20.001582 Si / 1000 Ang^3
#
#
#
# Elastic Constant Matrix: (Units=GPa)
#
#
# Indices 1 2 3 4 5 6 
#
# 1 91.0962 20.7932 52.5227 0.0000 0.0000 0.0000
# 2 20.7932 27.6925 25.7735 0.0000 0.0000 0.0000
# 3 52.5227 25.7735 112.9872 0.0000 0.0000 0.0000
# 4 0.0000 0.0000 0.0000 121.7425 0.0000 0.0000
# 5 0.0000 0.0000 0.0000 0.0000 2.9900 0.0000
# 6 0.0000 0.0000 0.0000 0.0000 0.0000 18.7249
#
#
#
# Elastic Compliance Matrix: (Units=1/GPa)
#
#
# Indices 1 2 3 4 5 6 
#
# 1 0.015843 -0.006400 -0.005905 0.000000 0.000000 0.000000
# 2 -0.006400 0.048429 -0.008072 0.000000 0.000000 0.000000
# 3 -0.005905 -0.008072 0.013437 0.000000 0.000000 0.000000
# 4 0.000000 0.000000 0.000000 0.008214 0.000000 0.000000
# 5 0.000000 0.000000 0.000000 0.000000 0.334452 0.000000
# 6 0.000000 0.000000 0.000000 0.000000 0.000000 0.053405
#
#
# Mechanical properties :
#
#
# Convention : Reuss Voigt Hill
#
# Bulk Modulus (GPa) = 27.06000 47.77272 37.41636
# Shear Modulus (GPa) = 9.49035 37.53727 23.51381
#
# Velocity S-wave (km/s) = 2.18062 4.33681 3.43242
# Velocity P-wave (km/s) = 4.46077 7.00096 5.86992
#
# Compressibility (1/GPa) = 0.03695492
#
# Stress axis : x y z
#
# Youngs Moduli (GPa) = 63.12079 20.64870 74.42343
#
# Poissons Ratio (x) = 0.13216 0.43944
# Poissons Ratio (y) = 0.40399 0.60075
# Poissons Ratio (z) = 0.37270 0.16668
#
# Static dielectric constant tensor:
#      x y z
#    x 1.727130 0.000000 0.000000 
#    y 0.000000 1.674470 0.000000 
#    z 0.000000 0.000000 1.710770 
# 
# From -- ./inp_files/35790.got.cif
#   From: 2010.05.17/outbox.cif.g08.bks.cpg/sg51_18_cif.got.tgz:35790.got - 2010.06.03 11:52:47.
