data_PCOD9404530
_publ_section_title
;
Structure prediction by ZEFSAII (Michael W. Deem and Ramdas Pophale) SiO2 
 PCOD9404530
Probable space group: P M M A
;
_chemical_formula_sum "Si O2"
_cell_formula_units_Z 40
_cell_length_a 9.580270
_cell_length_b 13.618860
_cell_length_c 16.438766
_cell_angle_alpha 90.000000
_cell_angle_beta 90.000000
_cell_angle_gamma 90.000000
_cell_volume 2144.804528
_symmetry_space_group_name_H-M "P M M A"
_symmetry_group_IT_number 51
_symmetry_cell_setting 'orthorhombic'
loop_
_space_group_symop_operation_xyz
x,y,z
1/2-x,-y,z
1/2+x,-y,-z
-x,y,-z
-x,-y,-z
1/2+x,y,-z
1/2-x,y,z
x,-y,z
loop_
_atom_site_type_symbol
_atom_site_label
_atom_site_fract_x
_atom_site_fract_y
_atom_site_fract_z
Si Si1 0.907561 0.114514 0.865547
Si Si2 0.957763 0.807585 0.687591
Si Si3 0.750000 0.117355 0.556037
Si Si4 0.917793 0.703203 0.080272
Si Si5 0.910920 0.387592 0.774983
Si Si6 0.750000 0.118389 0.365492
O O1 0.750000 0.137879 0.896208
O O2 0.906016 0.136297 0.768664
O O3 0.023171 0.186762 0.902378
O O4 0.935384 0.000000 0.880028
O O5 0.880421 0.842664 0.606792
O O6 0.931997 0.693221 0.705146
O O7 0.116850 0.835733 0.677035
O O8 0.750000 0.143241 0.461410
O O9 0.750000 0.000000 0.560985
O O10 0.750000 0.699579 0.074109
O O11 0.978888 0.640174 0.155198
O O12 0.000000 0.668950 0.000000
O O13 0.750000 0.375468 0.805121
O O14 0.927573 0.500000 0.749146
O O15 0.750000 0.000000 0.358051
#
# Coordination Sequence:
#
# PCOD9404530 Si02
#       6
#     8   8   4   8   8   4
#     4  10  20  35  57  82 114 162 207 241 286 345
#     4  11  20  37  57  85 118 157 199 243 290 344
#     4  11  20  36  59  85 120 161 199 235 285 349
#     4  11  23  39  59  87 121 152 189 240 296 351
#     4  10  22  42  66  87 110 151 202 248 298 347
#     4  11  24  34  53  89 128 161 191 235 291 347
#
# _framework density 18.649718
#
# number of rings (size 3 to 8) (size 9 to 14) (size 15 to 20)
#    0.000    1.400    2.000    5.400    5.600    3.200 
#    0.000    0.000    0.000    3.600    0.000    0.000 
#    0.000    0.000    0.000    0.000    0.000    0.000 
#
# Total GULP energy -223389.098386 kJ/mol
# GULP energy per Si atom -5584.727460 kJ/mol
# Density = 1.860727 g / cm^3
# Si number density = 18.649718 Si / 1000 Ang^3
#
#
#
# Elastic Constant Matrix: (Units=GPa)
#
#
# Indices 1 2 3 4 5 6 
#
# 1 169.7926 30.8852 23.2251 0.0000 0.0000 0.0000
# 2 30.8852 92.3228 13.1276 0.0000 0.0000 0.0000
# 3 23.2251 13.1276 53.9147 0.0000 0.0000 0.0000
# 4 0.0000 0.0000 0.0000 0.8712 0.0000 0.0000
# 5 0.0000 0.0000 0.0000 0.0000 -24.0135 0.0000
# 6 0.0000 0.0000 0.0000 0.0000 0.0000 36.7180
#
#
#
# Elastic Compliance Matrix: (Units=1/GPa)
#
#
# Indices 1 2 3 4 5 6 
#
# 1 0.006551 -0.001855 -0.002371 0.000000 0.000000 0.000000
# 2 -0.001855 0.011745 -0.002061 0.000000 0.000000 0.000000
# 3 -0.002371 -0.002061 0.020071 0.000000 0.000000 0.000000
# 4 0.000000 0.000000 0.000000 1.147900 0.000000 0.000000
# 5 0.000000 0.000000 0.000000 0.000000 -0.041643 0.000000
# 6 0.000000 0.000000 0.000000 0.000000 0.000000 0.027235
#
#
# Mechanical properties :
#
#
# Convention : Reuss Voigt Hill
#
# Bulk Modulus (GPa) = 38.76706 50.05621 44.41163
# Shear Modulus (GPa) = 4.19101 19.30127 11.74614
#
# Velocity S-wave (km/s) = 1.50070 3.22053 2.51236
# Velocity P-wave (km/s) = 4.88210 6.38182 5.68166
#
# Compressibility (1/GPa) = 0.02579509
#
# Stress axis : x y z
#
# Youngs Moduli (GPa) = 152.64558 85.14262 49.82364
#
# Poissons Ratio (x) = 0.15790 0.11811
# Poissons Ratio (y) = 0.28308 0.10268
# Poissons Ratio (z) = 0.36185 0.17547
#
# Static dielectric constant tensor:
#      x y z
#    x 1.561560 0.000000 0.000000 
#    y 0.000000 1.634360 0.000000 
#    z 0.000000 0.000000 1.636810 
# 
# From -- ./inp_files/20586.got.cif
#   From: 2010.05.17/outbox.cif.g08.bks.cpg/sg51_11_cif.got.tgz:20586.got - 2010.06.03 11:52:47.
