data_PCOD9404447
_publ_section_title
;
Structure prediction by ZEFSAII (Michael W. Deem and Ramdas Pophale) SiO2 
 PCOD9404447
Probable space group: P M M A
;
_chemical_formula_sum "Si O2"
_cell_formula_units_Z 64
_cell_length_a 22.573660
_cell_length_b 9.286512
_cell_length_c 17.158734
_cell_angle_alpha 90.000000
_cell_angle_beta 90.000000
_cell_angle_gamma 90.000000
_cell_volume 3596.995094
_symmetry_space_group_name_H-M "P M M A"
_symmetry_group_IT_number 51
_symmetry_cell_setting 'orthorhombic'
loop_
_space_group_symop_operation_xyz
x,y,z
1/2-x,-y,z
1/2+x,-y,-z
-x,y,-z
-x,-y,-z
1/2+x,y,-z
1/2-x,y,z
x,-y,z
loop_
_atom_site_type_symbol
_atom_site_label
_atom_site_fract_x
_atom_site_fract_y
_atom_site_fract_z
Si Si1 0.818628 0.340899 0.707241
Si Si2 0.819568 0.327764 0.399033
Si Si3 0.930535 0.673286 0.292482
Si Si4 0.033740 0.325497 0.879968
Si Si5 0.848545 0.165927 0.559369
Si Si6 0.089518 0.326366 0.043032
Si Si7 0.821421 0.833336 0.855544
Si Si8 0.012784 0.833408 0.414004
O O1 0.750000 0.358174 0.728546
O O2 0.846552 0.500000 0.704252
O O3 0.818593 0.263661 0.624456
O O4 0.843459 0.240907 0.775434
O O5 0.750000 0.298605 0.382215
O O6 0.824564 0.500000 0.415345
O O7 0.865752 0.294304 0.329359
O O8 0.839386 0.237814 0.475075
O O9 0.937054 0.500000 0.294421
O O10 0.942099 0.722834 0.203727
O O11 0.979434 0.744445 0.348437
O O12 0.034035 0.500000 0.878831
O O13 0.966385 0.284293 0.901991
O O14 0.073032 0.283817 0.954758
O O15 0.916546 0.165474 0.588049
O O16 0.827929 0.000000 0.558090
O O17 0.094873 0.500000 0.046093
O O18 0.147820 0.251805 0.074901
O O19 0.750000 0.826799 0.860156
O O20 0.838497 0.000000 0.855960
O O21 0.000000 0.773038 0.500000
O O22 0.991407 0.000000 0.411503
#
# Coordination Sequence:
#
# PCOD9404447 Si02
#       8
#     8   8   8   8   8   8   8   8
#     4  10  21  36  53  75 105 140 179 219 259 311
#     4  10  21  36  53  74 103 139 180 226 269 313
#     4  10  20  35  56  80 106 139 181 222 269 320
#     4   8  17  34  56  83 110 137 172 223 275 321
#     4  11  22  35  53  76 104 139 177 218 266 318
#     4   9  17  34  58  81 109 141 177 218 267 326
#     4  10  21  36  53  77 112 147 180 221 267 319
#     4  10  21  37  52  73 108 141 171 214 265 317
#
# _framework density 17.792629000000002
#
# number of rings (size 3 to 8) (size 9 to 14) (size 15 to 20)
#    0.000    2.250    1.250    2.250    1.750    4.500 
#    0.000    2.500    0.000    2.250    0.000    0.000 
#    0.000    0.000    0.000    0.000    0.000    0.000 
#
# Total GULP energy -356711.128989 kJ/mol
# GULP energy per Si atom -5573.611390 kJ/mol
# Density = 1.775213 g / cm^3
# Si number density = 17.792629 Si / 1000 Ang^3
#
#
#
# Elastic Constant Matrix: (Units=GPa)
#
#
# Indices 1 2 3 4 5 6 
#
# 1 60.3170 33.5630 48.6253 0.0000 0.0000 0.0000
# 2 33.5630 69.1461 49.7121 0.0000 0.0000 0.0000
# 3 48.6253 49.7121 140.7787 0.0000 0.0000 0.0000
# 4 0.0000 0.0000 0.0000 1.4425 0.0000 0.0000
# 5 0.0000 0.0000 0.0000 0.0000 26.1400 0.0000
# 6 0.0000 0.0000 0.0000 0.0000 0.0000 9.0390
#
#
#
# Elastic Compliance Matrix: (Units=1/GPa)
#
#
# Indices 1 2 3 4 5 6 
#
# 1 0.026101 -0.008293 -0.006087 0.000000 0.000000 0.000000
# 2 -0.008293 0.022018 -0.004911 0.000000 0.000000 0.000000
# 3 -0.006087 -0.004911 0.010940 0.000000 0.000000 0.000000
# 4 0.000000 0.000000 0.000000 0.693226 0.000000 0.000000
# 5 0.000000 0.000000 0.000000 0.000000 0.038256 0.000000
# 6 0.000000 0.000000 0.000000 0.000000 0.000000 0.110632
#
#
# Mechanical properties :
#
#
# Convention : Reuss Voigt Hill
#
# Bulk Modulus (GPa) = 48.83394 59.33806 54.08600
# Shear Modulus (GPa) = 5.28219 16.54706 10.91462
#
# Velocity S-wave (km/s) = 1.72488 3.05289 2.47945
# Velocity P-wave (km/s) = 5.61005 6.77119 6.21779
#
# Compressibility (1/GPa) = 0.02047756
#
# Stress axis : x y z
#
# Youngs Moduli (GPa) = 38.31335 45.41754 91.40960
#
# Poissons Ratio (x) = 0.37665 0.55639
# Poissons Ratio (y) = 0.31773 0.44888
# Poissons Ratio (z) = 0.23320 0.22303
#
# Static dielectric constant tensor:
#      x y z
#    x 1.501490 0.000000 0.000000 
#    y 0.000000 1.611080 0.000000 
#    z 0.000000 0.000000 1.597020 
# 
# From -- ./inp_files/26261.got.cif
#   From: 2010.05.17/outbox.cif.g08.bks.cpg/sg51_14_cif.got.tgz:26261.got - 2010.06.03 11:52:47.
