data_PCOD9404437
_publ_section_title
;
Structure prediction by ZEFSAII (Michael W. Deem and Ramdas Pophale) SiO2 
 PCOD9404437
Probable space group: P M M A
;
_chemical_formula_sum "Si O2"
_cell_formula_units_Z 64
_cell_length_a 18.830520
_cell_length_b 7.824283
_cell_length_c 20.846678
_cell_angle_alpha 90.000000
_cell_angle_beta 90.000000
_cell_angle_gamma 90.000000
_cell_volume 3071.451922
_symmetry_space_group_name_H-M "P M M A"
_symmetry_group_IT_number 51
_symmetry_cell_setting 'orthorhombic'
loop_
_space_group_symop_operation_xyz
x,y,z
1/2-x,-y,z
1/2+x,-y,-z
-x,y,-z
-x,-y,-z
1/2+x,y,-z
1/2-x,y,z
x,-y,z
loop_
_atom_site_type_symbol
_atom_site_label
_atom_site_fract_x
_atom_site_fract_y
_atom_site_fract_z
Si Si1 0.913643 0.291512 0.762790
Si Si2 0.670048 0.296164 0.136915
Si Si3 0.421461 0.201303 0.986167
Si Si4 0.828089 0.799621 0.490639
Si Si5 0.923627 0.292311 0.254389
Si Si6 0.947923 0.799173 0.396646
Si Si7 0.668480 0.292581 0.889329
Si Si8 0.891245 0.301770 0.621187
O O1 0.911662 0.500000 0.761344
O O2 0.869691 0.234109 0.824145
O O3 0.884582 0.232810 0.693677
O O4 0.996480 0.243601 0.767167
O O5 0.750000 0.228272 0.126780
O O6 0.675684 0.500000 0.144755
O O7 0.632487 0.231303 0.201681
O O8 0.619203 0.269012 0.076149
O O9 0.373919 0.232733 0.048609
O O10 0.429493 0.000000 0.975384
O O11 0.500000 0.274869 0.000000
O O12 0.750000 0.725043 0.478196
O O13 0.893099 0.727680 0.448927
O O14 0.847330 0.786113 0.565318
O O15 0.825239 0.000000 0.473432
O O16 0.921530 0.500000 0.257905
O O17 0.914471 0.222767 0.326024
O O18 0.024884 0.712107 0.395131
O O19 0.961392 0.000000 0.409464
O O20 0.750000 0.236729 0.891590
O O21 0.667553 0.500000 0.889469
O O22 0.870449 0.500000 0.621428
#
# Coordination Sequence:
#
# PCOD9404437 Si02
#       8
#     8   8   8   8   8   8   8   8
#     4   8  16  32  53  77 105 137 173 213 258 311
#     4  10  21  37  58  84 112 143 179 219 269 328
#     4  11  24  39  55  78 108 142 182 226 268 313
#     4  10  22  38  53  74 108 146 182 221 268 325
#     4   9  18  34  55  79 108 140 177 223 267 309
#     4  10  20  35  56  79 106 144 185 222 265 321
#     4  10  20  35  57  82 107 139 177 215 262 322
#     4  10  20  35  57  83 108 137 179 228 273 318
#
# _framework density 20.837050999999999
#
# number of rings (size 3 to 8) (size 9 to 14) (size 15 to 20)
#    0.000    2.250    0.000    3.375    0.000    8.250 
#    0.000    5.625    0.000    0.000    0.000    0.000 
#    0.000    0.000    0.000    0.000    0.000    0.000 
#
# Total GULP energy -357414.680191 kJ/mol
# GULP energy per Si atom -5584.604378 kJ/mol
# Density = 2.078962 g / cm^3
# Si number density = 20.837051 Si / 1000 Ang^3
#
#
#
# Elastic Constant Matrix: (Units=GPa)
#
#
# Indices 1 2 3 4 5 6 
#
# 1 61.5519 -6.0543 24.8544 0.0000 0.0000 0.0000
# 2 -6.0543 21.4776 -13.9819 0.0000 0.0000 0.0000
# 3 24.8544 -13.9819 71.6612 0.0000 0.0000 0.0000
# 4 0.0000 0.0000 0.0000 31.4285 0.0000 0.0000
# 5 0.0000 0.0000 0.0000 0.0000 -16.1989 0.0000
# 6 0.0000 0.0000 0.0000 0.0000 0.0000 10.9274
#
#
#
# Elastic Compliance Matrix: (Units=1/GPa)
#
#
# Indices 1 2 3 4 5 6 
#
# 1 0.018920 0.001216 -0.006325 0.000000 0.000000 0.000000
# 2 0.001216 0.053413 0.010000 0.000000 0.000000 0.000000
# 3 -0.006325 0.010000 0.018099 0.000000 0.000000 0.000000
# 4 0.000000 0.000000 0.000000 0.031818 0.000000 0.000000
# 5 0.000000 0.000000 0.000000 0.000000 -0.061733 0.000000
# 6 0.000000 0.000000 0.000000 0.000000 0.000000 0.091513
#
#
# Mechanical properties :
#
#
# Convention : Reuss Voigt Hill
#
# Bulk Modulus (GPa) = 9.97871 18.25857 14.11864
# Shear Modulus (GPa) = 28.46513 15.22290 21.84402
#
# Velocity S-wave (km/s) = 3.70007 2.70584 3.24130
# Velocity P-wave (km/s) = 4.80138 4.30623 4.56053
#
# Compressibility (1/GPa) = 0.10021340
#
# Stress axis : x y z
#
# Youngs Moduli (GPa) = 52.85411 18.72215 55.25081
#
# Poissons Ratio (x) = -0.02276 0.34945
# Poissons Ratio (y) = -0.06426 -0.55249
# Poissons Ratio (z) = 0.33429 -0.18722
#
# Static dielectric constant tensor:
#      x y z
#    x 1.747710 0.000000 0.000000 
#    y 0.000000 1.760440 0.000000 
#    z 0.000000 0.000000 1.715390 
# 
# From -- ./inp_files/33843.got.cif
#   From: 2010.05.17/outbox.cif.g08.bks.cpg/sg51_17_cif.got.tgz:33843.got - 2010.06.03 11:52:47.
