data_PCOD9404848
_publ_section_title
;
Structure prediction by ZEFSAII (Michael W. Deem and Ramdas Pophale) SiO2 
 PCOD9404848
Probable space group: P M M A
;
_chemical_formula_sum "Si O2"
_cell_formula_units_Z 48
_cell_length_a 15.876893
_cell_length_b 19.086866
_cell_length_c 9.000908
_cell_angle_alpha 90.000000
_cell_angle_beta 90.000000
_cell_angle_gamma 90.000000
_cell_volume 2727.636323
_symmetry_space_group_name_H-M "P M M A"
_symmetry_group_IT_number 51
_symmetry_cell_setting 'orthorhombic'
loop_
_space_group_symop_operation_xyz
x,y,z
1/2-x,-y,z
1/2+x,-y,-z
-x,y,-z
-x,-y,-z
1/2+x,y,-z
1/2-x,y,z
x,-y,z
loop_
_atom_site_type_symbol
_atom_site_label
_atom_site_fract_x
_atom_site_fract_y
_atom_site_fract_z
Si Si1 0.656897 0.672668 0.698263
Si Si2 0.348491 0.829598 0.672713
Si Si3 0.416369 0.319882 0.604260
Si Si4 0.653319 0.838174 0.682408
Si Si5 0.492510 0.581943 0.176845
Si Si6 0.504610 0.082313 0.177360
O O1 0.750000 0.659168 0.753759
O O2 0.650868 0.659941 0.521079
O O3 0.638935 0.755689 0.717362
O O4 0.591238 0.622886 0.776547
O O5 0.250000 0.832704 0.718789
O O6 0.385972 0.751062 0.682256
O O7 0.351210 0.845935 0.496136
O O8 0.411886 0.880176 0.759343
O O9 0.500000 0.307455 0.500000
O O10 0.436941 0.378430 0.725506
O O11 0.750000 0.855563 0.727576
O O12 0.579331 0.882883 0.754471
O O13 0.489858 0.500000 0.215703
O O14 0.500000 0.588306 0.000000
O O15 0.493063 0.000000 0.786197
O O16 0.500000 0.090305 0.000000
#
# Coordination Sequence:
#
# PCOD9404848 Si02
#       6
#     8   8   8   8   8   8
#     4   9  18  34  56  80 104 130 169 221 267 310
#     4  10  20  36  59  83 106 134 174 224 270 314
#     4   9  17  32  57  81 103 134 173 216 263 314
#     4   9  19  37  60  84 106 133 175 224 269 313
#     4  10  21  35  50  73 108 145 177 211 256 311
#     4  11  24  38  52  76 112 148 178 213 260 314
#
# _framework density 17.597653999999999
#
# number of rings (size 3 to 8) (size 9 to 14) (size 15 to 20)
#    0.000    2.333    0.000    5.000    0.000    8.667 
#    0.000    6.667    0.000    3.500    0.000    0.000 
#    0.000    0.000    0.000    0.000    0.000    0.000 
#
# Total GULP energy -267626.406199 kJ/mol
# GULP energy per Si atom -5575.550129 kJ/mol
# Density = 1.755760 g / cm^3
# Si number density = 17.597654 Si / 1000 Ang^3
#
#
#
# Elastic Constant Matrix: (Units=GPa)
#
#
# Indices 1 2 3 4 5 6 
#
# 1 124.2580 92.4666 46.8187 0.0000 0.0000 0.0000
# 2 92.4666 134.4466 74.7030 0.0000 0.0000 0.0000
# 3 46.8187 74.7030 49.3747 0.0000 0.0000 0.0000
# 4 0.0000 0.0000 0.0000 34.0275 0.0000 0.0000
# 5 0.0000 0.0000 0.0000 0.0000 12.5669 0.0000
# 6 0.0000 0.0000 0.0000 0.0000 0.0000 9.2188
#
#
#
# Elastic Compliance Matrix: (Units=1/GPa)
#
#
# Indices 1 2 3 4 5 6 
#
# 1 0.017235 -0.017403 0.009987 0.000000 0.000000 0.000000
# 2 -0.017403 0.064253 -0.080711 0.000000 0.000000 0.000000
# 3 0.009987 -0.080711 0.132898 0.000000 0.000000 0.000000
# 4 0.000000 0.000000 0.000000 0.029388 0.000000 0.000000
# 5 0.000000 0.000000 0.000000 0.000000 0.079574 0.000000
# 6 0.000000 0.000000 0.000000 0.000000 0.000000 0.108474
#
#
# Mechanical properties :
#
#
# Convention : Reuss Voigt Hill
#
# Bulk Modulus (GPa) = 26.22475 81.78401 54.00438
# Shear Modulus (GPa) = 8.05431 17.43537 12.74484
#
# Velocity S-wave (km/s) = 2.14169 3.15108 2.69408
# Velocity P-wave (km/s) = 4.58809 7.73397 6.35865
#
# Compressibility (1/GPa) = 0.03813192
#
# Stress axis : x y z
#
# Youngs Moduli (GPa) = 58.02170 15.56357 7.52457
#
# Poissons Ratio (x) = 0.27085 -0.07515
# Poissons Ratio (y) = 1.00973 0.60732
# Poissons Ratio (z) = -0.57948 1.25616
#
# Static dielectric constant tensor:
#      x y z
#    x 1.640450 0.000000 0.000000 
#    y 0.000000 1.582910 0.000000 
#    z 0.000000 0.000000 1.593970 
# 
# From -- ./inp_files/8238.got.cif
#   From: 2010.05.17/outbox.cif.g08.bks.cpg/sg51_5_cif.got.tgz:8238.got - 2010.06.03 11:52:47.
