data_PCOD9404295
_publ_section_title
;
Structure prediction by ZEFSAII (Michael W. Deem and Ramdas Pophale) SiO2 
 PCOD9404295
Probable space group: P M M A
;
_chemical_formula_sum "Si O2"
_cell_formula_units_Z 64
_cell_length_a 25.098766
_cell_length_b 7.776237
_cell_length_c 15.927942
_cell_angle_alpha 90.000000
_cell_angle_beta 90.000000
_cell_angle_gamma 90.000000
_cell_volume 3108.719400
_symmetry_space_group_name_H-M "P M M A"
_symmetry_group_IT_number 51
_symmetry_cell_setting 'orthorhombic'
loop_
_space_group_symop_operation_xyz
x,y,z
1/2-x,-y,z
1/2+x,-y,-z
-x,y,-z
-x,-y,-z
1/2+x,y,-z
1/2-x,y,z
x,-y,z
loop_
_atom_site_type_symbol
_atom_site_label
_atom_site_fract_x
_atom_site_fract_y
_atom_site_fract_z
Si Si1 0.308237 0.792361 0.078947
Si Si2 0.124041 0.795203 0.721359
Si Si3 0.005773 0.693537 0.752502
Si Si4 0.658440 0.194358 0.098056
Si Si5 0.689553 0.706080 0.625181
Si Si6 0.113032 0.707572 0.227257
Si Si7 0.311175 0.207448 0.561428
Si Si8 0.454552 0.303384 0.941986
O O1 0.250000 0.738947 0.114024
O O2 0.357508 0.744760 0.138994
O O3 0.308798 0.000000 0.073802
O O4 0.312254 0.726259 0.982538
O O5 0.060294 0.770501 0.715322
O O6 0.149978 0.725209 0.808944
O O7 0.153607 0.728306 0.638851
O O8 0.132388 0.000000 0.726410
O O9 0.001547 0.500000 0.717529
O O10 0.020660 0.683812 0.850292
O O11 0.946760 0.774359 0.753773
O O12 0.598035 0.193150 0.064031
O O13 0.679286 0.000000 0.109440
O O14 0.750000 0.774451 0.631560
O O15 0.692004 0.500000 0.634147
O O16 0.652068 0.770929 0.699167
O O17 0.669445 0.743877 0.531360
O O18 0.108708 0.500000 0.230439
O O19 0.250000 0.268343 0.569221
O O20 0.310611 0.000000 0.565409
O O21 0.441524 0.500000 0.970339
O O22 0.500000 0.229506 0.000000
#
# Coordination Sequence:
#
# PCOD9404295 Si02
#       8
#     8   8   8   8   8   8   8   8
#     4  10  21  34  48  71 102 133 166 206 252 298
#     4   9  18  33  52  74 101 133 167 203 245 294
#     4   9  18  31  48  71  98 129 166 206 247 293
#     4   9  18  31  46  66  94 127 160 194 234 282
#     4   9  18  33  53  76  99 124 159 204 251 297
#     4  10  20  35  54  74  98 132 171 207 247 296
#     4   9  18  33  54  78 100 125 161 203 247 297
#     4   9  16  27  44  65  89 119 157 200 240 277
#
# _framework density 20.587254000000001
#
# number of rings (size 3 to 8) (size 9 to 14) (size 15 to 20)
#    0.000    2.750    0.000    1.125    0.000    4.500 
#    0.000    6.875    0.000    3.750    0.000    5.250 
#    0.000    0.000    0.000    0.000    0.000    0.000 
#
# Total GULP energy -356450.348569 kJ/mol
# GULP energy per Si atom -5569.536696 kJ/mol
# Density = 2.054040 g / cm^3
# Si number density = 20.587254 Si / 1000 Ang^3
#
#
#
# Elastic Constant Matrix: (Units=GPa)
#
#
# Indices 1 2 3 4 5 6 
#
# 1 93.8372 2.3972 62.7950 0.0000 0.0000 0.0000
# 2 2.3972 30.3352 2.9943 0.0000 0.0000 0.0000
# 3 62.7950 2.9943 111.4208 0.0000 0.0000 0.0000
# 4 0.0000 0.0000 0.0000 9.2301 0.0000 0.0000
# 5 0.0000 0.0000 0.0000 0.0000 33.8119 0.0000
# 6 0.0000 0.0000 0.0000 0.0000 0.0000 7.6307
#
#
#
# Elastic Compliance Matrix: (Units=1/GPa)
#
#
# Indices 1 2 3 4 5 6 
#
# 1 0.017114 -0.000401 -0.009635 0.000000 0.000000 0.000000
# 2 -0.000401 0.033062 -0.000662 0.000000 0.000000 0.000000
# 3 -0.009635 -0.000662 0.014423 0.000000 0.000000 0.000000
# 4 0.000000 0.000000 0.000000 0.108342 0.000000 0.000000
# 5 0.000000 0.000000 0.000000 0.000000 0.029575 0.000000
# 6 0.000000 0.000000 0.000000 0.000000 0.000000 0.131050
#
#
# Mechanical properties :
#
#
# Convention : Reuss Voigt Hill
#
# Bulk Modulus (GPa) = 23.14676 41.32959 32.23818
# Shear Modulus (GPa) = 13.53680 21.29497 17.41589
#
# Velocity S-wave (km/s) = 2.56702 3.21966 2.91169
# Velocity P-wave (km/s) = 4.47815 5.82585 5.19588
#
# Compressibility (1/GPa) = 0.04320258
#
# Stress axis : x y z
#
# Youngs Moduli (GPa) = 58.43020 30.24608 69.33503
#
# Poissons Ratio (x) = 0.01214 0.66802
# Poissons Ratio (y) = 0.02346 0.04592
# Poissons Ratio (z) = 0.56295 0.02003
#
# Static dielectric constant tensor:
#      x y z
#    x 1.923920 0.000000 0.000000 
#    y 0.000000 1.796890 0.000000 
#    z 0.000000 0.000000 1.738610 
# 
# From -- ./inp_files/26274.got.cif
#   From: 2010.05.17/outbox.cif.g08.bks.cpg/sg51_14_cif.got.tgz:26274.got - 2010.06.03 11:52:47.
