data_PCOD9404147
_publ_section_title
;
Structure prediction by ZEFSAII (Michael W. Deem and Ramdas Pophale) SiO2 
 PCOD9404147
Probable space group: P M M A
;
_chemical_formula_sum "Si O2"
_cell_formula_units_Z 52
_cell_length_a 8.437150
_cell_length_b 12.529753
_cell_length_c 25.886711
_cell_angle_alpha 90.000000
_cell_angle_beta 90.000000
_cell_angle_gamma 90.000000
_cell_volume 2736.624151
_symmetry_space_group_name_H-M "P M M A"
_symmetry_group_IT_number 51
_symmetry_cell_setting 'orthorhombic'
loop_
_space_group_symop_operation_xyz
x,y,z
1/2-x,-y,z
1/2+x,-y,-z
-x,y,-z
-x,-y,-z
1/2+x,y,-z
1/2-x,y,z
x,-y,z
loop_
_atom_site_type_symbol
_atom_site_label
_atom_site_fract_x
_atom_site_fract_y
_atom_site_fract_z
Si Si1 0.063089 0.272013 0.343966
Si Si2 0.437926 0.700940 0.835902
Si Si3 0.560623 0.376246 0.442042
Si Si4 0.440638 0.123904 0.749459
Si Si5 0.575698 0.500000 0.786059
Si Si6 0.927943 0.500000 0.313354
Si Si7 0.061259 0.000000 0.058056
Si Si8 0.058178 0.766749 0.059114
O O1 0.250000 0.257825 0.345293
O O2 0.998954 0.285075 0.402644
O O3 0.995160 0.186932 0.302600
O O4 0.015899 0.390354 0.325064
O O5 0.250000 0.682964 0.827357
O O6 0.481528 0.804847 0.800337
O O7 0.551875 0.607435 0.816953
O O8 0.470831 0.701056 0.897175
O O9 0.500000 0.358859 0.500000
O O10 0.750000 0.375106 0.441941
O O11 0.510434 0.500000 0.427660
O O12 0.250000 0.120413 0.747675
O O13 0.497738 0.000000 0.751696
O O14 0.750000 0.500000 0.760925
O O15 0.428014 0.500000 0.747822
O O16 0.750000 0.500000 0.334823
O O17 0.011604 0.886483 0.078662
O O18 0.250000 0.000000 0.057478
O O19 0.000000 0.000000 0.000000
O O20 0.250000 0.755717 0.060302
O O21 0.000000 0.752692 0.000000
#
# Coordination Sequence:
#
# PCOD9404147 Si02
#       8
#     8   8   8   8   4   4   4   8
#     4  12  23  36  59  89 122 161 202 248 299 355
#     4  11  23  39  62  88 118 154 192 239 295 354
#     4  10  20  34  55  85 125 165 203 250 301 355
#     4  10  23  42  62  86 119 160 202 245 297 357
#     4  12  24  40  61  88 117 150 194 243 293 353
#     4  12  22  36  57  84 117 156 198 243 295 355
#     4   8  16  30  50  76 106 142 182 230 277 326
#     4  10  20  36  56  82 115 152 195 240 289 346
#
# _framework density 19.001514
#
# number of rings (size 3 to 8) (size 9 to 14) (size 15 to 20)
#    0.000    1.385    2.308    4.154    1.077    2.154 
#    0.000    0.385    0.000    0.462    0.000    0.000 
#    0.000    0.000    0.000    0.000    0.000    0.000 
#
# Total GULP energy -289555.755221 kJ/mol
# GULP energy per Si atom -5568.379908 kJ/mol
# Density = 1.895827 g / cm^3
# Si number density = 19.001514 Si / 1000 Ang^3
#
#
#
# Elastic Constant Matrix: (Units=GPa)
#
#
# Indices 1 2 3 4 5 6 
#
# 1 65.6257 27.8413 31.6236 0.0000 0.0000 0.0000
# 2 27.8413 90.2514 44.2054 0.0000 0.0000 0.0000
# 3 31.6236 44.2054 122.3721 0.0000 0.0000 0.0000
# 4 0.0000 0.0000 0.0000 67.3769 0.0000 0.0000
# 5 0.0000 0.0000 0.0000 0.0000 31.5260 0.0000
# 6 0.0000 0.0000 0.0000 0.0000 0.0000 -76.4284
#
#
#
# Elastic Compliance Matrix: (Units=1/GPa)
#
#
# Indices 1 2 3 4 5 6 
#
# 1 0.018579 -0.004106 -0.003318 0.000000 0.000000 0.000000
# 2 -0.004106 0.014370 -0.004130 0.000000 0.000000 0.000000
# 3 -0.003318 -0.004130 0.010521 0.000000 0.000000 0.000000
# 4 0.000000 0.000000 0.000000 0.014842 0.000000 0.000000
# 5 0.000000 0.000000 0.000000 0.000000 0.031720 0.000000
# 6 0.000000 0.000000 0.000000 0.000000 0.000000 -0.013084
#
#
# Mechanical properties :
#
#
# Convention : Reuss Voigt Hill
#
# Bulk Modulus (GPa) = 49.11140 53.95443 51.53292
# Shear Modulus (GPa) = 46.79819 16.13350 31.46584
#
# Velocity S-wave (km/s) = 4.96811 2.91703 4.07377
# Velocity P-wave (km/s) = 7.66888 6.30887 7.02188
#
# Compressibility (1/GPa) = 0.02036187
#
# Stress axis : x y z
#
# Youngs Moduli (GPa) = 53.82495 69.59132 95.04788
#
# Poissons Ratio (x) = 0.28576 0.31535
# Poissons Ratio (y) = 0.22102 0.39252
# Poissons Ratio (z) = 0.17858 0.28739
#
# Static dielectric constant tensor:
#      x y z
#    x 1.625170 0.000000 0.000000 
#    y 0.000000 1.687350 0.000000 
#    z 0.000000 0.000000 1.711250 
# 
# From -- ./inp_files/36292.got.cif
#   From: 2010.05.17/outbox.cif.g08.bks.cpg/sg51_19_cif.got.tgz:36292.got - 2010.06.03 11:52:47.
