data_PCOD9404012
_publ_section_title
;
Structure prediction by ZEFSAII (Michael W. Deem and Ramdas Pophale) SiO2 
 PCOD9404012
Probable space group: P M M A
;
_chemical_formula_sum "Si O2"
_cell_formula_units_Z 44
_cell_length_a 9.364248
_cell_length_b 7.933238
_cell_length_c 31.299809
_cell_angle_alpha 90.000000
_cell_angle_beta 90.000000
_cell_angle_gamma 90.000000
_cell_volume 2325.225504
_symmetry_space_group_name_H-M "P M M A"
_symmetry_group_IT_number 51
_symmetry_cell_setting 'orthorhombic'
loop_
_space_group_symop_operation_xyz
x,y,z
1/2-x,-y,z
1/2+x,-y,-z
-x,y,-z
-x,-y,-z
1/2+x,y,-z
1/2-x,y,z
x,-y,z
loop_
_atom_site_type_symbol
_atom_site_label
_atom_site_fract_x
_atom_site_fract_y
_atom_site_fract_z
Si Si1 0.413792 0.702242 0.224432
Si Si2 0.586922 0.702467 0.959247
Si Si3 0.916109 0.704862 0.307945
Si Si4 0.080074 0.191519 0.392916
Si Si5 0.078490 0.500000 0.454952
Si Si6 0.586200 0.799401 0.867653
O O1 0.250000 0.767546 0.226784
O O2 0.407108 0.500000 0.227164
O O3 0.505911 0.761769 0.264511
O O4 0.476223 0.745025 0.177798
O O5 0.750000 0.767964 0.960166
O O6 0.593124 0.500000 0.962449
O O7 0.521944 0.743049 0.912770
O O8 0.500000 0.766565 0.000000
O O9 0.750000 0.751660 0.307756
O O10 0.924856 0.500000 0.309904
O O11 0.995794 0.776004 0.349252
O O12 0.250000 0.209788 0.384513
O O13 0.040791 0.334216 0.427275
O O14 0.054430 0.000000 0.407898
O O15 0.250000 0.500000 0.461099
O O16 0.000000 0.500000 0.500000
O O17 0.750000 0.730391 0.867545
O O18 0.591960 0.000000 0.867985
#
# Coordination Sequence:
#
# PCOD9404012 Si02
#       6
#     8   8   8   8   4   8
#     4   9  17  30  50  73  98 133 175 216 259 311
#     4   9  17  30  48  68  89 115 151 195 243 297
#     4  10  20  34  54  81 113 147 183 226 278 330
#     4  10  21  38  61  87 115 152 196 237 278 329
#     4  10  22  40  62  88 120 154 192 238 283 330
#     4   9  17  29  46  68  93 122 160 205 249 299
#
# _framework density 18.922896999999999
#
# number of rings (size 3 to 8) (size 9 to 14) (size 15 to 20)
#    0.000    2.545    0.909    1.091    0.000    5.455 
#    0.000    2.727    0.000    5.455    0.000    0.000 
#    0.000    0.000    0.000    0.000    0.000    0.000 
#
# Total GULP energy -245370.819335 kJ/mol
# GULP energy per Si atom -5576.609530 kJ/mol
# Density = 1.887983 g / cm^3
# Si number density = 18.922897 Si / 1000 Ang^3
#
#
#
# Elastic Constant Matrix: (Units=GPa)
#
#
# Indices 1 2 3 4 5 6 
#
# 1 49.5372 33.3678 71.1132 0.0000 0.0000 0.0000
# 2 33.3678 61.7021 56.1525 0.0000 0.0000 0.0000
# 3 71.1132 56.1525 208.1297 0.0000 0.0000 0.0000
# 4 0.0000 0.0000 0.0000 -12.7678 0.0000 0.0000
# 5 0.0000 0.0000 0.0000 0.0000 30.8783 0.0000
# 6 0.0000 0.0000 0.0000 0.0000 0.0000 11.3797
#
#
#
# Elastic Compliance Matrix: (Units=1/GPa)
#
#
# Indices 1 2 3 4 5 6 
#
# 1 0.047803 -0.014563 -0.012404 0.000000 0.000000 0.000000
# 2 -0.014563 0.025918 -0.002017 0.000000 0.000000 0.000000
# 3 -0.012404 -0.002017 0.009587 0.000000 0.000000 0.000000
# 4 0.000000 0.000000 0.000000 -0.078322 0.000000 0.000000
# 5 0.000000 0.000000 0.000000 0.000000 0.032385 0.000000
# 6 0.000000 0.000000 0.000000 0.000000 0.000000 0.087876
#
#
# Mechanical properties :
#
#
# Convention : Reuss Voigt Hill
#
# Bulk Modulus (GPa) = 39.46282 71.18180 55.32231
# Shear Modulus (GPa) = 26.08771 16.48041 21.28406
#
# Velocity S-wave (km/s) = 3.71702 2.95434 3.35741
# Velocity P-wave (km/s) = 6.27068 7.02396 6.65798
#
# Compressibility (1/GPa) = 0.02534031
#
# Stress axis : x y z
#
# Youngs Moduli (GPa) = 20.91910 38.58384 104.30727
#
# Poissons Ratio (x) = 0.56189 1.29386
# Poissons Ratio (y) = 0.30464 0.21035
# Poissons Ratio (z) = 0.25949 0.07781
#
# Static dielectric constant tensor:
#      x y z
#    x 1.652960 0.000000 0.000000 
#    y 0.000000 1.671930 0.000000 
#    z 0.000000 0.000000 1.650070 
# 
# From -- ./inp_files/36802.got.cif
#   From: 2010.05.17/outbox.cif.g08.bks.cpg/sg51_19_cif.got.tgz:36802.got - 2010.06.03 11:52:47.
