data_PCOD9404097
_publ_section_title
;
Structure prediction by ZEFSAII (Michael W. Deem and Ramdas Pophale) SiO2 
 PCOD9404097
Probable space group: P M M A
;
_chemical_formula_sum "Si O2"
_cell_formula_units_Z 48
_cell_length_a 31.280588
_cell_length_b 8.734379
_cell_length_c 9.659735
_cell_angle_alpha 90.000000
_cell_angle_beta 90.000000
_cell_angle_gamma 90.000000
_cell_volume 2639.199093
_symmetry_space_group_name_H-M "P M M A"
_symmetry_group_IT_number 51
_symmetry_cell_setting 'orthorhombic'
loop_
_space_group_symop_operation_xyz
x,y,z
1/2-x,-y,z
1/2+x,-y,-z
-x,y,-z
-x,-y,-z
1/2+x,y,-z
1/2-x,y,z
x,-y,z
loop_
_atom_site_type_symbol
_atom_site_label
_atom_site_fract_x
_atom_site_fract_y
_atom_site_fract_z
Si Si1 0.250000 0.830662 0.819188
Si Si2 0.384318 0.321753 0.205815
Si Si3 0.322145 0.328483 0.963275
Si Si4 0.389001 0.817710 0.766954
Si Si5 0.750000 0.320457 0.473602
Si Si6 0.049318 0.315577 0.965804
Si Si7 0.843970 0.819128 0.527237
O O1 0.250000 0.715753 0.690859
O O2 0.250000 0.000000 0.759144
O O3 0.210519 0.799416 0.917716
O O4 0.393280 0.500000 0.237377
O O5 0.340907 0.314873 0.115443
O O6 0.421405 0.268350 0.099162
O O7 0.373315 0.233981 0.345184
O O8 0.304875 0.500000 0.943965
O O9 0.361052 0.296453 0.860673
O O10 0.371432 0.788572 0.612700
O O11 0.382157 0.000000 0.793813
O O12 0.435503 0.771825 0.826406
O O13 0.750000 0.500000 0.501105
O O14 0.703834 0.254936 0.524706
O O15 0.055130 0.500000 0.948684
O O16 0.000000 0.286914 0.000000
O O17 0.836905 0.000000 0.533958
#
# Coordination Sequence:
#
# PCOD9404097 Si02
#       7
#     4   8   8   8   4   8   8
#     4  12  22  33  52  81 112 142 186 238 282 333
#     4   9  20  37  57  82 112 145 187 233 283 339
#     4  10  20  35  55  78 105 144 190 234 277 329
#     4  10  20  34  55  82 112 146 185 232 282 339
#     4  12  24  37  58  81 110 154 198 238 280 327
#     4   9  19  38  63  88 113 144 187 238 288 346
#     4  11  23  38  56  82 118 155 192 234 285 340
#
# _framework density 18.187335999999998
#
# number of rings (size 3 to 8) (size 9 to 14) (size 15 to 20)
#    0.000    1.833    1.667    4.000    0.000    6.333 
#    0.000    1.667    0.000    5.000    0.000    0.000 
#    0.000    0.000    0.000    0.000    0.000    0.000 
#
# Total GULP energy -267293.964108 kJ/mol
# GULP energy per Si atom -5568.624252 kJ/mol
# Density = 1.814594 g / cm^3
# Si number density = 18.187336 Si / 1000 Ang^3
#
#
#
# Elastic Constant Matrix: (Units=GPa)
#
#
# Indices 1 2 3 4 5 6 
#
# 1 99.6766 22.5857 39.0789 0.0000 0.0000 0.0000
# 2 22.5857 52.1024 45.1428 0.0000 0.0000 0.0000
# 3 39.0789 45.1428 104.6870 0.0000 0.0000 0.0000
# 4 0.0000 0.0000 0.0000 24.3472 0.0000 0.0000
# 5 0.0000 0.0000 0.0000 0.0000 36.7728 0.0000
# 6 0.0000 0.0000 0.0000 0.0000 0.0000 29.3896
#
#
#
# Elastic Compliance Matrix: (Units=1/GPa)
#
#
# Indices 1 2 3 4 5 6 
#
# 1 0.011893 -0.002090 -0.003539 0.000000 0.000000 0.000000
# 2 -0.002090 0.031008 -0.012591 0.000000 0.000000 0.000000
# 3 -0.003539 -0.012591 0.016303 0.000000 0.000000 0.000000
# 4 0.000000 0.000000 0.000000 0.041073 0.000000 0.000000
# 5 0.000000 0.000000 0.000000 0.000000 0.027194 0.000000
# 6 0.000000 0.000000 0.000000 0.000000 0.000000 0.034026
#
#
# Mechanical properties :
#
#
# Convention : Reuss Voigt Hill
#
# Bulk Modulus (GPa) = 43.92650 52.23119 48.07885
# Shear Modulus (GPa) = 24.32810 28.07915 26.20362
#
# Velocity S-wave (km/s) = 3.66134 3.93349 3.79986
# Velocity P-wave (km/s) = 6.48680 7.02927 6.76348
#
# Compressibility (1/GPa) = 0.02276530
#
# Stress axis : x y z
#
# Youngs Moduli (GPa) = 84.08121 32.24959 61.33944
#
# Poissons Ratio (x) = 0.06739 0.21705
# Poissons Ratio (y) = 0.17570 0.77234
# Poissons Ratio (z) = 0.29753 0.40606
#
# Static dielectric constant tensor:
#      x y z
#    x 1.580330 0.000000 0.000000 
#    y 0.000000 1.623300 0.000000 
#    z 0.000000 0.000000 1.619260 
# 
# From -- ./inp_files/12919.got.cif
#   From: 2010.05.17/outbox.cif.g08.bks.cpg/sg51_7_cif.got.tgz:12919.got - 2010.06.03 11:52:47.
