data_PCOD9404971
_publ_section_title
;
Structure prediction by ZEFSAII (Michael W. Deem and Ramdas Pophale) SiO2 
 PCOD9404971
Probable space group: P M M A
;
_chemical_formula_sum "Si O2"
_cell_formula_units_Z 56
_cell_length_a 21.967850
_cell_length_b 14.600392
_cell_length_c 9.309458
_cell_angle_alpha 90.000000
_cell_angle_beta 90.000000
_cell_angle_gamma 90.000000
_cell_volume 2985.908311
_symmetry_space_group_name_H-M "P M M A"
_symmetry_group_IT_number 51
_symmetry_cell_setting 'orthorhombic'
loop_
_space_group_symop_operation_xyz
x,y,z
1/2-x,-y,z
1/2+x,-y,-z
-x,y,-z
-x,-y,-z
1/2+x,y,-z
1/2-x,y,z
x,-y,z
loop_
_atom_site_type_symbol
_atom_site_label
_atom_site_fract_x
_atom_site_fract_y
_atom_site_fract_z
Si Si1 0.352869 0.891885 0.276768
Si Si2 0.318338 0.750000 0.517659
Si Si3 0.352869 0.391885 0.276768
Si Si4 0.995357 0.607534 0.667351
Si Si5 0.004643 0.892466 0.332649
Si Si6 0.087334 0.250000 0.778110
Si Si7 0.318653 0.250000 0.036743
O O1 0.327683 0.838340 0.415525
O O2 0.426066 0.879584 0.282196
O O3 0.339368 0.000000 0.277994
O O4 0.327251 0.838250 0.139560
O O5 0.250000 0.750000 0.575382
O O6 0.327683 0.661661 0.415525
O O7 0.367850 0.750000 0.641735
O O8 0.339368 0.500000 0.277994
O O9 0.426066 0.379584 0.282196
O O10 0.327251 0.338250 0.139560
O O11 0.009806 0.500000 0.671518
O O12 0.000000 0.637211 0.500000
O O13 0.042642 0.663564 0.762144
O O14 0.000000 0.862788 0.500000
O O15 0.957358 0.836436 0.237856
O O16 0.990194 0.000000 0.328483
O O17 0.129225 0.250000 0.917507
O O18 0.250000 0.250000 0.977577
#
# Coordination Sequence:
#
# PCOD9404971 Si02
#       7
#     8   8   8   8   8   8   8
#     4  10  21  40  64  86 113 153 197 245 293 342
#     4  11  22  35  58  88 112 151 206 242 278 341
#     4  10  21  40  64  86 113 153 197 245 293 342
#     4  10  20  36  62  94 120 144 187 247 305 352
#     4  10  20  36  62  94 120 144 187 247 305 352
#     4  12  22  38  60  85 124 158 184 240 302 345
#     4  11  26  42  56  83 123 165 201 233 282 350
#
# _framework density 18.754764000000002
#
# number of rings (size 3 to 8) (size 9 to 14) (size 15 to 20)
#    0.000    1.429    2.857    4.286    0.000    5.714 
#    0.000    2.857    0.000    5.143    0.000    0.000 
#    0.000    0.000    0.000    0.000    0.000    0.000 
#
# Total GULP energy -312988.762922 kJ/mol
# GULP energy per Si atom -5589.085052 kJ/mol
# Density = 1.871208 g / cm^3
# Si number density = 18.754764 Si / 1000 Ang^3
#
#
#
# Elastic Constant Matrix: (Units=GPa)
#
#
# Indices 1 2 3 4 5 6 
#
# 1 92.0596 41.4184 1.7445 0.0000 0.0000 0.0000
# 2 41.4184 118.7986 17.1442 0.0000 0.0000 0.0000
# 3 1.7445 17.1442 39.6267 0.0000 0.0000 0.0000
# 4 0.0000 0.0000 0.0000 2.1522 0.0000 0.0000
# 5 0.0000 0.0000 0.0000 0.0000 -36.9403 0.0000
# 6 0.0000 0.0000 0.0000 0.0000 0.0000 -60.8679
#
#
#
# Elastic Compliance Matrix: (Units=1/GPa)
#
#
# Indices 1 2 3 4 5 6 
#
# 1 0.012964 -0.004733 0.001477 0.000000 0.000000 0.000000
# 2 -0.004733 0.010706 -0.004424 0.000000 0.000000 0.000000
# 3 0.001477 -0.004424 0.027084 0.000000 0.000000 0.000000
# 4 0.000000 0.000000 0.000000 0.464637 0.000000 0.000000
# 5 0.000000 0.000000 0.000000 0.000000 -0.027071 0.000000
# 6 0.000000 0.000000 0.000000 0.000000 0.000000 -0.016429
#
#
# Mechanical properties :
#
#
# Convention : Reuss Voigt Hill
#
# Bulk Modulus (GPa) = 28.25240 41.23325 34.74282
# Shear Modulus (GPa) = 10.01906 -6.45268 1.78319
#
# Velocity S-wave (km/s) = 2.31381 -1.85689 0.97614
# Velocity P-wave (km/s) = 4.71542 4.17562 4.45371
#
# Compressibility (1/GPa) = 0.03539522
#
# Stress axis : x y z
#
# Youngs Moduli (GPa) = 77.13708 93.40477 36.92178
#
# Poissons Ratio (x) = 0.44208 -0.05453
# Poissons Ratio (y) = 0.36508 0.16333
# Poissons Ratio (z) = -0.11393 0.41318
#
# Static dielectric constant tensor:
#      x y z
#    x 1.635330 0.000000 0.000000 
#    y 0.000000 1.647730 0.000000 
#    z 0.000000 0.000000 1.624780 
# 
# From -- ./inp_files/11001.got.cif
#   From: 2010.05.17/outbox.cif.g08.bks.cpg/sg51_6_cif.got.tgz:11001.got - 2010.06.03 11:52:47.
