data_PCOD9404229
_publ_section_title
;
Structure prediction by ZEFSAII (Michael W. Deem and Ramdas Pophale) SiO2 
 PCOD9404229
Probable space group: P M M A
;
_chemical_formula_sum "Si O2"
_cell_formula_units_Z 56
_cell_length_a 21.014338
_cell_length_b 7.449867
_cell_length_c 15.468298
_cell_angle_alpha 90.000000
_cell_angle_beta 90.000000
_cell_angle_gamma 90.000000
_cell_volume 2421.624284
_symmetry_space_group_name_H-M "P M M A"
_symmetry_group_IT_number 51
_symmetry_cell_setting 'orthorhombic'
loop_
_space_group_symop_operation_xyz
x,y,z
1/2-x,-y,z
1/2+x,-y,-z
-x,y,-z
-x,-y,-z
1/2+x,y,-z
1/2-x,y,z
x,-y,z
loop_
_atom_site_type_symbol
_atom_site_label
_atom_site_fract_x
_atom_site_fract_y
_atom_site_fract_z
Si Si1 0.110811 0.795295 0.474281
Si Si2 0.250000 0.701217 0.423261
Si Si3 0.536416 0.781288 0.694998
Si Si4 0.566506 0.702512 0.037299
Si Si5 0.750000 0.215074 0.771866
Si Si6 0.618601 0.783189 0.858124
Si Si7 0.107441 0.782966 0.668912
Si Si8 0.322299 0.709979 0.839431
O O1 0.184722 0.794825 0.449068
O O2 0.070615 0.717762 0.393738
O O3 0.109452 0.715222 0.570172
O O4 0.086995 0.000000 0.483598
O O5 0.250000 0.500000 0.459685
O O6 0.250000 0.694964 0.320390
O O7 0.571416 0.723785 0.781994
O O8 0.462955 0.732523 0.700153
O O9 0.541004 0.000000 0.693070
O O10 0.549663 0.500000 0.067466
O O11 0.615652 0.784598 0.107976
O O12 0.500000 0.785667 0.000000
O O13 0.606597 0.698370 0.949851
O O14 0.811957 0.259861 0.824665
O O15 0.750000 0.000000 0.755321
O O16 0.612884 0.000000 0.867145
O O17 0.159649 0.722540 0.738079
O O18 0.112387 0.000000 0.666510
O O19 0.250000 0.781640 0.854786
O O20 0.320269 0.500000 0.863680
#
# Coordination Sequence:
#
# PCOD9404229 Si02
#       8
#     8   4   8   8   4   8   8   8
#     4  10  20  37  59  82 117 156 189 235 292 344
#     4  12  24  36  54  83 116 153 200 241 276 332
#     4   9  17  34  59  88 118 148 183 230 290 351
#     4  10  22  40  61  85 114 152 194 236 290 352
#     4  10  20  38  58  83 118 155 186 225 292 352
#     4  10  20  34  59  88 116 148 183 229 288 342
#     4  10  21  36  61  90 111 144 198 245 284 336
#     4  10  23  42  59  78 114 160 195 236 296 350
#
# _framework density 23.124974000000002
#
# number of rings (size 3 to 8) (size 9 to 14) (size 15 to 20)
#    0.000    2.000    1.429    1.929    2.000    4.000 
#    0.000    0.714    0.000    1.714    0.000    0.000 
#    0.000    0.000    0.000    0.000    0.000    0.000 
#
# Total GULP energy -312657.567778 kJ/mol
# GULP energy per Si atom -5583.170853 kJ/mol
# Density = 2.307234 g / cm^3
# Si number density = 23.124974 Si / 1000 Ang^3
#
#
#
# Elastic Constant Matrix: (Units=GPa)
#
#
# Indices 1 2 3 4 5 6 
#
# 1 92.8250 -0.3276 10.6439 0.0000 0.0000 0.0000
# 2 -0.3276 64.9920 -1.0460 0.0000 0.0000 0.0000
# 3 10.6439 -1.0460 107.4834 0.0000 0.0000 0.0000
# 4 0.0000 0.0000 0.0000 68.0339 0.0000 0.0000
# 5 0.0000 0.0000 0.0000 0.0000 -12.6683 0.0000
# 6 0.0000 0.0000 0.0000 0.0000 0.0000 1.4822
#
#
#
# Elastic Compliance Matrix: (Units=1/GPa)
#
#
# Indices 1 2 3 4 5 6 
#
# 1 0.010897 0.000038 -0.001079 0.000000 0.000000 0.000000
# 2 0.000038 0.015389 0.000146 0.000000 0.000000 0.000000
# 3 -0.001079 0.000146 0.009412 0.000000 0.000000 0.000000
# 4 0.000000 0.000000 0.000000 0.014699 0.000000 0.000000
# 5 0.000000 0.000000 0.000000 0.000000 -0.078937 0.000000
# 6 0.000000 0.000000 0.000000 0.000000 0.000000 0.674664
#
#
# Mechanical properties :
#
#
# Convention : Reuss Voigt Hill
#
# Bulk Modulus (GPa) = 29.49192 31.53790 30.51491
# Shear Modulus (GPa) = 7.58477 28.43824 18.01151
#
# Velocity S-wave (km/s) = 1.81302 3.51060 2.79386
# Velocity P-wave (km/s) = 4.14291 5.48635 4.86126
#
# Compressibility (1/GPa) = 0.03390759
#
# Stress axis : x y z
#
# Youngs Moduli (GPa) = 91.77020 64.98129 106.24725
#
# Poissons Ratio (x) = -0.00244 0.11461
# Poissons Ratio (y) = -0.00345 -0.01552
# Poissons Ratio (z) = 0.09900 -0.00949
#
# Static dielectric constant tensor:
#      x y z
#    x 1.830930 0.000000 0.000000 
#    y 0.000000 3.101010 0.000000 
#    z 0.000000 0.000000 1.883270 
# 
# From -- ./inp_files/25895.got.cif
#   From: 2010.05.17/outbox.cif.g08.bks.cpg/sg51_13_cif.got.tgz:25895.got - 2010.06.03 11:52:47.
