data_PCOD9404223
_publ_section_title
;
Structure prediction by ZEFSAII (Michael W. Deem and Ramdas Pophale) SiO2 
 PCOD9404223
Probable space group: P M M A
;
_chemical_formula_sum "Si O2"
_cell_formula_units_Z 56
_cell_length_a 15.069157
_cell_length_b 7.803348
_cell_length_c 23.174975
_cell_angle_alpha 90.000000
_cell_angle_beta 90.000000
_cell_angle_gamma 90.000000
_cell_volume 2725.142440
_symmetry_space_group_name_H-M "P M M A"
_symmetry_group_IT_number 51
_symmetry_cell_setting 'orthorhombic'
loop_
_space_group_symop_operation_xyz
x,y,z
1/2-x,-y,z
1/2+x,-y,-z
-x,y,-z
-x,-y,-z
1/2+x,y,-z
1/2-x,y,z
x,-y,z
loop_
_atom_site_type_symbol
_atom_site_label
_atom_site_fract_x
_atom_site_fract_y
_atom_site_fract_z
Si Si1 0.649114 0.703144 0.888426
Si Si2 0.642051 0.801076 0.014718
Si Si3 0.943239 0.206659 0.444808
Si Si4 0.648809 0.793055 0.139909
Si Si5 0.981865 0.293914 0.789627
Si Si6 0.250000 0.796204 0.526692
Si Si7 0.065231 0.293706 0.337692
Si Si8 0.250000 0.291838 0.392106
O O1 0.750000 0.774048 0.885500
O O2 0.655764 0.500000 0.879006
O O3 0.613739 0.725887 0.953596
O O4 0.585081 0.773805 0.838975
O O5 0.750000 0.790269 0.015862
O O6 0.616724 0.000000 0.012985
O O7 0.615264 0.727872 0.077022
O O8 0.842589 0.273248 0.448696
O O9 0.000000 0.269536 0.500000
O O10 0.992877 0.250306 0.385966
O O11 0.940049 0.000000 0.449434
O O12 0.750000 0.734129 0.149471
O O13 0.580845 0.745259 0.189434
O O14 0.651625 0.000000 0.135524
O O15 0.972929 0.500000 0.788256
O O16 0.959218 0.228586 0.725886
O O17 0.250000 0.768883 0.457963
O O18 0.250000 0.000000 0.537808
O O19 0.070460 0.500000 0.334353
O O20 0.160987 0.232489 0.360095
O O21 0.250000 0.500000 0.392843
#
# Coordination Sequence:
#
# PCOD9404223 Si02
#       8
#     8   8   8   8   8   4   8   4
#     4   9  18  32  51  76 107 141 176 215 263 320
#     4   8  15  30  52  76 102 132 171 221 274 321
#     4  10  20  36  59  84 113 144 177 221 267 313
#     4   9  19  37  58  77 100 136 180 225 272 322
#     4  10  22  37  53  77 108 143 180 219 263 313
#     4  10  20  36  58  86 114 142 175 216 271 320
#     4  10  22  38  56  81 112 145 181 219 261 313
#     4  10  20  34  58  86 110 142 179 214 259 314
#
# _framework density 20.549385000000001
#
# number of rings (size 3 to 8) (size 9 to 14) (size 15 to 20)
#    0.000    2.571    1.429    0.857    1.000    3.429 
#    1.286    4.286    0.000    0.000    0.000    0.000 
#    0.000    0.000    0.000    0.000    0.000    0.000 
#
# Total GULP energy -312511.134329 kJ/mol
# GULP energy per Si atom -5580.555970 kJ/mol
# Density = 2.050261 g / cm^3
# Si number density = 20.549385 Si / 1000 Ang^3
#
#
#
# Elastic Constant Matrix: (Units=GPa)
#
#
# Indices 1 2 3 4 5 6 
#
# 1 156.0912 2.5970 93.1366 0.0000 0.0000 0.0000
# 2 2.5970 20.2310 -6.0369 0.0000 0.0000 0.0000
# 3 93.1366 -6.0369 149.4062 0.0000 0.0000 0.0000
# 4 0.0000 0.0000 0.0000 29.7987 0.0000 0.0000
# 5 0.0000 0.0000 0.0000 0.0000 31.3591 0.0000
# 6 0.0000 0.0000 0.0000 0.0000 0.0000 -0.3974
#
#
#
# Elastic Compliance Matrix: (Units=1/GPa)
#
#
# Indices 1 2 3 4 5 6 
#
# 1 0.010416 -0.003315 -0.006627 0.000000 0.000000 0.000000
# 2 -0.003315 0.051087 0.004130 0.000000 0.000000 0.000000
# 3 -0.006627 0.004130 0.010991 0.000000 0.000000 0.000000
# 4 0.000000 0.000000 0.000000 0.033559 0.000000 0.000000
# 5 0.000000 0.000000 0.000000 0.000000 0.031889 0.000000
# 6 0.000000 0.000000 0.000000 0.000000 0.000000 -2.516554
#
#
# Mechanical properties :
#
#
# Convention : Reuss Voigt Hill
#
# Bulk Modulus (GPa) = 16.42790 56.12462 36.27626
# Shear Modulus (GPa) = -2.13065 27.88752 12.87843
#
# Velocity S-wave (km/s) = -1.01936 3.68788 2.50613
# Velocity P-wave (km/s) = 2.57415 6.74576 5.10546
#
# Compressibility (1/GPa) = 0.06087207
#
# Stress axis : x y z
#
# Youngs Moduli (GPa) = 96.00787 19.57440 90.98240
#
# Poissons Ratio (x) = 0.06488 0.60293
# Poissons Ratio (y) = 0.31822 -0.37580
# Poissons Ratio (z) = 0.63624 -0.08085
#
# Static dielectric constant tensor:
#      x y z
#    x 1.749510 0.000000 0.000000 
#    y 0.000000 1.759800 0.000000 
#    z 0.000000 0.000000 1.710970 
# 
# From -- ./inp_files/33589.got.cif
#   From: 2010.05.17/outbox.cif.g08.bks.cpg/sg51_17_cif.got.tgz:33589.got - 2010.06.03 11:52:47.
