data_PCOD9404957
_publ_section_title
;
Structure prediction by ZEFSAII (Michael W. Deem and Ramdas Pophale) SiO2 
 PCOD9404957
Probable space group: P M M A
;
_chemical_formula_sum "Si O2"
_cell_formula_units_Z 64
_cell_length_a 25.518978
_cell_length_b 8.221472
_cell_length_c 14.822891
_cell_angle_alpha 90.000000
_cell_angle_beta 90.000000
_cell_angle_gamma 90.000000
_cell_volume 3109.895347
_symmetry_space_group_name_H-M "P M M A"
_symmetry_group_IT_number 51
_symmetry_cell_setting 'orthorhombic'
loop_
_space_group_symop_operation_xyz
x,y,z
1/2-x,-y,z
1/2+x,-y,-z
-x,y,-z
-x,-y,-z
1/2+x,y,-z
1/2-x,y,z
x,-y,z
loop_
_atom_site_type_symbol
_atom_site_label
_atom_site_fract_x
_atom_site_fract_y
_atom_site_fract_z
Si Si1 0.914541 0.810121 0.730453
Si Si2 0.332647 0.311323 0.984580
Si Si3 0.556036 0.186431 0.033012
Si Si4 0.478702 0.316737 0.791593
Si Si5 0.189721 0.303543 0.781974
Si Si6 0.597324 0.808197 0.348801
Si Si7 0.307406 0.302745 0.181814
Si Si8 0.941260 0.695140 0.530528
O O1 0.856892 0.763001 0.763768
O O2 0.924335 0.769361 0.625837
O O3 0.959818 0.715615 0.784964
O O4 0.923496 0.000000 0.746303
O O5 0.316825 0.500000 0.980877
O O6 0.394899 0.291619 0.995267
O O7 0.318850 0.243150 0.885526
O O8 0.309843 0.243544 0.077518
O O9 0.550125 0.195766 0.140505
O O10 0.562906 0.000000 0.002558
O O11 0.500000 0.248445 0.000000
O O12 0.468000 0.500000 0.821878
O O13 0.451483 0.286967 0.695996
O O14 0.250000 0.270541 0.757144
O O15 0.181845 0.500000 0.782849
O O16 0.148150 0.232135 0.711621
O O17 0.598396 0.748888 0.451641
O O18 0.587268 0.000000 0.346425
O O19 0.250000 0.260023 0.219103
O O20 0.311519 0.500000 0.180164
O O21 0.941677 0.500000 0.539309
O O22 0.000000 0.747751 0.500000
#
# Coordination Sequence:
#
# PCOD9404957 Si02
#       8
#     8   8   8   8   8   8   8   8
#     4  12  25  41  64  95 129 163 203 257 318 375
#     4  10  20  36  61  90 121 162 214 261 304 361
#     4  11  23  36  52  82 124 165 205 255 316 373
#     4  12  23  38  60  87 122 164 208 251 303 370
#     4  10  21  39  63  91 125 167 213 258 305 364
#     4  12  24  39  62  93 129 162 199 253 313 367
#     4  10  22  42  66  92 125 168 217 263 306 362
#     4  11  23  41  68  96 124 161 205 252 305 375
#
# _framework density 20.579470000000001
#
# number of rings (size 3 to 8) (size 9 to 14) (size 15 to 20)
#    0.000    1.000    2.500    5.250    0.000    6.000 
#    0.000    0.625    0.000    6.000    0.000    0.000 
#    0.000    0.000    0.000    0.000    0.000    0.000 
#
# Total GULP energy -357787.626865 kJ/mol
# GULP energy per Si atom -5590.431670 kJ/mol
# Density = 2.053263 g / cm^3
# Si number density = 20.579470 Si / 1000 Ang^3
#
#
#
# Elastic Constant Matrix: (Units=GPa)
#
#
# Indices 1 2 3 4 5 6 
#
# 1 121.2666 12.9275 33.0391 0.0000 0.0000 0.0000
# 2 12.9275 50.7070 -0.8847 0.0000 0.0000 0.0000
# 3 33.0391 -0.8847 80.1153 0.0000 0.0000 0.0000
# 4 0.0000 0.0000 0.0000 11.8725 0.0000 0.0000
# 5 0.0000 0.0000 0.0000 0.0000 15.0485 0.0000
# 6 0.0000 0.0000 0.0000 0.0000 0.0000 -17.4158
#
#
#
# Elastic Compliance Matrix: (Units=1/GPa)
#
#
# Indices 1 2 3 4 5 6 
#
# 1 0.009601 -0.002517 -0.003987 0.000000 0.000000 0.000000
# 2 -0.002517 0.020385 0.001263 0.000000 0.000000 0.000000
# 3 -0.003987 0.001263 0.014140 0.000000 0.000000 0.000000
# 4 0.000000 0.000000 0.000000 0.084228 0.000000 0.000000
# 5 0.000000 0.000000 0.000000 0.000000 0.066452 0.000000
# 6 0.000000 0.000000 0.000000 0.000000 0.000000 -0.057419
#
#
# Mechanical properties :
#
#
# Convention : Reuss Voigt Hill
#
# Bulk Modulus (GPa) = 29.72324 38.02807 33.87566
# Shear Modulus (GPa) = 31.42994 15.70151 23.56573
#
# Velocity S-wave (km/s) = 3.91224 2.76519 3.38762
# Velocity P-wave (km/s) = 5.90610 5.35852 5.63896
#
# Compressibility (1/GPa) = 0.03364371
#
# Stress axis : x y z
#
# Youngs Moduli (GPa) = 104.15631 49.05575 70.72007
#
# Poissons Ratio (x) = 0.12349 0.28197
# Poissons Ratio (y) = 0.26219 -0.08934
# Poissons Ratio (z) = 0.41529 -0.06197
#
# Static dielectric constant tensor:
#      x y z
#    x 1.720760 0.000000 0.000000 
#    y 0.000000 1.706560 0.000000 
#    z 0.000000 0.000000 1.777190 
# 
# From -- ./inp_files/26187.got.cif
#   From: 2010.05.17/outbox.cif.g08.bks.cpg/sg51_14_cif.got.tgz:26187.got - 2010.06.03 11:52:47.
