data_PCOD9404373
_publ_section_title
;
Structure prediction by ZEFSAII (Michael W. Deem and Ramdas Pophale) SiO2 
 PCOD9404373
Probable space group: P M M A
;
_chemical_formula_sum "Si O2"
_cell_formula_units_Z 40
_cell_length_a 8.807679
_cell_length_b 25.681556
_cell_length_c 9.956856
_cell_angle_alpha 90.000000
_cell_angle_beta 90.000000
_cell_angle_gamma 90.000000
_cell_volume 2252.190062
_symmetry_space_group_name_H-M "P M M A"
_symmetry_group_IT_number 51
_symmetry_cell_setting 'orthorhombic'
loop_
_space_group_symop_operation_xyz
x,y,z
1/2-x,-y,z
1/2+x,-y,-z
-x,y,-z
-x,-y,-z
1/2+x,y,-z
1/2-x,y,z
x,-y,z
loop_
_atom_site_type_symbol
_atom_site_label
_atom_site_fract_x
_atom_site_fract_y
_atom_site_fract_z
Si Si1 0.066524 0.351259 0.148797
Si Si2 0.567984 0.858418 0.646032
Si Si3 0.432593 0.261796 0.354237
Si Si4 0.567097 0.560181 0.643870
Si Si5 0.568449 0.940485 0.148133
O O1 0.250000 0.351018 0.139712
O O2 0.019173 0.301294 0.237687
O O3 0.020374 0.401806 0.235978
O O4 0.000000 0.350996 0.000000
O O5 0.500000 0.870358 0.500000
O O6 0.750000 0.862015 0.642446
O O7 0.526429 0.798173 0.676638
O O8 0.501608 0.898299 0.752935
O O9 0.500000 0.275459 0.500000
O O10 0.250000 0.264774 0.364715
O O11 0.500000 0.576648 0.500000
O O12 0.750000 0.562205 0.634428
O O13 0.522097 0.500000 0.667281
O O14 0.750000 0.935089 0.142947
O O15 0.533174 0.000000 0.191357
O O16 0.500000 0.933650 0.000000
#
# Coordination Sequence:
#
# PCOD9404373 Si02
#       5
#     8   8   8   8   8
#     4  10  21  35  50  73 105 136 169 209 253 301
#     4  10  20  35  55  79 106 135 171 214 259 306
#     4   9  19  35  54  76 101 132 170 211 254 302
#     4   9  18  33  53  76 101 131 169 211 253 300
#     4  10  21  37  56  78 105 138 174 211 255 307
#
# _framework density 17.760491999999999
#
# number of rings (size 3 to 8) (size 9 to 14) (size 15 to 20)
#    0.000    2.400    0.000    1.800    0.000    5.200 
#    0.000    2.000    0.000    0.000    0.000    0.000 
#    0.000    0.000    0.000    0.000    0.000    0.000 
#
# Total GULP energy -223240.145423 kJ/mol
# GULP energy per Si atom -5581.003636 kJ/mol
# Density = 1.772007 g / cm^3
# Si number density = 17.760492 Si / 1000 Ang^3
#
#
#
# Elastic Constant Matrix: (Units=GPa)
#
#
# Indices 1 2 3 4 5 6 
#
# 1 29.9946 44.9109 45.5471 0.0000 0.0000 0.0000
# 2 44.9109 130.9228 123.9048 0.0000 0.0000 0.0000
# 3 45.5471 123.9048 173.2511 0.0000 0.0000 0.0000
# 4 0.0000 0.0000 0.0000 -84.2327 0.0000 0.0000
# 5 0.0000 0.0000 0.0000 0.0000 39.6731 0.0000
# 6 0.0000 0.0000 0.0000 0.0000 0.0000 74.3746
#
#
#
# Elastic Compliance Matrix: (Units=1/GPa)
#
#
# Indices 1 2 3 4 5 6 
#
# 1 0.069333 -0.020217 -0.003769 0.000000 0.000000 0.000000
# 2 -0.020217 0.029530 -0.015804 0.000000 0.000000 0.000000
# 3 -0.003769 -0.015804 0.018066 0.000000 0.000000 0.000000
# 4 0.000000 0.000000 0.000000 -0.011872 0.000000 0.000000
# 5 0.000000 0.000000 0.000000 0.000000 0.025206 0.000000
# 6 0.000000 0.000000 0.000000 0.000000 0.000000 0.013445
#
#
# Mechanical properties :
#
#
# Convention : Reuss Voigt Hill
#
# Bulk Modulus (GPa) = 26.77447 84.76601 55.77024
# Shear Modulus (GPa) = 21.20993 13.95006 17.58000
#
# Velocity S-wave (km/s) = 3.45950 2.80564 3.14958
# Velocity P-wave (km/s) = 5.57365 7.63717 6.68550
#
# Compressibility (1/GPa) = 0.03734901
#
# Stress axis : x y z
#
# Youngs Moduli (GPa) = 14.42314 33.86344 55.35325
#
# Poissons Ratio (x) = 0.68460 0.20862
# Poissons Ratio (y) = 0.29159 0.87483
# Poissons Ratio (z) = 0.05436 0.53519
#
# Static dielectric constant tensor:
#      x y z
#    x 1.595830 0.000000 0.000000 
#    y 0.000000 1.619950 0.000000 
#    z 0.000000 0.000000 1.589740 
# 
# From -- ./inp_files/5198.got.cif
#   From: 2010.05.17/outbox.cif.g08.bks.cpg/sg51_3_cif.got.tgz:5198.got - 2010.06.03 11:52:47.
