data_PCOD9404568
_publ_section_title
;
Structure prediction by ZEFSAII (Michael W. Deem and Ramdas Pophale) SiO2 
 PCOD9404568
Probable space group: P M M A
;
_chemical_formula_sum "Si O2"
_cell_formula_units_Z 40
_cell_length_a 23.372764
_cell_length_b 7.695063
_cell_length_c 10.140187
_cell_angle_alpha 90.000000
_cell_angle_beta 90.000000
_cell_angle_gamma 90.000000
_cell_volume 1823.762232
_symmetry_space_group_name_H-M "P M M A"
_symmetry_group_IT_number 51
_symmetry_cell_setting 'orthorhombic'
loop_
_space_group_symop_operation_xyz
x,y,z
1/2-x,-y,z
1/2+x,-y,-z
-x,y,-z
-x,-y,-z
1/2+x,y,-z
1/2-x,y,z
x,-y,z
loop_
_atom_site_type_symbol
_atom_site_label
_atom_site_fract_x
_atom_site_fract_y
_atom_site_fract_z
Si Si1 0.813711 0.703304 0.023511
Si Si2 0.812835 0.709791 0.465847
Si Si3 0.900386 0.289224 0.242707
Si Si4 0.360727 0.203720 0.256035
Si Si5 0.518330 0.204648 0.643347
O O1 0.750000 0.779268 0.041847
O O2 0.809468 0.500000 0.059830
O O3 0.864103 0.773111 0.116879
O O4 0.832259 0.714280 0.871900
O O5 0.750000 0.763185 0.417039
O O6 0.814157 0.500000 0.467411
O O7 0.863577 0.767571 0.370193
O O8 0.823016 0.773570 0.613388
O O9 0.903423 0.500000 0.241634
O O10 0.964684 0.224607 0.259906
O O11 0.423215 0.277362 0.295539
O O12 0.366388 0.000000 0.225352
O O13 0.500000 0.278770 0.500000
O O14 0.529792 0.000000 0.621833
#
# Coordination Sequence:
#
# PCOD9404568 Si02
#       5
#     8   8   8   8   8
#     4  10  22  41  61  84 119 156 189 234 291 345
#     4  10  20  35  57  85 114 146 188 238 290 339
#     4  10  21  37  61  88 113 148 194 239 283 340
#     4  11  23  38  58  84 115 153 195 237 282 340
#     4  10  21  39  59  82 118 156 190 236 292 340
#
# _framework density 21.932683000000001
#
# number of rings (size 3 to 8) (size 9 to 14) (size 15 to 20)
#    0.000    1.800    2.000    1.800    0.000    9.200 
#    0.000    4.000    0.000    3.600    0.000    0.000 
#    0.000    0.000    0.000    0.000    0.000    0.000 
#
# Total GULP energy -223516.534677 kJ/mol
# GULP energy per Si atom -5587.913367 kJ/mol
# Density = 2.188276 g / cm^3
# Si number density = 21.932683 Si / 1000 Ang^3
#
#
#
# Elastic Constant Matrix: (Units=GPa)
#
#
# Indices 1 2 3 4 5 6 
#
# 1 110.9962 -2.4808 -10.9699 0.0000 0.0000 0.0000
# 2 -2.4808 33.0354 -10.3216 0.0000 0.0000 0.0000
# 3 -10.9699 -10.3216 50.2696 0.0000 0.0000 0.0000
# 4 0.0000 0.0000 0.0000 -62.1672 0.0000 0.0000
# 5 0.0000 0.0000 0.0000 0.0000 31.7805 0.0000
# 6 0.0000 0.0000 0.0000 0.0000 0.0000 16.6057
#
#
#
# Elastic Compliance Matrix: (Units=1/GPa)
#
#
# Indices 1 2 3 4 5 6 
#
# 1 0.009270 0.001419 0.002314 0.000000 0.000000 0.000000
# 2 0.001419 0.032563 0.006996 0.000000 0.000000 0.000000
# 3 0.002314 0.006996 0.021834 0.000000 0.000000 0.000000
# 4 0.000000 0.000000 0.000000 -0.016086 0.000000 0.000000
# 5 0.000000 0.000000 0.000000 0.000000 0.031466 0.000000
# 6 0.000000 0.000000 0.000000 0.000000 0.000000 0.060220
#
#
# Mechanical properties :
#
#
# Convention : Reuss Voigt Hill
#
# Bulk Modulus (GPa) = 11.74743 16.30628 14.02686
# Shear Modulus (GPa) = 34.20351 11.78206 22.99278
#
# Velocity S-wave (km/s) = 3.95331 2.32025 3.24131
# Velocity P-wave (km/s) = 5.11917 3.82478 4.51857
#
# Compressibility (1/GPa) = 0.08512499
#
# Stress axis : x y z
#
# Youngs Moduli (GPa) = 107.87771 30.70986 45.79978
#
# Poissons Ratio (x) = -0.04358 -0.10599
# Poissons Ratio (y) = -0.15310 -0.32040
# Poissons Ratio (z) = -0.24966 -0.21484
#
# Static dielectric constant tensor:
#      x y z
#    x 1.821550 0.000000 0.000000 
#    y 0.000000 1.826620 0.000000 
#    z 0.000000 0.000000 1.765900 
# 
# From -- ./inp_files/11411.got.cif
#   From: 2010.05.17/outbox.cif.g08.bks.cpg/sg51_6_cif.got.tgz:11411.got - 2010.06.03 11:52:47.
