data_PCOD9404031
_publ_section_title
;
Structure prediction by ZEFSAII (Michael W. Deem and Ramdas Pophale) SiO2 
 PCOD9404031
Probable space group: P M M A
;
_chemical_formula_sum "Si O2"
_cell_formula_units_Z 64
_cell_length_a 27.626021
_cell_length_b 13.689546
_cell_length_c 9.762225
_cell_angle_alpha 90.000000
_cell_angle_beta 90.000000
_cell_angle_gamma 90.000000
_cell_volume 3691.953276
_symmetry_space_group_name_H-M "P M M A"
_symmetry_group_IT_number 51
_symmetry_cell_setting 'orthorhombic'
loop_
_space_group_symop_operation_xyz
x,y,z
1/2-x,-y,z
1/2+x,-y,-z
-x,y,-z
-x,-y,-z
1/2+x,y,-z
1/2-x,y,z
x,-y,z
loop_
_atom_site_type_symbol
_atom_site_label
_atom_site_fract_x
_atom_site_fract_y
_atom_site_fract_z
Si Si1 0.610173 0.113293 0.907562
Si Si2 0.805370 0.885874 0.697590
Si Si3 0.617510 0.884062 0.236376
Si Si4 0.951890 0.280798 0.288727
Si Si5 0.942259 0.605824 0.021982
Si Si6 0.115630 0.616429 0.502233
Si Si7 0.807482 0.766744 0.416663
Si Si8 0.434303 0.288165 0.246354
O O1 0.659679 0.133826 0.824899
O O2 0.573539 0.185141 0.830127
O O3 0.596878 0.000000 0.886038
O O4 0.615539 0.126532 0.070790
O O5 0.750000 0.870223 0.739696
O O6 0.814080 0.823499 0.561255
O O7 0.811490 0.000000 0.660690
O O8 0.571564 0.826657 0.302799
O O9 0.664031 0.829753 0.301989
O O10 0.617701 0.000000 0.266636
O O11 0.927291 0.355775 0.392948
O O12 0.009770 0.288547 0.294279
O O13 0.934690 0.315856 0.138937
O O14 0.924596 0.500000 0.066853
O O15 0.923350 0.635292 0.874631
O O16 0.000000 0.601819 0.000000
O O17 0.118472 0.500000 0.478971
O O18 0.164498 0.664013 0.564195
O O19 0.100349 0.679119 0.368679
O O20 0.750000 0.758091 0.390361
#
# Coordination Sequence:
#
# PCOD9404031 Si02
#       8
#     8   8   8   8   8   8   8   8
#     4  10  20  34  54  82 115 148 184 227 276 331
#     4   9  17  32  55  80 106 138 177 222 273 329
#     4  10  21  36  55  82 114 149 187 226 271 328
#     4  10  21  35  53  78 113 148 188 232 271 324
#     4   9  17  30  50  73 100 140 188 232 270 312
#     4  11  23  38  58  83 110 143 184 233 283 332
#     4  10  21  38  60  84 109 140 177 226 281 336
#     4  11  20  35  53  80 113 148 189 228 274 323
#
# _framework density 17.334997000000001
#
# number of rings (size 3 to 8) (size 9 to 14) (size 15 to 20)
#    0.000    2.000    2.500    1.500    0.000    4.000 
#    0.000    2.500    0.000    2.250    0.000    0.000 
#    0.000    0.000    0.000    0.000    0.000    0.000 
#
# Total GULP energy -356451.290293 kJ/mol
# GULP energy per Si atom -5569.551411 kJ/mol
# Density = 1.729554 g / cm^3
# Si number density = 17.334997 Si / 1000 Ang^3
#
#
#
# Elastic Constant Matrix: (Units=GPa)
#
#
# Indices 1 2 3 4 5 6 
#
# 1 55.2433 39.4654 10.5252 0.0000 0.0000 0.0000
# 2 39.4654 99.1706 22.1542 0.0000 0.0000 0.0000
# 3 10.5252 22.1542 45.4361 0.0000 0.0000 0.0000
# 4 0.0000 0.0000 0.0000 39.9323 0.0000 0.0000
# 5 0.0000 0.0000 0.0000 0.0000 21.0908 0.0000
# 6 0.0000 0.0000 0.0000 0.0000 0.0000 21.8197
#
#
#
# Elastic Compliance Matrix: (Units=1/GPa)
#
#
# Indices 1 2 3 4 5 6 
#
# 1 0.025338 -0.009845 -0.001069 0.000000 0.000000 0.000000
# 2 -0.009845 0.015141 -0.005102 0.000000 0.000000 0.000000
# 3 -0.001069 -0.005102 0.024744 0.000000 0.000000 0.000000
# 4 0.000000 0.000000 0.000000 0.025042 0.000000 0.000000
# 5 0.000000 0.000000 0.000000 0.000000 0.047414 0.000000
# 6 0.000000 0.000000 0.000000 0.000000 0.000000 0.045830
#
#
# Mechanical properties :
#
#
# Convention : Reuss Voigt Hill
#
# Bulk Modulus (GPa) = 30.12823 38.23774 34.18298
# Shear Modulus (GPa) = 22.06464 25.08225 23.57344
#
# Velocity S-wave (km/s) = 3.57156 3.80796 3.69165
# Velocity P-wave (km/s) = 5.86735 6.43740 6.15897
#
# Compressibility (1/GPa) = 0.03319147
#
# Stress axis : x y z
#
# Youngs Moduli (GPa) = 39.46572 66.04519 40.41310
#
# Poissons Ratio (x) = 0.65019 0.04322
# Poissons Ratio (y) = 0.38853 0.20620
# Poissons Ratio (z) = 0.04221 0.33697
#
# Static dielectric constant tensor:
#      x y z
#    x 1.586070 0.000000 0.000000 
#    y 0.000000 1.618650 0.000000 
#    z 0.000000 0.000000 1.608200 
# 
# From -- ./inp_files/13175.got.cif
#   From: 2010.05.17/outbox.cif.g08.bks.cpg/sg51_7_cif.got.tgz:13175.got - 2010.06.03 11:52:47.
