data_PCOD9404540
_publ_section_title
;
Structure prediction by ZEFSAII (Michael W. Deem and Ramdas Pophale) SiO2 
 PCOD9404540
Probable space group: P M M A
;
_chemical_formula_sum "Si O2"
_cell_formula_units_Z 56
_cell_length_a 18.965591
_cell_length_b 7.859325
_cell_length_c 18.073274
_cell_angle_alpha 90.000000
_cell_angle_beta 90.000000
_cell_angle_gamma 90.000000
_cell_volume 2693.943367
_symmetry_space_group_name_H-M "P M M A"
_symmetry_group_IT_number 51
_symmetry_cell_setting 'orthorhombic'
loop_
_space_group_symop_operation_xyz
x,y,z
1/2-x,-y,z
1/2+x,-y,-z
-x,y,-z
-x,-y,-z
1/2+x,y,-z
1/2-x,y,z
x,-y,z
loop_
_atom_site_type_symbol
_atom_site_label
_atom_site_fract_x
_atom_site_fract_y
_atom_site_fract_z
Si Si1 0.079890 0.794516 0.485207
Si Si2 0.830281 0.294135 0.089892
Si Si3 0.329833 0.295044 0.342133
Si Si4 0.570481 0.798695 0.959077
Si Si5 0.670060 0.794980 0.375395
Si Si6 0.575514 0.297248 0.789444
Si Si7 0.581376 0.705082 0.231196
O O1 0.115841 0.746987 0.407813
O O2 0.129979 0.732675 0.551590
O O3 0.000000 0.733425 0.500000
O O4 0.077737 0.000000 0.487959
O O5 0.750000 0.235339 0.098258
O O6 0.830005 0.500000 0.091835
O O7 0.878793 0.232606 0.157598
O O8 0.864930 0.238910 0.013285
O O9 0.250000 0.230250 0.355200
O O10 0.325124 0.500000 0.339055
O O11 0.363394 0.231693 0.264736
O O12 0.582850 0.730919 0.876847
O O13 0.560922 0.000000 0.951670
O O14 0.500000 0.728271 0.000000
O O15 0.750000 0.730184 0.370655
O O16 0.625703 0.749903 0.303154
O O17 0.673070 0.000000 0.379927
O O18 0.573952 0.500000 0.777945
O O19 0.498513 0.228886 0.766296
O O20 0.578229 0.500000 0.226005
#
# Coordination Sequence:
#
# PCOD9404540 Si02
#       7
#     8   8   8   8   8   8   8
#     4  10  21  38  60  85 114 152 197 241 287 344
#     4  10  21  37  58  83 112 149 192 237 287 345
#     4  10  22  39  59  87 120 153 194 244 296 348
#     4  11  23  38  58  86 117 150 191 238 287 344
#     4  10  21  35  52  78 113 149 183 225 282 342
#     4  10  21  38  61  84 112 151 192 237 288 342
#     4  10  20  35  57  83 110 144 190 236 280 337
#
# _framework density 20.787369999999999
#
# number of rings (size 3 to 8) (size 9 to 14) (size 15 to 20)
#    0.000    1.857    1.429    2.143    0.000    5.714 
#    0.000    1.429    0.000    0.000    0.000    0.000 
#    0.000    0.000    0.000    0.000    0.000    0.000 
#
# Total GULP energy -312880.525565 kJ/mol
# GULP energy per Si atom -5587.152242 kJ/mol
# Density = 2.074006 g / cm^3
# Si number density = 20.787370 Si / 1000 Ang^3
#
#
#
# Elastic Constant Matrix: (Units=GPa)
#
#
# Indices 1 2 3 4 5 6 
#
# 1 132.0334 18.4815 70.6621 0.0000 0.0000 0.0000
# 2 18.4815 13.6734 -1.9722 0.0000 0.0000 0.0000
# 3 70.6621 -1.9722 156.6354 0.0000 0.0000 0.0000
# 4 0.0000 0.0000 0.0000 13.8139 0.0000 0.0000
# 5 0.0000 0.0000 0.0000 0.0000 -4.3985 0.0000
# 6 0.0000 0.0000 0.0000 0.0000 0.0000 17.2392
#
#
#
# Elastic Compliance Matrix: (Units=1/GPa)
#
#
# Indices 1 2 3 4 5 6 
#
# 1 0.013762 -0.019532 -0.006454 0.000000 0.000000 0.000000
# 2 -0.019532 0.100990 0.010083 0.000000 0.000000 0.000000
# 3 -0.006454 0.010083 0.009423 0.000000 0.000000 0.000000
# 4 0.000000 0.000000 0.000000 0.072391 0.000000 0.000000
# 5 0.000000 0.000000 0.000000 0.000000 -0.227350 0.000000
# 6 0.000000 0.000000 0.000000 0.000000 0.000000 0.058007
#
#
# Mechanical properties :
#
#
# Convention : Reuss Voigt Hill
#
# Bulk Modulus (GPa) = 10.82628 52.96500 31.89564
# Shear Modulus (GPa) = 55.66674 19.67563 37.67119
#
# Velocity S-wave (km/s) = 5.18047 3.07989 4.26163
# Velocity P-wave (km/s) = 6.40331 6.17919 6.29225
#
# Compressibility (1/GPa) = 0.09236782
#
# Stress axis : x y z
#
# Youngs Moduli (GPa) = 72.66276 9.90195 106.12388
#
# Poissons Ratio (x) = 0.19341 0.68497
# Poissons Ratio (y) = 1.41929 -1.07006
# Poissons Ratio (z) = 0.46899 -0.09984
#
# Static dielectric constant tensor:
#      x y z
#    x 1.749680 0.000000 0.000000 
#    y 0.000000 1.763470 0.000000 
#    z 0.000000 0.000000 1.701840 
# 
# From -- ./inp_files/25672.got.cif
#   From: 2010.05.17/outbox.cif.g08.bks.cpg/sg51_13_cif.got.tgz:25672.got - 2010.06.03 11:52:47.
