data_PCOD9404282
_publ_section_title
;
Structure prediction by ZEFSAII (Michael W. Deem and Ramdas Pophale) SiO2 
 PCOD9404282
Probable space group: P M M A
;
_chemical_formula_sum "Si O2"
_cell_formula_units_Z 64
_cell_length_a 7.617668
_cell_length_b 15.993016
_cell_length_c 25.599086
_cell_angle_alpha 90.000000
_cell_angle_beta 90.000000
_cell_angle_gamma 90.000000
_cell_volume 3118.723495
_symmetry_space_group_name_H-M "P M M A"
_symmetry_group_IT_number 51
_symmetry_cell_setting 'orthorhombic'
loop_
_space_group_symop_operation_xyz
x,y,z
1/2-x,-y,z
1/2+x,-y,-z
-x,y,-z
-x,-y,-z
1/2+x,y,-z
1/2-x,y,z
x,-y,z
loop_
_atom_site_type_symbol
_atom_site_label
_atom_site_fract_x
_atom_site_fract_y
_atom_site_fract_z
Si Si1 0.459595 0.353714 0.215374
Si Si2 0.458737 0.590184 0.899955
Si Si3 0.958328 0.226036 0.352023
Si Si4 0.541480 0.409227 0.330923
Si Si5 0.460644 0.765744 0.940654
Si Si6 0.958601 0.906484 0.560719
Si Si7 0.048237 0.168180 0.757300
Si Si8 0.034620 0.907492 0.861287
O O1 0.250000 0.345059 0.215774
O O2 0.514605 0.397998 0.162132
O O3 0.515086 0.399608 0.268548
O O4 0.543132 0.261515 0.218397
O O5 0.250000 0.588527 0.909677
O O6 0.532026 0.500000 0.916214
O O7 0.530998 0.673216 0.927388
O O8 0.750000 0.235610 0.342148
O O9 0.028050 0.321500 0.354760
O O10 0.032207 0.180038 0.300188
O O11 0.979040 0.167334 0.401798
O O12 0.750000 0.411565 0.341402
O O13 0.468533 0.500000 0.347378
O O14 0.250000 0.762751 0.934313
O O15 0.526514 0.834800 0.899942
O O16 0.500000 0.788375 0.000000
O O17 0.750000 0.909527 0.566216
O O18 0.000000 0.890775 0.500000
O O19 0.028739 0.000000 0.573809
O O20 0.250000 0.140862 0.749934
O O21 0.971593 0.110043 0.802257
O O22 0.250000 0.904066 0.860104
O O23 0.984534 0.000000 0.878726
#
# Coordination Sequence:
#
# PCOD9404282 Si02
#       8
#     8   8   8   8   8   8   8   8
#     4  11  20  29  47  76 108 137 170 213 259 302
#     4  10  20  35  54  72  94 131 171 205 251 314
#     4   9  18  31  53  83 111 141 180 224 267 314
#     4   9  18  33  52  75 108 150 188 218 254 309
#     4  10  21  37  55  74  98 128 166 212 259 311
#     4  10  21  37  57  80 109 146 186 229 275 321
#     4   9  17  33  54  76 106 142 177 207 251 313
#     4   9  17  32  56  80 100 128 169 212 252 304
#
# _framework density 20.521217
#
# number of rings (size 3 to 8) (size 9 to 14) (size 15 to 20)
#    0.000    2.375    1.250    2.625    0.000    6.250 
#    0.000    1.250    0.000    1.500    0.000    0.000 
#    0.000    0.000    0.000    0.000    0.000    0.000 
#
# Total GULP energy -357030.438745 kJ/mol
# GULP energy per Si atom -5578.600605 kJ/mol
# Density = 2.047451 g / cm^3
# Si number density = 20.521217 Si / 1000 Ang^3
#
#
#
# Elastic Constant Matrix: (Units=GPa)
#
#
# Indices 1 2 3 4 5 6 
#
# 1 45.5207 1.8227 -7.0072 0.0000 0.0000 0.0000
# 2 1.8227 140.4178 74.7115 0.0000 0.0000 0.0000
# 3 -7.0072 74.7115 87.7924 0.0000 0.0000 0.0000
# 4 0.0000 0.0000 0.0000 19.7581 0.0000 0.0000
# 5 0.0000 0.0000 0.0000 0.0000 10.1961 0.0000
# 6 0.0000 0.0000 0.0000 0.0000 0.0000 -1.5801
#
#
#
# Elastic Compliance Matrix: (Units=1/GPa)
#
#
# Indices 1 2 3 4 5 6 
#
# 1 0.022638 -0.002294 0.003759 0.000000 0.000000 0.000000
# 2 -0.002294 0.013247 -0.011456 0.000000 0.000000 0.000000
# 3 0.003759 -0.011456 0.021440 0.000000 0.000000 0.000000
# 4 0.000000 0.000000 0.000000 0.050612 0.000000 0.000000
# 5 0.000000 0.000000 0.000000 0.000000 0.098076 0.000000
# 6 0.000000 0.000000 0.000000 0.000000 0.000000 -0.632879
#
#
# Mechanical properties :
#
#
# Convention : Reuss Voigt Hill
#
# Bulk Modulus (GPa) = 26.77881 45.86501 36.32191
# Shear Modulus (GPa) = -12.67632 19.28843 3.30605
#
# Velocity S-wave (km/s) = -2.48809 3.06915 1.27064
# Velocity P-wave (km/s) = 2.19626 5.91254 4.45991
#
# Compressibility (1/GPa) = 0.03734295
#
# Stress axis : x y z
#
# Youngs Moduli (GPa) = 44.17255 75.49004 46.64244
#
# Poissons Ratio (x) = 0.17317 -0.17533
# Poissons Ratio (y) = 0.10133 0.53434
# Poissons Ratio (z) = -0.16604 0.86482
#
# Static dielectric constant tensor:
#      x y z
#    x 1.772140 0.000000 0.000000 
#    y 0.000000 1.767950 0.000000 
#    z 0.000000 0.000000 1.705210 
# 
# From -- ./inp_files/34904.got.cif
#   From: 2010.05.17/outbox.cif.g08.bks.cpg/sg51_18_cif.got.tgz:34904.got - 2010.06.03 11:52:47.
