data_PCOD9404439
_publ_section_title
;
Structure prediction by ZEFSAII (Michael W. Deem and Ramdas Pophale) SiO2 
 PCOD9404439
Probable space group: P M M A
;
_chemical_formula_sum "Si O2"
_cell_formula_units_Z 56
_cell_length_a 22.219337
_cell_length_b 7.629385
_cell_length_c 15.357902
_cell_angle_alpha 90.000000
_cell_angle_beta 90.000000
_cell_angle_gamma 90.000000
_cell_volume 2603.469649
_symmetry_space_group_name_H-M "P M M A"
_symmetry_group_IT_number 51
_symmetry_cell_setting 'orthorhombic'
loop_
_space_group_symop_operation_xyz
x,y,z
1/2-x,-y,z
1/2+x,-y,-z
-x,y,-z
-x,-y,-z
1/2+x,y,-z
1/2-x,y,z
x,-y,z
loop_
_atom_site_type_symbol
_atom_site_label
_atom_site_fract_x
_atom_site_fract_y
_atom_site_fract_z
Si Si1 0.092756 0.203740 0.766233
Si Si2 0.463949 0.705199 0.287734
Si Si3 0.250000 0.699972 0.175262
Si Si4 0.250000 0.299896 0.381523
Si Si5 0.378770 0.800877 0.446832
Si Si6 0.378934 0.286813 0.129272
Si Si7 0.059409 0.207185 0.954955
Si Si8 0.320378 0.215689 0.620164
O O1 0.078801 0.281381 0.861685
O O2 0.147866 0.275039 0.709274
O O3 0.030083 0.212118 0.712877
O O4 0.108099 0.000000 0.780351
O O5 0.473806 0.500000 0.273602
O O6 0.424416 0.723462 0.375603
O O7 0.425831 0.773535 0.204063
O O8 0.250000 0.500000 0.139586
O O9 0.250000 0.687798 0.278534
O O10 0.187224 0.781908 0.149814
O O11 0.250000 0.500000 0.416289
O O12 0.188747 0.206494 0.408126
O O13 0.364596 0.723011 0.542057
O O14 0.399048 0.000000 0.458763
O O15 0.379190 0.500000 0.134884
O O16 0.393625 0.230099 0.032034
O O17 0.047414 0.000000 0.940181
O O18 0.000000 0.286097 0.000000
O O19 0.250000 0.267299 0.610395
O O20 0.320514 0.000000 0.616671
#
# Coordination Sequence:
#
# PCOD9404439 Si02
#       8
#     8   8   4   4   8   8   8   8
#     4  10  21  39  61  82 112 151 189 240 293 337
#     4  11  22  36  57  87 119 151 187 232 289 349
#     4   9  18  35  53  76 111 150 188 223 273 343
#     4  11  19  33  55  82 117 154 192 229 281 341
#     4  11  21  35  58  87 114 145 193 237 276 332
#     4  10  20  35  56  79 110 154 191 225 279 349
#     4  10  20  35  56  84 112 141 185 240 290 333
#     4   9  19  38  62  84 108 148 199 236 272 337
#
# _framework density 21.509758000000001
#
# number of rings (size 3 to 8) (size 9 to 14) (size 15 to 20)
#    0.000    1.857    3.571    1.071    0.000    2.000 
#    1.286    4.643    0.000    0.000    0.000    0.000 
#    0.000    0.000    0.000    0.000    0.000    0.000 
#
# Total GULP energy -312357.732172 kJ/mol
# GULP energy per Si atom -5577.816646 kJ/mol
# Density = 2.146080 g / cm^3
# Si number density = 21.509758 Si / 1000 Ang^3
#
#
#
# Elastic Constant Matrix: (Units=GPa)
#
#
# Indices 1 2 3 4 5 6 
#
# 1 60.5858 -10.6306 46.5492 0.0000 0.0000 0.0000
# 2 -10.6306 44.0930 2.4781 0.0000 0.0000 0.0000
# 3 46.5492 2.4781 148.8202 0.0000 0.0000 0.0000
# 4 0.0000 0.0000 0.0000 11.1081 0.0000 0.0000
# 5 0.0000 0.0000 0.0000 0.0000 19.2726 0.0000
# 6 0.0000 0.0000 0.0000 0.0000 0.0000 31.8501
#
#
#
# Elastic Compliance Matrix: (Units=1/GPa)
#
#
# Indices 1 2 3 4 5 6 
#
# 1 0.023217 0.006011 -0.007362 0.000000 0.000000 0.000000
# 2 0.006011 0.024257 -0.002284 0.000000 0.000000 0.000000
# 3 -0.007362 -0.002284 0.009060 0.000000 0.000000 0.000000
# 4 0.000000 0.000000 0.000000 0.090024 0.000000 0.000000
# 5 0.000000 0.000000 0.000000 0.000000 0.051887 0.000000
# 6 0.000000 0.000000 0.000000 0.000000 0.000000 0.031397
#
#
# Mechanical properties :
#
#
# Convention : Reuss Voigt Hill
#
# Bulk Modulus (GPa) = 20.29879 36.69915 28.49897
# Shear Modulus (GPa) = 19.72125 26.78632 23.25379
#
# Velocity S-wave (km/s) = 3.03124 3.53272 3.29155
# Velocity P-wave (km/s) = 4.65926 5.80852 5.26534
#
# Compressibility (1/GPa) = 0.04926402
#
# Stress axis : x y z
#
# Youngs Moduli (GPa) = 43.07261 41.22521 110.37170
#
# Poissons Ratio (x) = -0.24781 0.81255
# Poissons Ratio (y) = -0.25892 0.25210
# Poissons Ratio (z) = 0.31710 0.09416
#
# Static dielectric constant tensor:
#      x y z
#    x 1.747510 0.000000 0.000000 
#    y 0.000000 1.831310 0.000000 
#    z 0.000000 0.000000 1.826890 
# 
# From -- ./inp_files/25923.got.cif
#   From: 2010.05.17/outbox.cif.g08.bks.cpg/sg51_13_cif.got.tgz:25923.got - 2010.06.03 11:52:47.
