data_PCOD9404233
_publ_section_title
;
Structure prediction by ZEFSAII (Michael W. Deem and Ramdas Pophale) SiO2 
 PCOD9404233
Probable space group: P M M A
;
_chemical_formula_sum "Si O2"
_cell_formula_units_Z 48
_cell_length_a 24.128885
_cell_length_b 13.849145
_cell_length_c 6.732402
_cell_angle_alpha 90.000000
_cell_angle_beta 90.000000
_cell_angle_gamma 90.000000
_cell_volume 2249.729257
_symmetry_space_group_name_H-M "P M M A"
_symmetry_group_IT_number 51
_symmetry_cell_setting 'orthorhombic'
loop_
_space_group_symop_operation_xyz
x,y,z
1/2-x,-y,z
1/2+x,-y,-z
-x,y,-z
-x,-y,-z
1/2+x,y,-z
1/2-x,y,z
x,-y,z
loop_
_atom_site_type_symbol
_atom_site_label
_atom_site_fract_x
_atom_site_fract_y
_atom_site_fract_z
Si Si1 0.153051 0.887046 0.314022
Si Si2 0.421948 0.612168 0.181668
Si Si3 0.456179 0.612676 0.715264
Si Si4 0.810232 0.716343 0.921849
Si Si5 0.937632 0.112696 0.999815
Si Si6 0.132984 0.761703 0.692982
O O1 0.188736 0.826698 0.156103
O O2 0.155503 0.829016 0.518945
O O3 0.167188 0.000000 0.332612
O O4 0.091566 0.880987 0.214806
O O5 0.412456 0.500000 0.229513
O O6 0.479045 0.642907 0.292376
O O7 0.363381 0.667620 0.184586
O O8 0.439380 0.616845 0.948789
O O9 0.452579 0.500000 0.659234
O O10 0.409179 0.679346 0.617598
O O11 0.750000 0.673539 0.876615
O O12 0.821807 0.716365 0.158110
O O13 0.903132 0.171225 0.160076
O O14 0.938078 0.000000 0.056124
O O15 0.000000 0.149531 0.000000
#
# Coordination Sequence:
#
# PCOD9404233 Si02
#       6
#     8   8   8   8   8   8
#     4  10  22  39  56  81 113 149 195 239 284 341
#     4   8  15  31  56  83 113 148 184 225 280 345
#     4   8  15  29  54  86 116 147 182 224 280 346
#     4  10  22  38  57  82 111 147 193 243 288 333
#     4   9  19  34  53  81 116 147 179 225 279 340
#     4  10  20  34  60  83 113 150 189 230 288 344
#
# _framework density 21.335901
#
# number of rings (size 3 to 8) (size 9 to 14) (size 15 to 20)
#    0.000    2.833    0.000    1.500    7.000    2.667 
#    0.000    3.333    0.000    3.000    0.000    2.333 
#    0.000    0.000    0.000    0.000    0.000    0.000 
#
# Total GULP energy -267858.072980 kJ/mol
# GULP energy per Si atom -5580.376520 kJ/mol
# Density = 2.128734 g / cm^3
# Si number density = 21.335901 Si / 1000 Ang^3
#
#
#
# Elastic Constant Matrix: (Units=GPa)
#
#
# Indices 1 2 3 4 5 6 
#
# 1 137.6780 45.5655 22.6926 0.0000 0.0000 0.0000
# 2 45.5655 96.1389 15.7427 0.0000 0.0000 0.0000
# 3 22.6926 15.7427 73.2621 0.0000 0.0000 0.0000
# 4 0.0000 0.0000 0.0000 20.5301 0.0000 0.0000
# 5 0.0000 0.0000 0.0000 0.0000 11.4484 0.0000
# 6 0.0000 0.0000 0.0000 0.0000 0.0000 13.3936
#
#
#
# Elastic Compliance Matrix: (Units=1/GPa)
#
#
# Indices 1 2 3 4 5 6 
#
# 1 0.008865 -0.003889 -0.001910 0.000000 0.000000 0.000000
# 2 -0.003889 0.012487 -0.001479 0.000000 0.000000 0.000000
# 3 -0.001910 -0.001479 0.014559 0.000000 0.000000 0.000000
# 4 0.000000 0.000000 0.000000 0.048709 0.000000 0.000000
# 5 0.000000 0.000000 0.000000 0.000000 0.087348 0.000000
# 6 0.000000 0.000000 0.000000 0.000000 0.000000 0.074662
#
#
# Mechanical properties :
#
#
# Convention : Reuss Voigt Hill
#
# Bulk Modulus (GPa) = 46.82635 52.78673 49.80654
# Shear Modulus (GPa) = 18.63550 23.94632 21.29091
#
# Velocity S-wave (km/s) = 2.95860 3.35378 3.16237
# Velocity P-wave (km/s) = 5.80223 6.30806 6.06043
#
# Compressibility (1/GPa) = 0.02135550
#
# Stress axis : x y z
#
# Youngs Moduli (GPa) = 112.79998 80.08388 68.68578
#
# Poissons Ratio (x) = 0.31144 0.13121
# Poissons Ratio (y) = 0.43867 0.10156
# Poissons Ratio (z) = 0.21548 0.11841
#
# Static dielectric constant tensor:
#      x y z
#    x 1.803900 0.000000 0.000000 
#    y 0.000000 1.788960 0.000000 
#    z 0.000000 0.000000 1.839190 
# 
# From -- ./inp_files/3511.got.cif
#   From: 2010.05.17/outbox.cif.g08.bks.cpg/sg51_2_cif.got.tgz:3511.got - 2010.06.03 11:52:47.
