data_PCOD9404855
_publ_section_title
;
Structure prediction by ZEFSAII (Michael W. Deem and Ramdas Pophale) SiO2 
 PCOD9404855
Probable space group: P M M A
;
_chemical_formula_sum "Si O2"
_cell_formula_units_Z 44
_cell_length_a 10.084830
_cell_length_b 7.859906
_cell_length_c 28.108056
_cell_angle_alpha 90.000000
_cell_angle_beta 90.000000
_cell_angle_gamma 90.000000
_cell_volume 2228.007990
_symmetry_space_group_name_H-M "P M M A"
_symmetry_group_IT_number 51
_symmetry_cell_setting 'orthorhombic'
loop_
_space_group_symop_operation_xyz
x,y,z
1/2-x,-y,z
1/2+x,-y,-z
-x,y,-z
-x,-y,-z
1/2+x,y,-z
1/2-x,y,z
x,-y,z
loop_
_atom_site_type_symbol
_atom_site_label
_atom_site_fract_x
_atom_site_fract_y
_atom_site_fract_z
Si Si1 0.532401 0.197206 0.388331
Si Si2 0.404254 0.000000 0.955124
Si Si3 0.595645 0.299378 0.120374
Si Si4 0.598817 0.706887 0.792211
Si Si5 0.250000 0.702875 0.536154
Si Si6 0.104679 0.699226 0.715418
Si Si7 0.250000 0.704722 0.427603
O O1 0.622545 0.243673 0.433479
O O2 0.577281 0.291104 0.340664
O O3 0.381557 0.235492 0.401269
O O4 0.551456 0.000000 0.378201
O O5 0.424771 0.167985 0.922642
O O6 0.250000 0.000000 0.970114
O O7 0.500000 0.000000 0.000000
O O8 0.750000 0.280617 0.136313
O O9 0.578138 0.500000 0.107748
O O10 0.492564 0.256200 0.162135
O O11 0.750000 0.770275 0.794937
O O12 0.607535 0.500000 0.789658
O O13 0.516726 0.769906 0.746271
O O14 0.250000 0.500000 0.533446
O O15 0.250000 0.768568 0.482240
O O16 0.250000 0.775341 0.725489
O O17 0.112305 0.500000 0.728340
O O18 0.250000 0.500000 0.428342
#
# Coordination Sequence:
#
# PCOD9404855 Si02
#       7
#     8   4   8   8   4   8   4
#     4  12  25  40  60  89 122 151 187 241 302 355
#     4  10  22  38  58  88 124 164 208 254 301 352
#     4   9  18  36  60  85 118 160 206 251 301 362
#     4   9  18  33  57  89 117 149 197 248 298 351
#     4  11  23  43  67  89 111 149 201 239 283 358
#     4  10  20  36  59  83 113 156 198 235 286 356
#     4  11  25  43  65  87 113 151 195 241 291 356
#
# _framework density 19.748581000000001
#
# number of rings (size 3 to 8) (size 9 to 14) (size 15 to 20)
#    0.000    1.818    0.909    3.273    1.273    6.909 
#    1.636    0.000    0.000    0.000    0.000    0.000 
#    0.000    0.000    0.000    0.000    0.000    0.000 
#
# Total GULP energy -245725.864613 kJ/mol
# GULP energy per Si atom -5584.678741 kJ/mol
# Density = 1.970363 g / cm^3
# Si number density = 19.748581 Si / 1000 Ang^3
#
#
#
# Elastic Constant Matrix: (Units=GPa)
#
#
# Indices 1 2 3 4 5 6 
#
# 1 167.2237 19.4147 71.9875 0.0000 0.0000 0.0000
# 2 19.4147 46.5816 13.0426 0.0000 0.0000 0.0000
# 3 71.9875 13.0426 94.4121 0.0000 0.0000 0.0000
# 4 0.0000 0.0000 0.0000 67.7896 0.0000 0.0000
# 5 0.0000 0.0000 0.0000 0.0000 38.7944 0.0000
# 6 0.0000 0.0000 0.0000 0.0000 0.0000 25.3532
#
#
#
# Elastic Compliance Matrix: (Units=1/GPa)
#
#
# Indices 1 2 3 4 5 6 
#
# 1 0.009064 -0.001917 -0.006646 0.000000 0.000000 0.000000
# 2 -0.001917 0.022737 -0.001680 0.000000 0.000000 0.000000
# 3 -0.006646 -0.001680 0.015891 0.000000 0.000000 0.000000
# 4 0.000000 0.000000 0.000000 0.014752 0.000000 0.000000
# 5 0.000000 0.000000 0.000000 0.000000 0.025777 0.000000
# 6 0.000000 0.000000 0.000000 0.000000 0.000000 0.039443
#
#
# Mechanical properties :
#
#
# Convention : Reuss Voigt Hill
#
# Bulk Modulus (GPa) = 36.75497 57.45634 47.10566
# Shear Modulus (GPa) = 31.80329 39.97230 35.88780
#
# Velocity S-wave (km/s) = 4.01734 4.50384 4.26753
# Velocity P-wave (km/s) = 6.33803 7.49687 6.94167
#
# Compressibility (1/GPa) = 0.02720720
#
# Stress axis : x y z
#
# Youngs Moduli (GPa) = 110.33186 43.98150 62.92736
#
# Poissons Ratio (x) = 0.08430 0.41822
# Poissons Ratio (y) = 0.21148 0.10569
# Poissons Ratio (z) = 0.73327 0.07387
#
# Static dielectric constant tensor:
#      x y z
#    x 1.694460 0.000000 0.000000 
#    y 0.000000 1.707730 0.000000 
#    z 0.000000 0.000000 1.661670 
# 
# From -- ./inp_files/36859.got.cif
#   From: 2010.05.17/outbox.cif.g08.bks.cpg/sg51_19_cif.got.tgz:36859.got - 2010.06.03 11:52:47.
