data_PCOD9404453
_publ_section_title
;
Structure prediction by ZEFSAII (Michael W. Deem and Ramdas Pophale) SiO2 
 PCOD9404453
Probable space group: P M M A
;
_chemical_formula_sum "Si O2"
_cell_formula_units_Z 48
_cell_length_a 30.463026
_cell_length_b 8.664047
_cell_length_c 10.358141
_cell_angle_alpha 90.000000
_cell_angle_beta 90.000000
_cell_angle_gamma 90.000000
_cell_volume 2733.856151
_symmetry_space_group_name_H-M "P M M A"
_symmetry_group_IT_number 51
_symmetry_cell_setting 'orthorhombic'
loop_
_space_group_symop_operation_xyz
x,y,z
1/2-x,-y,z
1/2+x,-y,-z
-x,y,-z
-x,-y,-z
1/2+x,y,-z
1/2-x,y,z
x,-y,z
loop_
_atom_site_type_symbol
_atom_site_label
_atom_site_fract_x
_atom_site_fract_y
_atom_site_fract_z
Si Si1 0.866071 0.816053 0.606341
Si Si2 0.198767 0.815291 0.890067
Si Si3 0.198688 0.684837 0.608741
Si Si4 0.962725 0.313165 0.601343
Si Si5 0.034957 0.312536 0.104114
Si Si6 0.135570 0.314488 0.109067
O O1 0.831964 0.756827 0.500177
O O2 0.915078 0.757049 0.573239
O O3 0.854959 0.748057 0.747591
O O4 0.865663 0.000000 0.612285
O O5 0.250000 0.775337 0.913102
O O6 0.186401 0.745641 0.750935
O O7 0.195119 0.000000 0.884921
O O8 0.168666 0.749804 0.003230
O O9 0.250000 0.725812 0.587512
O O10 0.194855 0.500000 0.606065
O O11 0.958620 0.500000 0.597908
O O12 0.975114 0.268254 0.748099
O O13 0.000000 0.267302 0.500000
O O14 0.033812 0.500000 0.100295
O O15 0.085277 0.267536 0.076823
O O16 0.000000 0.254602 0.000000
O O17 0.137437 0.500000 0.111711
#
# Coordination Sequence:
#
# PCOD9404453 Si02
#       6
#     8   8   8   8   8   8
#     4  11  22  36  55  79 111 146 180 225 277 325
#     4  10  21  37  56  80 111 143 175 217 272 327
#     4  10  21  38  59  81 106 139 181 226 270 323
#     4   9  18  33  53  76 104 139 179 222 266 317
#     4   8  15  29  49  74 101 130 169 215 259 303
#     4  10  20  35  56  80 107 142 184 225 264 315
#
# _framework density 17.557615999999999
#
# number of rings (size 3 to 8) (size 9 to 14) (size 15 to 20)
#    0.000    2.333    0.000    4.000    0.000    4.333 
#    0.000    3.333    0.000   12.500    0.000    0.000 
#    0.000    0.000    0.000    0.000    0.000    0.000 
#
# Total GULP energy -267894.169897 kJ/mol
# GULP energy per Si atom -5581.128540 kJ/mol
# Density = 1.751765 g / cm^3
# Si number density = 17.557616 Si / 1000 Ang^3
#
#
#
# Elastic Constant Matrix: (Units=GPa)
#
#
# Indices 1 2 3 4 5 6 
#
# 1 119.0888 46.7197 126.6361 0.0000 0.0000 0.0000
# 2 46.7197 56.7041 52.8755 0.0000 0.0000 0.0000
# 3 126.6361 52.8755 161.7161 0.0000 0.0000 0.0000
# 4 0.0000 0.0000 0.0000 22.3515 0.0000 0.0000
# 5 0.0000 0.0000 0.0000 0.0000 44.3819 0.0000
# 6 0.0000 0.0000 0.0000 0.0000 0.0000 14.5997
#
#
#
# Elastic Compliance Matrix: (Units=1/GPa)
#
#
# Indices 1 2 3 4 5 6 
#
# 1 0.052065 -0.007020 -0.038476 0.000000 0.000000 0.000000
# 2 -0.007020 0.026317 -0.003108 0.000000 0.000000 0.000000
# 3 -0.038476 -0.003108 0.037330 0.000000 0.000000 0.000000
# 4 0.000000 0.000000 0.000000 0.044740 0.000000 0.000000
# 5 0.000000 0.000000 0.000000 0.000000 0.022532 0.000000
# 6 0.000000 0.000000 0.000000 0.000000 0.000000 0.068495
#
#
# Mechanical properties :
#
#
# Convention : Reuss Voigt Hill
#
# Bulk Modulus (GPa) = 54.03956 87.77460 70.90708
# Shear Modulus (GPa) = 14.09033 23.68515 18.88774
#
# Velocity S-wave (km/s) = 2.83595 3.67685 3.28343
# Velocity P-wave (km/s) = 6.44738 8.25388 7.40592
#
# Compressibility (1/GPa) = 0.01850496
#
# Stress axis : x y z
#
# Youngs Moduli (GPa) = 19.20661 37.99823 26.78846
#
# Poissons Ratio (x) = 0.26673 1.03071
# Poissons Ratio (y) = 0.13482 0.08325
# Poissons Ratio (z) = 0.73899 0.11809
#
# Static dielectric constant tensor:
#      x y z
#    x 1.581720 0.000000 0.000000 
#    y 0.000000 1.586830 0.000000 
#    z 0.000000 0.000000 1.571580 
# 
# From -- ./inp_files/12728.got.cif
#   From: 2010.05.17/outbox.cif.g08.bks.cpg/sg51_7_cif.got.tgz:12728.got - 2010.06.03 11:52:47.
