data_PCOD9404238
_publ_section_title
;
Structure prediction by ZEFSAII (Michael W. Deem and Ramdas Pophale) SiO2 
 PCOD9404238
Probable space group: P M M A
;
_chemical_formula_sum "Si O2"
_cell_formula_units_Z 48
_cell_length_a 8.661074
_cell_length_b 24.845257
_cell_length_c 13.920084
_cell_angle_alpha 90.000000
_cell_angle_beta 90.000000
_cell_angle_gamma 90.000000
_cell_volume 2995.415679
_symmetry_space_group_name_H-M "P M M A"
_symmetry_group_IT_number 51
_symmetry_cell_setting 'orthorhombic'
loop_
_space_group_symop_operation_xyz
x,y,z
1/2-x,-y,z
1/2+x,-y,-z
-x,y,-z
-x,-y,-z
1/2+x,y,-z
1/2-x,y,z
x,-y,z
loop_
_atom_site_type_symbol
_atom_site_label
_atom_site_fract_x
_atom_site_fract_y
_atom_site_fract_z
Si Si1 0.436695 0.060538 0.791062
Si Si2 0.435093 0.832689 0.896934
Si Si3 0.565730 0.670297 0.608672
Si Si4 0.435173 0.558902 0.608778
Si Si5 0.065645 0.115490 0.396359
Si Si6 0.064150 0.777837 0.698903
O O1 0.250000 0.063240 0.783323
O O2 0.485632 0.107096 0.865206
O O3 0.506057 0.076534 0.688015
O O4 0.480401 0.000000 0.818690
O O5 0.250000 0.832734 0.902249
O O6 0.478684 0.794310 0.807918
O O7 0.500000 0.817618 0.000000
O O8 0.500000 0.674676 0.500000
O O9 0.750000 0.670829 0.604366
O O10 0.507620 0.613148 0.650843
O O11 0.502647 0.720860 0.667418
O O12 0.500000 0.557342 0.500000
O O13 0.250000 0.564197 0.605476
O O14 0.472480 0.500000 0.652110
O O15 0.250000 0.116388 0.398297
O O16 0.000000 0.099971 0.500000
O O17 0.001988 0.174681 0.368232
O O18 0.250000 0.777911 0.690951
#
# Coordination Sequence:
#
# PCOD9404238 Si02
#       6
#     8   8   8   8   8   8
#     4   9  19  36  53  70  94 122 152 185 222 267
#     4   9  19  34  53  73  93 118 145 182 231 279
#     4  11  20  29  44  67  95 128 163 198 234 271
#     4   9  16  26  40  59  87 125 165 200 232 267
#     4  11  21  33  49  69  93 122 155 189 228 271
#     4  10  20  35  50  67  93 122 154 191 231 274
#
# _framework density 16.024488000000002
#
# number of rings (size 3 to 8) (size 9 to 14) (size 15 to 20)
#    0.000    2.167    0.000    6.500    0.000    5.333 
#    0.000    0.000    0.000    0.000    0.000    0.000 
#    0.000    0.667    0.000    2.167    0.000    3.000 
#
# Total GULP energy -267725.990138 kJ/mol
# GULP energy per Si atom -5577.624795 kJ/mol
# Density = 1.598802 g / cm^3
# Si number density = 16.024488 Si / 1000 Ang^3
#
#
#
# Elastic Constant Matrix: (Units=GPa)
#
#
# Indices 1 2 3 4 5 6 
#
# 1 64.7129 32.1173 13.5521 0.0000 0.0000 0.0000
# 2 32.1173 117.2991 18.8848 0.0000 0.0000 0.0000
# 3 13.5521 18.8848 59.6572 0.0000 0.0000 0.0000
# 4 0.0000 0.0000 0.0000 9.8882 0.0000 0.0000
# 5 0.0000 0.0000 0.0000 0.0000 23.1860 0.0000
# 6 0.0000 0.0000 0.0000 0.0000 0.0000 26.1434
#
#
#
# Elastic Compliance Matrix: (Units=1/GPa)
#
#
# Indices 1 2 3 4 5 6 
#
# 1 0.018289 -0.004572 -0.002707 0.000000 0.000000 0.000000
# 2 -0.004572 0.010126 -0.002167 0.000000 0.000000 0.000000
# 3 -0.002707 -0.002167 0.018063 0.000000 0.000000 0.000000
# 4 0.000000 0.000000 0.000000 0.101131 0.000000 0.000000
# 5 0.000000 0.000000 0.000000 0.000000 0.043130 0.000000
# 6 0.000000 0.000000 0.000000 0.000000 0.000000 0.038251
#
#
# Mechanical properties :
#
#
# Convention : Reuss Voigt Hill
#
# Bulk Modulus (GPa) = 36.25011 41.19750 38.72380
# Shear Modulus (GPa) = 19.44946 23.65117 21.55032
#
# Velocity S-wave (km/s) = 3.48765 3.84596 3.67118
# Velocity P-wave (km/s) = 6.23611 6.74439 6.49522
#
# Compressibility (1/GPa) = 0.02758612
#
# Stress axis : x y z
#
# Youngs Moduli (GPa) = 54.67821 98.75724 55.36062
#
# Poissons Ratio (x) = 0.45149 0.14988
# Poissons Ratio (y) = 0.24997 0.11996
# Poissons Ratio (z) = 0.14804 0.21399
#
# Static dielectric constant tensor:
#      x y z
#    x 1.535740 0.000000 0.000000 
#    y 0.000000 1.567060 0.000000 
#    z 0.000000 0.000000 1.507110 
# 
# From -- ./inp_files/14449.got.cif
#   From: 2010.05.17/outbox.cif.g08.bks.cpg/sg51_8_cif.got.tgz:14449.got - 2010.06.03 11:52:47.
