data_PCOD9404997
_publ_section_title
;
Structure prediction by ZEFSAII (Michael W. Deem and Ramdas Pophale) SiO2 
 PCOD9404997
Probable space group: P M M A
;
_chemical_formula_sum "Si O2"
_cell_formula_units_Z 40
_cell_length_a 10.128336
_cell_length_b 9.401793
_cell_length_c 24.888094
_cell_angle_alpha 90.000000
_cell_angle_beta 90.000000
_cell_angle_gamma 90.000000
_cell_volume 2369.956768
_symmetry_space_group_name_H-M "P M M A"
_symmetry_group_IT_number 51
_symmetry_cell_setting 'orthorhombic'
loop_
_space_group_symop_operation_xyz
x,y,z
1/2-x,-y,z
1/2+x,-y,-z
-x,y,-z
-x,-y,-z
1/2+x,y,-z
1/2-x,y,z
x,-y,z
loop_
_atom_site_type_symbol
_atom_site_label
_atom_site_fract_x
_atom_site_fract_y
_atom_site_fract_z
Si Si1 0.408214 0.167052 0.737559
Si Si2 0.750000 0.669847 0.444328
Si Si3 0.750000 0.836434 0.554491
Si Si4 0.094867 0.170106 0.950433
Si Si5 0.521840 0.167053 0.382328
Si Si6 0.589478 0.336899 0.157225
O O1 0.250000 0.187461 0.730105
O O2 0.475465 0.201877 0.680881
O O3 0.453384 0.259594 0.788096
O O4 0.428661 0.000000 0.749303
O O5 0.750000 0.500000 0.443316
O O6 0.750000 0.729997 0.504727
O O7 0.876129 0.734658 0.413812
O O8 0.620595 0.818829 0.590756
O O9 0.750000 0.000000 0.533567
O O10 0.250000 0.202545 0.961474
O O11 0.053295 0.251117 0.896342
O O12 0.085988 0.000000 0.941741
O O13 0.000000 0.207414 0.000000
O O14 0.562591 0.000000 0.386807
O O15 0.750000 0.335789 0.158554
O O16 0.545647 0.500000 0.155016
#
# Coordination Sequence:
#
# PCOD9404997 Si02
#       6
#     8   4   4   8   8   8
#     4   9  16  29  51  75  99 127 164 211 255 294
#     4  12  24  36  54  80 108 138 173 212 257 310
#     4  10  22  38  58  78 104 138 173 214 261 312
#     4   9  17  30  49  72  98 128 164 205 247 288
#     4  10  20  37  58  80 103 134 175 217 261 308
#     4   9  17  28  45  72 102 130 163 203 247 294
#
# _framework density 16.877946000000001
#
# number of rings (size 3 to 8) (size 9 to 14) (size 15 to 20)
#    0.000    2.400    1.000    2.100    0.000    6.800 
#    0.000    0.000    2.200    0.000    0.000    0.000 
#    0.000    0.000    0.000    0.000    0.000    0.000 
#
# Total GULP energy -223111.311496 kJ/mol
# GULP energy per Si atom -5577.782787 kJ/mol
# Density = 1.683953 g / cm^3
# Si number density = 16.877946 Si / 1000 Ang^3
#
#
#
# Elastic Constant Matrix: (Units=GPa)
#
#
# Indices 1 2 3 4 5 6 
#
# 1 62.2485 52.0785 53.7895 0.0000 0.0000 0.0000
# 2 52.0785 98.6241 100.5201 0.0000 0.0000 0.0000
# 3 53.7895 100.5201 179.6578 0.0000 0.0000 0.0000
# 4 0.0000 0.0000 0.0000 -7.0344 0.0000 0.0000
# 5 0.0000 0.0000 0.0000 0.0000 17.5502 0.0000
# 6 0.0000 0.0000 0.0000 0.0000 0.0000 4.4314
#
#
#
# Elastic Compliance Matrix: (Units=1/GPa)
#
#
# Indices 1 2 3 4 5 6 
#
# 1 0.028784 -0.014930 -0.000265 0.000000 0.000000 0.000000
# 2 -0.014930 0.031338 -0.013064 0.000000 0.000000 0.000000
# 3 -0.000265 -0.013064 0.012955 0.000000 0.000000 0.000000
# 4 0.000000 0.000000 0.000000 -0.142158 0.000000 0.000000
# 5 0.000000 0.000000 0.000000 0.000000 0.056979 0.000000
# 6 0.000000 0.000000 0.000000 0.000000 0.000000 0.225661
#
#
# Mechanical properties :
#
#
# Convention : Reuss Voigt Hill
#
# Bulk Modulus (GPa) = 60.38546 83.70075 72.04310
# Shear Modulus (GPa) = 18.14246 11.93226 15.03736
#
# Velocity S-wave (km/s) = 3.28216 2.66178 2.98811
# Velocity P-wave (km/s) = 7.08652 7.69066 7.39476
#
# Compressibility (1/GPa) = 0.01656028
#
# Stress axis : x y z
#
# Youngs Moduli (GPa) = 34.74184 31.90968 77.19078
#
# Poissons Ratio (x) = 0.47640 0.02043
# Poissons Ratio (y) = 0.51868 1.00844
# Poissons Ratio (z) = 0.00919 0.41688
#
# Static dielectric constant tensor:
#      x y z
#    x 1.554210 0.000000 0.000000 
#    y 0.000000 1.565380 0.000000 
#    z 0.000000 0.000000 1.553760 
# 
# From -- ./inp_files/36084.got.cif
#   From: 2010.05.17/outbox.cif.g08.bks.cpg/sg51_19_cif.got.tgz:36084.got - 2010.06.03 11:52:47.
