data_PCOD9404955
_publ_section_title
;
Structure prediction by ZEFSAII (Michael W. Deem and Ramdas Pophale) SiO2 
 PCOD9404955
Probable space group: P M M A
;
_chemical_formula_sum "Si O2"
_cell_formula_units_Z 40
_cell_length_a 14.032145
_cell_length_b 13.747834
_cell_length_c 8.926125
_cell_angle_alpha 90.000000
_cell_angle_beta 90.000000
_cell_angle_gamma 90.000000
_cell_volume 1721.953057
_symmetry_space_group_name_H-M "P M M A"
_symmetry_group_IT_number 51
_symmetry_cell_setting 'orthorhombic'
loop_
_space_group_symop_operation_xyz
x,y,z
1/2-x,-y,z
1/2+x,-y,-z
-x,y,-z
-x,-y,-z
1/2+x,y,-z
1/2-x,y,z
x,-y,z
loop_
_atom_site_type_symbol
_atom_site_label
_atom_site_fract_x
_atom_site_fract_y
_atom_site_fract_z
Si Si1 0.086750 0.607809 0.120778
Si Si2 0.060381 0.892580 0.306825
Si Si3 0.853154 0.815324 0.970976
Si Si4 0.140019 0.689957 0.413647
Si Si5 0.859315 0.811441 0.326948
O O1 0.128063 0.500000 0.104112
O O2 0.075138 0.626779 0.301160
O O3 0.145648 0.703181 0.080510
O O4 0.000000 0.612236 0.000000
O O5 0.122506 0.803158 0.368765
O O6 0.951093 0.878275 0.358571
O O7 0.094475 0.000000 0.341884
O O8 0.070949 0.873056 0.128263
O O9 0.750000 0.860071 0.937846
O O10 0.863804 0.808021 0.147879
O O11 0.250000 0.660418 0.392211
O O12 0.123917 0.706704 0.591511
O O13 0.750000 0.841586 0.364238
#
# Coordination Sequence:
#
# PCOD9404955 Si02
#       5
#     8   8   8   8   8
#     4  10  20  36  61  90 118 152 194 239 292 354
#     4  11  22  37  59  85 117 159 203 250 305 362
#     4  10  21  38  61  87 117 156 203 253 300 357
#     4  10  22  40  61  86 121 162 201 248 303 362
#     4  10  22  39  58  83 118 160 204 249 302 362
#
# _framework density 23.229438999999999
#
# number of rings (size 3 to 8) (size 9 to 14) (size 15 to 20)
#    0.000    1.800    0.000    6.000    0.000    6.800 
#    0.000    5.000    0.000   18.000    0.000    0.000 
#    0.000    0.000    0.000    0.000    0.000    0.000 
#
# Total GULP energy -222720.042866 kJ/mol
# GULP energy per Si atom -5568.001072 kJ/mol
# Density = 2.317657 g / cm^3
# Si number density = 23.229439 Si / 1000 Ang^3
#
#
#
# Elastic Constant Matrix: (Units=GPa)
#
#
# Indices 1 2 3 4 5 6 
#
# 1 111.1282 17.8612 49.2681 0.0000 0.0000 0.0000
# 2 17.8612 83.4109 0.4159 0.0000 0.0000 0.0000
# 3 49.2681 0.4159 98.7548 0.0000 0.0000 0.0000
# 4 0.0000 0.0000 0.0000 12.0758 0.0000 0.0000
# 5 0.0000 0.0000 0.0000 0.0000 41.0766 0.0000
# 6 0.0000 0.0000 0.0000 0.0000 0.0000 3.4839
#
#
#
# Elastic Compliance Matrix: (Units=1/GPa)
#
#
# Indices 1 2 3 4 5 6 
#
# 1 0.012076 -0.002556 -0.006014 0.000000 0.000000 0.000000
# 2 -0.002556 0.012530 0.001222 0.000000 0.000000 0.000000
# 3 -0.006014 0.001222 0.013121 0.000000 0.000000 0.000000
# 4 0.000000 0.000000 0.000000 0.082810 0.000000 0.000000
# 5 0.000000 0.000000 0.000000 0.000000 0.024345 0.000000
# 6 0.000000 0.000000 0.000000 0.000000 0.000000 0.287034
#
#
# Mechanical properties :
#
#
# Convention : Reuss Voigt Hill
#
# Bulk Modulus (GPa) = 43.41713 47.59828 45.50771
# Shear Modulus (GPa) = 11.00626 26.37718 18.69172
#
# Velocity S-wave (km/s) = 2.17907 3.37338 2.83972
# Velocity P-wave (km/s) = 5.00622 5.97561 5.51227
#
# Compressibility (1/GPa) = 0.02303238
#
# Stress axis : x y z
#
# Youngs Moduli (GPa) = 82.81223 79.80820 76.21307
#
# Poissons Ratio (x) = 0.20397 0.45832
# Poissons Ratio (y) = 0.21165 -0.09316
# Poissons Ratio (z) = 0.49800 -0.09755
#
# Static dielectric constant tensor:
#      x y z
#    x 1.911150 0.000000 0.000000 
#    y 0.000000 1.791560 0.000000 
#    z 0.000000 0.000000 2.151440 
# 
# From -- ./inp_files/7980.got.cif
#   From: 2010.05.17/outbox.cif.g08.bks.cpg/sg51_4_cif.got.tgz:7980.got - 2010.06.03 11:52:47.
