data_PCOD9404071
_publ_section_title
;
Structure prediction by ZEFSAII (Michael W. Deem and Ramdas Pophale) SiO2 
 PCOD9404071
Probable space group: P M M A
;
_chemical_formula_sum "Si O2"
_cell_formula_units_Z 52
_cell_length_a 8.913685
_cell_length_b 21.539558
_cell_length_c 13.886717
_cell_angle_alpha 90.000000
_cell_angle_beta 90.000000
_cell_angle_gamma 90.000000
_cell_volume 2666.205713
_symmetry_space_group_name_H-M "P M M A"
_symmetry_group_IT_number 51
_symmetry_cell_setting 'orthorhombic'
loop_
_space_group_symop_operation_xyz
x,y,z
1/2-x,-y,z
1/2+x,-y,-z
-x,y,-z
-x,-y,-z
1/2+x,y,-z
1/2-x,y,z
x,-y,z
loop_
_atom_site_type_symbol
_atom_site_label
_atom_site_fract_x
_atom_site_fract_y
_atom_site_fract_z
Si Si1 0.428752 0.572440 0.103111
Si Si2 0.571303 0.929059 0.200413
Si Si3 0.070331 0.116965 0.396736
Si Si4 0.430528 0.500000 0.604105
Si Si5 0.570120 0.188250 0.898543
Si Si6 0.071162 0.625059 0.713259
Si Si7 0.428093 0.249479 0.304921
O O1 0.250000 0.578125 0.099532
O O2 0.465812 0.500000 0.126516
O O3 0.497231 0.617100 0.182495
O O4 0.500000 0.585519 0.000000
O O5 0.750000 0.917325 0.203157
O O6 0.503362 0.919323 0.307376
O O7 0.493009 0.879462 0.130639
O O8 0.546009 0.000000 0.170086
O O9 0.250000 0.107467 0.397003
O O10 0.041254 0.189540 0.370876
O O11 0.000000 0.101292 0.500000
O O12 0.250000 0.500000 0.600023
O O13 0.500000 0.500000 0.500000
O O14 0.477063 0.436827 0.656948
O O15 0.750000 0.186127 0.906055
O O16 0.531980 0.230242 0.805197
O O17 0.500000 0.208465 0.000000
O O18 0.250000 0.625125 0.721166
O O19 0.015097 0.688724 0.666930
O O20 0.250000 0.261200 0.307585
#
# Coordination Sequence:
#
# PCOD9404071 Si02
#       7
#     8   8   8   4   8   8   8
#     4  10  20  34  55  81 109 143 178 218 270 328
#     4  10  21  37  58  86 119 154 194 238 284 337
#     4  10  21  38  60  84 114 150 189 238 288 342
#     4  10  24  42  59  82 111 144 185 230 280 338
#     4  10  21  38  60  85 117 155 195 239 283 333
#     4  11  22  38  59  83 114 147 184 233 284 339
#     4   9  21  39  57  82 113 147 191 236 282 337
#
# _framework density 19.503371999999999
#
# number of rings (size 3 to 8) (size 9 to 14) (size 15 to 20)
#    0.000    2.000    0.769    3.231    0.000    8.615 
#    0.000    4.615    0.000    0.000    0.000    0.000 
#    0.000    0.000    0.000    0.000    0.000    0.000 
#
# Total GULP energy -290496.299425 kJ/mol
# GULP energy per Si atom -5586.467297 kJ/mol
# Density = 1.945898 g / cm^3
# Si number density = 19.503372 Si / 1000 Ang^3
#
#
#
# Elastic Constant Matrix: (Units=GPa)
#
#
# Indices 1 2 3 4 5 6 
#
# 1 34.0668 24.9764 2.5641 0.0000 0.0000 0.0000
# 2 24.9764 68.7058 -11.9087 0.0000 0.0000 0.0000
# 3 2.5641 -11.9087 42.9693 0.0000 0.0000 0.0000
# 4 0.0000 0.0000 0.0000 4.2671 0.0000 0.0000
# 5 0.0000 0.0000 0.0000 0.0000 34.6179 0.0000
# 6 0.0000 0.0000 0.0000 0.0000 0.0000 31.2100
#
#
#
# Elastic Compliance Matrix: (Units=1/GPa)
#
#
# Indices 1 2 3 4 5 6 
#
# 1 0.041972 -0.016484 -0.007073 0.000000 0.000000 0.000000
# 2 -0.016484 0.021763 0.007015 0.000000 0.000000 0.000000
# 3 -0.007073 0.007015 0.025639 0.000000 0.000000 0.000000
# 4 0.000000 0.000000 0.000000 0.234350 0.000000 0.000000
# 5 0.000000 0.000000 0.000000 0.000000 0.028887 0.000000
# 6 0.000000 0.000000 0.000000 0.000000 0.000000 0.032041
#
#
# Mechanical properties :
#
#
# Convention : Reuss Voigt Hill
#
# Bulk Modulus (GPa) = 17.76509 19.66730 18.71620
# Shear Modulus (GPa) = 11.45480 22.69301 17.07390
#
# Velocity S-wave (km/s) = 2.42611 3.41477 2.96198
# Velocity P-wave (km/s) = 4.12025 5.06493 4.61682
#
# Compressibility (1/GPa) = 0.05629016
#
# Stress axis : x y z
#
# Youngs Moduli (GPa) = 23.82556 45.94951 39.00361
#
# Poissons Ratio (x) = 0.75742 0.27587
# Poissons Ratio (y) = 0.39274 -0.27361
# Poissons Ratio (z) = 0.16852 -0.32234
#
# Static dielectric constant tensor:
#      x y z
#    x 1.645330 0.000000 0.000000 
#    y 0.000000 1.706630 0.000000 
#    z 0.000000 0.000000 1.656940 
# 
# From -- ./inp_files/21568.got.cif
#   From: 2010.05.17/outbox.cif.g08.bks.cpg/sg51_11_cif.got.tgz:21568.got - 2010.06.03 11:52:47.
