data_PCOD9404424
_publ_section_title
;
Structure prediction by ZEFSAII (Michael W. Deem and Ramdas Pophale) SiO2 
 PCOD9404424
Probable space group: P M M A
;
_chemical_formula_sum "Si O2"
_cell_formula_units_Z 64
_cell_length_a 19.299318
_cell_length_b 7.551548
_cell_length_c 20.714689
_cell_angle_alpha 90.000000
_cell_angle_beta 90.000000
_cell_angle_gamma 90.000000
_cell_volume 3018.953104
_symmetry_space_group_name_H-M "P M M A"
_symmetry_group_IT_number 51
_symmetry_cell_setting 'orthorhombic'
loop_
_space_group_symop_operation_xyz
x,y,z
1/2-x,-y,z
1/2+x,-y,-z
-x,y,-z
-x,-y,-z
1/2+x,y,-z
1/2-x,y,z
x,-y,z
loop_
_atom_site_type_symbol
_atom_site_label
_atom_site_fract_x
_atom_site_fract_y
_atom_site_fract_z
Si Si1 0.828495 0.289868 0.274299
Si Si2 0.425840 0.216065 0.469087
Si Si3 0.831442 0.783338 0.652726
Si Si4 0.553219 0.714681 0.180810
Si Si5 0.604206 0.207696 0.788428
Si Si6 0.172017 0.213026 0.583511
Si Si7 0.571331 0.283989 0.034155
Si Si8 0.826965 0.709827 0.924698
O O1 0.750000 0.216903 0.270248
O O2 0.823344 0.500000 0.263242
O O3 0.883958 0.218339 0.224501
O O4 0.855953 0.262210 0.346526
O O5 0.500000 0.272147 0.500000
O O6 0.388922 0.270975 0.401447
O O7 0.372101 0.273414 0.523808
O O8 0.429574 0.000000 0.465490
O O9 0.750000 0.731136 0.641367
O O10 0.858469 0.722703 0.723489
O O11 0.830999 0.000000 0.651575
O O12 0.554230 0.500000 0.180036
O O13 0.478378 0.764045 0.209060
O O14 0.566573 0.776266 0.107769
O O15 0.633552 0.273119 0.856833
O O16 0.617987 0.000000 0.787762
O O17 0.250000 0.281819 0.580108
O O18 0.174125 0.000000 0.580416
O O19 0.574872 0.500000 0.036074
O O20 0.500000 0.236023 0.000000
O O21 0.631651 0.219222 0.986650
O O22 0.750000 0.784695 0.918923
O O23 0.821644 0.500000 0.935954
#
# Coordination Sequence:
#
# PCOD9404424 Si02
#       8
#     8   8   8   8   8   8   8   8
#     4   9  19  34  52  76 105 137 170 207 257 314
#     4   9  17  28  46  73 102 130 165 213 257 299
#     4   9  18  32  48  69 101 138 173 211 258 308
#     4  10  20  35  56  77 105 140 175 218 262 310
#     4  11  22  34  53  79 108 142 177 216 264 318
#     4   9  17  30  51  75  99 130 166 205 250 303
#     4   9  16  31  54  76  99 130 170 213 256 300
#     4  10  20  35  57  82 106 136 177 222 265 312
#
# _framework density 21.199401999999999
#
# number of rings (size 3 to 8) (size 9 to 14) (size 15 to 20)
#    0.000    2.500    1.250    1.125    1.750    3.250 
#    0.000    3.750    0.000    1.875    0.000    3.500 
#    0.000    0.000    0.000    0.000    0.000    0.000 
#
# Total GULP energy -356917.785212 kJ/mol
# GULP energy per Si atom -5576.840394 kJ/mol
# Density = 2.115115 g / cm^3
# Si number density = 21.199402 Si / 1000 Ang^3
#
#
#
# Elastic Constant Matrix: (Units=GPa)
#
#
# Indices 1 2 3 4 5 6 
#
# 1 100.6611 -0.3746 77.2305 0.0000 0.0000 0.0000
# 2 -0.3746 47.5463 -5.9179 0.0000 0.0000 0.0000
# 3 77.2305 -5.9179 145.9402 0.0000 0.0000 0.0000
# 4 0.0000 0.0000 0.0000 7.8877 0.0000 0.0000
# 5 0.0000 0.0000 0.0000 0.0000 71.9619 0.0000
# 6 0.0000 0.0000 0.0000 0.0000 0.0000 17.5132
#
#
#
# Elastic Compliance Matrix: (Units=1/GPa)
#
#
# Indices 1 2 3 4 5 6 
#
# 1 0.016770 -0.000977 -0.008914 0.000000 0.000000 0.000000
# 2 -0.000977 0.021196 0.001377 0.000000 0.000000 0.000000
# 3 -0.008914 0.001377 0.011625 0.000000 0.000000 0.000000
# 4 0.000000 0.000000 0.000000 0.126779 0.000000 0.000000
# 5 0.000000 0.000000 0.000000 0.000000 0.013896 0.000000
# 6 0.000000 0.000000 0.000000 0.000000 0.000000 0.057100
#
#
# Mechanical properties :
#
#
# Convention : Reuss Voigt Hill
#
# Bulk Modulus (GPa) = 30.71133 48.44710 39.57921
# Shear Modulus (GPa) = 18.16535 34.35321 26.25928
#
# Velocity S-wave (km/s) = 2.93043 4.02989 3.52331
# Velocity P-wave (km/s) = 5.09590 6.67503 5.93819
#
# Compressibility (1/GPa) = 0.03256128
#
# Stress axis : x y z
#
# Youngs Moduli (GPa) = 59.63062 47.17924 86.01966
#
# Poissons Ratio (x) = 0.04611 0.76679
# Poissons Ratio (y) = 0.05828 -0.11842
# Poissons Ratio (z) = 0.53156 -0.06495
#
# Static dielectric constant tensor:
#      x y z
#    x 1.762730 0.000000 0.000000 
#    y 0.000000 1.825220 0.000000 
#    z 0.000000 0.000000 1.764880 
# 
# From -- ./inp_files/30623.got.cif
#   From: 2010.05.17/outbox.cif.g08.bks.cpg/sg51_16_cif.got.tgz:30623.got - 2010.06.03 11:52:47.
