data_PCOD9404473
_publ_section_title
;
Structure prediction by ZEFSAII (Michael W. Deem and Ramdas Pophale) SiO2 
 PCOD9404473
Probable space group: P M M A
;
_chemical_formula_sum "Si O2"
_cell_formula_units_Z 48
_cell_length_a 20.932951
_cell_length_b 8.807846
_cell_length_c 14.871288
_cell_angle_alpha 90.000000
_cell_angle_beta 90.000000
_cell_angle_gamma 90.000000
_cell_volume 2741.881958
_symmetry_space_group_name_H-M "P M M A"
_symmetry_group_IT_number 51
_symmetry_cell_setting 'orthorhombic'
loop_
_space_group_symop_operation_xyz
x,y,z
1/2-x,-y,z
1/2+x,-y,-z
-x,y,-z
-x,-y,-z
1/2+x,y,-z
1/2-x,y,z
x,-y,z
loop_
_atom_site_type_symbol
_atom_site_label
_atom_site_fract_x
_atom_site_fract_y
_atom_site_fract_z
Si Si1 0.677086 0.818187 0.938024
Si Si2 0.561171 0.182959 0.440071
Si Si3 0.127686 0.682125 0.247889
Si Si4 0.064178 0.316673 0.945017
Si Si5 0.177315 0.182869 0.433437
Si Si6 0.022259 0.317300 0.747543
O O1 0.750000 0.776019 0.961088
O O2 0.659814 0.752475 0.840115
O O3 0.672700 0.000000 0.934934
O O4 0.625601 0.754145 0.007884
O O5 0.500000 0.230429 0.500000
O O6 0.625211 0.229559 0.492487
O O7 0.554124 0.248918 0.340829
O O8 0.560208 0.000000 0.434586
O O9 0.131771 0.500000 0.243156
O O10 0.159999 0.742024 0.338538
O O11 0.052690 0.725547 0.249863
O O12 0.069135 0.500000 0.949140
O O13 0.054488 0.270778 0.841451
O O14 0.000000 0.274827 0.000000
O O15 0.250000 0.219817 0.458919
O O16 0.172539 0.000000 0.423025
O O17 0.024824 0.500000 0.742548
#
# Coordination Sequence:
#
# PCOD9404473 Si02
#       6
#     8   8   8   8   8   8
#     4  11  24  39  56  84 119 152 188 231 281 337
#     4  10  20  35  56  81 109 146 188 225 268 329
#     4  11  21  35  57  85 116 147 182 229 283 337
#     4  10  20  39  61  83 113 149 190 233 279 334
#     4  10  21  37  55  79 113 148 183 228 279 329
#     4  10  21  36  57  85 113 142 181 233 281 325
#
# _framework density 17.506224
#
# number of rings (size 3 to 8) (size 9 to 14) (size 15 to 20)
#    0.000    1.667    3.333    1.500    0.000    6.333 
#    0.000    0.833    0.000    3.000    0.000    0.000 
#    0.000    0.000    0.000    0.000    0.000    0.000 
#
# Total GULP energy -268123.310387 kJ/mol
# GULP energy per Si atom -5585.902300 kJ/mol
# Density = 1.746638 g / cm^3
# Si number density = 17.506224 Si / 1000 Ang^3
#
#
#
# Elastic Constant Matrix: (Units=GPa)
#
#
# Indices 1 2 3 4 5 6 
#
# 1 178.3110 47.7707 101.5456 0.0000 0.0000 0.0000
# 2 47.7707 21.0190 39.4125 0.0000 0.0000 0.0000
# 3 101.5456 39.4125 167.8794 0.0000 0.0000 0.0000
# 4 0.0000 0.0000 0.0000 84.1682 0.0000 0.0000
# 5 0.0000 0.0000 0.0000 0.0000 14.7510 0.0000
# 6 0.0000 0.0000 0.0000 0.0000 0.0000 26.1519
#
#
#
# Elastic Compliance Matrix: (Units=1/GPa)
#
#
# Indices 1 2 3 4 5 6 
#
# 1 0.014659 -0.029816 -0.001867 0.000000 0.000000 0.000000
# 2 -0.029816 0.145630 -0.016155 0.000000 0.000000 0.000000
# 3 -0.001867 -0.016155 0.010879 0.000000 0.000000 0.000000
# 4 0.000000 0.000000 0.000000 0.011881 0.000000 0.000000
# 5 0.000000 0.000000 0.000000 0.000000 0.067792 0.000000
# 6 0.000000 0.000000 0.000000 0.000000 0.000000 0.038238
#
#
# Mechanical properties :
#
#
# Convention : Reuss Voigt Hill
#
# Bulk Modulus (GPa) = 13.24617 82.74077 47.99347
# Shear Modulus (GPa) = 12.19753 36.91293 24.55523
#
# Velocity S-wave (km/s) = 2.64247 4.59689 3.74927
# Velocity P-wave (km/s) = 4.11013 8.69146 6.79833
#
# Compressibility (1/GPa) = 0.07549350
#
# Stress axis : x y z
#
# Youngs Moduli (GPa) = 68.21550 6.86670 91.92266
#
# Poissons Ratio (x) = 0.20473 0.17165
# Poissons Ratio (y) = 2.03389 1.48496
# Poissons Ratio (z) = 0.12738 0.11093
#
# Static dielectric constant tensor:
#      x y z
#    x 1.590190 0.000000 0.000000 
#    y 0.000000 1.590400 0.000000 
#    z 0.000000 0.000000 1.560590 
# 
# From -- ./inp_files/24769.got.cif
#   From: 2010.05.17/outbox.cif.g08.bks.cpg/sg51_13_cif.got.tgz:24769.got - 2010.06.03 11:52:47.
