data_PCOD9404593
_publ_section_title
;
Structure prediction by ZEFSAII (Michael W. Deem and Ramdas Pophale) SiO2 
 PCOD9404593
Probable space group: P M M A
;
_chemical_formula_sum "Si O2"
_cell_formula_units_Z 64
_cell_length_a 23.823718
_cell_length_b 9.199094
_cell_length_c 15.003375
_cell_angle_alpha 90.000000
_cell_angle_beta 90.000000
_cell_angle_gamma 90.000000
_cell_volume 3288.088973
_symmetry_space_group_name_H-M "P M M A"
_symmetry_group_IT_number 51
_symmetry_cell_setting 'orthorhombic'
loop_
_space_group_symop_operation_xyz
x,y,z
1/2-x,-y,z
1/2+x,-y,-z
-x,y,-z
-x,-y,-z
1/2+x,y,-z
1/2-x,y,z
x,-y,z
loop_
_atom_site_type_symbol
_atom_site_label
_atom_site_fract_x
_atom_site_fract_y
_atom_site_fract_z
Si Si1 0.890595 0.327548 0.149595
Si Si2 0.626916 0.827542 0.819951
Si Si3 0.604489 0.673878 0.644238
Si Si4 0.185501 0.830362 0.711510
Si Si5 0.877100 0.169442 0.459688
Si Si6 0.997589 0.828098 0.893706
Si Si7 0.684984 0.173657 0.002426
Si Si8 0.518941 0.663492 0.396383
O O1 0.892049 0.500000 0.143719
O O2 0.855006 0.273015 0.233630
O O3 0.953290 0.263610 0.151572
O O4 0.857623 0.259176 0.065345
O O5 0.635158 0.738774 0.729697
O O6 0.564635 0.795722 0.858398
O O7 0.629525 0.000000 0.800817
O O8 0.670029 0.795587 0.899590
O O9 0.607883 0.500000 0.640112
O O10 0.624993 0.741288 0.551024
O O11 0.537784 0.711439 0.652560
O O12 0.250000 0.803815 0.735085
O O13 0.175284 0.812550 0.606091
O O14 0.172452 0.000000 0.732616
O O15 0.929864 0.226287 0.401134
O O16 0.884854 0.000000 0.480786
O O17 0.008375 0.000000 0.879814
O O18 0.000000 0.801230 0.000000
O O19 0.750000 0.206976 0.022014
O O20 0.676403 0.000000 0.016085
O O21 0.500000 0.652263 0.500000
O O22 0.535521 0.500000 0.367229
#
# Coordination Sequence:
#
# PCOD9404593 Si02
#       8
#     8   8   8   8   8   8   8   8
#     4  12  25  38  59  91 125 156 193 240 298 364
#     4  10  21  37  60  89 119 154 200 248 289 344
#     4  10  21  36  55  81 118 158 188 227 291 355
#     4  10  23  43  63  84 114 155 203 252 301 354
#     4  10  20  35  58  84 107 141 194 246 289 337
#     4  10  20  39  63  87 120 159 200 245 296 353
#     4  10  21  41  66  87 113 154 201 248 295 342
#     4   8  16  31  49  73 107 144 178 218 276 342
#
# _framework density 19.464193999999999
#
# number of rings (size 3 to 8) (size 9 to 14) (size 15 to 20)
#    0.000    2.000    1.250    3.000    1.750    7.000 
#    0.000    0.625    0.000    3.750    0.000    0.000 
#    0.000    0.000    0.000    0.000    0.000    0.000 
#
# Total GULP energy -357487.198286 kJ/mol
# GULP energy per Si atom -5585.737473 kJ/mol
# Density = 1.941989 g / cm^3
# Si number density = 19.464194 Si / 1000 Ang^3
#
#
#
# Elastic Constant Matrix: (Units=GPa)
#
#
# Indices 1 2 3 4 5 6 
#
# 1 49.8320 27.0569 2.9133 0.0000 0.0000 0.0000
# 2 27.0569 52.4283 29.7168 0.0000 0.0000 0.0000
# 3 2.9133 29.7168 74.5771 0.0000 0.0000 0.0000
# 4 0.0000 0.0000 0.0000 -47.4061 0.0000 0.0000
# 5 0.0000 0.0000 0.0000 0.0000 20.4526 0.0000
# 6 0.0000 0.0000 0.0000 0.0000 0.0000 -1.2534
#
#
#
# Elastic Compliance Matrix: (Units=1/GPa)
#
#
# Indices 1 2 3 4 5 6 
#
# 1 0.030125 -0.019221 0.006482 0.000000 0.000000 0.000000
# 2 -0.019221 0.036902 -0.013954 0.000000 0.000000 0.000000
# 3 0.006482 -0.013954 0.018716 0.000000 0.000000 0.000000
# 4 0.000000 0.000000 0.000000 -0.021094 0.000000 0.000000
# 5 0.000000 0.000000 0.000000 0.000000 0.048893 0.000000
# 6 0.000000 0.000000 0.000000 0.000000 0.000000 -0.797833
#
#
# Mechanical properties :
#
#
# Convention : Reuss Voigt Hill
#
# Bulk Modulus (GPa) = 30.90412 32.91239 31.90825
# Shear Modulus (GPa) = -8.06294 2.16866 -2.94714
#
# Velocity S-wave (km/s) = -2.03751 1.05669 -1.23184
# Velocity P-wave (km/s) = 3.22128 4.29356 3.79548
#
# Compressibility (1/GPa) = 0.03235814
#
# Stress axis : x y z
#
# Youngs Moduli (GPa) = 33.19549 27.09879 53.43073
#
# Poissons Ratio (x) = 0.52086 -0.34634
# Poissons Ratio (y) = 0.63804 0.74555
# Poissons Ratio (z) = -0.21518 0.37812
#
# Static dielectric constant tensor:
#      x y z
#    x 1.675130 0.000000 0.000000 
#    y 0.000000 1.652830 0.000000 
#    z 0.000000 0.000000 1.698610 
# 
# From -- ./inp_files/26332.got.cif
#   From: 2010.05.17/outbox.cif.g08.bks.cpg/sg51_14_cif.got.tgz:26332.got - 2010.06.03 11:52:47.
