data_PCOD9404360
_publ_section_title
;
Structure prediction by ZEFSAII (Michael W. Deem and Ramdas Pophale) SiO2 
 PCOD9404360
Probable space group: P M M A
;
_chemical_formula_sum "Si O2"
_cell_formula_units_Z 48
_cell_length_a 15.820868
_cell_length_b 7.582467
_cell_length_c 18.384936
_cell_angle_alpha 90.000000
_cell_angle_beta 90.000000
_cell_angle_gamma 90.000000
_cell_volume 2205.479160
_symmetry_space_group_name_H-M "P M M A"
_symmetry_group_IT_number 51
_symmetry_cell_setting 'orthorhombic'
loop_
_space_group_symop_operation_xyz
x,y,z
1/2-x,-y,z
1/2+x,-y,-z
-x,y,-z
-x,-y,-z
1/2+x,y,-z
1/2-x,y,z
x,-y,z
loop_
_atom_site_type_symbol
_atom_site_label
_atom_site_fract_x
_atom_site_fract_y
_atom_site_fract_z
Si Si1 0.750000 0.783426 0.194759
Si Si2 0.919275 0.791194 0.456458
Si Si3 0.250000 0.284288 0.288194
Si Si4 0.902208 0.203804 0.294741
Si Si5 0.250000 0.288593 0.455963
Si Si6 0.250000 0.215624 0.972737
Si Si7 0.077817 0.213593 0.049925
Si Si8 0.574408 0.293336 0.780626
O O1 0.667546 0.722967 0.239318
O O2 0.750000 0.725938 0.111043
O O3 0.750000 0.000000 0.191231
O O4 0.906670 0.715998 0.375384
O O5 0.834166 0.770917 0.502571
O O6 0.000000 0.717399 0.500000
O O7 0.936244 0.000000 0.446769
O O8 0.250000 0.500000 0.285912
O O9 0.250000 0.228762 0.372245
O O10 0.335592 0.224970 0.248504
O O11 0.994027 0.209078 0.258386
O O12 0.876174 0.000000 0.304689
O O13 0.250000 0.500000 0.455522
O O14 0.250000 0.000000 0.972643
O O15 0.165962 0.272648 0.014785
O O16 0.069286 0.270963 0.132969
O O17 0.077276 0.000000 0.049834
O O18 0.000000 0.273000 0.000000
O O19 0.570230 0.500000 0.762704
#
# Coordination Sequence:
#
# PCOD9404360 Si02
#       8
#     4   8   4   8   4   4   8   8
#     4   9  17  32  55  79 104 137 176 218 268 325
#     4  10  21  37  57  83 115 149 188 236 286 335
#     4   9  21  39  55  77 112 153 188 223 276 330
#     4  10  20  36  58  82 110 145 182 223 276 332
#     4  11  22  37  59  83 112 151 192 233 280 340
#     4   9  17  30  51  77 100 129 174 222 262 313
#     4  10  20  35  55  78 106 139 178 224 273 329
#     4  11  22  37  57  80 110 145 184 229 273 324
#
# _framework density 21.763978000000002
#
# number of rings (size 3 to 8) (size 9 to 14) (size 15 to 20)
#    0.000    2.000    0.000    3.750    0.000    5.333 
#    0.000    4.167    0.000    1.000    0.000    0.000 
#    0.000    0.000    0.000    0.000    0.000    0.000 
#
# Total GULP energy -268344.738043 kJ/mol
# GULP energy per Si atom -5590.515376 kJ/mol
# Density = 2.171444 g / cm^3
# Si number density = 21.763978 Si / 1000 Ang^3
#
#
#
# Elastic Constant Matrix: (Units=GPa)
#
#
# Indices 1 2 3 4 5 6 
#
# 1 136.8674 -23.5554 48.7993 0.0000 0.0000 0.0000
# 2 -23.5554 44.4523 -18.3734 0.0000 0.0000 0.0000
# 3 48.7993 -18.3734 154.1281 0.0000 0.0000 0.0000
# 4 0.0000 0.0000 0.0000 11.1886 0.0000 0.0000
# 5 0.0000 0.0000 0.0000 0.0000 97.5442 0.0000
# 6 0.0000 0.0000 0.0000 0.0000 0.0000 22.8852
#
#
#
# Elastic Compliance Matrix: (Units=1/GPa)
#
#
# Indices 1 2 3 4 5 6 
#
# 1 0.008774 0.003683 -0.002339 0.000000 0.000000 0.000000
# 2 0.003683 0.025208 0.001839 0.000000 0.000000 0.000000
# 3 -0.002339 0.001839 0.007448 0.000000 0.000000 0.000000
# 4 0.000000 0.000000 0.000000 0.089377 0.000000 0.000000
# 5 0.000000 0.000000 0.000000 0.000000 0.010252 0.000000
# 6 0.000000 0.000000 0.000000 0.000000 0.000000 0.043696
#
#
# Mechanical properties :
#
#
# Convention : Reuss Voigt Hill
#
# Bulk Modulus (GPa) = 20.92277 38.79874 29.86076
# Shear Modulus (GPa) = 25.73061 48.22874 36.97967
#
# Velocity S-wave (km/s) = 3.44213 4.71254 4.12651
# Velocity P-wave (km/s) = 5.04302 6.89031 6.03773
#
# Compressibility (1/GPa) = 0.04779481
#
# Stress axis : x y z
#
# Youngs Moduli (GPa) = 113.97174 39.67061 134.26603
#
# Poissons Ratio (x) = -0.14609 0.31405
# Poissons Ratio (y) = -0.41972 -0.24691
# Poissons Ratio (z) = 0.26658 -0.07295
#
# Static dielectric constant tensor:
#      x y z
#    x 1.745700 0.000000 0.000000 
#    y 0.000000 1.850240 0.000000 
#    z 0.000000 0.000000 1.751320 
# 
# From -- ./inp_files/29687.got.cif
#   From: 2010.05.17/outbox.cif.g08.bks.cpg/sg51_15_cif.got.tgz:29687.got - 2010.06.03 11:52:47.
