data_PCOD9404187
_publ_section_title
;
Structure prediction by ZEFSAII (Michael W. Deem and Ramdas Pophale) SiO2 
 PCOD9404187
Probable space group: P M M A
;
_chemical_formula_sum "Si O2"
_cell_formula_units_Z 56
_cell_length_a 14.381730
_cell_length_b 13.293516
_cell_length_c 12.238623
_cell_angle_alpha 90.000000
_cell_angle_beta 90.000000
_cell_angle_gamma 90.000000
_cell_volume 2339.825936
_symmetry_space_group_name_H-M "P M M A"
_symmetry_group_IT_number 51
_symmetry_cell_setting 'orthorhombic'
loop_
_space_group_symop_operation_xyz
x,y,z
1/2-x,-y,z
1/2+x,-y,-z
-x,y,-z
-x,-y,-z
1/2+x,y,-z
1/2-x,y,z
x,-y,z
loop_
_atom_site_type_symbol
_atom_site_label
_atom_site_fract_x
_atom_site_fract_y
_atom_site_fract_z
Si Si1 0.645332 0.681419 0.624254
Si Si2 0.639043 0.887447 0.012980
Si Si3 0.360573 0.295483 0.137472
Si Si4 0.062736 0.886446 0.390580
Si Si5 0.137516 0.611797 0.605556
Si Si6 0.430337 0.777592 0.776822
Si Si7 0.142460 0.386507 0.914942
O O1 0.750000 0.643085 0.631786
O O2 0.601334 0.672486 0.744423
O O3 0.640456 0.800705 0.600171
O O4 0.603431 0.629170 0.518650
O O5 0.750000 0.887625 0.999618
O O6 0.621061 0.852710 0.137695
O O7 0.604559 0.000000 0.992747
O O8 0.603222 0.806207 0.923119
O O9 0.250000 0.276380 0.157728
O O10 0.365551 0.378958 0.044830
O O11 0.000693 0.849339 0.288581
O O12 0.000000 0.883676 0.500000
O O13 0.096571 0.000000 0.375031
O O14 0.250000 0.609791 0.604447
O O15 0.106180 0.500000 0.641303
O O16 0.112646 0.708985 0.678415
O O17 0.435261 0.684326 0.863531
O O18 0.250000 0.351448 0.888792
O O19 0.135303 0.500000 0.878718
#
# Coordination Sequence:
#
# PCOD9404187 Si02
#       7
#     8   8   8   8   8   8   8
#     4  10  21  40  62  84 112 151 196 240 284 341
#     4   9  17  30  51  80 111 145 187 234 281 330
#     4   8  16  31  54  82 113 148 190 237 280 326
#     4  11  24  42  59  80 113 150 189 239 296 351
#     4  10  20  34  56  86 117 149 188 233 278 331
#     4  11  19  34  55  79 115 151 184 229 286 345
#     4   9  17  31  56  89 122 157 196 238 284 334
#
# _framework density 23.933402999999998
#
# number of rings (size 3 to 8) (size 9 to 14) (size 15 to 20)
#    0.000    2.286    1.429    3.000    0.000    2.571 
#    0.000    9.286    0.000    5.143    0.000    0.000 
#    0.000    0.000    0.000    0.000    0.000    0.000 
#
# Total GULP energy -312167.492054 kJ/mol
# GULP energy per Si atom -5574.419501 kJ/mol
# Density = 2.387893 g / cm^3
# Si number density = 23.933403 Si / 1000 Ang^3
#
#
#
# Elastic Constant Matrix: (Units=GPa)
#
#
# Indices 1 2 3 4 5 6 
#
# 1 62.1970 1.6383 12.6276 0.0000 0.0000 0.0000
# 2 1.6383 98.2980 22.3658 0.0000 0.0000 0.0000
# 3 12.6276 22.3658 179.3164 0.0000 0.0000 0.0000
# 4 0.0000 0.0000 0.0000 -7.9066 0.0000 0.0000
# 5 0.0000 0.0000 0.0000 0.0000 10.5729 0.0000
# 6 0.0000 0.0000 0.0000 0.0000 0.0000 23.4659
#
#
#
# Elastic Compliance Matrix: (Units=1/GPa)
#
#
# Indices 1 2 3 4 5 6 
#
# 1 0.016311 -0.000011 -0.001147 0.000000 0.000000 0.000000
# 2 -0.000011 0.010470 -0.001305 0.000000 0.000000 0.000000
# 3 -0.001147 -0.001305 0.005820 0.000000 0.000000 0.000000
# 4 0.000000 0.000000 0.000000 -0.126477 0.000000 0.000000
# 5 0.000000 0.000000 0.000000 0.000000 0.094582 0.000000
# 6 0.000000 0.000000 0.000000 0.000000 0.000000 0.042615
#
#
# Mechanical properties :
#
#
# Convention : Reuss Voigt Hill
#
# Bulk Modulus (GPa) = 36.13340 45.89719 41.01530
# Shear Modulus (GPa) = 86.99638 25.43841 56.21739
#
# Velocity S-wave (km/s) = 6.03558 3.26373 4.85181
# Velocity P-wave (km/s) = 7.98131 5.78111 6.96859
#
# Compressibility (1/GPa) = 0.02767522
#
# Stress axis : x y z
#
# Youngs Moduli (GPa) = 61.30767 95.50827 171.81180
#
# Poissons Ratio (x) = 0.00103 0.19712
# Poissons Ratio (y) = 0.00066 0.22424
# Poissons Ratio (z) = 0.07034 0.12466
#
# Static dielectric constant tensor:
#      x y z
#    x 2.074730 0.000000 0.000000 
#    y 0.000000 1.884050 0.000000 
#    z 0.000000 0.000000 1.928870 
# 
# From -- ./inp_files/16635.got.cif
#   From: 2010.05.17/outbox.cif.g08.bks.cpg/sg51_9_cif.got.tgz:16635.got - 2010.06.03 11:52:47.
