data_PCOD9404028
_publ_section_title
;
Structure prediction by ZEFSAII (Michael W. Deem and Ramdas Pophale) SiO2 
 PCOD9404028
Probable space group: P M M A
;
_chemical_formula_sum "Si O2"
_cell_formula_units_Z 64
_cell_length_a 18.477542
_cell_length_b 9.204275
_cell_length_c 21.779389
_cell_angle_alpha 90.000000
_cell_angle_beta 90.000000
_cell_angle_gamma 90.000000
_cell_volume 3704.072476
_symmetry_space_group_name_H-M "P M M A"
_symmetry_group_IT_number 51
_symmetry_cell_setting 'orthorhombic'
loop_
_space_group_symop_operation_xyz
x,y,z
1/2-x,-y,z
1/2+x,-y,-z
-x,y,-z
-x,-y,-z
1/2+x,y,-z
1/2-x,y,z
x,-y,z
loop_
_atom_site_type_symbol
_atom_site_label
_atom_site_fract_x
_atom_site_fract_y
_atom_site_fract_z
Si Si1 0.544927 0.171001 0.809876
Si Si2 0.336517 0.169632 0.389793
Si Si3 0.585788 0.327118 0.498398
Si Si4 0.334355 0.672841 0.262334
Si Si5 0.835643 0.673562 0.370904
Si Si6 0.166683 0.327429 0.872891
Si Si7 0.963143 0.826394 0.064412
Si Si8 0.109498 0.826895 0.751630
O O1 0.612325 0.265031 0.788726
O O2 0.516835 0.202703 0.878484
O O3 0.475550 0.197486 0.765902
O O4 0.562820 0.000000 0.806171
O O5 0.250000 0.182490 0.398828
O O6 0.376403 0.240365 0.447146
O O7 0.354464 0.252808 0.326961
O O8 0.354650 0.000000 0.383679
O O9 0.500000 0.300795 0.500000
O O10 0.597848 0.500000 0.507464
O O11 0.621055 0.288438 0.432844
O O12 0.250000 0.707617 0.249881
O O13 0.341202 0.500000 0.267634
O O14 0.750000 0.702339 0.378714
O O15 0.844212 0.500000 0.360522
O O16 0.865818 0.759403 0.312479
O O17 0.250000 0.303461 0.890517
O O18 0.154578 0.500000 0.866544
O O19 0.110139 0.259177 0.920658
O O20 0.151342 0.250147 0.807656
O O21 0.948260 0.000000 0.065142
O O22 0.000000 0.788981 0.000000
O O23 0.122278 0.000000 0.753388
#
# Coordination Sequence:
#
# PCOD9404028 Si02
#       8
#     8   8   8   8   8   8   8   8
#     4   9  19  35  55  81 110 140 175 219 270 316
#     4  10  21  37  57  79 104 137 176 222 275 325
#     4  10  22  38  55  78 105 138 181 225 270 322
#     4  10  21  36  56  81 107 139 180 224 270 322
#     4  10  21  36  53  75 107 143 176 218 272 326
#     4  10  20  34  54  82 114 147 185 226 269 319
#     4   9  19  37  59  83 112 147 187 226 266 318
#     4  10  21  35  54  81 110 141 179 224 271 322
#
# _framework density 17.278279000000001
#
# number of rings (size 3 to 8) (size 9 to 14) (size 15 to 20)
#    0.000    2.250    0.000    3.000    1.750    8.250 
#    0.000    0.625    0.000    3.750    0.000    0.000 
#    0.000    0.000    0.000    0.000    0.000    0.000 
#
# Total GULP energy -357305.726110 kJ/mol
# GULP energy per Si atom -5582.901970 kJ/mol
# Density = 1.723895 g / cm^3
# Si number density = 17.278279 Si / 1000 Ang^3
#
#
#
# Elastic Constant Matrix: (Units=GPa)
#
#
# Indices 1 2 3 4 5 6 
#
# 1 103.6870 77.7921 91.8881 0.0000 0.0000 0.0000
# 2 77.7921 74.9667 69.3618 0.0000 0.0000 0.0000
# 3 91.8881 69.3618 118.7906 0.0000 0.0000 0.0000
# 4 0.0000 0.0000 0.0000 28.2867 0.0000 0.0000
# 5 0.0000 0.0000 0.0000 0.0000 21.3815 0.0000
# 6 0.0000 0.0000 0.0000 0.0000 0.0000 30.6866
#
#
#
# Elastic Compliance Matrix: (Units=1/GPa)
#
#
# Indices 1 2 3 4 5 6 
#
# 1 0.063681 -0.044599 -0.023218 0.000000 0.000000 0.000000
# 2 -0.044599 0.060249 -0.000681 0.000000 0.000000 0.000000
# 3 -0.023218 -0.000681 0.026775 0.000000 0.000000 0.000000
# 4 0.000000 0.000000 0.000000 0.035352 0.000000 0.000000
# 5 0.000000 0.000000 0.000000 0.000000 0.046769 0.000000
# 6 0.000000 0.000000 0.000000 0.000000 0.000000 0.032587
#
#
# Mechanical properties :
#
#
# Convention : Reuss Voigt Hill
#
# Bulk Modulus (GPa) = 72.93831 86.16980 79.55406
# Shear Modulus (GPa) = 12.28564 19.96446 16.12505
#
# Velocity S-wave (km/s) = 2.66944 3.40290 3.05824
# Velocity P-wave (km/s) = 7.19769 8.08824 7.65592
#
# Compressibility (1/GPa) = 0.01371022
#
# Stress axis : x y z
#
# Youngs Moduli (GPa) = 15.70327 16.59779 37.34810
#
# Poissons Ratio (x) = 0.74025 0.86714
# Poissons Ratio (y) = 0.70035 0.02542
# Poissons Ratio (z) = 0.36459 0.01130
#
# Static dielectric constant tensor:
#      x y z
#    x 1.578090 0.000000 0.000000 
#    y 0.000000 1.575870 0.000000 
#    z 0.000000 0.000000 1.556000 
# 
# From -- ./inp_files/33851.got.cif
#   From: 2010.05.17/outbox.cif.g08.bks.cpg/sg51_17_cif.got.tgz:33851.got - 2010.06.03 11:52:47.
