data_PCOD9404367
_publ_section_title
;
Structure prediction by ZEFSAII (Michael W. Deem and Ramdas Pophale) SiO2 
 PCOD9404367
Probable space group: P M M A
;
_chemical_formula_sum "Si O2"
_cell_formula_units_Z 48
_cell_length_a 8.815789
_cell_length_b 14.194162
_cell_length_c 19.519061
_cell_angle_alpha 90.000000
_cell_angle_beta 90.000000
_cell_angle_gamma 90.000000
_cell_volume 2442.473531
_symmetry_space_group_name_H-M "P M M A"
_symmetry_group_IT_number 51
_symmetry_cell_setting 'orthorhombic'
loop_
_space_group_symop_operation_xyz
x,y,z
1/2-x,-y,z
1/2+x,-y,-z
-x,y,-z
-x,-y,-z
1/2+x,y,-z
1/2-x,y,z
x,-y,z
loop_
_atom_site_type_symbol
_atom_site_label
_atom_site_fract_x
_atom_site_fract_y
_atom_site_fract_z
Si Si1 0.930723 0.611540 0.924872
Si Si2 0.067894 0.603104 0.576740
Si Si3 0.572771 0.243179 0.810578
Si Si4 0.568823 0.202298 0.576274
Si Si5 0.925661 0.104112 0.935172
Si Si6 0.568589 0.106509 0.298707
O O1 0.750000 0.631103 0.929385
O O2 0.954025 0.500000 0.914365
O O3 0.984201 0.668467 0.856871
O O4 0.000000 0.633956 0.000000
O O5 0.250000 0.615271 0.573784
O O6 0.036790 0.500000 0.609015
O O7 0.000000 0.598240 0.500000
O O8 0.990314 0.696598 0.605367
O O9 0.750000 0.259768 0.791477
O O10 0.563969 0.160901 0.866688
O O11 0.486026 0.194314 0.747958
O O12 0.500000 0.191913 0.500000
O O13 0.750000 0.202642 0.572619
O O14 0.506988 0.123598 0.627477
O O15 0.750000 0.095653 0.951729
O O16 0.994136 0.000000 0.927188
O O17 0.000000 0.152732 0.000000
O O18 0.750000 0.110020 0.304170
O O19 0.527141 0.000000 0.273536
#
# Coordination Sequence:
#
# PCOD9404367 Si02
#       6
#     8   8   8   8   8   8
#     4   9  18  33  55  85 120 157 197 239 282 330
#     4   9  16  28  50  81 116 149 180 218 265 319
#     4  10  20  35  55  78 108 147 187 229 280 337
#     4  11  22  38  62  88 116 150 190 239 293 353
#     4   9  17  28  44  69 100 133 172 217 263 314
#     4  11  25  43  61  82 109 143 187 240 298 361
#
# _framework density 19.652208000000002
#
# number of rings (size 3 to 8) (size 9 to 14) (size 15 to 20)
#    0.000    2.167    0.000    4.500    0.000    4.667 
#    0.000    2.500    0.000    3.000    0.000    0.000 
#    0.000    0.000    0.000    0.000    0.000    0.000 
#
# Total GULP energy -267345.040846 kJ/mol
# GULP energy per Si atom -5569.688351 kJ/mol
# Density = 1.960748 g / cm^3
# Si number density = 19.652208 Si / 1000 Ang^3
#
#
#
# Elastic Constant Matrix: (Units=GPa)
#
#
# Indices 1 2 3 4 5 6 
#
# 1 70.9095 37.7160 47.9146 0.0000 0.0000 0.0000
# 2 37.7160 103.8839 39.0902 0.0000 0.0000 0.0000
# 3 47.9146 39.0902 83.7064 0.0000 0.0000 0.0000
# 4 0.0000 0.0000 0.0000 43.1153 0.0000 0.0000
# 5 0.0000 0.0000 0.0000 0.0000 29.3319 0.0000
# 6 0.0000 0.0000 0.0000 0.0000 0.0000 23.6122
#
#
#
# Elastic Compliance Matrix: (Units=1/GPa)
#
#
# Indices 1 2 3 4 5 6 
#
# 1 0.024549 -0.004398 -0.011999 0.000000 0.000000 0.000000
# 2 -0.004398 0.012466 -0.003304 0.000000 0.000000 0.000000
# 3 -0.011999 -0.003304 0.020358 0.000000 0.000000 0.000000
# 4 0.000000 0.000000 0.000000 0.023194 0.000000 0.000000
# 5 0.000000 0.000000 0.000000 0.000000 0.034093 0.000000
# 6 0.000000 0.000000 0.000000 0.000000 0.000000 0.042351
#
#
# Mechanical properties :
#
#
# Convention : Reuss Voigt Hill
#
# Bulk Modulus (GPa) = 55.64262 56.43794 56.04028
# Shear Modulus (GPa) = 24.70330 28.13048 26.41689
#
# Velocity S-wave (km/s) = 3.54930 3.78751 3.67034
# Velocity P-wave (km/s) = 6.72100 6.92154 6.82201
#
# Compressibility (1/GPa) = 0.01797183
#
# Stress axis : x y z
#
# Youngs Moduli (GPa) = 40.73435 80.21716 49.12155
#
# Poissons Ratio (x) = 0.35279 0.58939
# Poissons Ratio (y) = 0.17915 0.16230
# Poissons Ratio (z) = 0.48875 0.26505
#
# Static dielectric constant tensor:
#      x y z
#    x 1.669900 0.000000 0.000000 
#    y 0.000000 1.771210 0.000000 
#    z 0.000000 0.000000 1.694670 
# 
# From -- ./inp_files/27530.got.cif
#   From: 2010.05.17/outbox.cif.g08.bks.cpg/sg51_14_cif.got.tgz:27530.got - 2010.06.03 11:52:47.
