data_PCOD9404515
_publ_section_title
;
Structure prediction by ZEFSAII (Michael W. Deem and Ramdas Pophale) SiO2 
 PCOD9404515
Probable space group: P M M A
;
_chemical_formula_sum "Si O2"
_cell_formula_units_Z 48
_cell_length_a 19.987803
_cell_length_b 7.977732
_cell_length_c 13.948785
_cell_angle_alpha 90.000000
_cell_angle_beta 90.000000
_cell_angle_gamma 90.000000
_cell_volume 2224.236091
_symmetry_space_group_name_H-M "P M M A"
_symmetry_group_IT_number 51
_symmetry_cell_setting 'orthorhombic'
loop_
_space_group_symop_operation_xyz
x,y,z
1/2-x,-y,z
1/2+x,-y,-z
-x,y,-z
-x,-y,-z
1/2+x,y,-z
1/2-x,y,z
x,-y,z
loop_
_atom_site_type_symbol
_atom_site_label
_atom_site_fract_x
_atom_site_fract_y
_atom_site_fract_z
Si Si1 0.824570 0.500000 0.668881
Si Si2 0.423682 0.795975 0.005770
Si Si3 0.675342 0.798165 0.158460
Si Si4 0.173147 0.196342 0.181159
Si Si5 0.029318 0.500000 0.391902
Si Si6 0.676643 0.696209 0.377868
Si Si7 0.464960 0.823597 0.602905
O O1 0.750000 0.500000 0.623741
O O2 0.829546 0.332440 0.734061
O O3 0.891139 0.500000 0.605622
O O4 0.381298 0.755887 0.101033
O O5 0.424794 0.000000 0.002515
O O6 0.500000 0.736653 0.000000
O O7 0.380908 0.739138 0.914246
O O8 0.750000 0.764642 0.119791
O O9 0.671150 0.718702 0.263202
O O10 0.669657 0.000000 0.170650
O O11 0.250000 0.203817 0.142896
O O12 0.162238 0.000000 0.209788
O O13 0.000000 0.500000 0.500000
O O14 0.998711 0.333380 0.345001
O O15 0.750000 0.759877 0.407332
O O16 0.672469 0.500000 0.399729
O O17 0.612652 0.790328 0.417560
O O18 0.500000 0.835180 0.500000
O O19 0.473044 0.000000 0.655514
#
# Coordination Sequence:
#
# PCOD9404515 Si02
#       7
#     4   8   8   8   4   8   8
#     4  10  22  40  63  91 116 151 204 251 299 358
#     4   9  17  30  49  77 112 152 200 247 293 344
#     4   9  17  30  49  73 106 151 197 240 289 343
#     4   9  18  35  58  83 115 155 200 252 302 347
#     4  10  22  42  62  87 124 151 186 239 297 366
#     4  10  20  35  56  86 121 157 199 247 298 353
#     4  10  21  39  63  88 117 155 193 236 298 365
#
# _framework density 21.580442999999999
#
# number of rings (size 3 to 8) (size 9 to 14) (size 15 to 20)
#    0.000    2.500    0.833    1.000    0.000    5.000 
#    1.500    5.417    0.000    1.000    0.000    0.000 
#    0.000    0.000    0.000    0.000    0.000    0.000 
#
# Total GULP energy -267900.429461 kJ/mol
# GULP energy per Si atom -5581.258947 kJ/mol
# Density = 2.153133 g / cm^3
# Si number density = 21.580443 Si / 1000 Ang^3
#
#
#
# Elastic Constant Matrix: (Units=GPa)
#
#
# Indices 1 2 3 4 5 6 
#
# 1 208.8093 47.2214 56.9725 0.0000 0.0000 0.0000
# 2 47.2214 107.9551 12.8427 0.0000 0.0000 0.0000
# 3 56.9725 12.8427 46.4774 0.0000 0.0000 0.0000
# 4 0.0000 0.0000 0.0000 10.8268 0.0000 0.0000
# 5 0.0000 0.0000 0.0000 0.0000 -19.5692 0.0000
# 6 0.0000 0.0000 0.0000 0.0000 0.0000 14.7389
#
#
#
# Elastic Compliance Matrix: (Units=1/GPa)
#
#
# Indices 1 2 3 4 5 6 
#
# 1 0.007723 -0.002329 -0.008824 0.000000 0.000000 0.000000
# 2 -0.002329 0.010280 0.000014 0.000000 0.000000 0.000000
# 3 -0.008824 0.000014 0.032328 0.000000 0.000000 0.000000
# 4 0.000000 0.000000 0.000000 0.092364 0.000000 0.000000
# 5 0.000000 0.000000 0.000000 0.000000 -0.051101 0.000000
# 6 0.000000 0.000000 0.000000 0.000000 0.000000 0.067848
#
#
# Mechanical properties :
#
#
# Convention : Reuss Voigt Hill
#
# Bulk Modulus (GPa) = 35.64499 66.36832 51.00666
# Shear Modulus (GPa) = 26.16836 17.61297 21.89067
#
# Velocity S-wave (km/s) = 3.48601 2.85994 3.18838
# Velocity P-wave (km/s) = 5.72330 6.45959 6.10256
#
# Compressibility (1/GPa) = 0.02805443
#
# Stress axis : x y z
#
# Youngs Moduli (GPa) = 129.48105 97.27616 30.93274
#
# Poissons Ratio (x) = 0.22651 0.27294
# Poissons Ratio (y) = 0.30150 -0.00043
# Poissons Ratio (z) = 1.14250 -0.00134
#
# Static dielectric constant tensor:
#      x y z
#    x 1.800470 0.000000 0.000000 
#    y 0.000000 1.862050 0.000000 
#    z 0.000000 0.000000 1.607110 
# 
# From -- ./inp_files/24968.got.cif
#   From: 2010.05.17/outbox.cif.g08.bks.cpg/sg51_13_cif.got.tgz:24968.got - 2010.06.03 11:52:47.
