data_PCOD9404382
_publ_section_title
;
Structure prediction by ZEFSAII (Michael W. Deem and Ramdas Pophale) SiO2 
 PCOD9404382
Probable space group: P M M A
;
_chemical_formula_sum "Si O2"
_cell_formula_units_Z 56
_cell_length_a 20.396198
_cell_length_b 7.814056
_cell_length_c 16.247411
_cell_angle_alpha 90.000000
_cell_angle_beta 90.000000
_cell_angle_gamma 90.000000
_cell_volume 2589.464165
_symmetry_space_group_name_H-M "P M M A"
_symmetry_group_IT_number 51
_symmetry_cell_setting 'orthorhombic'
loop_
_space_group_symop_operation_xyz
x,y,z
1/2-x,-y,z
1/2+x,-y,-z
-x,y,-z
-x,-y,-z
1/2+x,y,-z
1/2-x,y,z
x,-y,z
loop_
_atom_site_type_symbol
_atom_site_label
_atom_site_fract_x
_atom_site_fract_y
_atom_site_fract_z
Si Si1 0.084351 0.698551 0.344424
Si Si2 0.542379 0.711377 0.257746
Si Si3 0.176868 0.801325 0.490135
Si Si4 0.324689 0.793046 0.004250
Si Si5 0.457883 0.297407 0.924789
Si Si6 0.173879 0.793294 0.192888
Si Si7 0.677665 0.301260 0.326772
O O1 0.077294 0.500000 0.365396
O O2 0.123981 0.779044 0.419228
O O3 0.126867 0.716217 0.261160
O O4 0.012737 0.768684 0.322058
O O5 0.541996 0.500000 0.258724
O O6 0.525454 0.769712 0.165554
O O7 0.614776 0.772719 0.281301
O O8 0.250000 0.751782 0.459333
O O9 0.164712 0.704650 0.575271
O O10 0.178787 0.000000 0.512895
O O11 0.250000 0.737983 0.985223
O O12 0.381323 0.727306 0.945055
O O13 0.325249 0.000000 0.002589
O O14 0.340371 0.740588 0.098711
O O15 0.471460 0.500000 0.921946
O O16 0.500000 0.222319 0.000000
O O17 0.250000 0.749702 0.209527
O O18 0.168554 0.000000 0.197162
O O19 0.750000 0.224372 0.312283
O O20 0.681141 0.500000 0.302069
#
# Coordination Sequence:
#
# PCOD9404382 Si02
#       7
#     8   8   8   8   8   8   8
#     4  11  21  33  52  78 109 141 175 214 255 309
#     4   9  20  36  53  78 109 139 172 217 270 310
#     4  10  21  37  56  79 109 140 169 209 261 310
#     4   9  19  35  53  75 104 138 178 224 272 321
#     4  10  20  35  55  79 109 143 180 222 268 320
#     4   9  18  33  51  72 104 143 178 217 265 311
#     4   9  18  36  60  79  98 132 179 221 257 308
#
# _framework density 21.626094999999999
#
# number of rings (size 3 to 8) (size 9 to 14) (size 15 to 20)
#    0.000    2.429    0.000    3.000    0.000    6.286 
#    0.000    9.286    0.000    1.714    0.000    0.000 
#    0.000    0.000    0.000    0.000    0.000    0.000 
#
# Total GULP energy -312707.476202 kJ/mol
# GULP energy per Si atom -5584.062075 kJ/mol
# Density = 2.157687 g / cm^3
# Si number density = 21.626095 Si / 1000 Ang^3
#
#
#
# Elastic Constant Matrix: (Units=GPa)
#
#
# Indices 1 2 3 4 5 6 
#
# 1 96.7328 -0.4928 43.0170 0.0000 0.0000 0.0000
# 2 -0.4928 28.1309 0.1679 0.0000 0.0000 0.0000
# 3 43.0170 0.1679 50.2981 0.0000 0.0000 0.0000
# 4 0.0000 0.0000 0.0000 -11.1538 0.0000 0.0000
# 5 0.0000 0.0000 0.0000 0.0000 37.4428 0.0000
# 6 0.0000 0.0000 0.0000 0.0000 0.0000 54.9792
#
#
#
# Elastic Compliance Matrix: (Units=1/GPa)
#
#
# Indices 1 2 3 4 5 6 
#
# 1 0.016687 0.000377 -0.014272 0.000000 0.000000 0.000000
# 2 0.000377 0.035557 -0.000441 0.000000 0.000000 0.000000
# 3 -0.014272 -0.000441 0.032089 0.000000 0.000000 0.000000
# 4 0.000000 0.000000 0.000000 -0.089656 0.000000 0.000000
# 5 0.000000 0.000000 0.000000 0.000000 0.026707 0.000000
# 6 0.000000 0.000000 0.000000 0.000000 0.000000 0.018189
#
#
# Mechanical properties :
#
#
# Convention : Reuss Voigt Hill
#
# Bulk Modulus (GPa) = 17.96607 28.94954 23.45781
# Shear Modulus (GPa) = 57.60394 25.08496 41.34445
#
# Velocity S-wave (km/s) = 5.16664 3.40948 4.37714
# Velocity P-wave (km/s) = 6.62705 5.37726 6.03460
#
# Compressibility (1/GPa) = 0.05566046
#
# Stress axis : x y z
#
# Youngs Moduli (GPa) = 59.92850 28.12360 31.16316
#
# Poissons Ratio (x) = -0.01062 0.44477
# Poissons Ratio (y) = -0.02262 0.01376
# Poissons Ratio (z) = 0.85532 0.01242
#
# Static dielectric constant tensor:
#      x y z
#    x 1.797390 0.000000 0.000000 
#    y 0.000000 1.784230 0.000000 
#    z 0.000000 0.000000 1.752810 
# 
# From -- ./inp_files/25623.got.cif
#   From: 2010.05.17/outbox.cif.g08.bks.cpg/sg51_13_cif.got.tgz:25623.got - 2010.06.03 11:52:47.
