data_PCOD9404131
_publ_section_title
;
Structure prediction by ZEFSAII (Michael W. Deem and Ramdas Pophale) SiO2 
 PCOD9404131
Probable space group: P M M A
;
_chemical_formula_sum "Si O2"
_cell_formula_units_Z 48
_cell_length_a 23.805039
_cell_length_b 8.513704
_cell_length_c 10.999228
_cell_angle_alpha 90.000000
_cell_angle_beta 90.000000
_cell_angle_gamma 90.000000
_cell_volume 2229.203153
_symmetry_space_group_name_H-M "P M M A"
_symmetry_group_IT_number 51
_symmetry_cell_setting 'orthorhombic'
loop_
_space_group_symop_operation_xyz
x,y,z
1/2-x,-y,z
1/2+x,-y,-z
-x,y,-z
-x,-y,-z
1/2+x,y,-z
1/2-x,y,z
x,-y,z
loop_
_atom_site_type_symbol
_atom_site_label
_atom_site_fract_x
_atom_site_fract_y
_atom_site_fract_z
Si Si1 0.185225 0.813258 0.836110
Si Si2 0.868466 0.685559 0.918809
Si Si3 0.184623 0.814329 0.324965
Si Si4 0.977653 0.816505 0.812482
Si Si5 0.922522 0.683415 0.573504
Si Si6 0.915152 0.313334 0.299366
O O1 0.250000 0.767293 0.816935
O O2 0.143768 0.769136 0.726913
O O3 0.183388 0.000000 0.856418
O O4 0.159141 0.728632 0.953621
O O5 0.865508 0.500000 0.896772
O O6 0.834138 0.774114 0.812661
O O7 0.933235 0.739082 0.904311
O O8 0.250000 0.779621 0.341454
O O9 0.143879 0.712084 0.409133
O O10 0.175441 0.000000 0.346784
O O11 0.949929 0.786186 0.679464
O O12 0.038760 0.740994 0.798408
O O13 0.982284 0.000000 0.837946
O O14 0.936714 0.500000 0.595736
O O15 0.936758 0.724040 0.435255
O O16 0.908158 0.500000 0.292679
#
# Coordination Sequence:
#
# PCOD9404131 Si02
#       6
#     8   8   8   8   8   8
#     4  11  25  44  64  87 118 156 198 242 289 345
#     4  11  22  38  62  89 118 152 193 242 296 351
#     4  10  20  34  55  84 117 153 196 246 296 347
#     4  11  22  38  63  92 121 153 193 241 294 349
#     4  10  21  37  58  85 119 157 196 242 294 347
#     4  11  24  41  61  87 120 157 198 241 288 347
#
# _framework density 21.532357999999999
#
# number of rings (size 3 to 8) (size 9 to 14) (size 15 to 20)
#    0.000    1.333    0.000    8.000    0.000   10.667 
#    0.000    6.667    0.000    0.000    0.000    0.000 
#    0.000    0.000    0.000    0.000    0.000    0.000 
#
# Total GULP energy -268562.163211 kJ/mol
# GULP energy per Si atom -5595.045067 kJ/mol
# Density = 2.148335 g / cm^3
# Si number density = 21.532358 Si / 1000 Ang^3
#
#
#
# Elastic Constant Matrix: (Units=GPa)
#
#
# Indices 1 2 3 4 5 6 
#
# 1 73.7417 -3.3558 24.6520 0.0000 0.0000 0.0000
# 2 -3.3558 42.4099 7.1776 0.0000 0.0000 0.0000
# 3 24.6520 7.1776 39.4339 0.0000 0.0000 0.0000
# 4 0.0000 0.0000 0.0000 28.5575 0.0000 0.0000
# 5 0.0000 0.0000 0.0000 0.0000 26.3277 0.0000
# 6 0.0000 0.0000 0.0000 0.0000 0.0000 23.1291
#
#
#
# Elastic Compliance Matrix: (Units=1/GPa)
#
#
# Indices 1 2 3 4 5 6 
#
# 1 0.017595 0.003357 -0.011611 0.000000 0.000000 0.000000
# 2 0.003357 0.024969 -0.006644 0.000000 0.000000 0.000000
# 3 -0.011611 -0.006644 0.033826 0.000000 0.000000 0.000000
# 4 0.000000 0.000000 0.000000 0.035017 0.000000 0.000000
# 5 0.000000 0.000000 0.000000 0.000000 0.037983 0.000000
# 6 0.000000 0.000000 0.000000 0.000000 0.000000 0.043236
#
#
# Mechanical properties :
#
#
# Convention : Reuss Voigt Hill
#
# Bulk Modulus (GPa) = 21.46057 23.61479 22.53768
# Shear Modulus (GPa) = 21.01259 24.07699 22.54479
#
# Velocity S-wave (km/s) = 3.12727 3.34754 3.23928
# Velocity P-wave (km/s) = 4.79875 5.09238 4.94774
#
# Compressibility (1/GPa) = 0.04659709
#
# Stress axis : x y z
#
# Youngs Moduli (GPa) = 56.83408 40.04894 29.56267
#
# Poissons Ratio (x) = -0.13446 0.34324
# Poissons Ratio (y) = -0.19081 0.19640
# Poissons Ratio (z) = 0.65988 0.26607
#
# Static dielectric constant tensor:
#      x y z
#    x 1.797360 0.000000 0.000000 
#    y 0.000000 1.712240 0.000000 
#    z 0.000000 0.000000 1.793700 
# 
# From -- ./inp_files/18589.got.cif
#   From: 2010.05.17/outbox.cif.g08.bks.cpg/sg51_10_cif.got.tgz:18589.got - 2010.06.03 11:52:47.
