data_PCOD9404672
_publ_section_title
;
Structure prediction by ZEFSAII (Michael W. Deem and Ramdas Pophale) SiO2 
 PCOD9404672
Probable space group: P M M A
;
_chemical_formula_sum "Si O2"
_cell_formula_units_Z 48
_cell_length_a 27.552005
_cell_length_b 14.693963
_cell_length_c 5.923607
_cell_angle_alpha 90.000000
_cell_angle_beta 90.000000
_cell_angle_gamma 90.000000
_cell_volume 2398.161288
_symmetry_space_group_name_H-M "P M M A"
_symmetry_group_IT_number 51
_symmetry_cell_setting 'orthorhombic'
loop_
_space_group_symop_operation_xyz
x,y,z
1/2-x,-y,z
1/2+x,-y,-z
-x,y,-z
-x,-y,-z
1/2+x,y,-z
1/2-x,y,z
x,-y,z
loop_
_atom_site_type_symbol
_atom_site_label
_atom_site_fract_x
_atom_site_fract_y
_atom_site_fract_z
Si Si1 0.621782 0.751962 0.213281
Si Si2 0.123456 0.603654 0.426350
Si Si3 0.956345 0.829852 0.867118
Si Si4 0.520949 0.366232 0.747657
Si Si5 0.692566 0.739581 0.832223
Si Si6 0.632886 0.104565 0.599650
O O1 0.607260 0.665216 0.361715
O O2 0.630176 0.839509 0.368919
O O3 0.580245 0.780670 0.040976
O O4 0.670908 0.728124 0.081687
O O5 0.135671 0.500000 0.482490
O O6 0.077376 0.605119 0.259730
O O7 0.167332 0.660652 0.316564
O O8 0.979962 0.743909 0.740458
O O9 0.920675 0.887521 0.711256
O O10 0.000000 0.878042 0.000000
O O11 0.500000 0.397678 0.500000
O O12 0.500000 0.391294 0.000000
O O13 0.750000 0.737484 0.819938
O O14 0.670420 0.835907 0.747555
O O15 0.646690 0.000000 0.576324
#
# Coordination Sequence:
#
# PCOD9404672 Si02
#       6
#     8   8   8   8   8   8
#     4  10  20  41  59  91 122 169 206 264 321 393
#     4  11  23  40  63  93 128 165 213 268 320 383
#     4  10  20  35  62  87 128 174 211 253 315 381
#     4  11  22  38  66  97 133 180 225 268 323 390
#     4  10  23  44  65  86 120 164 209 266 336 395
#     4  10  22  39  63  92 121 157 208 266 326 393
#
# _framework density 20.015332999999998
#
# number of rings (size 3 to 8) (size 9 to 14) (size 15 to 20)
#    0.000    1.667    5.000    2.000    0.000    7.667 
#    0.000    0.833    0.000    0.500    0.000    0.000 
#    0.000    0.000    0.000    0.000    0.000    0.000 
#
# Total GULP energy -267727.135051 kJ/mol
# GULP energy per Si atom -5577.648647 kJ/mol
# Density = 1.996978 g / cm^3
# Si number density = 20.015333 Si / 1000 Ang^3
#
#
#
# Elastic Constant Matrix: (Units=GPa)
#
#
# Indices 1 2 3 4 5 6 
#
# 1 103.0215 1.1074 27.5180 0.0000 0.0000 0.0000
# 2 1.1074 129.4631 28.0050 0.0000 0.0000 0.0000
# 3 27.5180 28.0050 106.4658 0.0000 0.0000 0.0000
# 4 0.0000 0.0000 0.0000 -30.2800 0.0000 0.0000
# 5 0.0000 0.0000 0.0000 0.0000 21.2281 0.0000
# 6 0.0000 0.0000 0.0000 0.0000 0.0000 -1.3515
#
#
#
# Elastic Compliance Matrix: (Units=1/GPa)
#
#
# Indices 1 2 3 4 5 6 
#
# 1 0.010460 0.000525 -0.002842 0.000000 0.000000 0.000000
# 2 0.000525 0.008217 -0.002297 0.000000 0.000000 0.000000
# 3 -0.002842 -0.002297 0.010731 0.000000 0.000000 0.000000
# 4 0.000000 0.000000 0.000000 -0.033025 0.000000 0.000000
# 5 0.000000 0.000000 0.000000 0.000000 0.047107 0.000000
# 6 0.000000 0.000000 0.000000 0.000000 0.000000 -0.739941
#
#
# Mechanical properties :
#
#
# Convention : Reuss Voigt Hill
#
# Bulk Modulus (GPa) = 49.55165 50.24570 49.89867
# Shear Modulus (GPa) = -7.34757 16.74067 4.69655
#
# Velocity S-wave (km/s) = -1.91806 2.89518 1.53348
# Velocity P-wave (km/s) = 4.46154 6.02779 5.30281
#
# Compressibility (1/GPa) = 0.02018096
#
# Stress axis : x y z
#
# Youngs Moduli (GPa) = 95.60112 121.70468 93.18428
#
# Poissons Ratio (x) = -0.06392 0.26481
# Poissons Ratio (y) = -0.05021 0.21405
# Poissons Ratio (z) = 0.27168 0.27956
#
# Static dielectric constant tensor:
#      x y z
#    x 1.712860 0.000000 0.000000 
#    y 0.000000 1.690270 0.000000 
#    z 0.000000 0.000000 1.784470 
# 
# From -- ./inp_files/3510.got.cif
#   From: 2010.05.17/outbox.cif.g08.bks.cpg/sg51_2_cif.got.tgz:3510.got - 2010.06.03 11:52:47.
