data_PCOD9404253
_publ_section_title
;
Structure prediction by ZEFSAII (Michael W. Deem and Ramdas Pophale) SiO2 
 PCOD9404253
Probable space group: P M M A
;
_chemical_formula_sum "Si O2"
_cell_formula_units_Z 56
_cell_length_a 14.025961
_cell_length_b 8.474618
_cell_length_c 21.054099
_cell_angle_alpha 90.000000
_cell_angle_beta 90.000000
_cell_angle_gamma 90.000000
_cell_volume 2502.588352
_symmetry_space_group_name_H-M "P M M A"
_symmetry_group_IT_number 51
_symmetry_cell_setting 'orthorhombic'
loop_
_space_group_symop_operation_xyz
x,y,z
1/2-x,-y,z
1/2+x,-y,-z
-x,y,-z
-x,-y,-z
1/2+x,y,-z
1/2-x,y,z
x,-y,z
loop_
_atom_site_type_symbol
_atom_site_label
_atom_site_fract_x
_atom_site_fract_y
_atom_site_fract_z
Si Si1 0.365953 0.182455 0.528251
Si Si2 0.648931 0.685789 0.119457
Si Si3 0.434733 0.686794 0.141702
Si Si4 0.113117 0.179046 0.012442
Si Si5 0.134857 0.320349 0.394616
Si Si6 0.951894 0.184852 0.729550
Si Si7 0.641594 0.806909 0.330636
O O1 0.250000 0.183618 0.527385
O O2 0.398545 0.269225 0.464793
O O3 0.388808 0.246250 0.598364
O O4 0.395670 0.000000 0.524771
O O5 0.750000 0.753468 0.144773
O O6 0.647985 0.500000 0.134100
O O7 0.545067 0.749969 0.139177
O O8 0.651113 0.711014 0.043364
O O9 0.436658 0.500000 0.130268
O O10 0.375814 0.763963 0.084542
O O11 0.402280 0.725230 0.212677
O O12 0.146281 0.000000 0.004117
O O13 0.000000 0.179855 0.000000
O O14 0.250000 0.313352 0.395408
O O15 0.105929 0.500000 0.381553
O O16 0.098054 0.211814 0.337979
O O17 0.060766 0.242854 0.718372
O O18 0.953186 0.000000 0.744722
O O19 0.750000 0.756127 0.317496
O O20 0.641795 0.000000 0.332482
#
# Coordination Sequence:
#
# PCOD9404253 Si02
#       7
#     8   8   8   8   8   8   8
#     4   8  14  29  54  78 100 131 173 220 268 318
#     4   9  18  33  54  80 108 138 171 206 249 303
#     4  10  20  35  53  73 104 143 176 208 252 307
#     4   9  17  31  52  76 100 127 163 206 247 287
#     4  10  21  37  55  75 102 135 173 222 278 330
#     4  11  22  35  54  79 107 142 183 223 263 312
#     4   8  16  32  53  78 108 141 177 217 263 317
#
# _framework density 22.376833000000001
#
# number of rings (size 3 to 8) (size 9 to 14) (size 15 to 20)
#    0.000    2.714    0.000    2.571    0.000    4.571 
#    0.000    5.000    0.000    7.286    0.000    0.000 
#    0.000    0.000    0.000    0.000    0.000    0.000 
#
# Total GULP energy -312511.763417 kJ/mol
# GULP energy per Si atom -5580.567204 kJ/mol
# Density = 2.232590 g / cm^3
# Si number density = 22.376833 Si / 1000 Ang^3
#
#
#
# Elastic Constant Matrix: (Units=GPa)
#
#
# Indices 1 2 3 4 5 6 
#
# 1 41.4578 -3.5943 -7.9444 0.0000 0.0000 0.0000
# 2 -3.5943 19.4324 -8.0501 0.0000 0.0000 0.0000
# 3 -7.9444 -8.0501 101.3957 0.0000 0.0000 0.0000
# 4 0.0000 0.0000 0.0000 39.8192 0.0000 0.0000
# 5 0.0000 0.0000 0.0000 0.0000 -9.3230 0.0000
# 6 0.0000 0.0000 0.0000 0.0000 0.0000 5.7522
#
#
#
# Elastic Compliance Matrix: (Units=1/GPa)
#
#
# Indices 1 2 3 4 5 6 
#
# 1 0.025072 0.005637 0.002412 0.000000 0.000000 0.000000
# 2 0.005637 0.054478 0.004767 0.000000 0.000000 0.000000
# 3 0.002412 0.004767 0.010430 0.000000 0.000000 0.000000
# 4 0.000000 0.000000 0.000000 0.025114 0.000000 0.000000
# 5 0.000000 0.000000 0.000000 0.000000 -0.107261 0.000000
# 6 0.000000 0.000000 0.000000 0.000000 0.000000 0.173846
#
#
# Mechanical properties :
#
#
# Convention : Reuss Voigt Hill
#
# Bulk Modulus (GPa) = 8.64978 13.67870 11.16424
# Shear Modulus (GPa) = 25.69586 19.37466 22.53526
#
# Velocity S-wave (km/s) = 3.39237 2.94570 3.17690
# Velocity P-wave (km/s) = 4.38385 4.20662 4.29615
#
# Compressibility (1/GPa) = 0.11560984
#
# Stress axis : x y z
#
# Youngs Moduli (GPa) = 39.88550 18.35610 95.87941
#
# Poissons Ratio (x) = -0.10347 -0.23125
# Poissons Ratio (y) = -0.22482 -0.45704
# Poissons Ratio (z) = -0.09620 -0.08750
#
# Static dielectric constant tensor:
#      x y z
#    x 1.929650 0.000000 0.000000 
#    y 0.000000 1.770650 0.000000 
#    z 0.000000 0.000000 1.811130 
# 
# From -- ./inp_files/33376.got.cif
#   From: 2010.05.17/outbox.cif.g08.bks.cpg/sg51_17_cif.got.tgz:33376.got - 2010.06.03 11:52:47.
