data_PCOD9404040
_publ_section_title
;
Structure prediction by ZEFSAII (Michael W. Deem and Ramdas Pophale) SiO2 
 PCOD9404040
Probable space group: P M M A
;
_chemical_formula_sum "Si O2"
_cell_formula_units_Z 56
_cell_length_a 14.114549
_cell_length_b 20.095875
_cell_length_c 9.495275
_cell_angle_alpha 90.000000
_cell_angle_beta 90.000000
_cell_angle_gamma 90.000000
_cell_volume 2693.279799
_symmetry_space_group_name_H-M "P M M A"
_symmetry_group_IT_number 51
_symmetry_cell_setting 'orthorhombic'
loop_
_space_group_symop_operation_xyz
x,y,z
1/2-x,-y,z
1/2+x,-y,-z
-x,y,-z
-x,-y,-z
1/2+x,y,-z
1/2-x,y,z
x,-y,z
loop_
_atom_site_type_symbol
_atom_site_label
_atom_site_fract_x
_atom_site_fract_y
_atom_site_fract_z
Si Si1 0.135001 0.425018 0.492584
Si Si2 0.472020 0.848685 0.649419
Si Si3 0.634971 0.692868 0.022850
Si Si4 0.100582 0.075123 0.918540
Si Si5 0.865143 0.710368 0.346619
Si Si6 0.865534 0.427006 0.832822
Si Si7 0.355200 0.820868 0.148231
O O1 0.250000 0.425950 0.497798
O O2 0.105829 0.500000 0.542514
O O3 0.107291 0.357287 0.571595
O O4 0.105898 0.418166 0.329420
O O5 0.500000 0.881180 0.500000
O O6 0.412251 0.890839 0.765202
O O7 0.417355 0.779382 0.615465
O O8 0.570581 0.836519 0.730883
O O9 0.750000 0.692241 0.022351
O O10 0.608505 0.697524 0.184325
O O11 0.601653 0.629101 0.938117
O O12 0.606678 0.757345 0.935789
O O13 0.137041 0.000000 0.904805
O O14 0.152721 0.122652 0.028712
O O15 0.000000 0.070875 0.000000
O O16 0.750000 0.718508 0.359101
O O17 0.750000 0.425392 0.831610
O O18 0.895045 0.500000 0.880144
O O19 0.250000 0.806903 0.205357
#
# Coordination Sequence:
#
# PCOD9404040 Si02
#       7
#     8   8   8   8   8   8   8
#     4   8  15  28  47  74 110 154 201 248 306 374
#     4  11  24  38  58  92 128 163 202 245 305 363
#     4   9  17  29  50  78 107 145 192 246 298 345
#     4   9  19  39  65  89 117 154 193 237 288 350
#     4  10  20  34  54  82 120 160 202 254 308 366
#     4   8  14  25  43  72 108 146 193 245 299 360
#     4  10  21  39  61  88 120 159 206 250 297 359
#
# _framework density 20.792490999999998
#
# number of rings (size 3 to 8) (size 9 to 14) (size 15 to 20)
#    0.000    2.714    1.429    0.857    2.000    1.714 
#    0.000    2.857    0.000    1.286    0.000    4.000 
#    0.000    0.000    0.000    0.000    0.000    0.000 
#
# Total GULP energy -312397.562814 kJ/mol
# GULP energy per Si atom -5578.527907 kJ/mol
# Density = 2.074517 g / cm^3
# Si number density = 20.792491 Si / 1000 Ang^3
#
#
#
# Elastic Constant Matrix: (Units=GPa)
#
#
# Indices 1 2 3 4 5 6 
#
# 1 81.3789 15.6059 13.7414 0.0000 0.0000 0.0000
# 2 15.6059 107.8284 29.8014 0.0000 0.0000 0.0000
# 3 13.7414 29.8014 83.7500 0.0000 0.0000 0.0000
# 4 0.0000 0.0000 0.0000 42.3235 0.0000 0.0000
# 5 0.0000 0.0000 0.0000 0.0000 13.2912 0.0000
# 6 0.0000 0.0000 0.0000 0.0000 0.0000 9.2186
#
#
#
# Elastic Compliance Matrix: (Units=1/GPa)
#
#
# Indices 1 2 3 4 5 6 
#
# 1 0.012830 -0.001414 -0.001602 0.000000 0.000000 0.000000
# 2 -0.001414 0.010441 -0.003483 0.000000 0.000000 0.000000
# 3 -0.001602 -0.003483 0.013443 0.000000 0.000000 0.000000
# 4 0.000000 0.000000 0.000000 0.023628 0.000000 0.000000
# 5 0.000000 0.000000 0.000000 0.000000 0.075238 0.000000
# 6 0.000000 0.000000 0.000000 0.000000 0.000000 0.108477
#
#
# Mechanical properties :
#
#
# Convention : Reuss Voigt Hill
#
# Bulk Modulus (GPa) = 42.16725 43.47273 42.81999
# Shear Modulus (GPa) = 18.87078 27.22057 23.04567
#
# Velocity S-wave (km/s) = 3.01587 3.62215 3.33282
# Velocity P-wave (km/s) = 5.69661 6.20053 5.95390
#
# Compressibility (1/GPa) = 0.02371509
#
# Stress axis : x y z
#
# Youngs Moduli (GPa) = 77.94313 95.77263 74.39001
#
# Poissons Ratio (x) = 0.13543 0.11916
# Poissons Ratio (y) = 0.11022 0.25913
# Poissons Ratio (z) = 0.12486 0.33362
#
# Static dielectric constant tensor:
#      x y z
#    x 1.804340 0.000000 0.000000 
#    y 0.000000 1.741100 0.000000 
#    z 0.000000 0.000000 1.708350 
# 
# From -- ./inp_files/8471.got.cif
#   From: 2010.05.17/outbox.cif.g08.bks.cpg/sg51_5_cif.got.tgz:8471.got - 2010.06.03 11:52:47.
