data_PCOD9404870
_publ_section_title
;
Structure prediction by ZEFSAII (Michael W. Deem and Ramdas Pophale) SiO2 
 PCOD9404870
Probable space group: P M M A
;
_chemical_formula_sum "Si O2"
_cell_formula_units_Z 48
_cell_length_a 16.494458
_cell_length_b 8.655953
_cell_length_c 18.543624
_cell_angle_alpha 90.000000
_cell_angle_beta 90.000000
_cell_angle_gamma 90.000000
_cell_volume 2647.570612
_symmetry_space_group_name_H-M "P M M A"
_symmetry_group_IT_number 51
_symmetry_cell_setting 'orthorhombic'
loop_
_space_group_symop_operation_xyz
x,y,z
1/2-x,-y,z
1/2+x,-y,-z
-x,y,-z
-x,-y,-z
1/2+x,y,-z
1/2-x,y,z
x,-y,z
loop_
_atom_site_type_symbol
_atom_site_label
_atom_site_fract_x
_atom_site_fract_y
_atom_site_fract_z
Si Si1 0.411928 0.315098 0.221194
Si Si2 0.158893 0.185128 0.835221
Si Si3 0.250000 0.816714 0.288643
Si Si4 0.437540 0.815222 0.693533
Si Si5 0.750000 0.684222 0.549644
Si Si6 0.410467 0.813414 0.529117
Si Si7 0.508738 0.685679 0.081476
O O1 0.402552 0.500000 0.220649
O O2 0.329336 0.236986 0.245626
O O3 0.482084 0.268880 0.277945
O O4 0.443563 0.262970 0.142003
O O5 0.250000 0.237399 0.847710
O O6 0.130885 0.215678 0.753268
O O7 0.095005 0.264921 0.887124
O O8 0.154597 0.000000 0.845348
O O9 0.250000 0.740964 0.367784
O O10 0.250000 0.000000 0.297395
O O11 0.410445 0.771402 0.613653
O O12 0.453896 0.000000 0.693204
O O13 0.750000 0.500000 0.547530
O O14 0.667425 0.744716 0.511563
O O15 0.500000 0.767815 0.500000
O O16 0.405125 0.000000 0.522551
O O17 0.503761 0.500000 0.079600
O O18 0.500000 0.744586 0.000000
#
# Coordination Sequence:
#
# PCOD9404870 Si02
#       7
#     8   8   4   8   4   8   8
#     4  10  20  36  59  85 113 146 186 232 281 329
#     4   9  18  32  52  80 110 144 185 227 269 317
#     4  12  24  40  60  80 109 146 193 236 277 338
#     4   9  18  33  56  80 111 151 190 228 274 331
#     4  12  26  40  58  86 119 152 189 242 297 340
#     4  10  21  37  58  84 114 152 195 236 283 342
#     4   9  19  37  58  81 112 148 182 218 270 334
#
# _framework density 18.129828
#
# number of rings (size 3 to 8) (size 9 to 14) (size 15 to 20)
#    0.000    2.167    0.000    3.000    1.167    3.667 
#    1.500    0.000    0.000    0.000    0.000    0.000 
#    0.000    0.000    0.000    0.000    0.000    0.000 
#
# Total GULP energy -267899.018762 kJ/mol
# GULP energy per Si atom -5581.229558 kJ/mol
# Density = 1.808856 g / cm^3
# Si number density = 18.129828 Si / 1000 Ang^3
#
#
#
# Elastic Constant Matrix: (Units=GPa)
#
#
# Indices 1 2 3 4 5 6 
#
# 1 142.6994 36.6333 91.7586 0.0000 0.0000 0.0000
# 2 36.6333 35.3350 37.9473 0.0000 0.0000 0.0000
# 3 91.7586 37.9473 165.1194 0.0000 0.0000 0.0000
# 4 0.0000 0.0000 0.0000 16.3823 0.0000 0.0000
# 5 0.0000 0.0000 0.0000 0.0000 9.3597 0.0000
# 6 0.0000 0.0000 0.0000 0.0000 0.0000 37.4440
#
#
#
# Elastic Compliance Matrix: (Units=1/GPa)
#
#
# Indices 1 2 3 4 5 6 
#
# 1 0.012102 -0.007069 -0.005101 0.000000 0.000000 0.000000
# 2 -0.007069 0.041703 -0.005656 0.000000 0.000000 0.000000
# 3 -0.005101 -0.005656 0.010191 0.000000 0.000000 0.000000
# 4 0.000000 0.000000 0.000000 0.061042 0.000000 0.000000
# 5 0.000000 0.000000 0.000000 0.000000 0.106841 0.000000
# 6 0.000000 0.000000 0.000000 0.000000 0.000000 0.026707
#
#
# Mechanical properties :
#
#
# Convention : Reuss Voigt Hill
#
# Bulk Modulus (GPa) = 35.27970 75.09247 55.18608
# Shear Modulus (GPa) = 16.46438 24.42482 20.44460
#
# Velocity S-wave (km/s) = 3.01680 3.67443 3.36173
# Velocity P-wave (km/s) = 5.62463 7.71434 6.75084
#
# Compressibility (1/GPa) = 0.02834491
#
# Stress axis : x y z
#
# Youngs Moduli (GPa) = 82.62779 23.97885 98.12954
#
# Poissons Ratio (x) = 0.16951 0.50054
# Poissons Ratio (y) = 0.58411 0.55500
# Poissons Ratio (z) = 0.42147 0.13562
#
# Static dielectric constant tensor:
#      x y z
#    x 1.596660 0.000000 0.000000 
#    y 0.000000 1.617520 0.000000 
#    z 0.000000 0.000000 1.618060 
# 
# From -- ./inp_files/29616.got.cif
#   From: 2010.05.17/outbox.cif.g08.bks.cpg/sg51_15_cif.got.tgz:29616.got - 2010.06.03 11:52:47.
