data_PCOD9404492
_publ_section_title
;
Structure prediction by ZEFSAII (Michael W. Deem and Ramdas Pophale) SiO2 
 PCOD9404492
Probable space group: P M M A
;
_chemical_formula_sum "Si O2"
_cell_formula_units_Z 56
_cell_length_a 14.456473
_cell_length_b 15.512261
_cell_length_c 12.070417
_cell_angle_alpha 90.000000
_cell_angle_beta 90.000000
_cell_angle_gamma 90.000000
_cell_volume 2706.822182
_symmetry_space_group_name_H-M "P M M A"
_symmetry_group_IT_number 51
_symmetry_cell_setting 'orthorhombic'
loop_
_space_group_symop_operation_xyz
x,y,z
1/2-x,-y,z
1/2+x,-y,-z
-x,y,-z
-x,-y,-z
1/2+x,y,-z
1/2-x,y,z
x,-y,z
loop_
_atom_site_type_symbol
_atom_site_label
_atom_site_fract_x
_atom_site_fract_y
_atom_site_fract_z
Si Si1 0.649998 0.905524 0.113410
Si Si2 0.994530 0.835942 0.736890
Si Si3 0.859354 0.404438 0.815913
Si Si4 0.857500 0.741826 0.387263
Si Si5 0.637672 0.400976 0.566922
Si Si6 0.901921 0.761578 0.942711
Si Si7 0.854961 0.900858 0.552816
O O1 0.750000 0.901125 0.171751
O O2 0.565804 0.897298 0.198180
O O3 0.643404 0.000000 0.058361
O O4 0.647365 0.827978 0.025291
O O5 0.063487 0.757521 0.703417
O O6 0.918266 0.807326 0.825482
O O7 0.937387 0.876155 0.636113
O O8 0.750000 0.413213 0.800515
O O9 0.897002 0.500000 0.842821
O O10 0.893937 0.378804 0.692208
O O11 0.868752 0.333052 0.910146
O O12 0.750000 0.725916 0.351071
O O13 0.887845 0.667293 0.472891
O O14 0.857717 0.832004 0.454239
O O15 0.750000 0.398319 0.566623
O O16 0.610470 0.500000 0.543745
O O17 0.000000 0.749622 0.000000
O O18 0.750000 0.892605 0.601903
O O19 0.865500 0.000000 0.516803
#
# Coordination Sequence:
#
# PCOD9404492 Si02
#       7
#     8   8   8   8   8   8   8
#     4  10  22  40  61  84 110 142 182 230 284 338
#     4  11  22  36  56  82 112 146 184 227 274 328
#     4   9  17  32  56  81 104 137 182 228 274 325
#     4  10  20  35  56  82 115 151 185 224 270 324
#     4   8  15  30  54  83 112 143 180 221 266 319
#     4  10  22  36  52  76 107 141 179 228 279 329
#     4  10  22  37  53  78 111 147 186 225 269 324
#
# _framework density 20.688468
#
# number of rings (size 3 to 8) (size 9 to 14) (size 15 to 20)
#    0.000    2.286    0.000    3.429    0.000    7.429 
#    0.000    3.571    0.000    4.286    0.000    8.000 
#    0.000    0.000    0.000    0.000    0.000    1.143 
#
# Total GULP energy -312158.724151 kJ/mol
# GULP energy per Si atom -5574.262931 kJ/mol
# Density = 2.064138 g / cm^3
# Si number density = 20.688468 Si / 1000 Ang^3
#
#
#
# Elastic Constant Matrix: (Units=GPa)
#
#
# Indices 1 2 3 4 5 6 
#
# 1 73.9954 12.1794 3.1757 0.0000 0.0000 0.0000
# 2 12.1794 80.8415 15.7818 0.0000 0.0000 0.0000
# 3 3.1757 15.7818 28.1010 0.0000 0.0000 0.0000
# 4 0.0000 0.0000 0.0000 -17.0487 0.0000 0.0000
# 5 0.0000 0.0000 0.0000 0.0000 75.6273 0.0000
# 6 0.0000 0.0000 0.0000 0.0000 0.0000 31.6546
#
#
#
# Elastic Compliance Matrix: (Units=1/GPa)
#
#
# Indices 1 2 3 4 5 6 
#
# 1 0.013863 -0.002002 -0.000442 0.000000 0.000000 0.000000
# 2 -0.002002 0.014182 -0.007739 0.000000 0.000000 0.000000
# 3 -0.000442 -0.007739 0.039982 0.000000 0.000000 0.000000
# 4 0.000000 0.000000 0.000000 -0.058655 0.000000 0.000000
# 5 0.000000 0.000000 0.000000 0.000000 0.013223 0.000000
# 6 0.000000 0.000000 0.000000 0.000000 0.000000 0.031591
#
#
# Mechanical properties :
#
#
# Convention : Reuss Voigt Hill
#
# Bulk Modulus (GPa) = 20.98147 27.24574 24.11361
# Shear Modulus (GPa) = 55.28603 28.16668 41.72636
#
# Velocity S-wave (km/s) = 5.17505 3.69381 4.49585
# Velocity P-wave (km/s) = 6.77287 5.60272 6.21539
#
# Compressibility (1/GPa) = 0.04766109
#
# Stress axis : x y z
#
# Youngs Moduli (GPa) = 72.13498 70.51057 25.01123
#
# Poissons Ratio (x) = 0.14118 0.01106
# Poissons Ratio (y) = 0.14443 0.19355
# Poissons Ratio (z) = 0.03190 0.54566
#
# Static dielectric constant tensor:
#      x y z
#    x 1.817760 0.000000 0.000000 
#    y 0.000000 1.766320 0.000000 
#    z 0.000000 0.000000 1.768430 
# 
# From -- ./inp_files/16597.got.cif
#   From: 2010.05.17/outbox.cif.g08.bks.cpg/sg51_9_cif.got.tgz:16597.got - 2010.06.03 11:52:47.
