data_PCOD9404088
_publ_section_title
;
Structure prediction by ZEFSAII (Michael W. Deem and Ramdas Pophale) SiO2 
 PCOD9404088
Probable space group: P M M A
;
_chemical_formula_sum "Si O2"
_cell_formula_units_Z 48
_cell_length_a 8.675804
_cell_length_b 31.892460
_cell_length_c 9.610875
_cell_angle_alpha 90.000000
_cell_angle_beta 90.000000
_cell_angle_gamma 90.000000
_cell_volume 2659.259261
_symmetry_space_group_name_H-M "P M M A"
_symmetry_group_IT_number 51
_symmetry_cell_setting 'orthorhombic'
loop_
_space_group_symop_operation_xyz
x,y,z
1/2-x,-y,z
1/2+x,-y,-z
-x,y,-z
-x,-y,-z
1/2+x,y,-z
1/2-x,y,z
x,-y,z
loop_
_atom_site_type_symbol
_atom_site_label
_atom_site_fract_x
_atom_site_fract_y
_atom_site_fract_z
Si Si1 0.434227 0.800433 0.842490
Si Si2 0.934544 0.547302 0.344884
Si Si3 0.065552 0.620839 0.156113
Si Si4 0.564301 0.047891 0.848368
Si Si5 0.564377 0.875416 0.655499
Si Si6 0.934948 0.286614 0.842889
O O1 0.250000 0.801588 0.848918
O O2 0.499093 0.837449 0.747619
O O3 0.489893 0.755376 0.782911
O O4 0.500000 0.804482 0.000000
O O5 0.750000 0.549925 0.348883
O O6 0.976981 0.500000 0.297451
O O7 0.000000 0.552434 0.500000
O O8 0.999974 0.583318 0.247109
O O9 0.250000 0.618200 0.149505
O O10 0.026832 0.667324 0.216108
O O11 0.000000 0.618131 0.000000
O O12 0.750000 0.048209 0.856115
O O13 0.517716 0.081367 0.732505
O O14 0.514329 0.000000 0.818634
O O15 0.500000 0.059787 0.000000
O O16 0.500000 0.873785 0.500000
O O17 0.750000 0.873153 0.653021
O O18 0.750000 0.281840 0.845690
O O19 0.000000 0.288158 0.000000
#
# Coordination Sequence:
#
# PCOD9404088 Si02
#       6
#     8   8   8   8   8   8
#     4  11  21  35  57  82 108 141 181 222 265 315
#     4  10  21  37  56  77 104 140 180 221 266 318
#     4  10  20  34  55  82 111 141 175 219 267 317
#     4   9  19  36  58  83 109 139 178 222 266 315
#     4  11  23  38  55  78 111 146 181 223 271 321
#     4   9  17  31  52  79 108 138 175 218 266 316
#
# _framework density 18.050139999999999
#
# number of rings (size 3 to 8) (size 9 to 14) (size 15 to 20)
#    0.000    2.000    0.000    5.000    0.000    6.333 
#    0.000    0.833    0.000    4.000    0.000    0.000 
#    0.000    0.000    0.000    0.000    0.000    0.000 
#
# Total GULP energy -267873.434928 kJ/mol
# GULP energy per Si atom -5580.696561 kJ/mol
# Density = 1.800906 g / cm^3
# Si number density = 18.050140 Si / 1000 Ang^3
#
#
#
# Elastic Constant Matrix: (Units=GPa)
#
#
# Indices 1 2 3 4 5 6 
#
# 1 85.3672 65.0920 42.3004 0.0000 0.0000 0.0000
# 2 65.0920 174.7941 96.8748 0.0000 0.0000 0.0000
# 3 42.3004 96.8748 94.2026 0.0000 0.0000 0.0000
# 4 0.0000 0.0000 0.0000 -24.1613 0.0000 0.0000
# 5 0.0000 0.0000 0.0000 0.0000 30.9108 0.0000
# 6 0.0000 0.0000 0.0000 0.0000 0.0000 209.6324
#
#
#
# Elastic Compliance Matrix: (Units=1/GPa)
#
#
# Indices 1 2 3 4 5 6 
#
# 1 0.016619 -0.004774 -0.002554 0.000000 0.000000 0.000000
# 2 -0.004774 0.014674 -0.012947 0.000000 0.000000 0.000000
# 3 -0.002554 -0.012947 0.025076 0.000000 0.000000 0.000000
# 4 0.000000 0.000000 0.000000 -0.041389 0.000000 0.000000
# 5 0.000000 0.000000 0.000000 0.000000 0.032351 0.000000
# 6 0.000000 0.000000 0.000000 0.000000 0.000000 0.004770
#
#
# Mechanical properties :
#
#
# Convention : Reuss Voigt Hill
#
# Bulk Modulus (GPa) = 63.20547 84.76649 73.98598
# Shear Modulus (GPa) = 51.05969 53.28281 52.17125
#
# Velocity S-wave (km/s) = 5.32439 5.43906 5.38203
# Velocity P-wave (km/s) = 8.53765 9.30098 8.92748
#
# Compressibility (1/GPa) = 0.01582142
#
# Stress axis : x y z
#
# Youngs Moduli (GPa) = 60.17088 68.14725 39.87842
#
# Poissons Ratio (x) = 0.32531 0.10184
# Poissons Ratio (y) = 0.28723 0.51630
# Poissons Ratio (z) = 0.15366 0.88229
#
# Static dielectric constant tensor:
#      x y z
#    x 1.609190 0.000000 0.000000 
#    y 0.000000 1.654560 0.000000 
#    z 0.000000 0.000000 1.576200 
# 
# From -- ./inp_files/6028.got.cif
#   From: 2010.05.17/outbox.cif.g08.bks.cpg/sg51_4_cif.got.tgz:6028.got - 2010.06.03 11:52:47.
