data_PCOD9404207
_publ_section_title
;
Structure prediction by ZEFSAII (Michael W. Deem and Ramdas Pophale) SiO2 
 PCOD9404207
Probable space group: P M M A
;
_chemical_formula_sum "Si O2"
_cell_formula_units_Z 40
_cell_length_a 26.045256
_cell_length_b 11.180921
_cell_length_c 6.493365
_cell_angle_alpha 90.000000
_cell_angle_beta 90.000000
_cell_angle_gamma 90.000000
_cell_volume 1890.932495
_symmetry_space_group_name_H-M "P M M A"
_symmetry_group_IT_number 51
_symmetry_cell_setting 'orthorhombic'
loop_
_space_group_symop_operation_xyz
x,y,z
1/2-x,-y,z
1/2+x,-y,-z
-x,y,-z
-x,-y,-z
1/2+x,y,-z
1/2-x,y,z
x,-y,z
loop_
_atom_site_type_symbol
_atom_site_label
_atom_site_fract_x
_atom_site_fract_y
_atom_site_fract_z
Si Si1 0.910595 0.629535 0.173463
Si Si2 0.059109 0.137783 0.566137
Si Si3 0.190458 0.672765 0.579378
Si Si4 0.623245 0.734151 0.784031
Si Si5 0.805807 0.140016 0.108948
O O1 0.934294 0.500000 0.229137
O O2 0.932986 0.751711 0.273539
O O3 0.851480 0.622569 0.259103
O O4 0.910059 0.647071 0.927593
O O5 0.091224 0.182079 0.368368
O O6 0.000000 0.134373 0.500000
O O7 0.073295 0.000000 0.630708
O O8 0.250000 0.633534 0.587102
O O9 0.164513 0.664813 0.357315
O O10 0.189800 0.809876 0.659862
O O11 0.652534 0.812910 0.952124
O O12 0.750000 0.183453 0.033123
O O13 0.806805 0.000000 0.113166
#
# Coordination Sequence:
#
# PCOD9404207 Si02
#       5
#     8   8   8   8   8
#     4  10  23  41  61  89 123 157 197 244 293 349
#     4  10  23  43  66  91 117 149 194 248 304 360
#     4   9  19  35  54  80 117 159 200 241 285 337
#     4  10  20  34  57  84 116 155 196 240 291 350
#     4   9  17  29  48  78 114 151 194 241 288 343
#
# _framework density 21.153585
#
# number of rings (size 3 to 8) (size 9 to 14) (size 15 to 20)
#    0.000    2.400    0.000    1.200    0.000   14.400 
#    0.000    5.000    0.000    0.000    0.000    0.000 
#    0.000    0.000    0.000    0.000    0.000    0.000 
#
# Total GULP energy -222701.577903 kJ/mol
# GULP energy per Si atom -5567.539448 kJ/mol
# Density = 2.110544 g / cm^3
# Si number density = 21.153585 Si / 1000 Ang^3
#
#
#
# Elastic Constant Matrix: (Units=GPa)
#
#
# Indices 1 2 3 4 5 6 
#
# 1 58.4445 13.8045 1.5836 0.0000 0.0000 0.0000
# 2 13.8045 136.2909 32.3225 0.0000 0.0000 0.0000
# 3 1.5836 32.3225 86.4146 0.0000 0.0000 0.0000
# 4 0.0000 0.0000 0.0000 -26.8977 0.0000 0.0000
# 5 0.0000 0.0000 0.0000 0.0000 13.6332 0.0000
# 6 0.0000 0.0000 0.0000 0.0000 0.0000 -4.3616
#
#
#
# Elastic Compliance Matrix: (Units=1/GPa)
#
#
# Indices 1 2 3 4 5 6 
#
# 1 0.017541 -0.001866 0.000376 0.000000 0.000000 0.000000
# 2 -0.001866 0.008250 -0.003052 0.000000 0.000000 0.000000
# 3 0.000376 -0.003052 0.012707 0.000000 0.000000 0.000000
# 4 0.000000 0.000000 0.000000 -0.037178 0.000000 0.000000
# 5 0.000000 0.000000 0.000000 0.000000 0.073350 0.000000
# 6 0.000000 0.000000 0.000000 0.000000 0.000000 -0.229274
#
#
# Mechanical properties :
#
#
# Convention : Reuss Voigt Hill
#
# Bulk Modulus (GPa) = 33.99598 41.84126 37.91862
# Shear Modulus (GPa) = -36.84133 12.03740 -12.40196
#
# Velocity S-wave (km/s) = -4.17779 2.38806 -2.42395
# Velocity P-wave (km/s) = 2.67694 5.23703 3.18280
#
# Compressibility (1/GPa) = 0.02941524
#
# Stress axis : x y z
#
# Youngs Moduli (GPa) = 57.00999 121.21270 78.69897
#
# Poissons Ratio (x) = 0.22618 -0.02963
# Poissons Ratio (y) = 0.10638 0.24016
# Poissons Ratio (z) = -0.02146 0.36990
#
# Static dielectric constant tensor:
#      x y z
#    x 1.830460 0.000000 0.000000 
#    y 0.000000 1.841160 0.000000 
#    z 0.000000 0.000000 1.745830 
# 
# From -- ./inp_files/3389.got.cif
#   From: 2010.05.17/outbox.cif.g08.bks.cpg/sg51_2_cif.got.tgz:3389.got - 2010.06.03 11:52:47.
