data_PCOD9404152
_publ_section_title
;
Structure prediction by ZEFSAII (Michael W. Deem and Ramdas Pophale) SiO2 
 PCOD9404152
Probable space group: P M M A
;
_chemical_formula_sum "Si O2"
_cell_formula_units_Z 48
_cell_length_a 17.925732
_cell_length_b 7.749750
_cell_length_c 19.132908
_cell_angle_alpha 90.000000
_cell_angle_beta 90.000000
_cell_angle_gamma 90.000000
_cell_volume 2657.942461
_symmetry_space_group_name_H-M "P M M A"
_symmetry_group_IT_number 51
_symmetry_cell_setting 'orthorhombic'
loop_
_space_group_symop_operation_xyz
x,y,z
1/2-x,-y,z
1/2+x,-y,-z
-x,y,-z
-x,-y,-z
1/2+x,y,-z
1/2-x,y,z
x,-y,z
loop_
_atom_site_type_symbol
_atom_site_label
_atom_site_fract_x
_atom_site_fract_y
_atom_site_fract_z
Si Si1 0.165405 0.205467 0.710791
Si Si2 0.988585 0.500000 0.917652
Si Si3 0.164541 0.793547 0.409501
Si Si4 0.167424 0.500000 0.158977
Si Si5 0.456785 0.797617 0.818837
Si Si6 0.886593 0.798618 0.741664
Si Si7 0.664906 0.295683 0.440155
O O1 0.250000 0.276663 0.712147
O O2 0.113403 0.266345 0.773473
O O3 0.131945 0.236006 0.633461
O O4 0.169909 0.000000 0.719071
O O5 0.901338 0.500000 0.895042
O O6 0.025055 0.330603 0.882008
O O7 0.000000 0.500000 0.000000
O O8 0.250000 0.725035 0.406943
O O9 0.123219 0.741657 0.338686
O O10 0.130398 0.746978 0.484723
O O11 0.168319 0.000000 0.408141
O O12 0.250000 0.500000 0.127539
O O13 0.157434 0.668048 0.208316
O O14 0.528230 0.791043 0.767337
O O15 0.447182 0.000000 0.839178
O O16 0.862031 0.000000 0.747820
O O17 0.750000 0.221515 0.442140
O O18 0.669738 0.500000 0.436145
#
# Coordination Sequence:
#
# PCOD9404152 Si02
#       7
#     8   4   8   4   8   8   8
#     4   9  17  31  51  73  98 132 176 222 262 300
#     4  10  22  40  60  83 111 139 165 197 246 312
#     4   9  16  26  41  62  91 129 172 216 258 299
#     4  10  20  34  56  81 107 137 171 209 249 296
#     4   9  19  36  57  79 104 135 170 208 254 310
#     4   9  18  32  50  74 104 138 175 215 259 304
#     4   9  17  26  39  63  95 131 172 216 261 305
#
# _framework density 18.059080999999999
#
# number of rings (size 3 to 8) (size 9 to 14) (size 15 to 20)
#    0.000    2.833    0.000    1.000    2.333    3.333 
#    0.000    1.667    0.000    5.000    0.000    0.000 
#    0.000    0.000    0.000    0.000    0.000    0.000 
#
# Total GULP energy -267375.209582 kJ/mol
# GULP energy per Si atom -5570.316866 kJ/mol
# Density = 1.801798 g / cm^3
# Si number density = 18.059081 Si / 1000 Ang^3
#
#
#
# Elastic Constant Matrix: (Units=GPa)
#
#
# Indices 1 2 3 4 5 6 
#
# 1 48.4841 28.6311 57.7580 0.0000 0.0000 0.0000
# 2 28.6311 65.7547 48.3970 0.0000 0.0000 0.0000
# 3 57.7580 48.3970 169.8845 0.0000 0.0000 0.0000
# 4 0.0000 0.0000 0.0000 23.8714 0.0000 0.0000
# 5 0.0000 0.0000 0.0000 0.0000 8.4937 0.0000
# 6 0.0000 0.0000 0.0000 0.0000 0.0000 11.6456
#
#
#
# Elastic Compliance Matrix: (Units=1/GPa)
#
#
# Indices 1 2 3 4 5 6 
#
# 1 0.038470 -0.009014 -0.010511 0.000000 0.000000 0.000000
# 2 -0.009014 0.021355 -0.003019 0.000000 0.000000 0.000000
# 3 -0.010511 -0.003019 0.010320 0.000000 0.000000 0.000000
# 4 0.000000 0.000000 0.000000 0.041891 0.000000 0.000000
# 5 0.000000 0.000000 0.000000 0.000000 0.117734 0.000000
# 6 0.000000 0.000000 0.000000 0.000000 0.000000 0.085869
#
#
# Mechanical properties :
#
#
# Convention : Reuss Voigt Hill
#
# Bulk Modulus (GPa) = 39.90999 61.52173 50.71586
# Shear Modulus (GPa) = 13.54717 18.75797 16.15257
#
# Velocity S-wave (km/s) = 2.74187 3.22638 2.99395
# Velocity P-wave (km/s) = 5.67199 6.92967 6.33213
#
# Compressibility (1/GPa) = 0.02505638
#
# Stress axis : x y z
#
# Youngs Moduli (GPa) = 25.99409 46.82725 96.89866
#
# Poissons Ratio (x) = 0.42211 1.01853
# Poissons Ratio (y) = 0.23432 0.29253
# Poissons Ratio (z) = 0.27323 0.14137
#
# Static dielectric constant tensor:
#      x y z
#    x 1.651430 0.000000 0.000000 
#    y 0.000000 1.636550 0.000000 
#    z 0.000000 0.000000 1.604110 
# 
# From -- ./inp_files/24856.got.cif
#   From: 2010.05.17/outbox.cif.g08.bks.cpg/sg51_13_cif.got.tgz:24856.got - 2010.06.03 11:52:47.
