data_PCOD9404918
_publ_section_title
;
Structure prediction by ZEFSAII (Michael W. Deem and Ramdas Pophale) SiO2 
 PCOD9404918
Probable space group: P M M A
;
_chemical_formula_sum "Si O2"
_cell_formula_units_Z 56
_cell_length_a 8.881838
_cell_length_b 20.839222
_cell_length_c 15.874960
_cell_angle_alpha 90.000000
_cell_angle_beta 90.000000
_cell_angle_gamma 90.000000
_cell_volume 2938.305774
_symmetry_space_group_name_H-M "P M M A"
_symmetry_group_IT_number 51
_symmetry_cell_setting 'orthorhombic'
loop_
_space_group_symop_operation_xyz
x,y,z
1/2-x,-y,z
1/2+x,-y,-z
-x,y,-z
-x,-y,-z
1/2+x,y,-z
1/2-x,y,z
x,-y,z
loop_
_atom_site_type_symbol
_atom_site_label
_atom_site_fract_x
_atom_site_fract_y
_atom_site_fract_z
Si Si1 0.927076 0.600716 0.085680
Si Si2 0.927166 0.878467 0.913375
Si Si3 0.570344 0.073737 0.259050
Si Si4 0.065753 0.430060 0.725625
Si Si5 0.930747 0.292483 0.324052
Si Si6 0.425951 0.747677 0.868739
Si Si7 0.567587 0.167165 0.411519
O O1 0.750000 0.587035 0.082262
O O2 0.982113 0.575331 0.176193
O O3 0.946598 0.677822 0.090974
O O4 0.000000 0.576683 0.000000
O O5 0.750000 0.886828 0.917001
O O6 0.992979 0.910489 0.829394
O O7 0.970195 0.803204 0.904317
O O8 0.000000 0.902798 0.000000
O O9 0.750000 0.082443 0.247629
O O10 0.523003 0.121357 0.333895
O O11 0.542063 0.000000 0.282598
O O12 0.250000 0.427517 0.726385
O O13 0.021233 0.500000 0.692232
O O14 0.012452 0.365815 0.677975
O O15 0.750000 0.296303 0.334677
O O16 0.954216 0.263237 0.230679
O O17 0.986102 0.239634 0.389667
O O18 0.250000 0.766526 0.878976
O O19 0.500000 0.146036 0.500000
O O20 0.750000 0.166666 0.415624
#
# Coordination Sequence:
#
# PCOD9404918 Si02
#       7
#     8   8   8   8   8   8   8
#     4   9  17  26  40  63  94 131 172 223 273 317
#     4  12  24  36  55  82 113 149 189 232 276 321
#     4  10  22  42  64  83 110 149 185 222 271 324
#     4   8  14  25  43  68  95 130 178 222 262 314
#     4   8  14  28  51  74 102 139 174 219 271 317
#     4   9  16  31  51  71 100 138 182 229 275 321
#     4  10  20  36  60  88 115 142 177 220 273 332
#
# _framework density 19.058602
#
# number of rings (size 3 to 8) (size 9 to 14) (size 15 to 20)
#    0.000    2.571    1.429    3.429    0.000    3.429 
#    0.000    0.000    0.000    0.429    0.000    0.000 
#    0.000    0.000    0.000    0.000    0.000    0.000 
#
# Total GULP energy -312309.724209 kJ/mol
# GULP energy per Si atom -5576.959361 kJ/mol
# Density = 1.901522 g / cm^3
# Si number density = 19.058602 Si / 1000 Ang^3
#
#
#
# Elastic Constant Matrix: (Units=GPa)
#
#
# Indices 1 2 3 4 5 6 
#
# 1 19.8664 31.2936 30.2941 0.0000 0.0000 0.0000
# 2 31.2936 106.9532 52.4943 0.0000 0.0000 0.0000
# 3 30.2941 52.4943 100.2594 0.0000 0.0000 0.0000
# 4 0.0000 0.0000 0.0000 -47.5867 0.0000 0.0000
# 5 0.0000 0.0000 0.0000 0.0000 24.6585 0.0000
# 6 0.0000 0.0000 0.0000 0.0000 0.0000 3.7425
#
#
#
# Elastic Compliance Matrix: (Units=1/GPa)
#
#
# Indices 1 2 3 4 5 6 
#
# 1 0.129600 -0.025167 -0.025982 0.000000 0.000000 0.000000
# 2 -0.025167 0.017471 -0.001543 0.000000 0.000000 0.000000
# 3 -0.025982 -0.001543 0.018633 0.000000 0.000000 0.000000
# 4 0.000000 0.000000 0.000000 -0.021014 0.000000 0.000000
# 5 0.000000 0.000000 0.000000 0.000000 0.040554 0.000000
# 6 0.000000 0.000000 0.000000 0.000000 0.000000 0.267202
#
#
# Mechanical properties :
#
#
# Convention : Reuss Voigt Hill
#
# Bulk Modulus (GPa) = 16.57871 50.58258 33.58065
# Shear Modulus (GPa) = 8.65146 3.69598 6.17372
#
# Velocity S-wave (km/s) = 2.13290 1.39409 1.80177
# Velocity P-wave (km/s) = 3.84491 5.40273 4.68897
#
# Compressibility (1/GPa) = 0.06031833
#
# Stress axis : x y z
#
# Youngs Moduli (GPa) = 7.71605 57.23779 53.66878
#
# Poissons Ratio (x) = 1.44052 1.39444
# Poissons Ratio (y) = 0.19419 0.08281
# Poissons Ratio (z) = 0.20048 0.08832
#
# Static dielectric constant tensor:
#      x y z
#    x 1.637850 0.000000 0.000000 
#    y 0.000000 1.704770 0.000000 
#    z 0.000000 0.000000 1.655300 
# 
# From -- ./inp_files/21865.got.cif
#   From: 2010.05.17/outbox.cif.g08.bks.cpg/sg51_11_cif.got.tgz:21865.got - 2010.06.03 11:52:47.
