data_PCOD9404753
_publ_section_title
;
Structure prediction by ZEFSAII (Michael W. Deem and Ramdas Pophale) SiO2 
 PCOD9404753
Probable space group: P M M A
;
_chemical_formula_sum "Si O2"
_cell_formula_units_Z 64
_cell_length_a 26.711599
_cell_length_b 18.294816
_cell_length_c 7.115183
_cell_angle_alpha 90.000000
_cell_angle_beta 90.000000
_cell_angle_gamma 90.000000
_cell_volume 3477.074586
_symmetry_space_group_name_H-M "P M M A"
_symmetry_group_IT_number 51
_symmetry_cell_setting 'orthorhombic'
loop_
_space_group_symop_operation_xyz
x,y,z
1/2-x,-y,z
1/2+x,-y,-z
-x,y,-z
-x,-y,-z
1/2+x,y,-z
1/2-x,y,z
x,-y,z
loop_
_atom_site_type_symbol
_atom_site_label
_atom_site_fract_x
_atom_site_fract_y
_atom_site_fract_z
Si Si1 0.190628 0.414466 0.181533
Si Si2 0.445225 0.802310 0.452666
Si Si3 0.149332 0.301731 0.444749
Si Si4 0.192210 0.812017 0.167963
Si Si5 0.193340 0.086186 0.478801
Si Si6 0.552166 0.917311 0.883692
Si Si7 0.896789 0.085718 0.263879
Si Si8 0.309955 0.703894 0.860885
O O1 0.250000 0.406074 0.229792
O O2 0.181185 0.500000 0.153062
O O3 0.156457 0.379612 0.344880
O O4 0.181878 0.366577 0.993927
O O5 0.500000 0.772192 0.500000
O O6 0.403751 0.739495 0.426975
O O7 0.446861 0.854532 0.270514
O O8 0.430326 0.857180 0.622039
O O9 0.187806 0.251417 0.325572
O O10 0.164289 0.302827 0.661336
O O11 0.250000 0.830068 0.126168
O O12 0.171233 0.879483 0.287685
O O13 0.171252 0.773759 0.982057
O O14 0.250000 0.113544 0.507414
O O15 0.158540 0.100963 0.656519
O O16 0.195300 0.000000 0.454095
O O17 0.556305 0.000000 0.803123
O O18 0.500000 0.914686 0.000000
O O19 0.594273 0.907313 0.043273
O O20 0.908571 0.000000 0.309284
O O21 0.250000 0.711028 0.835793
#
# Coordination Sequence:
#
# PCOD9404753 Si02
#       8
#     8   8   8   8   8   8   8   8
#     4   9  19  37  62  94 125 149 182 226 271 330
#     4  12  24  38  55  82 115 150 193 249 300 345
#     4  11  21  35  56  82 117 155 184 221 283 344
#     4   9  17  32  52  78 109 144 187 234 278 328
#     4   9  17  32  53  76 107 149 194 238 285 342
#     4  10  21  38  61  83 107 143 195 257 315 358
#     4  10  20  36  57  81 108 147 195 247 305 352
#     4   9  18  33  56  85 116 149 187 224 270 334
#
# _framework density 18.406279000000001
#
# number of rings (size 3 to 8) (size 9 to 14) (size 15 to 20)
#    0.000    2.125    2.500    2.250    0.000    3.000 
#    0.000    1.250    0.000    3.375    0.000    7.875 
#    0.000    0.000    0.000    0.000    0.000    0.000 
#
# Total GULP energy -357112.131312 kJ/mol
# GULP energy per Si atom -5579.877052 kJ/mol
# Density = 1.836439 g / cm^3
# Si number density = 18.406279 Si / 1000 Ang^3
#
#
#
# Elastic Constant Matrix: (Units=GPa)
#
#
# Indices 1 2 3 4 5 6 
#
# 1 69.1664 40.7654 34.7107 0.0000 0.0000 0.0000
# 2 40.7654 84.3175 45.9282 0.0000 0.0000 0.0000
# 3 34.7107 45.9282 118.4016 0.0000 0.0000 0.0000
# 4 0.0000 0.0000 0.0000 18.5162 0.0000 0.0000
# 5 0.0000 0.0000 0.0000 0.0000 21.8223 0.0000
# 6 0.0000 0.0000 0.0000 0.0000 0.0000 22.0572
#
#
#
# Elastic Compliance Matrix: (Units=1/GPa)
#
#
# Indices 1 2 3 4 5 6 
#
# 1 0.020928 -0.008592 -0.002803 0.000000 0.000000 0.000000
# 2 -0.008592 0.018564 -0.004682 0.000000 0.000000 0.000000
# 3 -0.002803 -0.004682 0.011084 0.000000 0.000000 0.000000
# 4 0.000000 0.000000 0.000000 0.054007 0.000000 0.000000
# 5 0.000000 0.000000 0.000000 0.000000 0.045825 0.000000
# 6 0.000000 0.000000 0.000000 0.000000 0.000000 0.045337
#
#
# Mechanical properties :
#
#
# Convention : Reuss Voigt Hill
#
# Bulk Modulus (GPa) = 54.28024 57.18826 55.73425
# Shear Modulus (GPa) = 21.36399 22.51120 21.93760
#
# Velocity S-wave (km/s) = 3.41059 3.50096 3.45607
# Velocity P-wave (km/s) = 6.71294 6.89055 6.80233
#
# Compressibility (1/GPa) = 0.01842291
#
# Stress axis : x y z
#
# Youngs Moduli (GPa) = 47.78267 53.86684 90.22214
#
# Poissons Ratio (x) = 0.46280 0.25286
# Poissons Ratio (y) = 0.41053 0.42246
# Poissons Ratio (z) = 0.13392 0.25223
#
# Static dielectric constant tensor:
#      x y z
#    x 1.702020 0.000000 0.000000 
#    y 0.000000 1.648600 0.000000 
#    z 0.000000 0.000000 1.644170 
# 
# From -- ./inp_files/4110.got.cif
#   From: 2010.05.17/outbox.cif.g08.bks.cpg/sg51_3_cif.got.tgz:4110.got - 2010.06.03 11:52:47.
