data_PCOD9404526
_publ_section_title
;
Structure prediction by ZEFSAII (Michael W. Deem and Ramdas Pophale) SiO2 
 PCOD9404526
Probable space group: P M M A
;
_chemical_formula_sum "Si O2"
_cell_formula_units_Z 40
_cell_length_a 7.499784
_cell_length_b 15.995561
_cell_length_c 14.563030
_cell_angle_alpha 90.000000
_cell_angle_beta 90.000000
_cell_angle_gamma 90.000000
_cell_volume 1747.028444
_symmetry_space_group_name_H-M "P M M A"
_symmetry_group_IT_number 51
_symmetry_cell_setting 'orthorhombic'
loop_
_space_group_symop_operation_xyz
x,y,z
1/2-x,-y,z
1/2+x,-y,-z
-x,y,-z
-x,-y,-z
1/2+x,y,-z
1/2-x,y,z
x,-y,z
loop_
_atom_site_type_symbol
_atom_site_label
_atom_site_fract_x
_atom_site_fract_y
_atom_site_fract_z
Si Si1 0.463562 0.089038 0.890375
Si Si2 0.536314 0.089775 0.609709
Si Si3 0.964326 0.730215 0.108024
Si Si4 0.538354 0.728980 0.608023
Si Si5 0.459159 0.406411 0.754508
O O1 0.250000 0.088427 0.877316
O O2 0.533893 0.178940 0.858683
O O3 0.535231 0.000000 0.854867
O O4 0.500000 0.089176 0.000000
O O5 0.500000 0.089968 0.500000
O O6 0.750000 0.089386 0.622730
O O7 0.466249 0.180183 0.641667
O O8 0.465632 0.000000 0.644540
O O9 0.750000 0.732745 0.119242
O O10 0.036726 0.652816 0.165904
O O11 0.000000 0.721328 0.000000
O O12 0.500000 0.721761 0.500000
O O13 0.750000 0.730956 0.620007
O O14 0.471115 0.649438 0.663289
O O15 0.250000 0.415376 0.775283
O O16 0.533968 0.500000 0.746715
#
# Coordination Sequence:
#
# PCOD9404526 Si02
#       5
#     8   8   8   8   8
#     4   8  13  23  42  68  97 128 161 198 242 295
#     4   8  14  26  46  73 104 135 165 199 243 297
#     4   9  18  33  53  76 102 133 169 209 255 306
#     4  10  20  35  57  82 107 137 173 213 257 307
#     4  10  22  39  55  73 102 138 175 219 269 316
#
# _framework density 22.896021000000001
#
# number of rings (size 3 to 8) (size 9 to 14) (size 15 to 20)
#    0.000    3.000    0.000    0.600    0.000    2.800 
#    0.000    1.000    0.000    1.200    0.000    5.600 
#    0.000    0.000    0.000    0.000    0.000    0.000 
#
# Total GULP energy -223092.261947 kJ/mol
# GULP energy per Si atom -5577.306549 kJ/mol
# Density = 2.284391 g / cm^3
# Si number density = 22.896021 Si / 1000 Ang^3
#
#
#
# Elastic Constant Matrix: (Units=GPa)
#
#
# Indices 1 2 3 4 5 6 
#
# 1 78.5363 14.5891 -14.5482 0.0000 0.0000 0.0000
# 2 14.5891 308.6304 77.5817 0.0000 0.0000 0.0000
# 3 -14.5482 77.5817 96.2467 0.0000 0.0000 0.0000
# 4 0.0000 0.0000 0.0000 81.2638 0.0000 0.0000
# 5 0.0000 0.0000 0.0000 0.0000 11.9422 0.0000
# 6 0.0000 0.0000 0.0000 0.0000 0.0000 28.4175
#
#
#
# Elastic Compliance Matrix: (Units=1/GPa)
#
#
# Indices 1 2 3 4 5 6 
#
# 1 0.013601 -0.001454 0.003228 0.000000 0.000000 0.000000
# 2 -0.001454 0.004219 -0.003621 0.000000 0.000000 0.000000
# 3 0.003228 -0.003621 0.013796 0.000000 0.000000 0.000000
# 4 0.000000 0.000000 0.000000 0.012306 0.000000 0.000000
# 5 0.000000 0.000000 0.000000 0.000000 0.083737 0.000000
# 6 0.000000 0.000000 0.000000 0.000000 0.000000 0.035190
#
#
# Mechanical properties :
#
#
# Convention : Reuss Voigt Hill
#
# Bulk Modulus (GPa) = 35.81285 70.96208 53.38747
# Shear Modulus (GPa) = 28.43337 51.37741 39.90539
#
# Velocity S-wave (km/s) = 3.52781 4.74217 4.17933
# Velocity P-wave (km/s) = 5.68061 7.81311 6.83060
#
# Compressibility (1/GPa) = 0.02792294
#
# Stress axis : x y z
#
# Youngs Moduli (GPa) = 73.52318 237.02202 72.48237
#
# Poissons Ratio (x) = 0.34473 -0.23399
# Poissons Ratio (y) = 0.10693 0.26244
# Poissons Ratio (z) = -0.23735 0.85818
#
# Static dielectric constant tensor:
#      x y z
#    x 1.917670 0.000000 0.000000 
#    y 0.000000 1.928400 0.000000 
#    z 0.000000 0.000000 1.915130 
# 
# From -- ./inp_files/20490.got.cif
#   From: 2010.05.17/outbox.cif.g08.bks.cpg/sg51_11_cif.got.tgz:20490.got - 2010.06.03 11:52:47.
