data_PCOD9404036
_publ_section_title
;
Structure prediction by ZEFSAII (Michael W. Deem and Ramdas Pophale) SiO2 
 PCOD9404036
Probable space group: P M M A
;
_chemical_formula_sum "Si O2"
_cell_formula_units_Z 40
_cell_length_a 7.814007
_cell_length_b 9.619676
_cell_length_c 29.783694
_cell_angle_alpha 90.000000
_cell_angle_beta 90.000000
_cell_angle_gamma 90.000000
_cell_volume 2238.787132
_symmetry_space_group_name_H-M "P M M A"
_symmetry_group_IT_number 51
_symmetry_cell_setting 'orthorhombic'
loop_
_space_group_symop_operation_xyz
x,y,z
1/2-x,-y,z
1/2+x,-y,-z
-x,y,-z
-x,-y,-z
1/2+x,y,-z
1/2-x,y,z
x,-y,z
loop_
_atom_site_type_symbol
_atom_site_label
_atom_site_fract_x
_atom_site_fract_y
_atom_site_fract_z
Si Si1 0.750000 0.167151 0.798007
Si Si2 0.250000 0.333769 0.294232
Si Si3 0.545456 0.339219 0.949870
Si Si4 0.544823 0.158434 0.450421
Si Si5 0.557529 0.835754 0.135519
Si Si6 0.048801 0.334418 0.635890
O O1 0.750000 0.248186 0.751494
O O2 0.584424 0.203695 0.827998
O O3 0.750000 0.000000 0.790759
O O4 0.250000 0.500000 0.285513
O O5 0.418978 0.301474 0.323817
O O6 0.750000 0.336283 0.945053
O O7 0.487214 0.500000 0.946366
O O8 0.467556 0.248363 0.910311
O O9 0.500000 0.290000 0.000000
O O10 0.500000 0.212224 0.500000
O O11 0.750000 0.152131 0.448251
O O12 0.491353 0.252786 0.408748
O O13 0.477494 0.000000 0.446758
O O14 0.750000 0.813933 0.152582
O O15 0.534982 0.000000 0.126137
O O16 0.250000 0.301623 0.645338
O O17 0.038672 0.500000 0.627825
#
# Coordination Sequence:
#
# PCOD9404036 Si02
#       6
#     4   4   8   8   8   8
#     4  10  22  40  58  82 112 140 180 232 279 328
#     4  10  22  38  58  82 106 138 182 226 273 328
#     4  10  20  34  54  82 116 151 188 229 273 325
#     4   9  18  31  48  74 106 139 176 217 261 313
#     4  10  21  38  59  82 111 147 185 228 277 329
#     4   9  19  36  54  75 106 139 174 220 267 316
#
# _framework density 17.866817999999999
#
# number of rings (size 3 to 8) (size 9 to 14) (size 15 to 20)
#    0.000    2.400    1.000    0.600    1.400    4.400 
#    0.000    0.000    0.000    0.000    0.000    0.000 
#    0.000    0.000    0.000    0.000    0.000    0.000 
#
# Total GULP energy -223148.156321 kJ/mol
# GULP energy per Si atom -5578.703908 kJ/mol
# Density = 1.782615 g / cm^3
# Si number density = 17.866818 Si / 1000 Ang^3
#
#
#
# Elastic Constant Matrix: (Units=GPa)
#
#
# Indices 1 2 3 4 5 6 
#
# 1 99.4317 44.5080 77.3543 0.0000 0.0000 0.0000
# 2 44.5080 42.1928 75.7605 0.0000 0.0000 0.0000
# 3 77.3543 75.7605 179.0003 0.0000 0.0000 0.0000
# 4 0.0000 0.0000 0.0000 40.4046 0.0000 0.0000
# 5 0.0000 0.0000 0.0000 0.0000 26.9682 0.0000
# 6 0.0000 0.0000 0.0000 0.0000 0.0000 107.6658
#
#
#
# Elastic Compliance Matrix: (Units=1/GPa)
#
#
# Indices 1 2 3 4 5 6 
#
# 1 0.019110 -0.022206 0.001140 0.000000 0.000000 0.000000
# 2 -0.022206 0.124542 -0.043115 0.000000 0.000000 0.000000
# 3 0.001140 -0.043115 0.023342 0.000000 0.000000 0.000000
# 4 0.000000 0.000000 0.000000 0.024750 0.000000 0.000000
# 5 0.000000 0.000000 0.000000 0.000000 0.037081 0.000000
# 6 0.000000 0.000000 0.000000 0.000000 0.000000 0.009288
#
#
# Mechanical properties :
#
#
# Convention : Reuss Voigt Hill
#
# Bulk Modulus (GPa) = 25.88521 79.54114 52.71317
# Shear Modulus (GPa) = 13.18040 43.20785 28.19413
#
# Velocity S-wave (km/s) = 2.71901 4.92299 3.97673
# Velocity P-wave (km/s) = 4.93728 8.77097 7.11712
#
# Compressibility (1/GPa) = 0.03863210
#
# Stress axis : x y z
#
# Youngs Moduli (GPa) = 52.32860 8.02944 42.84105
#
# Poissons Ratio (x) = 0.17830 -0.04884
# Poissons Ratio (y) = 1.16199 1.84710
# Poissons Ratio (z) = -0.05966 0.34619
#
# Static dielectric constant tensor:
#      x y z
#    x 1.647200 0.000000 0.000000 
#    y 0.000000 1.605970 0.000000 
#    z 0.000000 0.000000 1.567890 
# 
# From -- ./inp_files/36003.got.cif
#   From: 2010.05.17/outbox.cif.g08.bks.cpg/sg51_19_cif.got.tgz:36003.got - 2010.06.03 11:52:47.
