data_PCOD9404279
_publ_section_title
;
Structure prediction by ZEFSAII (Michael W. Deem and Ramdas Pophale) SiO2 
 PCOD9404279
Probable space group: P M M A
;
_chemical_formula_sum "Si O2"
_cell_formula_units_Z 64
_cell_length_a 25.572681
_cell_length_b 13.895457
_cell_length_c 9.619684
_cell_angle_alpha 90.000000
_cell_angle_beta 90.000000
_cell_angle_gamma 90.000000
_cell_volume 3418.297849
_symmetry_space_group_name_H-M "P M M A"
_symmetry_group_IT_number 51
_symmetry_cell_setting 'orthorhombic'
loop_
_space_group_symop_operation_xyz
x,y,z
1/2-x,-y,z
1/2+x,-y,-z
-x,y,-z
-x,-y,-z
1/2+x,y,-z
1/2-x,y,z
x,-y,z
loop_
_atom_site_type_symbol
_atom_site_label
_atom_site_fract_x
_atom_site_fract_y
_atom_site_fract_z
Si Si1 0.189498 0.892371 0.339415
Si Si2 0.689302 0.276786 0.440993
Si Si3 0.637577 0.391482 0.024349
Si Si4 0.909761 0.613014 0.534047
Si Si5 0.455162 0.609618 0.763730
Si Si6 0.190490 0.788692 0.877283
Si Si7 0.441320 0.293927 0.181801
Si Si8 0.613062 0.109967 0.923793
O O1 0.250000 0.884077 0.296214
O O2 0.179645 0.811034 0.452822
O O3 0.153655 0.883500 0.204817
O O4 0.181911 0.000000 0.398557
O O5 0.750000 0.307454 0.453823
O O6 0.648328 0.358893 0.482323
O O7 0.682484 0.236812 0.284648
O O8 0.656982 0.500000 0.011448
O O9 0.600324 0.383609 0.159715
O O10 0.681792 0.311328 0.039401
O O11 0.597877 0.364072 0.901631
O O12 0.912687 0.500000 0.574593
O O13 0.946252 0.626538 0.398995
O O14 0.926493 0.683784 0.658030
O O15 0.474111 0.500000 0.782687
O O16 0.498222 0.678078 0.829493
O O17 0.250000 0.824370 0.895541
O O18 0.146155 0.857744 0.940950
O O19 0.429813 0.188990 0.119031
O O20 0.594776 0.000000 0.936017
#
# Coordination Sequence:
#
# PCOD9404279 Si02
#       8
#     8   8   8   8   8   8   8   8
#     4   9  17  32  55  78 101 134 177 223 271 325
#     4  10  20  35  53  79 112 146 182 223 279 335
#     4  10  20  35  54  81 112 145 186 226 270 328
#     4  11  21  35  54  83 115 147 188 229 274 329
#     4  10  20  35  57  82 110 148 192 233 275 324
#     4  10  21  35  55  81 110 145 183 225 276 332
#     4  11  21  35  57  81 110 145 183 235 280 329
#     4  10  21  37  58  82 109 141 180 231 285 335
#
# _framework density 18.722769
#
# number of rings (size 3 to 8) (size 9 to 14) (size 15 to 20)
#    0.000    1.875    2.500    2.250    0.000    3.750 
#    0.000    2.500    0.000    9.750    0.000    0.000 
#    0.000    0.000    0.000    0.000    0.000    0.000 
#
# Total GULP energy -357105.134684 kJ/mol
# GULP energy per Si atom -5579.767729 kJ/mol
# Density = 1.868016 g / cm^3
# Si number density = 18.722769 Si / 1000 Ang^3
#
#
#
# Elastic Constant Matrix: (Units=GPa)
#
#
# Indices 1 2 3 4 5 6 
#
# 1 40.6322 19.1907 -4.7057 0.0000 0.0000 0.0000
# 2 19.1907 70.3904 1.4841 0.0000 0.0000 0.0000
# 3 -4.7057 1.4841 41.7237 0.0000 0.0000 0.0000
# 4 0.0000 0.0000 0.0000 17.5091 0.0000 0.0000
# 5 0.0000 0.0000 0.0000 0.0000 19.2292 0.0000
# 6 0.0000 0.0000 0.0000 0.0000 0.0000 20.9223
#
#
#
# Elastic Compliance Matrix: (Units=1/GPa)
#
#
# Indices 1 2 3 4 5 6 
#
# 1 0.028757 -0.007914 0.003525 0.000000 0.000000 0.000000
# 2 -0.007914 0.016395 -0.001476 0.000000 0.000000 0.000000
# 3 0.003525 -0.001476 0.024417 0.000000 0.000000 0.000000
# 4 0.000000 0.000000 0.000000 0.057113 0.000000 0.000000
# 5 0.000000 0.000000 0.000000 0.000000 0.052004 0.000000
# 6 0.000000 0.000000 0.000000 0.000000 0.000000 0.047796
#
#
# Mechanical properties :
#
#
# Convention : Reuss Voigt Hill
#
# Bulk Modulus (GPa) = 17.28939 20.52051 18.90495
# Shear Modulus (GPa) = 19.41797 20.65061 20.03429
#
# Velocity S-wave (km/s) = 3.22395 3.32470 3.27471
# Velocity P-wave (km/s) = 4.80759 5.07170 4.94141
#
# Compressibility (1/GPa) = 0.05783893
#
# Stress axis : x y z
#
# Youngs Moduli (GPa) = 34.77386 60.99297 40.95471
#
# Poissons Ratio (x) = 0.48273 -0.14436
# Poissons Ratio (y) = 0.27522 0.06044
# Poissons Ratio (z) = -0.12257 0.09001
#
# Static dielectric constant tensor:
#      x y z
#    x 1.651770 0.000000 0.000000 
#    y 0.000000 1.658990 0.000000 
#    z 0.000000 0.000000 1.662190 
# 
# From -- ./inp_files/13271.got.cif
#   From: 2010.05.17/outbox.cif.g08.bks.cpg/sg51_7_cif.got.tgz:13271.got - 2010.06.03 11:52:47.
