data_PCOD9404891
_publ_section_title
;
Structure prediction by ZEFSAII (Michael W. Deem and Ramdas Pophale) SiO2 
 PCOD9404891
Probable space group: P M M A
;
_chemical_formula_sum "Si O2"
_cell_formula_units_Z 40
_cell_length_a 9.689863
_cell_length_b 25.053808
_cell_length_c 9.184056
_cell_angle_alpha 90.000000
_cell_angle_beta 90.000000
_cell_angle_gamma 90.000000
_cell_volume 2229.594605
_symmetry_space_group_name_H-M "P M M A"
_symmetry_group_IT_number 51
_symmetry_cell_setting 'orthorhombic'
loop_
_space_group_symop_operation_xyz
x,y,z
1/2-x,-y,z
1/2+x,-y,-z
-x,y,-z
-x,-y,-z
1/2+x,y,-z
1/2-x,y,z
x,-y,z
loop_
_atom_site_type_symbol
_atom_site_label
_atom_site_fract_x
_atom_site_fract_y
_atom_site_fract_z
Si Si1 0.250000 0.936722 0.328545
Si Si2 0.586425 0.762620 0.851042
Si Si3 0.585618 0.561427 0.349689
Si Si4 0.416018 0.643211 0.151899
Si Si5 0.750000 0.064422 0.324991
Si Si6 0.003006 0.122976 0.176630
O O1 0.250000 0.925345 0.501406
O O2 0.375448 0.910991 0.244231
O O3 0.250000 0.000000 0.313976
O O4 0.750000 0.772115 0.878895
O O5 0.574409 0.703587 0.783405
O O6 0.525143 0.815265 0.776046
O O7 0.500000 0.759224 0.000000
O O8 0.500000 0.562426 0.500000
O O9 0.750000 0.575210 0.365534
O O10 0.581427 0.500000 0.295523
O O11 0.499503 0.600931 0.247557
O O12 0.250000 0.631978 0.134994
O O13 0.500000 0.643569 0.000000
O O14 0.625286 0.093706 0.246446
O O15 0.750000 0.000000 0.304588
O O16 0.000000 0.121923 0.000000
#
# Coordination Sequence:
#
# PCOD9404891 Si02
#       6
#     4   8   8   8   4   8
#     4  11  23  41  61  81 117 157 186 235 300 359
#     4   9  19  35  58  86 116 147 186 238 293 342
#     4  10  21  38  59  84 117 158 201 246 297 348
#     4  10  20  36  59  87 118 153 194 240 293 356
#     4  11  25  41  57  83 119 157 192 233 302 363
#     4  11  22  38  62  89 113 147 198 247 288 347
#
# _framework density 17.940481999999999
#
# number of rings (size 3 to 8) (size 9 to 14) (size 15 to 20)
#    0.000    1.800    1.000    3.000    4.200    6.400 
#    0.000    2.000    0.000    0.000    0.000    0.000 
#    0.000    0.000    0.000    0.000    0.000    0.000 
#
# Total GULP energy -222724.391928 kJ/mol
# GULP energy per Si atom -5568.109798 kJ/mol
# Density = 1.789965 g / cm^3
# Si number density = 17.940482 Si / 1000 Ang^3
#
#
#
# Elastic Constant Matrix: (Units=GPa)
#
#
# Indices 1 2 3 4 5 6 
#
# 1 188.6025 89.7972 50.4012 0.0000 0.0000 0.0000
# 2 89.7972 153.8102 74.7583 0.0000 0.0000 0.0000
# 3 50.4012 74.7583 74.9571 0.0000 0.0000 0.0000
# 4 0.0000 0.0000 0.0000 371.5360 0.0000 0.0000
# 5 0.0000 0.0000 0.0000 0.0000 30.0100 0.0000
# 6 0.0000 0.0000 0.0000 0.0000 0.0000 35.5433
#
#
#
# Elastic Compliance Matrix: (Units=1/GPa)
#
#
# Indices 1 2 3 4 5 6 
#
# 1 0.007408 -0.003695 -0.001296 0.000000 0.000000 0.000000
# 2 -0.003695 0.014461 -0.011938 0.000000 0.000000 0.000000
# 3 -0.001296 -0.011938 0.026119 0.000000 0.000000 0.000000
# 4 0.000000 0.000000 0.000000 0.002692 0.000000 0.000000
# 5 0.000000 0.000000 0.000000 0.000000 0.033322 0.000000
# 6 0.000000 0.000000 0.000000 0.000000 0.000000 0.028135
#
#
# Mechanical properties :
#
#
# Convention : Reuss Voigt Hill
#
# Bulk Modulus (GPa) = 70.77318 94.14259 82.45789
# Shear Modulus (GPa) = 33.17746 100.91208 67.04477
#
# Velocity S-wave (km/s) = 4.30502 7.50802 6.11979
# Velocity P-wave (km/s) = 8.01533 11.30263 9.79783
#
# Compressibility (1/GPa) = 0.01412965
#
# Stress axis : x y z
#
# Youngs Moduli (GPa) = 134.99544 69.15014 38.28616
#
# Poissons Ratio (x) = 0.25550 0.04961
# Poissons Ratio (y) = 0.49880 0.45708
# Poissons Ratio (z) = 0.17493 0.82555
#
# Static dielectric constant tensor:
#      x y z
#    x 1.480710 0.000000 0.000000 
#    y 0.000000 1.640110 0.000000 
#    z 0.000000 0.000000 1.596540 
# 
# From -- ./inp_files/5534.got.cif
#   From: 2010.05.17/outbox.cif.g08.bks.cpg/sg51_3_cif.got.tgz:5534.got - 2010.06.03 11:52:47.
