data_PCOD9404027
_publ_section_title
;
Structure prediction by ZEFSAII (Michael W. Deem and Ramdas Pophale) SiO2 
 PCOD9404027
Probable space group: P M M A
;
_chemical_formula_sum "Si O2"
_cell_formula_units_Z 56
_cell_length_a 8.889065
_cell_length_b 14.591072
_cell_length_c 24.216683
_cell_angle_alpha 90.000000
_cell_angle_beta 90.000000
_cell_angle_gamma 90.000000
_cell_volume 3140.927697
_symmetry_space_group_name_H-M "P M M A"
_symmetry_group_IT_number 51
_symmetry_cell_setting 'orthorhombic'
loop_
_space_group_symop_operation_xyz
x,y,z
1/2-x,-y,z
1/2+x,-y,-z
-x,y,-z
-x,-y,-z
1/2+x,y,-z
1/2-x,y,z
x,-y,z
loop_
_atom_site_type_symbol
_atom_site_label
_atom_site_fract_x
_atom_site_fract_y
_atom_site_fract_z
Si Si1 0.570643 0.250656 0.358373
Si Si2 0.926978 0.609342 0.558822
Si Si3 0.072330 0.890895 0.440995
Si Si4 0.570294 0.253696 0.060354
Si Si5 0.929926 0.753805 0.762585
Si Si6 0.930951 0.393701 0.855199
Si Si7 0.069090 0.106623 0.847189
O O1 0.750000 0.249735 0.357776
O O2 0.509306 0.337505 0.392476
O O3 0.507729 0.164004 0.392418
O O4 0.506440 0.251000 0.296732
O O5 0.750000 0.631998 0.558497
O O6 0.942315 0.500000 0.565434
O O7 0.000000 0.634395 0.500000
O O8 0.250000 0.870361 0.441671
O O9 0.000000 0.865870 0.500000
O O10 0.053514 0.000000 0.433836
O O11 0.750000 0.259856 0.056443
O O12 0.507401 0.340759 0.094083
O O13 0.532167 0.164658 0.097740
O O14 0.500000 0.248059 0.000000
O O15 0.750000 0.758161 0.756548
O O16 0.967463 0.665018 0.800340
O O17 0.988803 0.841129 0.797016
O O18 0.750000 0.389587 0.862171
O O19 0.975185 0.500000 0.851267
O O20 0.250000 0.112360 0.839477
O O21 0.027612 0.000000 0.851200
#
# Coordination Sequence:
#
# PCOD9404027 Si02
#       7
#     8   8   8   8   8   8   8
#     4  12  24  37  56  81 111 146 183 224 271 325
#     4  10  21  38  59  82 110 143 180 224 273 326
#     4  10  21  38  59  82 109 141 179 224 274 329
#     4  10  20  34  54  82 114 145 179 220 263 311
#     4  10  21  37  56  80 108 138 179 227 272 321
#     4   9  19  37  59  80 105 140 179 220 268 318
#     4   9  19  37  58  79 107 144 182 221 269 321
#
# _framework density 17.829127
#
# number of rings (size 3 to 8) (size 9 to 14) (size 15 to 20)
#    0.000    2.000    0.000    3.429    0.000    5.143 
#    0.000    1.429    0.000    0.000    0.000    0.000 
#    0.000    0.000    0.000    0.000    0.000    0.000 
#
# Total GULP energy -312818.379817 kJ/mol
# GULP energy per Si atom -5586.042497 kJ/mol
# Density = 1.778855 g / cm^3
# Si number density = 17.829127 Si / 1000 Ang^3
#
#
#
# Elastic Constant Matrix: (Units=GPa)
#
#
# Indices 1 2 3 4 5 6 
#
# 1 103.4172 66.1916 91.6267 0.0000 0.0000 0.0000
# 2 66.1916 146.4518 88.6651 0.0000 0.0000 0.0000
# 3 91.6267 88.6651 194.0788 0.0000 0.0000 0.0000
# 4 0.0000 0.0000 0.0000 9.7788 0.0000 0.0000
# 5 0.0000 0.0000 0.0000 0.0000 32.9691 0.0000
# 6 0.0000 0.0000 0.0000 0.0000 0.0000 29.1804
#
#
#
# Elastic Compliance Matrix: (Units=1/GPa)
#
#
# Indices 1 2 3 4 5 6 
#
# 1 0.018325 -0.004209 -0.006729 0.000000 0.000000 0.000000
# 2 -0.004209 0.010405 -0.002767 0.000000 0.000000 0.000000
# 3 -0.006729 -0.002767 0.009593 0.000000 0.000000 0.000000
# 4 0.000000 0.000000 0.000000 0.102262 0.000000 0.000000
# 5 0.000000 0.000000 0.000000 0.000000 0.030331 0.000000
# 6 0.000000 0.000000 0.000000 0.000000 0.000000 0.034270
#
#
# Mechanical properties :
#
#
# Convention : Reuss Voigt Hill
#
# Bulk Modulus (GPa) = 91.61383 104.10162 97.85772
# Shear Modulus (GPa) = 21.16560 27.54997 24.35778
#
# Velocity S-wave (km/s) = 3.44922 3.93520 3.70020
# Velocity P-wave (km/s) = 8.20724 8.89736 8.55926
#
# Compressibility (1/GPa) = 0.01091538
#
# Stress axis : x y z
#
# Youngs Moduli (GPa) = 54.57115 96.10383 104.24021
#
# Poissons Ratio (x) = 0.40446 0.70139
# Poissons Ratio (y) = 0.22966 0.28842
# Poissons Ratio (z) = 0.36719 0.26590
#
# Static dielectric constant tensor:
#      x y z
#    x 1.596440 0.000000 0.000000 
#    y 0.000000 1.608410 0.000000 
#    z 0.000000 0.000000 1.567340 
# 
# From -- ./inp_files/31931.got.cif
#   From: 2010.05.17/outbox.cif.g08.bks.cpg/sg51_16_cif.got.tgz:31931.got - 2010.06.03 11:52:47.
