data_PCOD9404135
_publ_section_title
;
Structure prediction by ZEFSAII (Michael W. Deem and Ramdas Pophale) SiO2 
 PCOD9404135
Probable space group: P M M A
;
_chemical_formula_sum "Si O2"
_cell_formula_units_Z 48
_cell_length_a 9.738943
_cell_length_b 14.998082
_cell_length_c 17.324758
_cell_angle_alpha 90.000000
_cell_angle_beta 90.000000
_cell_angle_gamma 90.000000
_cell_volume 2530.548846
_symmetry_space_group_name_H-M "P M M A"
_symmetry_group_IT_number 51
_symmetry_cell_setting 'orthorhombic'
loop_
_space_group_symop_operation_xyz
x,y,z
1/2-x,-y,z
1/2+x,-y,-z
-x,y,-z
-x,-y,-z
1/2+x,y,-z
1/2-x,y,z
x,-y,z
loop_
_atom_site_type_symbol
_atom_site_label
_atom_site_fract_x
_atom_site_fract_y
_atom_site_fract_z
Si Si1 0.096802 0.288367 0.681536
Si Si2 0.415162 0.099202 0.144273
Si Si3 0.407964 0.607122 0.426399
Si Si4 0.021203 0.712158 0.858730
Si Si5 0.750000 0.397035 0.054188
Si Si6 0.750000 0.602063 0.868957
Si Si7 0.090463 0.903962 0.699913
O O1 0.250000 0.318448 0.659175
O O2 0.090090 0.281570 0.774402
O O3 0.072773 0.186867 0.653162
O O4 0.981511 0.351520 0.647719
O O5 0.250000 0.109788 0.147288
O O6 0.482469 0.189111 0.110056
O O7 0.482900 0.097068 0.229622
O O8 0.443781 0.000000 0.110159
O O9 0.500000 0.633403 0.500000
O O10 0.250000 0.635641 0.433977
O O11 0.410166 0.500000 0.421436
O O12 0.118814 0.656525 0.914820
O O13 0.883280 0.656569 0.845273
O O14 0.750000 0.500000 0.082172
O O15 0.750000 0.399536 0.962137
O O16 0.750000 0.500000 0.841001
O O17 0.250000 0.900537 0.729000
O O18 0.075268 0.000000 0.659971
#
# Coordination Sequence:
#
# PCOD9404135 Si02
#       7
#     8   8   8   8   4   4   8
#     4  10  20  34  55  85 116 144 180 227 275 321
#     4   9  17  30  51  79 110 142 176 224 284 339
#     4  10  22  39  58  80 110 149 188 225 273 331
#     4  11  21  38  58  85 112 145 189 239 284 330
#     4  11  24  42  59  77 108 150 193 234 287 347
#     4  11  24  40  59  79 106 148 193 236 287 345
#     4   8  15  28  49  78 111 145 181 221 267 322
#
# _framework density 18.968216999999999
#
# number of rings (size 3 to 8) (size 9 to 14) (size 15 to 20)
#    0.000    2.167    1.667    1.500    2.333    4.333 
#    0.000    0.000    0.000    3.500    0.000    0.000 
#    0.000    0.000    0.000    0.000    0.000    0.000 
#
# Total GULP energy -267473.255240 kJ/mol
# GULP energy per Si atom -5572.359484 kJ/mol
# Density = 1.892504 g / cm^3
# Si number density = 18.968217 Si / 1000 Ang^3
#
#
#
# Elastic Constant Matrix: (Units=GPa)
#
#
# Indices 1 2 3 4 5 6 
#
# 1 117.2064 51.0677 9.5770 0.0000 0.0000 0.0000
# 2 51.0677 109.6600 10.5305 0.0000 0.0000 0.0000
# 3 9.5770 10.5305 27.1053 0.0000 0.0000 0.0000
# 4 0.0000 0.0000 0.0000 -66.5127 0.0000 0.0000
# 5 0.0000 0.0000 0.0000 0.0000 22.2607 0.0000
# 6 0.0000 0.0000 0.0000 0.0000 0.0000 14.0042
#
#
#
# Elastic Compliance Matrix: (Units=1/GPa)
#
#
# Indices 1 2 3 4 5 6 
#
# 1 0.010801 -0.004844 -0.001934 0.000000 0.000000 0.000000
# 2 -0.004844 0.011645 -0.002813 0.000000 0.000000 0.000000
# 3 -0.001934 -0.002813 0.038669 0.000000 0.000000 0.000000
# 4 0.000000 0.000000 0.000000 -0.015035 0.000000 0.000000
# 5 0.000000 0.000000 0.000000 0.000000 0.044922 0.000000
# 6 0.000000 0.000000 0.000000 0.000000 0.000000 0.071407
#
#
# Mechanical properties :
#
#
# Convention : Reuss Voigt Hill
#
# Bulk Modulus (GPa) = 23.84742 44.03578 33.94160
# Shear Modulus (GPa) = 25.56643 6.13687 15.85165
#
# Velocity S-wave (km/s) = 3.67530 1.80066 2.89398
# Velocity P-wave (km/s) = 5.53263 5.25253 5.39440
#
# Compressibility (1/GPa) = 0.04193326
#
# Stress axis : x y z
#
# Youngs Moduli (GPa) = 92.58776 85.87376 25.86028
#
# Poissons Ratio (x) = 0.41597 0.05002
# Poissons Ratio (y) = 0.44849 0.07274
# Poissons Ratio (z) = 0.17908 0.24153
#
# Static dielectric constant tensor:
#      x y z
#    x 1.675860 0.000000 0.000000 
#    y 0.000000 1.713670 0.000000 
#    z 0.000000 0.000000 1.642290 
# 
# From -- ./inp_files/27651.got.cif
#   From: 2010.05.17/outbox.cif.g08.bks.cpg/sg51_14_cif.got.tgz:27651.got - 2010.06.03 11:52:47.
