data_PCOD9404199
_publ_section_title
;
Structure prediction by ZEFSAII (Michael W. Deem and Ramdas Pophale) SiO2 
 PCOD9404199
Probable space group: P M M A
;
_chemical_formula_sum "Si O2"
_cell_formula_units_Z 48
_cell_length_a 10.008841
_cell_length_b 7.957911
_cell_length_c 32.594954
_cell_angle_alpha 90.000000
_cell_angle_beta 90.000000
_cell_angle_gamma 90.000000
_cell_volume 2596.170677
_symmetry_space_group_name_H-M "P M M A"
_symmetry_group_IT_number 51
_symmetry_cell_setting 'orthorhombic'
loop_
_space_group_symop_operation_xyz
x,y,z
1/2-x,-y,z
1/2+x,-y,-z
-x,y,-z
-x,-y,-z
1/2+x,y,-z
1/2-x,y,z
x,-y,z
loop_
_atom_site_type_symbol
_atom_site_label
_atom_site_fract_x
_atom_site_fract_y
_atom_site_fract_z
Si Si1 0.095237 0.000000 0.323899
Si Si2 0.590347 0.314164 0.187218
Si Si3 0.407043 0.203910 0.538766
Si Si4 0.404360 0.306384 0.386942
Si Si5 0.508778 0.805558 0.100696
Si Si6 0.750000 0.297567 0.948712
Si Si7 0.089127 0.000000 0.755305
Si Si8 0.750000 0.701459 0.042939
O O1 0.076784 0.834163 0.352019
O O2 0.992545 0.000000 0.286608
O O3 0.250000 0.000000 0.309652
O O4 0.750000 0.300270 0.179700
O O5 0.563007 0.500000 0.204171
O O6 0.522557 0.294477 0.142999
O O7 0.554590 0.164734 0.217926
O O8 0.500000 0.251836 0.500000
O O9 0.250000 0.255013 0.535679
O O10 0.485186 0.274292 0.578219
O O11 0.407996 0.000000 0.541239
O O12 0.250000 0.283533 0.402538
O O13 0.414728 0.500000 0.372588
O O14 0.375884 0.766656 0.076183
O O15 0.624409 0.761091 0.068829
O O16 0.519163 0.000000 0.112103
O O17 0.750000 0.500000 0.949291
O O18 0.750000 0.238575 0.995963
O O19 0.250000 0.000000 0.748425
O O20 0.750000 0.500000 0.041949
#
# Coordination Sequence:
#
# PCOD9404199 Si02
#       8
#     4   8   8   8   8   4   4   4
#     4  10  22  42  63  89 124 155 190 245 307 373
#     4  10  20  38  63  89 117 152 195 239 290 352
#     4  10  20  34  56  87 124 167 216 265 312 359
#     4  10  21  38  62  88 119 164 209 250 303 363
#     4  12  23  38  61  87 118 155 200 246 290 347
#     4  11  25  41  55  83 123 159 199 244 295 345
#     4  10  22  40  64  91 114 146 193 243 295 358
#     4  11  23  39  61  85 115 161 205 242 287 347
#
# _framework density 18.488769000000001
#
# number of rings (size 3 to 8) (size 9 to 14) (size 15 to 20)
#    0.000    1.500    2.500    3.000    0.000    6.000 
#    1.500    0.000    0.000    0.000    0.000    0.000 
#    0.000    0.000    0.000    0.000    0.000    0.000 
#
# Total GULP energy -268042.209307 kJ/mol
# GULP energy per Si atom -5584.212694 kJ/mol
# Density = 1.844669 g / cm^3
# Si number density = 18.488769 Si / 1000 Ang^3
#
#
#
# Elastic Constant Matrix: (Units=GPa)
#
#
# Indices 1 2 3 4 5 6 
#
# 1 133.2419 43.2352 73.4113 0.0000 0.0000 0.0000
# 2 43.2352 112.0620 53.1001 0.0000 0.0000 0.0000
# 3 73.4113 53.1001 117.7383 0.0000 0.0000 0.0000
# 4 0.0000 0.0000 0.0000 22.9548 0.0000 0.0000
# 5 0.0000 0.0000 0.0000 0.0000 25.2693 0.0000
# 6 0.0000 0.0000 0.0000 0.0000 0.0000 14.4281
#
#
#
# Elastic Compliance Matrix: (Units=1/GPa)
#
#
# Indices 1 2 3 4 5 6 
#
# 1 0.011587 -0.001332 -0.006624 0.000000 0.000000 0.000000
# 2 -0.001332 0.011502 -0.004357 0.000000 0.000000 0.000000
# 3 -0.006624 -0.004357 0.014589 0.000000 0.000000 0.000000
# 4 0.000000 0.000000 0.000000 0.043564 0.000000 0.000000
# 5 0.000000 0.000000 0.000000 0.000000 0.039574 0.000000
# 6 0.000000 0.000000 0.000000 0.000000 0.000000 0.069309
#
#
# Mechanical properties :
#
#
# Convention : Reuss Voigt Hill
#
# Bulk Modulus (GPa) = 76.61670 78.05949 77.33810
# Shear Modulus (GPa) = 22.82059 25.41681 24.11870
#
# Velocity S-wave (km/s) = 3.51706 3.71174 3.61571
# Velocity P-wave (km/s) = 7.61725 7.78980 7.70401
#
# Compressibility (1/GPa) = 0.01305198
#
# Stress axis : x y z
#
# Youngs Moduli (GPa) = 86.30530 86.94135 68.54678
#
# Poissons Ratio (x) = 0.11577 0.45405
# Poissons Ratio (y) = 0.11493 0.29867
# Poissons Ratio (z) = 0.57168 0.37881
#
# Static dielectric constant tensor:
#      x y z
#    x 1.605250 0.000000 0.000000 
#    y 0.000000 1.660520 0.000000 
#    z 0.000000 0.000000 1.595110 
# 
# From -- ./inp_files/37284.got.cif
#   From: 2010.05.17/outbox.cif.g08.bks.cpg/sg51_19_cif.got.tgz:37284.got - 2010.06.03 11:52:47.
