data_PCOD9404627
_publ_section_title
;
Structure prediction by ZEFSAII (Michael W. Deem and Ramdas Pophale) SiO2 
 PCOD9404627
Probable space group: P M M A
;
_chemical_formula_sum "Si O2"
_cell_formula_units_Z 60
_cell_length_a 26.056431
_cell_length_b 20.438570
_cell_length_c 5.218487
_cell_angle_alpha 90.000000
_cell_angle_beta 90.000000
_cell_angle_gamma 90.000000
_cell_volume 2779.137549
_symmetry_space_group_name_H-M "P M M A"
_symmetry_group_IT_number 51
_symmetry_cell_setting 'orthorhombic'
loop_
_space_group_symop_operation_xyz
x,y,z
1/2-x,-y,z
1/2+x,-y,-z
-x,y,-z
-x,-y,-z
1/2+x,y,-z
1/2-x,y,z
x,-y,z
loop_
_atom_site_type_symbol
_atom_site_label
_atom_site_fract_x
_atom_site_fract_y
_atom_site_fract_z
Si Si1 0.308582 0.196184 0.642806
Si Si2 0.105709 0.712583 0.470971
Si Si3 0.962919 0.000000 0.254962
Si Si4 0.557723 0.235634 0.028545
Si Si5 0.305693 0.069643 0.284309
Si Si6 0.194363 0.422689 0.971738
Si Si7 0.107520 0.111172 0.933860
Si Si8 0.131404 0.423924 0.462225
O O1 0.250000 0.208792 0.731114
O O2 0.336598 0.260685 0.530951
O O3 0.306071 0.136605 0.440551
O O4 0.348965 0.163246 0.838023
O O5 0.092196 0.726915 0.178241
O O6 0.095025 0.636390 0.530422
O O7 0.072466 0.753290 0.675574
O O8 0.924280 0.062607 0.247673
O O9 0.000000 0.000000 0.500000
O O10 0.000000 0.000000 0.000000
O O11 0.500000 0.257474 0.000000
O O12 0.565126 0.159745 0.951890
O O13 0.250000 0.070224 0.141570
O O14 0.305676 0.000000 0.434177
O O15 0.357307 0.069911 0.122419
O O16 0.250000 0.391112 0.000113
O O17 0.199222 0.500000 0.027040
O O18 0.174351 0.419445 0.683286
O O19 0.154654 0.402431 0.189016
O O20 0.113619 0.500000 0.454951
#
# Coordination Sequence:
#
# PCOD9404627 Si02
#       8
#     8   8   4   8   8   8   8   8
#     4  10  23  39  59  91 129 169 213 254 308 376
#     4  11  23  42  65  92 127 164 207 265 319 374
#     4  12  30  44  67  98 131 166 216 278 337 381
#     4  11  24  43  68  91 118 164 214 267 323 384
#     4  10  20  36  61  90 125 171 211 249 302 369
#     4   9  17  30  50  80 120 162 205 245 286 358
#     4  11  23  40  65  87 130 163 213 263 321 374
#     4  10  20  35  58  88 122 164 206 253 320 382
#
# _framework density 21.589433
#
# number of rings (size 3 to 8) (size 9 to 14) (size 15 to 20)
#    0.000    1.600    2.000    2.400    2.800    4.800 
#    0.000    0.000    0.000    2.400    0.000    0.000 
#    0.000    0.000    0.000    0.000    0.000    0.000 
#
# Total GULP energy -334044.011041 kJ/mol
# GULP energy per Si atom -5567.400184 kJ/mol
# Density = 2.154029 g / cm^3
# Si number density = 21.589433 Si / 1000 Ang^3
#
#
#
# Elastic Constant Matrix: (Units=GPa)
#
#
# Indices 1 2 3 4 5 6 
#
# 1 54.3711 -0.6082 5.0019 0.0000 0.0000 0.0000
# 2 -0.6082 96.9255 3.4443 0.0000 0.0000 0.0000
# 3 5.0019 3.4443 46.8727 0.0000 0.0000 0.0000
# 4 0.0000 0.0000 0.0000 21.0329 0.0000 0.0000
# 5 0.0000 0.0000 0.0000 0.0000 28.4665 0.0000
# 6 0.0000 0.0000 0.0000 0.0000 0.0000 6.9159
#
#
#
# Elastic Compliance Matrix: (Units=1/GPa)
#
#
# Indices 1 2 3 4 5 6 
#
# 1 0.018578 0.000188 -0.001996 0.000000 0.000000 0.000000
# 2 0.000188 0.010346 -0.000780 0.000000 0.000000 0.000000
# 3 -0.001996 -0.000780 0.021605 0.000000 0.000000 0.000000
# 4 0.000000 0.000000 0.000000 0.047545 0.000000 0.000000
# 5 0.000000 0.000000 0.000000 0.000000 0.035129 0.000000
# 6 0.000000 0.000000 0.000000 0.000000 0.000000 0.144593
#
#
# Mechanical properties :
#
#
# Convention : Reuss Voigt Hill
#
# Bulk Modulus (GPa) = 22.05039 23.76059 22.90549
# Shear Modulus (GPa) = 16.77344 23.97184 20.37264
#
# Velocity S-wave (km/s) = 2.79037 3.33581 3.07520
# Velocity P-wave (km/s) = 4.54062 5.08590 4.82097
#
# Compressibility (1/GPa) = 0.04535067
#
# Stress axis : x y z
#
# Youngs Moduli (GPa) = 53.82751 96.65472 46.28619
#
# Poissons Ratio (x) = -0.01812 0.09240
# Poissons Ratio (y) = -0.01009 0.03612
# Poissons Ratio (z) = 0.10745 0.07542
#
# Static dielectric constant tensor:
#      x y z
#    x 1.855570 0.000000 0.000000 
#    y 0.000000 1.739160 0.000000 
#    z 0.000000 0.000000 1.811000 
# 
# From -- ./inp_files/3159.got.cif
#   From: 2010.05.17/outbox.cif.g08.bks.cpg/sg51_2_cif.got.tgz:3159.got - 2010.06.03 11:52:47.
