data_PCOD9404215
_publ_section_title
;
Structure prediction by ZEFSAII (Michael W. Deem and Ramdas Pophale) SiO2 
 PCOD9404215
Probable space group: P M M A
;
_chemical_formula_sum "Si O2"
_cell_formula_units_Z 40
_cell_length_a 9.311466
_cell_length_b 14.384838
_cell_length_c 14.915899
_cell_angle_alpha 90.000000
_cell_angle_beta 90.000000
_cell_angle_gamma 90.000000
_cell_volume 1997.894131
_symmetry_space_group_name_H-M "P M M A"
_symmetry_group_IT_number 51
_symmetry_cell_setting 'orthorhombic'
loop_
_space_group_symop_operation_xyz
x,y,z
1/2-x,-y,z
1/2+x,-y,-z
-x,y,-z
-x,-y,-z
1/2+x,y,-z
1/2-x,y,z
x,-y,z
loop_
_atom_site_type_symbol
_atom_site_label
_atom_site_fract_x
_atom_site_fract_y
_atom_site_fract_z
Si Si1 0.427081 0.000000 0.900990
Si Si2 0.084296 0.640735 0.250378
Si Si3 0.589006 0.108416 0.418375
Si Si4 0.919460 0.863249 0.763901
Si Si5 0.921194 0.500000 0.594635
Si Si6 0.905737 0.392110 0.077246
O O1 0.490699 0.911948 0.843949
O O2 0.250000 0.000000 0.903520
O O3 0.500000 0.000000 0.000000
O O4 0.250000 0.614126 0.232951
O O5 0.075293 0.751651 0.242644
O O6 0.044375 0.590462 0.343518
O O7 0.984235 0.606723 0.171182
O O8 0.500000 0.153240 0.500000
O O9 0.750000 0.148109 0.406178
O O10 0.495467 0.108682 0.328718
O O11 0.608433 0.000000 0.441498
O O12 0.750000 0.889363 0.769034
O O13 0.750000 0.500000 0.579312
O O14 0.000000 0.500000 0.500000
O O15 0.750000 0.347490 0.083771
O O16 0.887300 0.500000 0.051356
O O17 0.000000 0.345731 0.000000
#
# Coordination Sequence:
#
# PCOD9404215 Si02
#       6
#     4   8   8   8   4   8
#     4  12  26  46  69  94 127 172 216 264 324 386
#     4  10  22  40  63  90 124 165 210 259 315 373
#     4  10  20  35  58  87 119 156 196 244 303 365
#     4  11  23  40  64  94 126 164 210 263 318 380
#     4  10  22  42  65  90 127 172 215 262 316 378
#     4  10  20  34  57  87 117 152 194 243 302 362
#
# _framework density 20.021080999999999
#
# number of rings (size 3 to 8) (size 9 to 14) (size 15 to 20)
#    0.000    1.600    2.000    2.700    0.000    5.600 
#    0.000    2.000    0.000    0.000    0.000    0.000 
#    0.000    0.000    0.000    0.000    0.000    0.000 
#
# Total GULP energy -222935.616172 kJ/mol
# GULP energy per Si atom -5573.390404 kJ/mol
# Density = 1.997551 g / cm^3
# Si number density = 20.021081 Si / 1000 Ang^3
#
#
#
# Elastic Constant Matrix: (Units=GPa)
#
#
# Indices 1 2 3 4 5 6 
#
# 1 180.0951 38.4299 109.0554 0.0000 0.0000 0.0000
# 2 38.4299 84.8775 29.9093 0.0000 0.0000 0.0000
# 3 109.0554 29.9093 185.3011 0.0000 0.0000 0.0000
# 4 0.0000 0.0000 0.0000 -19.6846 0.0000 0.0000
# 5 0.0000 0.0000 0.0000 0.0000 23.3806 0.0000
# 6 0.0000 0.0000 0.0000 0.0000 0.0000 20.1726
#
#
#
# Elastic Compliance Matrix: (Units=1/GPa)
#
#
# Indices 1 2 3 4 5 6 
#
# 1 0.009050 -0.002355 -0.004946 0.000000 0.000000 0.000000
# 2 -0.002355 0.013105 -0.000729 0.000000 0.000000 0.000000
# 3 -0.004946 -0.000729 0.008425 0.000000 0.000000 0.000000
# 4 0.000000 0.000000 0.000000 -0.050801 0.000000 0.000000
# 5 0.000000 0.000000 0.000000 0.000000 0.042771 0.000000
# 6 0.000000 0.000000 0.000000 0.000000 0.000000 0.049572
#
#
# Mechanical properties :
#
#
# Convention : Reuss Voigt Hill
#
# Bulk Modulus (GPa) = 68.87202 89.45144 79.16173
# Shear Modulus (GPa) = 53.75017 22.96565 38.35791
#
# Velocity S-wave (km/s) = 5.18701 3.39052 4.38182
# Velocity P-wave (km/s) = 8.38736 7.75262 8.07623
#
# Compressibility (1/GPa) = 0.01451968
#
# Stress axis : x y z
#
# Youngs Moduli (GPa) = 110.49374 76.30763 118.68857
#
# Poissons Ratio (x) = 0.17968 0.58707
# Poissons Ratio (y) = 0.26018 0.08658
# Poissons Ratio (z) = 0.54654 0.05566
#
# Static dielectric constant tensor:
#      x y z
#    x 1.772260 0.000000 0.000000 
#    y 0.000000 1.689390 0.000000 
#    z 0.000000 0.000000 1.666500 
# 
# From -- ./inp_files/20584.got.cif
#   From: 2010.05.17/outbox.cif.g08.bks.cpg/sg51_11_cif.got.tgz:20584.got - 2010.06.03 11:52:47.
