data_PCOD9404769
_publ_section_title
;
Structure prediction by ZEFSAII (Michael W. Deem and Ramdas Pophale) SiO2 
 PCOD9404769
Probable space group: P M M A
;
_chemical_formula_sum "Si O2"
_cell_formula_units_Z 56
_cell_length_a 15.099764
_cell_length_b 16.080492
_cell_length_c 11.684471
_cell_angle_alpha 90.000000
_cell_angle_beta 90.000000
_cell_angle_gamma 90.000000
_cell_volume 2837.125498
_symmetry_space_group_name_H-M "P M M A"
_symmetry_group_IT_number 51
_symmetry_cell_setting 'orthorhombic'
loop_
_space_group_symop_operation_xyz
x,y,z
1/2-x,-y,z
1/2+x,-y,-z
-x,y,-z
-x,-y,-z
1/2+x,y,-z
1/2-x,y,z
x,-y,z
loop_
_atom_site_type_symbol
_atom_site_label
_atom_site_fract_x
_atom_site_fract_y
_atom_site_fract_z
Si Si1 0.854742 0.825339 0.806433
Si Si2 0.853815 0.240213 0.051216
Si Si3 0.856770 0.406144 0.185957
Si Si4 0.651423 0.756654 0.571461
Si Si5 0.035149 0.092850 0.833978
Si Si6 0.091921 0.909347 0.569917
Si Si7 0.403299 0.409724 0.553186
O O1 0.750000 0.853218 0.797284
O O2 0.893643 0.783332 0.690247
O O3 0.928735 0.894900 0.832803
O O4 0.858017 0.762918 0.913789
O O5 0.750000 0.224353 0.082682
O O6 0.879767 0.329359 0.103898
O O7 0.916009 0.166693 0.098565
O O8 0.750000 0.403253 0.202919
O O9 0.878112 0.500000 0.144202
O O10 0.900535 0.395548 0.310679
O O11 0.750000 0.748384 0.613407
O O12 0.642760 0.831090 0.480980
O O13 0.631728 0.671111 0.509820
O O14 0.070495 0.097956 0.703458
O O15 0.056700 0.000000 0.877052
O O16 0.000000 0.909109 0.500000
O O17 0.134518 0.000000 0.549232
O O18 0.500000 0.416730 0.500000
O O19 0.358428 0.500000 0.534043
#
# Coordination Sequence:
#
# PCOD9404769 Si02
#       7
#     8   8   8   8   8   8   8
#     4  10  23  40  57  82 117 158 201 239 284 347
#     4  10  22  40  60  86 119 153 195 247 294 341
#     4   9  18  35  61  88 112 146 193 240 290 346
#     4  11  22  36  58  85 115 154 191 231 290 348
#     4  11  23  39  62  87 114 154 198 242 296 345
#     4  10  20  36  57  82 112 144 184 235 288 344
#     4  10  21  35  55  85 118 149 184 230 284 345
#
# _framework density 19.738288000000001
#
# number of rings (size 3 to 8) (size 9 to 14) (size 15 to 20)
#    0.000    1.857    1.429    2.143    2.000    4.571 
#    0.000    5.000    0.000    4.286    0.000    0.000 
#    0.000    0.000    0.000    0.000    0.000    0.000 
#
# Total GULP energy -312001.419746 kJ/mol
# GULP energy per Si atom -5571.453924 kJ/mol
# Density = 1.969336 g / cm^3
# Si number density = 19.738288 Si / 1000 Ang^3
#
#
#
# Elastic Constant Matrix: (Units=GPa)
#
#
# Indices 1 2 3 4 5 6 
#
# 1 33.8078 33.9983 5.3473 0.0000 0.0000 0.0000
# 2 33.9983 157.1645 52.6242 0.0000 0.0000 0.0000
# 3 5.3473 52.6242 88.3491 0.0000 0.0000 0.0000
# 4 0.0000 0.0000 0.0000 25.7781 0.0000 0.0000
# 5 0.0000 0.0000 0.0000 0.0000 26.3907 0.0000
# 6 0.0000 0.0000 0.0000 0.0000 0.0000 -131.6687
#
#
#
# Elastic Compliance Matrix: (Units=1/GPa)
#
#
# Indices 1 2 3 4 5 6 
#
# 1 0.038553 -0.009442 0.003290 0.000000 0.000000 0.000000
# 2 -0.009442 0.010260 -0.005540 0.000000 0.000000 0.000000
# 3 0.003290 -0.005540 0.014419 0.000000 0.000000 0.000000
# 4 0.000000 0.000000 0.000000 0.038793 0.000000 0.000000
# 5 0.000000 0.000000 0.000000 0.000000 0.037892 0.000000
# 6 0.000000 0.000000 0.000000 0.000000 0.000000 -0.007595
#
#
# Mechanical properties :
#
#
# Convention : Reuss Voigt Hill
#
# Bulk Modulus (GPa) = 25.09375 51.47343 38.28359
# Shear Modulus (GPa) = 29.58775 -3.40988 13.08893
#
# Velocity S-wave (km/s) = 3.87590 -1.31579 2.57791
# Velocity P-wave (km/s) = 5.72459 4.88121 5.31964
#
# Compressibility (1/GPa) = 0.03985056
#
# Stress axis : x y z
#
# Youngs Moduli (GPa) = 25.93804 97.46418 69.35113
#
# Poissons Ratio (x) = 0.92023 -0.22820
# Poissons Ratio (y) = 0.24490 0.38420
# Poissons Ratio (z) = -0.08535 0.53994
#
# Static dielectric constant tensor:
#      x y z
#    x 1.717080 0.000000 0.000000 
#    y 0.000000 1.772660 0.000000 
#    z 0.000000 0.000000 1.843910 
# 
# From -- ./inp_files/16607.got.cif
#   From: 2010.05.17/outbox.cif.g08.bks.cpg/sg51_9_cif.got.tgz:16607.got - 2010.06.03 11:52:47.
