data_PCOD9404888
_publ_section_title
;
Structure prediction by ZEFSAII (Michael W. Deem and Ramdas Pophale) SiO2 
 PCOD9404888
Probable space group: P M M A
;
_chemical_formula_sum "Si O2"
_cell_formula_units_Z 48
_cell_length_a 19.453520
_cell_length_b 8.816881
_cell_length_c 15.459699
_cell_angle_alpha 90.000000
_cell_angle_beta 90.000000
_cell_angle_gamma 90.000000
_cell_volume 2651.637846
_symmetry_space_group_name_H-M "P M M A"
_symmetry_group_IT_number 51
_symmetry_cell_setting 'orthorhombic'
loop_
_space_group_symop_operation_xyz
x,y,z
1/2-x,-y,z
1/2+x,-y,-z
-x,y,-z
-x,-y,-z
1/2+x,y,-z
1/2-x,y,z
x,-y,z
loop_
_atom_site_type_symbol
_atom_site_label
_atom_site_fract_x
_atom_site_fract_y
_atom_site_fract_z
Si Si1 0.329272 0.816915 0.127349
Si Si2 0.421324 0.317204 0.475429
Si Si3 0.422927 0.682724 0.276747
Si Si4 0.078124 0.681783 0.777682
Si Si5 0.670025 0.818281 0.373235
Si Si6 0.923494 0.182620 0.033778
O O1 0.250000 0.768289 0.126335
O O2 0.370019 0.752700 0.209214
O O3 0.331234 0.000000 0.131240
O O4 0.369339 0.771932 0.039996
O O5 0.500000 0.278673 0.500000
O O6 0.415212 0.500000 0.482526
O O7 0.408964 0.273077 0.375924
O O8 0.369587 0.241741 0.542389
O O9 0.419322 0.500000 0.271938
O O10 0.500743 0.726983 0.251061
O O11 0.082064 0.500000 0.774365
O O12 0.131666 0.751007 0.710178
O O13 0.089756 0.740296 0.874536
O O14 0.750000 0.773344 0.374908
O O15 0.666100 0.000000 0.370445
O O16 0.920631 0.000000 0.044393
O O17 0.000000 0.221212 0.000000
#
# Coordination Sequence:
#
# PCOD9404888 Si02
#       6
#     8   8   8   8   8   8
#     4  10  22  39  58  83 118 156 194 242 297 352
#     4  10  20  39  63  88 118 154 196 242 294 351
#     4  10  21  37  60  88 118 152 194 242 290 348
#     4  11  22  38  62  90 119 154 199 247 295 352
#     4  11  25  42  60  88 124 158 196 245 298 353
#     4  10  20  36  59  87 117 154 199 243 295 354
#
# _framework density 18.102018999999999
#
# number of rings (size 3 to 8) (size 9 to 14) (size 15 to 20)
#    0.000    1.667    3.333    1.000    0.000    5.667 
#    0.000    5.000    0.000    0.000    0.000    0.000 
#    0.000    0.000    0.000    0.000    0.000    0.000 
#
# Total GULP energy -268196.245746 kJ/mol
# GULP energy per Si atom -5587.421786 kJ/mol
# Density = 1.806082 g / cm^3
# Si number density = 18.102019 Si / 1000 Ang^3
#
#
#
# Elastic Constant Matrix: (Units=GPa)
#
#
# Indices 1 2 3 4 5 6 
#
# 1 190.3877 53.7009 121.7993 0.0000 0.0000 0.0000
# 2 53.7009 26.9238 54.0490 0.0000 0.0000 0.0000
# 3 121.7993 54.0490 214.2780 0.0000 0.0000 0.0000
# 4 0.0000 0.0000 0.0000 39.0849 0.0000 0.0000
# 5 0.0000 0.0000 0.0000 0.0000 32.6892 0.0000
# 6 0.0000 0.0000 0.0000 0.0000 0.0000 27.4923
#
#
#
# Elastic Compliance Matrix: (Units=1/GPa)
#
#
# Indices 1 2 3 4 5 6 
#
# 1 0.012281 -0.021233 -0.001625 0.000000 0.000000 0.000000
# 2 -0.021233 0.111951 -0.016169 0.000000 0.000000 0.000000
# 3 -0.001625 -0.016169 0.009669 0.000000 0.000000 0.000000
# 4 0.000000 0.000000 0.000000 0.025585 0.000000 0.000000
# 5 0.000000 0.000000 0.000000 0.000000 0.030591 0.000000
# 6 0.000000 0.000000 0.000000 0.000000 0.000000 0.036374
#
#
# Mechanical properties :
#
#
# Convention : Reuss Voigt Hill
#
# Bulk Modulus (GPa) = 17.90600 98.96530 58.43565
# Shear Modulus (GPa) = 15.47404 33.32264 24.39834
#
# Velocity S-wave (km/s) = 2.92691 4.29514 3.67526
# Velocity P-wave (km/s) = 4.61905 8.90995 7.09657
#
# Compressibility (1/GPa) = 0.05584720
#
# Stress axis : x y z
#
# Youngs Moduli (GPa) = 81.42667 8.93244 103.42360
#
# Poissons Ratio (x) = 0.18966 0.16806
# Poissons Ratio (y) = 1.72893 1.67228
# Poissons Ratio (z) = 0.13232 0.14443
#
# Static dielectric constant tensor:
#      x y z
#    x 1.598520 0.000000 0.000000 
#    y 0.000000 1.611910 0.000000 
#    z 0.000000 0.000000 1.589010 
# 
# From -- ./inp_files/24704.got.cif
#   From: 2010.05.17/outbox.cif.g08.bks.cpg/sg51_13_cif.got.tgz:24704.got - 2010.06.03 11:52:47.
