data_PCOD9404047
_publ_section_title
;
Structure prediction by ZEFSAII (Michael W. Deem and Ramdas Pophale) SiO2 
 PCOD9404047
Probable space group: P M M A
;
_chemical_formula_sum "Si O2"
_cell_formula_units_Z 48
_cell_length_a 7.713413
_cell_length_b 8.986000
_cell_length_c 35.997766
_cell_angle_alpha 90.000000
_cell_angle_beta 90.000000
_cell_angle_gamma 90.000000
_cell_volume 2495.103407
_symmetry_space_group_name_H-M "P M M A"
_symmetry_group_IT_number 51
_symmetry_cell_setting 'orthorhombic'
loop_
_space_group_symop_operation_xyz
x,y,z
1/2-x,-y,z
1/2+x,-y,-z
-x,y,-z
-x,-y,-z
1/2+x,y,-z
1/2-x,y,z
x,-y,z
loop_
_atom_site_type_symbol
_atom_site_label
_atom_site_fract_x
_atom_site_fract_y
_atom_site_fract_z
Si Si1 0.042000 0.668689 0.386336
Si Si2 0.445269 0.818872 0.958613
Si Si3 0.542380 0.329521 0.305383
Si Si4 0.750000 0.180669 0.902784
Si Si5 0.250000 0.321799 0.178406
Si Si6 0.458486 0.830756 0.459897
Si Si7 0.456462 0.177469 0.771313
O O1 0.250000 0.662451 0.389630
O O2 0.973706 0.500000 0.385691
O O3 0.975621 0.750638 0.422951
O O4 0.004662 0.734775 0.345753
O O5 0.250000 0.769823 0.950510
O O6 0.583215 0.776641 0.927473
O O7 0.445966 0.000000 0.959536
O O8 0.500000 0.770130 0.000000
O O9 0.750000 0.337550 0.304300
O O10 0.473961 0.500000 0.302812
O O11 0.490220 0.234572 0.269719
O O12 0.750000 0.258791 0.863255
O O13 0.750000 0.000000 0.898180
O O14 0.250000 0.500000 0.179110
O O15 0.419774 0.259134 0.199552
O O16 0.500000 0.760807 0.500000
O O17 0.250000 0.836137 0.457400
O O18 0.525610 0.000000 0.460364
O O19 0.250000 0.209819 0.776553
O O20 0.478749 0.000000 0.774041
#
# Coordination Sequence:
#
# PCOD9404047 Si02
#       7
#     8   8   8   4   4   8   8
#     4   9  18  31  47  70 100 131 166 208 255 316
#     4   9  15  26  49  83 118 151 189 241 302 353
#     4   9  18  33  53  79 110 142 176 217 273 339
#     4  10  20  34  54  84 120 152 198 254 298 350
#     4  12  26  42  62  86 120 166 212 248 298 368
#     4   9  18  32  47  64  89 123 163 207 257 312
#     4  10  22  41  64  90 119 150 194 251 304 355
#
# _framework density 19.237679
#
# number of rings (size 3 to 8) (size 9 to 14) (size 15 to 20)
#    0.000    2.500    0.833    1.250    1.167    3.333 
#    0.000    1.667    0.000    0.500    0.000    0.000 
#    0.000    0.000    0.000    0.000    0.000    0.000 
#
# Total GULP energy -267720.144505 kJ/mol
# GULP energy per Si atom -5577.503011 kJ/mol
# Density = 1.919389 g / cm^3
# Si number density = 19.237679 Si / 1000 Ang^3
#
#
#
# Elastic Constant Matrix: (Units=GPa)
#
#
# Indices 1 2 3 4 5 6 
#
# 1 93.8582 37.4180 73.6950 0.0000 0.0000 0.0000
# 2 37.4180 61.4214 71.1497 0.0000 0.0000 0.0000
# 3 73.6950 71.1497 217.9768 0.0000 0.0000 0.0000
# 4 0.0000 0.0000 0.0000 56.1885 0.0000 0.0000
# 5 0.0000 0.0000 0.0000 0.0000 30.2209 0.0000
# 6 0.0000 0.0000 0.0000 0.0000 0.0000 -39.2688
#
#
#
# Elastic Compliance Matrix: (Units=1/GPa)
#
#
# Indices 1 2 3 4 5 6 
#
# 1 0.015560 -0.005444 -0.003484 0.000000 0.000000 0.000000
# 2 -0.005444 0.028084 -0.007327 0.000000 0.000000 0.000000
# 3 -0.003484 -0.007327 0.008157 0.000000 0.000000 0.000000
# 4 0.000000 0.000000 0.000000 0.017797 0.000000 0.000000
# 5 0.000000 0.000000 0.000000 0.000000 0.033090 0.000000
# 6 0.000000 0.000000 0.000000 0.000000 0.000000 -0.025466
#
#
# Mechanical properties :
#
#
# Convention : Reuss Voigt Hill
#
# Bulk Modulus (GPa) = 51.83165 81.97578 66.90371
# Shear Modulus (GPa) = 43.04362 22.16103 32.60233
#
# Velocity S-wave (km/s) = 4.73532 3.39774 4.12115
# Velocity P-wave (km/s) = 7.54314 7.62217 7.58275
#
# Compressibility (1/GPa) = 0.01929323
#
# Stress axis : x y z
#
# Youngs Moduli (GPa) = 64.26784 35.60721 122.59543
#
# Poissons Ratio (x) = 0.19383 0.42709
# Poissons Ratio (y) = 0.34985 0.89820
# Poissons Ratio (z) = 0.22389 0.26088
#
# Static dielectric constant tensor:
#      x y z
#    x 1.685430 0.000000 0.000000 
#    y 0.000000 1.666470 0.000000 
#    z 0.000000 0.000000 1.663890 
# 
# From -- ./inp_files/37080.got.cif
#   From: 2010.05.17/outbox.cif.g08.bks.cpg/sg51_19_cif.got.tgz:37080.got - 2010.06.03 11:52:47.
