data_PCOD9404700
_publ_section_title
;
Structure prediction by ZEFSAII (Michael W. Deem and Ramdas Pophale) SiO2 
 PCOD9404700
Probable space group: P M M A
;
_chemical_formula_sum "Si O2"
_cell_formula_units_Z 48
_cell_length_a 10.060857
_cell_length_b 14.525063
_cell_length_c 18.549831
_cell_angle_alpha 90.000000
_cell_angle_beta 90.000000
_cell_angle_gamma 90.000000
_cell_volume 2710.771795
_symmetry_space_group_name_H-M "P M M A"
_symmetry_group_IT_number 51
_symmetry_cell_setting 'orthorhombic'
loop_
_space_group_symop_operation_xyz
x,y,z
1/2-x,-y,z
1/2+x,-y,-z
-x,y,-z
-x,-y,-z
1/2+x,y,-z
1/2-x,y,z
x,-y,z
loop_
_atom_site_type_symbol
_atom_site_label
_atom_site_fract_x
_atom_site_fract_y
_atom_site_fract_z
Si Si1 0.402214 0.107963 0.938023
Si Si2 0.593872 0.248060 0.190122
Si Si3 0.004286 0.784440 0.652998
Si Si4 0.407798 0.395250 0.570806
Si Si5 0.905779 0.609756 0.067681
Si Si6 0.250000 0.890884 0.584430
Si Si7 0.750000 0.111884 0.588372
O O1 0.250000 0.119075 0.962301
O O2 0.417656 0.163172 0.864690
O O3 0.427267 0.000000 0.926063
O O4 0.500000 0.141612 0.000000
O O5 0.750000 0.258293 0.211349
O O6 0.510677 0.227635 0.261185
O O7 0.557439 0.335633 0.140427
O O8 0.032291 0.682828 0.621649
O O9 0.124015 0.846239 0.622681
O O10 0.875353 0.836155 0.623043
O O11 0.500000 0.392403 0.500000
O O12 0.250000 0.376858 0.556427
O O13 0.415415 0.500000 0.599829
O O14 0.750000 0.632596 0.052385
O O15 0.914801 0.500000 0.078659
O O16 0.000000 0.633302 0.000000
O O17 0.250000 0.873188 0.498309
O O18 0.250000 0.000000 0.594196
O O19 0.750000 0.000000 0.600156
#
# Coordination Sequence:
#
# PCOD9404700 Si02
#       7
#     8   8   8   8   8   4   4
#     4   9  18  33  53  76 103 139 182 226 271 328
#     4  10  20  36  55  83 114 150 192 233 288 347
#     4  12  23  40  60  89 121 157 197 250 308 360
#     4  10  21  37  61  90 118 153 195 240 291 351
#     4   9  18  34  58  86 117 154 196 239 283 341
#     4  11  22  40  67  87 108 151 205 251 303 372
#     4  11  26  44  61  87 120 155 201 257 315 368
#
# _framework density 17.707135000000001
#
# number of rings (size 3 to 8) (size 9 to 14) (size 15 to 20)
#    0.000    1.833    1.667    2.500    1.167    3.333 
#    3.000    1.667    0.000    0.000    0.000    0.000 
#    0.000    0.000    0.000    0.000    0.000    0.000 
#
# Total GULP energy -267780.648611 kJ/mol
# GULP energy per Si atom -5578.763513 kJ/mol
# Density = 1.766683 g / cm^3
# Si number density = 17.707135 Si / 1000 Ang^3
#
#
#
# Elastic Constant Matrix: (Units=GPa)
#
#
# Indices 1 2 3 4 5 6 
#
# 1 105.9888 50.7278 53.9794 0.0000 0.0000 0.0000
# 2 50.7278 107.4996 56.8188 0.0000 0.0000 0.0000
# 3 53.9794 56.8188 108.7161 0.0000 0.0000 0.0000
# 4 0.0000 0.0000 0.0000 6.1725 0.0000 0.0000
# 5 0.0000 0.0000 0.0000 0.0000 15.7795 0.0000
# 6 0.0000 0.0000 0.0000 0.0000 0.0000 192.0635
#
#
#
# Elastic Compliance Matrix: (Units=1/GPa)
#
#
# Indices 1 2 3 4 5 6 
#
# 1 0.013761 -0.003982 -0.004751 0.000000 0.000000 0.000000
# 2 -0.003982 0.014005 -0.005342 0.000000 0.000000 0.000000
# 3 -0.004751 -0.005342 0.014349 0.000000 0.000000 0.000000
# 4 0.000000 0.000000 0.000000 0.162008 0.000000 0.000000
# 5 0.000000 0.000000 0.000000 0.000000 0.063373 0.000000
# 6 0.000000 0.000000 0.000000 0.000000 0.000000 0.005207
#
#
# Mechanical properties :
#
#
# Convention : Reuss Voigt Hill
#
# Bulk Modulus (GPa) = 71.61393 71.69516 71.65455
# Shear Modulus (GPa) = 16.36609 53.51501 34.94055
#
# Velocity S-wave (km/s) = 3.04347 5.50344 4.44694
# Velocity P-wave (km/s) = 7.27198 8.99784 8.18055
#
# Compressibility (1/GPa) = 0.01396376
#
# Stress axis : x y z
#
# Youngs Moduli (GPa) = 72.67094 71.40178 69.68942
#
# Poissons Ratio (x) = 0.28434 0.33110
# Poissons Ratio (y) = 0.28940 0.37231
# Poissons Ratio (z) = 0.34527 0.38145
#
# Static dielectric constant tensor:
#      x y z
#    x 1.665160 0.000000 0.000000 
#    y 0.000000 1.624240 0.000000 
#    z 0.000000 0.000000 1.553050 
# 
# From -- ./inp_files/27623.got.cif
#   From: 2010.05.17/outbox.cif.g08.bks.cpg/sg51_14_cif.got.tgz:27623.got - 2010.06.03 11:52:47.
