data_PCOD9404912
_publ_section_title
;
Structure prediction by ZEFSAII (Michael W. Deem and Ramdas Pophale) SiO2 
 PCOD9404912
Probable space group: P M M A
;
_chemical_formula_sum "Si O2"
_cell_formula_units_Z 48
_cell_length_a 18.137959
_cell_length_b 9.322186
_cell_length_c 15.397358
_cell_angle_alpha 90.000000
_cell_angle_beta 90.000000
_cell_angle_gamma 90.000000
_cell_volume 2603.468859
_symmetry_space_group_name_H-M "P M M A"
_symmetry_group_IT_number 51
_symmetry_cell_setting 'orthorhombic'
loop_
_space_group_symop_operation_xyz
x,y,z
1/2-x,-y,z
1/2+x,-y,-z
-x,y,-z
-x,-y,-z
1/2+x,y,-z
1/2-x,y,z
x,-y,z
loop_
_atom_site_type_symbol
_atom_site_label
_atom_site_fract_x
_atom_site_fract_y
_atom_site_fract_z
Si Si1 0.514421 0.836741 0.147796
Si Si2 0.527734 0.670931 0.323338
Si Si3 0.619906 0.837044 0.987481
Si Si4 0.750000 0.667731 0.912499
Si Si5 0.335820 0.169733 0.592968
Si Si6 0.612303 0.169337 0.605129
Si Si7 0.750000 0.828381 0.729325
O O1 0.514238 0.724934 0.225200
O O2 0.442661 0.827462 0.086732
O O3 0.517142 0.000000 0.183322
O O4 0.581682 0.818274 0.080708
O O5 0.527849 0.500000 0.329893
O O6 0.605164 0.737553 0.354651
O O7 0.460775 0.738692 0.379100
O O8 0.679897 0.720209 0.966331
O O9 0.650086 0.000000 0.983363
O O10 0.750000 0.500000 0.897672
O O11 0.750000 0.749128 0.820529
O O12 0.250000 0.206715 0.608269
O O13 0.354748 0.187835 0.490999
O O14 0.345128 0.000000 0.613040
O O15 0.676671 0.206102 0.673886
O O16 0.594470 0.000000 0.615797
O O17 0.750000 0.000000 0.743147
#
# Coordination Sequence:
#
# PCOD9404912 Si02
#       7
#     8   8   8   4   8   8   4
#     4   9  19  39  64  86 107 143 196 246 285 327
#     4  12  25  37  55  88 124 158 191 227 286 360
#     4   9  19  38  63  85 109 144 192 244 289 330
#     4  12  24  34  50  85 124 155 184 219 280 355
#     4  10  21  41  65  86 110 148 201 252 293 331
#     4  10  20  38  63  88 113 147 197 250 291 332
#     4  10  20  36  60  87 116 149 192 247 294 333
#
# _framework density 18.436941000000001
#
# number of rings (size 3 to 8) (size 9 to 14) (size 15 to 20)
#    0.000    1.833    0.833    4.750    0.000    9.000 
#    1.500    1.667    0.000    0.000    0.000    0.000 
#    0.000    0.000    0.000    0.000    0.000    0.000 
#
# Total GULP energy -268181.681204 kJ/mol
# GULP energy per Si atom -5587.118358 kJ/mol
# Density = 1.839498 g / cm^3
# Si number density = 18.436941 Si / 1000 Ang^3
#
#
#
# Elastic Constant Matrix: (Units=GPa)
#
#
# Indices 1 2 3 4 5 6 
#
# 1 97.7074 53.2997 10.1166 0.0000 0.0000 0.0000
# 2 53.2997 70.5096 11.7944 0.0000 0.0000 0.0000
# 3 10.1166 11.7944 13.6273 0.0000 0.0000 0.0000
# 4 0.0000 0.0000 0.0000 -23.2476 0.0000 0.0000
# 5 0.0000 0.0000 0.0000 0.0000 10.5818 0.0000
# 6 0.0000 0.0000 0.0000 0.0000 0.0000 -97.7564
#
#
#
# Elastic Compliance Matrix: (Units=1/GPa)
#
#
# Indices 1 2 3 4 5 6 
#
# 1 0.017454 -0.012893 -0.001799 0.000000 0.000000 0.000000
# 2 -0.012893 0.026107 -0.013024 0.000000 0.000000 0.000000
# 3 -0.001799 -0.013024 0.085990 0.000000 0.000000 0.000000
# 4 0.000000 0.000000 0.000000 -0.043015 0.000000 0.000000
# 5 0.000000 0.000000 0.000000 0.000000 0.094502 0.000000
# 6 0.000000 0.000000 0.000000 0.000000 0.000000 -0.010230
#
#
# Mechanical properties :
#
#
# Convention : Reuss Voigt Hill
#
# Bulk Modulus (GPa) = 13.49172 36.91841 25.20507
# Shear Modulus (GPa) = 19.92450 -14.97554 2.47448
#
# Velocity S-wave (km/s) = 3.29094 -2.85311 1.15976
# Velocity P-wave (km/s) = 4.66627 3.03546 3.93625
#
# Compressibility (1/GPa) = 0.07411952
#
# Stress axis : x y z
#
# Youngs Moduli (GPa) = 57.29329 38.30356 11.62923
#
# Poissons Ratio (x) = 0.49385 0.02092
# Poissons Ratio (y) = 0.73868 0.15146
# Poissons Ratio (z) = 0.10305 0.49888
#
# Static dielectric constant tensor:
#      x y z
#    x 1.636350 0.000000 0.000000 
#    y 0.000000 1.607640 0.000000 
#    z 0.000000 0.000000 1.620520 
# 
# From -- ./inp_files/24862.got.cif
#   From: 2010.05.17/outbox.cif.g08.bks.cpg/sg51_13_cif.got.tgz:24862.got - 2010.06.03 11:52:47.
