data_PCOD9404029
_publ_section_title
;
Structure prediction by ZEFSAII (Michael W. Deem and Ramdas Pophale) SiO2 
 PCOD9404029
Probable space group: P M M A
;
_chemical_formula_sum "Si O2"
_cell_formula_units_Z 52
_cell_length_a 12.018471
_cell_length_b 8.143464
_cell_length_c 30.145195
_cell_angle_alpha 90.000000
_cell_angle_beta 90.000000
_cell_angle_gamma 90.000000
_cell_volume 2950.370101
_symmetry_space_group_name_H-M "P M M A"
_symmetry_group_IT_number 51
_symmetry_cell_setting 'orthorhombic'
loop_
_space_group_symop_operation_xyz
x,y,z
1/2-x,-y,z
1/2+x,-y,-z
-x,y,-z
-x,-y,-z
1/2+x,y,-z
1/2-x,y,z
x,-y,z
loop_
_atom_site_type_symbol
_atom_site_label
_atom_site_fract_x
_atom_site_fract_y
_atom_site_fract_z
Si Si1 0.518410 0.309024 0.716849
Si Si2 0.250000 0.188942 0.424471
Si Si3 0.611197 0.000000 0.968070
Si Si4 0.487133 0.308856 0.450867
Si Si5 0.116389 0.687002 0.095091
Si Si6 0.750000 0.810422 0.681291
Si Si7 0.625844 0.194620 0.365553
Si Si8 0.379073 0.699877 0.195042
O O1 0.490441 0.500000 0.720602
O O2 0.641064 0.283583 0.696786
O O3 0.435463 0.236497 0.680505
O O4 0.537385 0.240317 0.766607
O O5 0.359141 0.282125 0.439409
O O6 0.250000 0.182527 0.371502
O O7 0.250000 0.000000 0.440807
O O8 0.595357 0.833309 0.939255
O O9 0.750000 0.000000 0.981051
O O10 0.500000 0.000000 0.000000
O O11 0.500000 0.233226 0.500000
O O12 0.516359 0.500000 0.453889
O O13 0.557488 0.242566 0.409457
O O14 0.250000 0.673916 0.098001
O O15 0.075527 0.500000 0.084608
O O16 0.081948 0.736143 0.145125
O O17 0.750000 0.000000 0.697527
O O18 0.750000 0.267152 0.366736
O O19 0.633559 0.000000 0.366846
O O20 0.250000 0.756589 0.201564
O O21 0.374741 0.500000 0.198160
#
# Coordination Sequence:
#
# PCOD9404029 Si02
#       8
#     8   4   4   8   8   4   8   8
#     4  11  20  33  56  82 108 140 176 218 266 316
#     4  11  23  39  61  83 112 140 166 204 262 320
#     4  10  20  34  54  82 114 152 200 246 295 350
#     4  11  25  42  62  86 107 131 170 219 265 313
#     4   8  15  30  50  76 114 151 186 236 292 343
#     4  11  21  33  49  81 116 140 166 204 258 318
#     4  11  25  43  58  76 106 143 180 217 262 322
#     4   8  14  27  48  78 113 143 175 220 278 329
#
# _framework density 17.624907
#
# number of rings (size 3 to 8) (size 9 to 14) (size 15 to 20)
#    0.000    2.000    2.308    2.769    1.077    3.385 
#    2.769    0.000    0.000    0.923    0.000    2.154 
#    0.000    0.000    0.000    0.000    0.000    0.000 
#
# Total GULP energy -289478.526006 kJ/mol
# GULP energy per Si atom -5566.894731 kJ/mol
# Density = 1.758479 g / cm^3
# Si number density = 17.624907 Si / 1000 Ang^3
#
#
#
# Elastic Constant Matrix: (Units=GPa)
#
#
# Indices 1 2 3 4 5 6 
#
# 1 97.7567 11.6769 59.8619 0.0000 0.0000 0.0000
# 2 11.6769 51.3668 42.0726 0.0000 0.0000 0.0000
# 3 59.8619 42.0726 131.2146 0.0000 0.0000 0.0000
# 4 0.0000 0.0000 0.0000 44.4194 0.0000 0.0000
# 5 0.0000 0.0000 0.0000 0.0000 56.2193 0.0000
# 6 0.0000 0.0000 0.0000 0.0000 0.0000 28.2369
#
#
#
# Elastic Compliance Matrix: (Units=1/GPa)
#
#
# Indices 1 2 3 4 5 6 
#
# 1 0.014502 0.002878 -0.007539 0.000000 0.000000 0.000000
# 2 0.002878 0.026973 -0.009962 0.000000 0.000000 0.000000
# 3 -0.007539 -0.009962 0.014255 0.000000 0.000000 0.000000
# 4 0.000000 0.000000 0.000000 0.022513 0.000000 0.000000
# 5 0.000000 0.000000 0.000000 0.000000 0.017787 0.000000
# 6 0.000000 0.000000 0.000000 0.000000 0.000000 0.035415
#
#
# Mechanical properties :
#
#
# Convention : Reuss Voigt Hill
#
# Bulk Modulus (GPa) = 37.75757 56.39565 47.07661
# Shear Modulus (GPa) = 29.49550 36.89022 33.19286
#
# Velocity S-wave (km/s) = 4.09530 4.57997 4.34440
# Velocity P-wave (km/s) = 6.62052 7.74825 7.20648
#
# Compressibility (1/GPa) = 0.02648476
#
# Stress axis : x y z
#
# Youngs Moduli (GPa) = 68.95499 37.07444 70.15292
#
# Poissons Ratio (x) = -0.10671 0.52888
# Poissons Ratio (y) = -0.19847 0.69884
# Poissons Ratio (z) = 0.51985 0.36932
#
# Static dielectric constant tensor:
#      x y z
#    x 1.586690 0.000000 0.000000 
#    y 0.000000 1.629120 0.000000 
#    z 0.000000 0.000000 1.653170 
# 
# From -- ./inp_files/36624.got.cif
#   From: 2010.05.17/outbox.cif.g08.bks.cpg/sg51_19_cif.got.tgz:36624.got - 2010.06.03 11:52:47.
