data_PCOD9404297
_publ_section_title
;
Structure prediction by ZEFSAII (Michael W. Deem and Ramdas Pophale) SiO2 
 PCOD9404297
Probable space group: P M M A
;
_chemical_formula_sum "Si O2"
_cell_formula_units_Z 48
_cell_length_a 24.396786
_cell_length_b 7.417229
_cell_length_c 10.108975
_cell_angle_alpha 90.000000
_cell_angle_beta 90.000000
_cell_angle_gamma 90.000000
_cell_volume 1829.285226
_symmetry_space_group_name_H-M "P M M A"
_symmetry_group_IT_number 51
_symmetry_cell_setting 'orthorhombic'
loop_
_space_group_symop_operation_xyz
x,y,z
1/2-x,-y,z
1/2+x,-y,-z
-x,y,-z
-x,-y,-z
1/2+x,y,-z
1/2-x,y,z
x,-y,z
loop_
_atom_site_type_symbol
_atom_site_label
_atom_site_fract_x
_atom_site_fract_y
_atom_site_fract_z
Si Si1 0.069084 0.778643 0.748458
Si Si2 0.925776 0.206981 0.540588
Si Si3 0.809942 0.718139 0.618748
Si Si4 0.955201 0.218797 0.832871
Si Si5 0.837593 0.708177 0.914714
Si Si6 0.190829 0.204998 0.800204
O O1 0.052797 0.722850 0.598655
O O2 0.131038 0.712152 0.769692
O O3 0.018890 0.727279 0.844999
O O4 0.071014 0.000000 0.752640
O O5 0.859893 0.213270 0.532498
O O6 0.939087 0.284198 0.684273
O O7 0.943274 0.000000 0.549470
O O8 0.750000 0.774485 0.574257
O O9 0.812540 0.500000 0.617824
O O10 0.819623 0.777935 0.770777
O O11 0.903796 0.279363 0.919575
O O12 0.953862 0.000000 0.839954
O O13 0.821144 0.500000 0.920917
O O14 0.811617 0.801062 0.040264
O O15 0.250000 0.286748 0.761289
O O16 0.190303 0.000000 0.749714
#
# Coordination Sequence:
#
# PCOD9404297 Si02
#       6
#     8   8   8   8   8   8
#     4   9  18  33  53  76 104 137 168 203 250 300
#     4   9  17  30  51  78 103 130 167 208 249 297
#     4   9  18  32  49  70  98 132 167 206 256 306
#     4   9  17  32  55  80 104 131 166 207 252 303
#     4  10  20  35  54  75 101 132 168 213 262 304
#     4  10  21  36  53  73  99 134 174 210 246 296
#
# _framework density 26.239756
#
# number of rings (size 3 to 8) (size 9 to 14) (size 15 to 20)
#    0.000    2.667    0.000    1.500    0.000    5.333 
#    0.000    7.500    0.000    4.000    0.000    0.000 
#    0.000    0.000    0.000    0.000    0.000    0.000 
#
# Total GULP energy -268235.147582 kJ/mol
# GULP energy per Si atom -5588.232241 kJ/mol
# Density = 2.618003 g / cm^3
# Si number density = 26.239756 Si / 1000 Ang^3
#
#
#
# Elastic Constant Matrix: (Units=GPa)
#
#
# Indices 1 2 3 4 5 6 
#
# 1 199.9356 0.1599 11.5939 0.0000 0.0000 0.0000
# 2 0.1599 90.6593 -6.8593 0.0000 0.0000 0.0000
# 3 11.5939 -6.8593 55.9804 0.0000 0.0000 0.0000
# 4 0.0000 0.0000 0.0000 20.7788 0.0000 0.0000
# 5 0.0000 0.0000 0.0000 0.0000 27.5243 0.0000
# 6 0.0000 0.0000 0.0000 0.0000 0.0000 31.6356
#
#
#
# Elastic Compliance Matrix: (Units=1/GPa)
#
#
# Indices 1 2 3 4 5 6 
#
# 1 0.005063 -0.000089 -0.001060 0.000000 0.000000 0.000000
# 2 -0.000089 0.011135 0.001383 0.000000 0.000000 0.000000
# 3 -0.001060 0.001383 0.018252 0.000000 0.000000 0.000000
# 4 0.000000 0.000000 0.000000 0.048126 0.000000 0.000000
# 5 0.000000 0.000000 0.000000 0.000000 0.036332 0.000000
# 6 0.000000 0.000000 0.000000 0.000000 0.000000 0.031610
#
#
# Mechanical properties :
#
#
# Convention : Reuss Voigt Hill
#
# Bulk Modulus (GPa) = 28.63777 39.59604 34.11690
# Shear Modulus (GPa) = 30.92352 38.76646 34.84499
#
# Velocity S-wave (km/s) = 3.43665 3.84786 3.64805
# Velocity P-wave (km/s) = 5.16575 5.90459 5.54749
#
# Compressibility (1/GPa) = 0.03491892
#
# Stress axis : x y z
#
# Youngs Moduli (GPa) = 197.50665 89.80617 54.78773
#
# Poissons Ratio (x) = 0.00800 0.05805
# Poissons Ratio (y) = 0.01760 -0.07576
# Poissons Ratio (z) = 0.20926 -0.12419
#
# Static dielectric constant tensor:
#      x y z
#    x 2.091930 0.000000 0.000000 
#    y 0.000000 1.996060 0.000000 
#    z 0.000000 0.000000 2.033560 
# 
# From -- ./inp_files/11655.got.cif
#   From: 2010.05.17/outbox.cif.g08.bks.cpg/sg51_6_cif.got.tgz:11655.got - 2010.06.03 11:52:47.
