data_PCOD9404824
_publ_section_title
;
Structure prediction by ZEFSAII (Michael W. Deem and Ramdas Pophale) SiO2 
 PCOD9404824
Probable space group: P M M A
;
_chemical_formula_sum "Si O2"
_cell_formula_units_Z 64
_cell_length_a 28.996764
_cell_length_b 8.216647
_cell_length_c 13.371768
_cell_angle_alpha 90.000000
_cell_angle_beta 90.000000
_cell_angle_gamma 90.000000
_cell_volume 3185.906282
_symmetry_space_group_name_H-M "P M M A"
_symmetry_group_IT_number 51
_symmetry_cell_setting 'orthorhombic'
loop_
_space_group_symop_operation_xyz
x,y,z
1/2-x,-y,z
1/2+x,-y,-z
-x,y,-z
-x,-y,-z
1/2+x,y,-z
1/2-x,y,z
x,-y,z
loop_
_atom_site_type_symbol
_atom_site_label
_atom_site_fract_x
_atom_site_fract_y
_atom_site_fract_z
Si Si1 0.050206 0.196500 0.536769
Si Si2 0.353532 0.693805 0.469050
Si Si3 0.697243 0.803867 0.730917
Si Si4 0.802847 0.696384 0.329724
Si Si5 0.468378 0.693188 0.092382
Si Si6 0.044963 0.196639 0.766047
Si Si7 0.863378 0.195394 0.916690
Si Si8 0.140122 0.803427 0.861844
O O1 0.092708 0.261438 0.472909
O O2 0.055259 0.246328 0.652496
O O3 0.000000 0.249778 0.500000
O O4 0.051658 0.000000 0.532476
O O5 0.348811 0.500000 0.467452
O O6 0.327609 0.761295 0.372624
O O7 0.330685 0.755858 0.572719
O O8 0.750000 0.743696 0.732521
O O9 0.667213 0.741645 0.824844
O O10 0.698759 0.000000 0.737976
O O11 0.750000 0.752607 0.334167
O O12 0.802996 0.500000 0.332916
O O13 0.826831 0.748205 0.226992
O O14 0.463588 0.500000 0.080834
O O15 0.497779 0.733299 0.190921
O O16 0.417499 0.766749 0.095045
O O17 0.500000 0.756088 0.000000
O O18 0.088066 0.249291 0.834128
O O19 0.041965 0.000000 0.768625
O O20 0.858638 0.000000 0.917292
O O21 0.848130 0.254988 0.026707
O O22 0.140197 0.000000 0.862209
#
# Coordination Sequence:
#
# PCOD9404824 Si02
#       8
#     8   8   8   8   8   8   8   8
#     4  10  22  39  59  86 121 158 195 239 293 353
#     4  11  23  40  63  89 121 157 196 243 295 357
#     4  10  23  43  65  87 114 154 204 255 304 355
#     4  10  22  39  59  85 117 152 188 233 295 357
#     4  11  23  36  55  86 121 158 198 239 285 346
#     4  10  20  36  58  83 116 156 197 240 292 349
#     4  10  22  40  62  87 119 158 200 248 301 353
#     4  10  20  36  60  89 116 149 194 244 293 349
#
# _framework density 20.088476
#
# number of rings (size 3 to 8) (size 9 to 14) (size 15 to 20)
#    0.000    1.750    2.500    1.125    1.750    4.750 
#    0.000    1.250    0.000    0.000    0.000    0.000 
#    0.000    0.000    0.000    0.000    0.000    0.000 
#
# Total GULP energy -357576.861243 kJ/mol
# GULP energy per Si atom -5587.138457 kJ/mol
# Density = 2.004275 g / cm^3
# Si number density = 20.088476 Si / 1000 Ang^3
#
#
#
# Elastic Constant Matrix: (Units=GPa)
#
#
# Indices 1 2 3 4 5 6 
#
# 1 160.8565 10.2375 95.9927 0.0000 0.0000 0.0000
# 2 10.2375 6.2906 16.0738 0.0000 0.0000 0.0000
# 3 95.9927 16.0738 158.3653 0.0000 0.0000 0.0000
# 4 0.0000 0.0000 0.0000 26.2729 0.0000 0.0000
# 5 0.0000 0.0000 0.0000 0.0000 26.7768 0.0000
# 6 0.0000 0.0000 0.0000 0.0000 0.0000 -253.4740
#
#
#
# Elastic Compliance Matrix: (Units=1/GPa)
#
#
# Indices 1 2 3 4 5 6 
#
# 1 0.009745 -0.001034 -0.005802 0.000000 0.000000 0.000000
# 2 -0.001034 0.214744 -0.021169 0.000000 0.000000 0.000000
# 3 -0.005802 -0.021169 0.011980 0.000000 0.000000 0.000000
# 4 0.000000 0.000000 0.000000 0.038062 0.000000 0.000000
# 5 0.000000 0.000000 0.000000 0.000000 0.037346 0.000000
# 6 0.000000 0.000000 0.000000 0.000000 0.000000 -0.003945
#
#
# Mechanical properties :
#
#
# Convention : Reuss Voigt Hill
#
# Bulk Modulus (GPa) = 5.54146 63.34671 34.44408
# Shear Modulus (GPa) = 11.78983 -26.53764 -7.37391
#
# Velocity S-wave (km/s) = 2.42522 -3.63855 -1.91799
# Velocity P-wave (km/s) = 3.25680 3.73500 3.50407
#
# Compressibility (1/GPa) = 0.18045792
#
# Stress axis : x y z
#
# Youngs Moduli (GPa) = 102.61826 4.65672 83.47270
#
# Poissons Ratio (x) = 0.00482 0.48430
# Poissons Ratio (y) = 0.10611 1.76706
# Poissons Ratio (z) = 0.59538 0.09858
#
# Static dielectric constant tensor:
#      x y z
#    x 1.686410 0.000000 0.000000 
#    y 0.000000 1.702640 0.000000 
#    z 0.000000 0.000000 1.714060 
# 
# From -- ./inp_files/19647.got.cif
#   From: 2010.05.17/outbox.cif.g08.bks.cpg/sg51_10_cif.got.tgz:19647.got - 2010.06.03 11:52:47.
