data_PCOD9404964
_publ_section_title
;
Structure prediction by ZEFSAII (Michael W. Deem and Ramdas Pophale) SiO2 
 PCOD9404964
Probable space group: P M M A
;
_chemical_formula_sum "Si O2"
_cell_formula_units_Z 48
_cell_length_a 11.451626
_cell_length_b 14.354297
_cell_length_c 15.251812
_cell_angle_alpha 90.000000
_cell_angle_beta 90.000000
_cell_angle_gamma 90.000000
_cell_volume 2507.093478
_symmetry_space_group_name_H-M "P M M A"
_symmetry_group_IT_number 51
_symmetry_cell_setting 'orthorhombic'
loop_
_space_group_symop_operation_xyz
x,y,z
1/2-x,-y,z
1/2+x,-y,-z
-x,y,-z
-x,-y,-z
1/2+x,y,-z
1/2-x,y,z
x,-y,z
loop_
_atom_site_type_symbol
_atom_site_label
_atom_site_fract_x
_atom_site_fract_y
_atom_site_fract_z
Si Si1 0.499241 0.309949 0.899009
Si Si2 0.250000 0.607415 0.855162
Si Si3 0.024392 0.390618 0.603586
Si Si4 0.750000 0.694286 0.322234
Si Si5 0.501243 0.893648 0.598949
Si Si6 0.250000 0.100963 0.688906
Si Si7 0.112272 0.743775 0.274849
Si Si8 0.110878 0.500000 0.068568
O O1 0.367080 0.344475 0.887672
O O2 0.540129 0.248739 0.816563
O O3 0.582759 0.400886 0.887768
O O4 0.500000 0.274433 0.000000
O O5 0.250000 0.500000 0.877986
O O6 0.250000 0.616371 0.751494
O O7 0.044527 0.500000 0.624721
O O8 0.135845 0.325207 0.621676
O O9 0.000000 0.385973 0.500000
O O10 0.927878 0.347027 0.668878
O O11 0.750000 0.794106 0.272759
O O12 0.500000 0.856730 0.500000
O O13 0.367919 0.897973 0.632268
O O14 0.575689 0.829765 0.663310
O O15 0.546596 0.000000 0.596980
O O16 0.250000 0.000000 0.737684
O O17 0.250000 0.742301 0.258117
O O18 0.250000 0.500000 0.050141
O O19 0.000000 0.500000 0.000000
#
# Coordination Sequence:
#
# PCOD9404964 Si02
#       8
#     8   4   8   4   8   4   8   4
#     4  11  25  39  61  86 125 163 214 272 330 385
#     4  12  22  38  62  90 115 169 219 272 329 386
#     4  11  25  41  58  85 121 169 213 256 305 373
#     4  12  22  40  64  85 120 157 217 259 313 378
#     4  10  22  40  66  98 128 162 203 255 317 378
#     4  10  20  36  62  89 121 154 202 255 308 370
#     4  12  26  41  61  91 127 167 210 263 320 381
#     4  10  22  36  58  84 119 158 213 270 329 384
#
# _framework density 19.145676000000002
#
# number of rings (size 3 to 8) (size 9 to 14) (size 15 to 20)
#    0.000    1.000    4.167    1.750    9.333    0.667 
#    0.000    0.000    0.000    0.500    0.000    0.000 
#    0.000    0.000    0.000    0.000    0.000    0.000 
#
# Total GULP energy -267605.951923 kJ/mol
# GULP energy per Si atom -5575.123998 kJ/mol
# Density = 1.910210 g / cm^3
# Si number density = 19.145676 Si / 1000 Ang^3
#
#
#
# Elastic Constant Matrix: (Units=GPa)
#
#
# Indices 1 2 3 4 5 6 
#
# 1 142.5356 24.6464 35.7887 0.0000 0.0000 0.0000
# 2 24.6464 98.5375 33.5694 0.0000 0.0000 0.0000
# 3 35.7887 33.5694 123.5284 0.0000 0.0000 0.0000
# 4 0.0000 0.0000 0.0000 10.0690 0.0000 0.0000
# 5 0.0000 0.0000 0.0000 0.0000 17.7854 0.0000
# 6 0.0000 0.0000 0.0000 0.0000 0.0000 12.0450
#
#
#
# Elastic Compliance Matrix: (Units=1/GPa)
#
#
# Indices 1 2 3 4 5 6 
#
# 1 0.007711 -0.001287 -0.001884 0.000000 0.000000 0.000000
# 2 -0.001287 0.011399 -0.002725 0.000000 0.000000 0.000000
# 3 -0.001884 -0.002725 0.009382 0.000000 0.000000 0.000000
# 4 0.000000 0.000000 0.000000 0.099314 0.000000 0.000000
# 5 0.000000 0.000000 0.000000 0.000000 0.056226 0.000000
# 6 0.000000 0.000000 0.000000 0.000000 0.000000 0.083022
#
#
# Mechanical properties :
#
#
# Convention : Reuss Voigt Hill
#
# Bulk Modulus (GPa) = 59.88163 61.40118 60.64141
# Shear Modulus (GPa) = 17.58010 26.01969 21.79989
#
# Velocity S-wave (km/s) = 3.03352 3.69051 3.37802
# Velocity P-wave (km/s) = 6.60412 7.09225 6.85253
#
# Compressibility (1/GPa) = 0.01669961
#
# Stress axis : x y z
#
# Youngs Moduli (GPa) = 129.67701 87.73039 106.58989
#
# Poissons Ratio (x) = 0.11289 0.20087
# Poissons Ratio (y) = 0.16687 0.29044
# Poissons Ratio (z) = 0.24437 0.23905
#
# Static dielectric constant tensor:
#      x y z
#    x 1.660060 0.000000 0.000000 
#    y 0.000000 1.745140 0.000000 
#    z 0.000000 0.000000 1.683900 
# 
# From -- ./inp_files/23282.got.cif
#   From: 2010.05.17/outbox.cif.g08.bks.cpg/sg51_12_cif.got.tgz:23282.got - 2010.06.03 11:52:47.
