data_PCOD9404116
_publ_section_title
;
Structure prediction by ZEFSAII (Michael W. Deem and Ramdas Pophale) SiO2 
 PCOD9404116
Probable space group: P M M A
;
_chemical_formula_sum "Si O2"
_cell_formula_units_Z 40
_cell_length_a 9.044986
_cell_length_b 7.880722
_cell_length_c 29.961007
_cell_angle_alpha 90.000000
_cell_angle_beta 90.000000
_cell_angle_gamma 90.000000
_cell_volume 2135.651144
_symmetry_space_group_name_H-M "P M M A"
_symmetry_group_IT_number 51
_symmetry_cell_setting 'orthorhombic'
loop_
_space_group_symop_operation_xyz
x,y,z
1/2-x,-y,z
1/2+x,-y,-z
-x,y,-z
-x,-y,-z
1/2+x,y,-z
1/2-x,y,z
x,-y,z
loop_
_atom_site_type_symbol
_atom_site_label
_atom_site_fract_x
_atom_site_fract_y
_atom_site_fract_z
Si Si1 0.427646 0.809631 0.637621
Si Si2 0.922310 0.294548 0.545917
Si Si3 0.925953 0.701700 0.954589
Si Si4 0.927942 0.191991 0.856173
Si Si5 0.572005 0.500000 0.197079
Si Si6 0.570214 0.500000 0.300263
O O1 0.250000 0.794406 0.632732
O O2 0.499832 0.778749 0.589561
O O3 0.477751 0.666062 0.672312
O O4 0.461144 0.000000 0.653257
O O5 0.750000 0.249201 0.545070
O O6 0.933891 0.500000 0.548472
O O7 0.000000 0.240403 0.500000
O O8 0.750000 0.721140 0.958972
O O9 0.958501 0.500000 0.950356
O O10 0.971411 0.787063 0.908232
O O11 0.000000 0.764817 0.000000
O O12 0.750000 0.219075 0.854058
O O13 0.008453 0.334422 0.827480
O O14 0.959755 0.000000 0.841437
O O15 0.750000 0.500000 0.194911
O O16 0.524368 0.500000 0.248895
O O17 0.750000 0.500000 0.300178
#
# Coordination Sequence:
#
# PCOD9404116 Si02
#       6
#     8   8   8   8   4   4
#     4  10  20  36  60  85 110 145 186 227 276 333
#     4  10  20  34  55  83 115 152 189 227 272 323
#     4   9  17  31  52  79 112 149 189 232 279 335
#     4  10  21  39  61  84 115 156 196 233 282 347
#     4  11  23  39  62  89 116 147 188 245 300 343
#     4   9  20  39  60  83 112 145 182 231 288 341
#
# _framework density 18.729648999999998
#
# number of rings (size 3 to 8) (size 9 to 14) (size 15 to 20)
#    0.000    2.200    2.000    0.900    0.000    4.000 
#    0.000    4.000    0.000    0.000    0.000    0.000 
#    0.000    0.000    0.000    0.000    0.000    0.000 
#
# Total GULP energy -223333.473498 kJ/mol
# GULP energy per Si atom -5583.336837 kJ/mol
# Density = 1.868702 g / cm^3
# Si number density = 18.729649 Si / 1000 Ang^3
#
#
#
# Elastic Constant Matrix: (Units=GPa)
#
#
# Indices 1 2 3 4 5 6 
#
# 1 34.2780 57.4678 43.7985 0.0000 0.0000 0.0000
# 2 57.4678 131.9940 95.6905 0.0000 0.0000 0.0000
# 3 43.7985 95.6905 161.1378 0.0000 0.0000 0.0000
# 4 0.0000 0.0000 0.0000 -4.5219 0.0000 0.0000
# 5 0.0000 0.0000 0.0000 0.0000 29.9137 0.0000
# 6 0.0000 0.0000 0.0000 0.0000 0.0000 13.0127
#
#
#
# Elastic Compliance Matrix: (Units=1/GPa)
#
#
# Indices 1 2 3 4 5 6 
#
# 1 0.108603 -0.045451 -0.002529 0.000000 0.000000 0.000000
# 2 -0.045451 0.032325 -0.006842 0.000000 0.000000 0.000000
# 3 -0.002529 -0.006842 0.010956 0.000000 0.000000 0.000000
# 4 0.000000 0.000000 0.000000 -0.221147 0.000000 0.000000
# 5 0.000000 0.000000 0.000000 0.000000 0.033430 0.000000
# 6 0.000000 0.000000 0.000000 0.000000 0.000000 0.076848
#
#
# Mechanical properties :
#
#
# Convention : Reuss Voigt Hill
#
# Bulk Modulus (GPa) = 23.67342 80.14705 51.91023
# Shear Modulus (GPa) = 30.35140 16.37776 23.36458
#
# Velocity S-wave (km/s) = 4.02991 2.96028 3.53578
# Velocity P-wave (km/s) = 5.85837 7.38707 6.66668
#
# Compressibility (1/GPa) = 0.04224147
#
# Stress axis : x y z
#
# Youngs Moduli (GPa) = 9.20786 30.93626 91.27279
#
# Poissons Ratio (x) = 1.40607 0.23080
# Poissons Ratio (y) = 0.41850 0.62448
# Poissons Ratio (z) = 0.02328 0.21166
#
# Static dielectric constant tensor:
#      x y z
#    x 1.626850 0.000000 0.000000 
#    y 0.000000 1.668450 0.000000 
#    z 0.000000 0.000000 1.614730 
# 
# From -- ./inp_files/36040.got.cif
#   From: 2010.05.17/outbox.cif.g08.bks.cpg/sg51_19_cif.got.tgz:36040.got - 2010.06.03 11:52:47.
