data_PCOD9404258
_publ_section_title
;
Structure prediction by ZEFSAII (Michael W. Deem and Ramdas Pophale) SiO2 
 PCOD9404258
Probable space group: P M M A
;
_chemical_formula_sum "Si O2"
_cell_formula_units_Z 44
_cell_length_a 8.408931
_cell_length_b 30.291556
_cell_length_c 9.491957
_cell_angle_alpha 90.000000
_cell_angle_beta 90.000000
_cell_angle_gamma 90.000000
_cell_volume 2417.787531
_symmetry_space_group_name_H-M "P M M A"
_symmetry_group_IT_number 51
_symmetry_cell_setting 'orthorhombic'
loop_
_space_group_symop_operation_xyz
x,y,z
1/2-x,-y,z
1/2+x,-y,-z
-x,y,-z
-x,-y,-z
1/2+x,y,-z
1/2-x,y,z
x,-y,z
loop_
_atom_site_type_symbol
_atom_site_label
_atom_site_fract_x
_atom_site_fract_y
_atom_site_fract_z
Si Si1 0.939218 0.417762 0.339735
Si Si2 0.557604 0.761488 0.839380
Si Si3 0.442510 0.047516 0.162648
Si Si4 0.059016 0.677889 0.340432
Si Si5 0.060904 0.500000 0.159480
Si Si6 0.557822 0.857550 0.837845
O O1 0.750000 0.418187 0.342564
O O2 0.000000 0.423835 0.500000
O O3 0.997662 0.369663 0.289491
O O4 0.000848 0.456871 0.242031
O O5 0.750000 0.760960 0.839342
O O6 0.502263 0.719429 0.750953
O O7 0.505830 0.809728 0.780355
O O8 0.500000 0.758121 0.000000
O O9 0.250000 0.047490 0.163335
O O10 0.495638 0.095019 0.224230
O O11 0.495583 0.000000 0.224074
O O12 0.500000 0.047539 0.000000
O O13 0.250000 0.676913 0.339660
O O14 0.000000 0.683052 0.500000
O O15 0.250000 0.500000 0.159668
O O16 0.000000 0.500000 0.000000
O O17 0.750000 0.857706 0.836538
O O18 0.500000 0.857527 0.000000
#
# Coordination Sequence:
#
# PCOD9404258 Si02
#       6
#     8   8   8   8   4   8
#     4  11  22  39  61  84 108 139 174 209 249 295
#     4   9  18  30  46  67  93 124 158 195 239 291
#     4   8  12  17  27  44  68 100 137 175 217 267
#     4  10  20  35  53  75 100 129 166 207 247 289
#     4  12  25  42  61  86 116 144 174 210 249 290
#     4   8  13  22  34  51  77 109 143 181 225 275
#
# _framework density 18.198456
#
# number of rings (size 3 to 8) (size 9 to 14) (size 15 to 20)
#    0.000    2.545    0.000    4.364    0.000    2.182 
#    0.000    1.818    0.000    0.000    0.000    0.000 
#    0.000    0.727    0.000    0.545    0.000   10.909 
#
# Total GULP energy -245026.657711 kJ/mol
# GULP energy per Si atom -5568.787675 kJ/mol
# Density = 1.815704 g / cm^3
# Si number density = 18.198456 Si / 1000 Ang^3
#
#
#
# Elastic Constant Matrix: (Units=GPa)
#
#
# Indices 1 2 3 4 5 6 
#
# 1 62.0160 40.0090 12.9602 0.0000 0.0000 0.0000
# 2 40.0090 255.7717 73.7235 0.0000 0.0000 0.0000
# 3 12.9602 73.7235 36.1879 0.0000 0.0000 0.0000
# 4 0.0000 0.0000 0.0000 -13.4367 0.0000 0.0000
# 5 0.0000 0.0000 0.0000 0.0000 19.6266 0.0000
# 6 0.0000 0.0000 0.0000 0.0000 0.0000 54.1709
#
#
#
# Elastic Compliance Matrix: (Units=1/GPa)
#
#
# Indices 1 2 3 4 5 6 
#
# 1 0.017979 -0.002317 -0.001719 0.000000 0.000000 0.000000
# 2 -0.002317 0.009770 -0.019074 0.000000 0.000000 0.000000
# 3 -0.001719 -0.019074 0.067108 0.000000 0.000000 0.000000
# 4 0.000000 0.000000 0.000000 -0.074423 0.000000 0.000000
# 5 0.000000 0.000000 0.000000 0.000000 0.050951 0.000000
# 6 0.000000 0.000000 0.000000 0.000000 0.000000 0.018460
#
#
# Mechanical properties :
#
#
# Convention : Reuss Voigt Hill
#
# Bulk Modulus (GPa) = 20.56042 67.48453 44.02247
# Shear Modulus (GPa) = 32.83471 27.22436 30.02954
#
# Velocity S-wave (km/s) = 4.25226 3.87197 4.06657
# Velocity P-wave (km/s) = 5.95243 7.55994 6.80382
#
# Compressibility (1/GPa) = 0.04863715
#
# Stress axis : x y z
#
# Youngs Moduli (GPa) = 55.62108 102.35256 14.90131
#
# Poissons Ratio (x) = 0.23714 0.02561
# Poissons Ratio (y) = 0.12887 0.28423
# Poissons Ratio (z) = 0.09560 1.95231
#
# Static dielectric constant tensor:
#      x y z
#    x 1.614190 0.000000 0.000000 
#    y 0.000000 1.715980 0.000000 
#    z 0.000000 0.000000 1.575240 
# 
# From -- ./inp_files/5795.got.cif
#   From: 2010.05.17/outbox.cif.g08.bks.cpg/sg51_3_cif.got.tgz:5795.got - 2010.06.03 11:52:47.
