data_PCOD9404666
_publ_section_title
;
Structure prediction by ZEFSAII (Michael W. Deem and Ramdas Pophale) SiO2 
 PCOD9404666
Probable space group: P M M A
;
_chemical_formula_sum "Si O2"
_cell_formula_units_Z 64
_cell_length_a 29.433075
_cell_length_b 11.282806
_cell_length_c 9.792410
_cell_angle_alpha 90.000000
_cell_angle_beta 90.000000
_cell_angle_gamma 90.000000
_cell_volume 3251.938672
_symmetry_space_group_name_H-M "P M M A"
_symmetry_group_IT_number 51
_symmetry_cell_setting 'orthorhombic'
loop_
_space_group_symop_operation_xyz
x,y,z
1/2-x,-y,z
1/2+x,-y,-z
-x,y,-z
-x,-y,-z
1/2+x,y,-z
1/2-x,y,z
x,-y,z
loop_
_atom_site_type_symbol
_atom_site_label
_atom_site_fract_x
_atom_site_fract_y
_atom_site_fract_z
Si Si1 0.573315 0.372761 0.734125
Si Si2 0.511404 0.228373 0.350938
Si Si3 0.801228 0.859695 0.709220
Si Si4 0.132712 0.751170 0.065521
Si Si5 0.157918 0.863591 0.590020
Si Si6 0.955520 0.862387 0.073953
Si Si7 0.697610 0.867510 0.118698
Si Si8 0.097116 0.367113 0.574707
O O1 0.549940 0.500000 0.746940
O O2 0.535523 0.271744 0.716784
O O3 0.608136 0.356288 0.857851
O O4 0.599226 0.370869 0.589718
O O5 0.500000 0.173386 0.500000
O O6 0.537170 0.153829 0.235690
O O7 0.544942 0.338177 0.385201
O O8 0.750000 0.810747 0.732650
O O9 0.840526 0.813874 0.809469
O O10 0.816431 0.842282 0.552542
O O11 0.798573 0.000000 0.730985
O O12 0.090287 0.810785 0.988049
O O13 0.171062 0.759095 0.949805
O O14 0.191207 0.863902 0.719249
O O15 0.124597 0.751741 0.614110
O O16 0.138167 0.000000 0.583672
O O17 0.954143 0.000000 0.041398
O O18 0.000000 0.809136 0.000000
O O19 0.750000 0.863189 0.080462
O O20 0.679869 0.000000 0.075403
O O21 0.110017 0.500000 0.624938
#
# Coordination Sequence:
#
# PCOD9404666 Si02
#       8
#     8   8   8   8   8   8   8   8
#     4  10  21  39  60  84 116 156 205 257 304 355
#     4  10  21  40  62  86 113 158 215 259 294 354
#     4  10  20  35  60  91 119 153 202 251 294 357
#     4  12  21  37  58  84 118 159 198 246 304 368
#     4  10  20  37  62  92 126 158 198 251 310 366
#     4  11  23  38  56  85 129 166 193 242 316 376
#     4  10  21  37  59  87 121 158 197 250 311 366
#     4  10  20  37  63  92 123 159 205 254 306 361
#
# _framework density 19.680565999999999
#
# number of rings (size 3 to 8) (size 9 to 14) (size 15 to 20)
#    0.000    1.625    2.500    3.000    0.000    5.750 
#    0.000    5.625    0.000    4.500    0.000    0.000 
#    0.000    0.000    0.000    0.000    0.000    0.000 
#
# Total GULP energy -356272.509322 kJ/mol
# GULP energy per Si atom -5566.757958 kJ/mol
# Density = 1.963577 g / cm^3
# Si number density = 19.680566 Si / 1000 Ang^3
#
#
#
# Elastic Constant Matrix: (Units=GPa)
#
#
# Indices 1 2 3 4 5 6 
#
# 1 87.1694 21.0001 19.5871 0.0000 0.0000 0.0000
# 2 21.0001 36.5271 -8.4431 0.0000 0.0000 0.0000
# 3 19.5871 -8.4431 91.5591 0.0000 0.0000 0.0000
# 4 0.0000 0.0000 0.0000 15.9582 0.0000 0.0000
# 5 0.0000 0.0000 0.0000 0.0000 12.2484 0.0000
# 6 0.0000 0.0000 0.0000 0.0000 0.0000 13.3623
#
#
#
# Elastic Compliance Matrix: (Units=1/GPa)
#
#
# Indices 1 2 3 4 5 6 
#
# 1 0.014614 -0.009323 -0.003986 0.000000 0.000000 0.000000
# 2 -0.009323 0.033921 0.005122 0.000000 0.000000 0.000000
# 3 -0.003986 0.005122 0.012247 0.000000 0.000000 0.000000
# 4 0.000000 0.000000 0.000000 0.062664 0.000000 0.000000
# 5 0.000000 0.000000 0.000000 0.000000 0.081643 0.000000
# 6 0.000000 0.000000 0.000000 0.000000 0.000000 0.074837
#
#
# Mechanical properties :
#
#
# Convention : Reuss Voigt Hill
#
# Bulk Modulus (GPa) = 22.51822 31.06042 26.78932
# Shear Modulus (GPa) = 16.07195 20.52124 18.29659
#
# Velocity S-wave (km/s) = 2.86079 3.23261 3.05237
# Velocity P-wave (km/s) = 4.73063 5.45432 5.10531
#
# Compressibility (1/GPa) = 0.04440849
#
# Stress axis : x y z
#
# Youngs Moduli (GPa) = 68.42954 29.48038 81.65276
#
# Poissons Ratio (x) = 0.27484 0.32547
# Poissons Ratio (y) = 0.63796 -0.41826
# Poissons Ratio (z) = 0.27276 -0.15101
#
# Static dielectric constant tensor:
#      x y z
#    x 1.686500 0.000000 0.000000 
#    y 0.000000 1.701880 0.000000 
#    z 0.000000 0.000000 1.719680 
# 
# From -- ./inp_files/13201.got.cif
#   From: 2010.05.17/outbox.cif.g08.bks.cpg/sg51_7_cif.got.tgz:13201.got - 2010.06.03 11:52:47.
