data_PCOD9404092
_publ_section_title
;
Structure prediction by ZEFSAII (Michael W. Deem and Ramdas Pophale) SiO2 
 PCOD9404092
Probable space group: P M M A
;
_chemical_formula_sum "Si O2"
_cell_formula_units_Z 64
_cell_length_a 14.861830
_cell_length_b 8.162297
_cell_length_c 25.182871
_cell_angle_alpha 90.000000
_cell_angle_beta 90.000000
_cell_angle_gamma 90.000000
_cell_volume 3054.850233
_symmetry_space_group_name_H-M "P M M A"
_symmetry_group_IT_number 51
_symmetry_cell_setting 'orthorhombic'
loop_
_space_group_symop_operation_xyz
x,y,z
1/2-x,-y,z
1/2+x,-y,-z
-x,y,-z
-x,-y,-z
1/2+x,y,-z
1/2-x,y,z
x,-y,z
loop_
_atom_site_type_symbol
_atom_site_label
_atom_site_fract_x
_atom_site_fract_y
_atom_site_fract_z
Si Si1 0.847288 0.188156 0.869185
Si Si2 0.144066 0.193926 0.527846
Si Si3 0.538242 0.196034 0.369808
Si Si4 0.351594 0.307068 0.409075
Si Si5 0.010539 0.304171 0.939219
Si Si6 0.047575 0.807267 0.743894
Si Si7 0.349343 0.311468 0.245988
Si Si8 0.645367 0.801672 0.148816
O O1 0.750000 0.204601 0.896200
O O2 0.847514 0.302636 0.817990
O O3 0.928468 0.227880 0.906864
O O4 0.855241 0.000000 0.849892
O O5 0.250000 0.209014 0.540012
O O6 0.087133 0.259436 0.577287
O O7 0.127931 0.277819 0.471368
O O8 0.123814 0.000000 0.520554
O O9 0.432157 0.228886 0.376160
O O10 0.576224 0.261361 0.313721
O O11 0.552096 0.000000 0.369510
O O12 0.250000 0.242572 0.399496
O O13 0.350945 0.500000 0.398443
O O14 0.002724 0.500000 0.938835
O O15 0.098846 0.257949 0.905424
O O16 0.000000 0.248013 0.000000
O O17 0.090565 0.741386 0.798622
O O18 0.939880 0.785663 0.742158
O O19 0.069104 0.000000 0.744263
O O20 0.250000 0.251691 0.263983
O O21 0.358829 0.500000 0.263506
O O22 0.750000 0.754284 0.152493
O O23 0.640418 0.000000 0.148349
#
# Coordination Sequence:
#
# PCOD9404092 Si02
#       8
#     8   8   8   8   8   8   8   8
#     4  10  20  35  58  86 114 145 183 229 280 335
#     4   9  18  34  56  80 108 144 186 233 285 341
#     4  10  21  35  54  82 113 146 188 235 283 337
#     4  10  21  36  54  78 110 148 188 233 288 345
#     4  11  24  40  60  88 121 155 192 237 287 340
#     4  10  21  37  57  83 115 151 190 235 285 337
#     4  10  20  34  55  82 111 145 183 225 278 339
#     4  10  22  41  64  88 116 154 198 240 286 341
#
# _framework density 20.950291
#
# number of rings (size 3 to 8) (size 9 to 14) (size 15 to 20)
#    0.000    2.000    1.250    1.875    0.000    7.500 
#    0.000    7.500    0.000    0.000    0.000    3.500 
#    0.000    0.000    0.000    0.000    0.000    0.000 
#
# Total GULP energy -357160.211226 kJ/mol
# GULP energy per Si atom -5580.628300 kJ/mol
# Density = 2.090261 g / cm^3
# Si number density = 20.950291 Si / 1000 Ang^3
#
#
#
# Elastic Constant Matrix: (Units=GPa)
#
#
# Indices 1 2 3 4 5 6 
#
# 1 80.1063 6.3079 47.9830 0.0000 0.0000 0.0000
# 2 6.3079 23.3003 9.5690 0.0000 0.0000 0.0000
# 3 47.9830 9.5690 131.1006 0.0000 0.0000 0.0000
# 4 0.0000 0.0000 0.0000 59.9396 0.0000 0.0000
# 5 0.0000 0.0000 0.0000 0.0000 -3.6333 0.0000
# 6 0.0000 0.0000 0.0000 0.0000 0.0000 4.8646
#
#
#
# Elastic Compliance Matrix: (Units=1/GPa)
#
#
# Indices 1 2 3 4 5 6 
#
# 1 0.016078 -0.001996 -0.005739 0.000000 0.000000 0.000000
# 2 -0.001996 0.044492 -0.002517 0.000000 0.000000 0.000000
# 3 -0.005739 -0.002517 0.009912 0.000000 0.000000 0.000000
# 4 0.000000 0.000000 0.000000 0.016683 0.000000 0.000000
# 5 0.000000 0.000000 0.000000 0.000000 -0.275231 0.000000
# 6 0.000000 0.000000 0.000000 0.000000 0.000000 0.205565
#
#
# Mechanical properties :
#
#
# Convention : Reuss Voigt Hill
#
# Bulk Modulus (GPa) = 20.00860 40.24746 30.12803
# Shear Modulus (GPa) = 91.46954 23.61066 57.54010
#
# Velocity S-wave (km/s) = 6.61476 3.36070 5.24640
# Velocity P-wave (km/s) = 8.24083 5.85762 7.14923
#
# Compressibility (1/GPa) = 0.04997850
#
# Stress axis : x y z
#
# Youngs Moduli (GPa) = 62.19614 22.47596 100.88870
#
# Poissons Ratio (x) = 0.04486 0.57900
# Poissons Ratio (y) = 0.12413 0.25394
# Poissons Ratio (z) = 0.35694 0.05657
#
# Static dielectric constant tensor:
#      x y z
#    x 1.770830 0.000000 0.000000 
#    y 0.000000 1.742220 0.000000 
#    z 0.000000 0.000000 1.780990 
# 
# From -- ./inp_files/35662.got.cif
#   From: 2010.05.17/outbox.cif.g08.bks.cpg/sg51_18_cif.got.tgz:35662.got - 2010.06.03 11:52:47.
