data_PCOD9404362
_publ_section_title
;
Structure prediction by ZEFSAII (Michael W. Deem and Ramdas Pophale) SiO2 
 PCOD9404362
Probable space group: P M M A
;
_chemical_formula_sum "Si O2"
_cell_formula_units_Z 64
_cell_length_a 16.711277
_cell_length_b 7.919234
_cell_length_c 22.491604
_cell_angle_alpha 90.000000
_cell_angle_beta 90.000000
_cell_angle_gamma 90.000000
_cell_volume 2976.550412
_symmetry_space_group_name_H-M "P M M A"
_symmetry_group_IT_number 51
_symmetry_cell_setting 'orthorhombic'
loop_
_space_group_symop_operation_xyz
x,y,z
1/2-x,-y,z
1/2+x,-y,-z
-x,y,-z
-x,-y,-z
1/2+x,y,-z
1/2-x,y,z
x,-y,z
loop_
_atom_site_type_symbol
_atom_site_label
_atom_site_fract_x
_atom_site_fract_y
_atom_site_fract_z
Si Si1 0.995795 0.201617 0.067108
Si Si2 0.342071 0.202926 0.374692
Si Si3 0.410354 0.297956 0.501717
Si Si4 0.422671 0.298712 0.745293
Si Si5 0.340314 0.706524 0.626103
Si Si6 0.401379 0.803231 0.249447
Si Si7 0.839104 0.795886 0.138499
Si Si8 0.838110 0.303598 0.872345
O O1 0.081473 0.229604 0.098535
O O2 0.916691 0.267399 0.101531
O O3 0.984730 0.000000 0.063933
O O4 0.000000 0.269313 0.000000
O O5 0.250000 0.249118 0.365802
O O6 0.370250 0.265615 0.438554
O O7 0.389152 0.263794 0.316394
O O8 0.348795 0.000000 0.376498
O O9 0.500000 0.228620 0.500000
O O10 0.414704 0.500000 0.508927
O O11 0.365828 0.234401 0.560618
O O12 0.435130 0.500000 0.743939
O O13 0.397693 0.239627 0.679563
O O14 0.505172 0.214124 0.765055
O O15 0.355390 0.257365 0.793592
O O16 0.250000 0.759761 0.638777
O O17 0.341291 0.500000 0.626138
O O18 0.350752 0.714106 0.198529
O O19 0.378105 0.000000 0.248561
O O20 0.750000 0.739225 0.119178
O O21 0.839518 0.000000 0.135913
O O22 0.750000 0.231160 0.888241
O O23 0.837357 0.500000 0.888183
#
# Coordination Sequence:
#
# PCOD9404362 Si02
#       8
#     8   8   8   8   8   8   8   8
#     4  10  22  41  66  95 128 169 211 249 295 355
#     4  10  22  38  55  79 111 147 190 241 296 356
#     4  10  20  35  55  78 106 144 189 237 292 352
#     4  11  21  35  58  86 116 152 198 251 304 358
#     4   9  18  32  50  75 108 146 189 237 291 355
#     4  11  22  38  60  85 117 157 198 244 304 366
#     4  10  21  38  60  89 126 164 204 252 302 357
#     4  11  24  41  63  94 129 164 205 256 309 360
#
# _framework density 21.501398999999999
#
# number of rings (size 3 to 8) (size 9 to 14) (size 15 to 20)
#    0.000    1.750    1.250    3.000    0.000    6.000 
#    0.000    2.500    0.000    3.000    0.000    0.000 
#    0.000    0.000    0.000    0.000    0.000    0.000 
#
# Total GULP energy -357442.379889 kJ/mol
# GULP energy per Si atom -5585.037186 kJ/mol
# Density = 2.145246 g / cm^3
# Si number density = 21.501399 Si / 1000 Ang^3
#
#
#
# Elastic Constant Matrix: (Units=GPa)
#
#
# Indices 1 2 3 4 5 6 
#
# 1 111.7471 -1.8664 39.9027 0.0000 0.0000 0.0000
# 2 -1.8664 19.2447 -1.6095 0.0000 0.0000 0.0000
# 3 39.9027 -1.6095 117.0826 0.0000 0.0000 0.0000
# 4 0.0000 0.0000 0.0000 -0.5755 0.0000 0.0000
# 5 0.0000 0.0000 0.0000 0.0000 19.4902 0.0000
# 6 0.0000 0.0000 0.0000 0.0000 0.0000 -37.2325
#
#
#
# Elastic Compliance Matrix: (Units=1/GPa)
#
#
# Indices 1 2 3 4 5 6 
#
# 1 0.010198 0.000699 -0.003466 0.000000 0.000000 0.000000
# 2 0.000699 0.052070 0.000478 0.000000 0.000000 0.000000
# 3 -0.003466 0.000478 0.009729 0.000000 0.000000 0.000000
# 4 0.000000 0.000000 0.000000 -1.737643 0.000000 0.000000
# 5 0.000000 0.000000 0.000000 0.000000 0.051308 0.000000
# 6 0.000000 0.000000 0.000000 0.000000 0.000000 -0.026858
#
#
# Mechanical properties :
#
#
# Convention : Reuss Voigt Hill
#
# Bulk Modulus (GPa) = 14.83273 35.65867 25.24570
# Shear Modulus (GPa) = -3.09762 10.44629 3.67434
#
# Velocity S-wave (km/s) = -1.20158 2.20657 1.30866
# Velocity P-wave (km/s) = 2.23348 4.80753 3.74838
#
# Compressibility (1/GPa) = 0.06741849
#
# Stress axis : x y z
#
# Youngs Moduli (GPa) = 98.05757 19.20484 102.78785
#
# Poissons Ratio (x) = -0.01343 0.35626
# Poissons Ratio (y) = -0.06856 -0.04908
# Poissons Ratio (z) = 0.33987 -0.00917
#
# Static dielectric constant tensor:
#      x y z
#    x 1.879870 0.000000 0.000000 
#    y 0.000000 1.778580 0.000000 
#    z 0.000000 0.000000 1.770850 
# 
# From -- ./inp_files/35844.got.cif
#   From: 2010.05.17/outbox.cif.g08.bks.cpg/sg51_18_cif.got.tgz:35844.got - 2010.06.03 11:52:47.
