data_PCOD9404201
_publ_section_title
;
Structure prediction by ZEFSAII (Michael W. Deem and Ramdas Pophale) SiO2 
 PCOD9404201
Probable space group: P M M A
;
_chemical_formula_sum "Si O2"
_cell_formula_units_Z 64
_cell_length_a 8.640179
_cell_length_b 14.831815
_cell_length_c 25.959052
_cell_angle_alpha 90.000000
_cell_angle_beta 90.000000
_cell_angle_gamma 90.000000
_cell_volume 3326.640482
_symmetry_space_group_name_H-M "P M M A"
_symmetry_group_IT_number 51
_symmetry_cell_setting 'orthorhombic'
loop_
_space_group_symop_operation_xyz
x,y,z
1/2-x,-y,z
1/2+x,-y,-z
-x,y,-z
-x,-y,-z
1/2+x,y,-z
1/2-x,y,z
x,-y,z
loop_
_atom_site_type_symbol
_atom_site_label
_atom_site_fract_x
_atom_site_fract_y
_atom_site_fract_z
Si Si1 0.063036 0.104614 0.348230
Si Si2 0.433571 0.213080 0.554492
Si Si3 0.563185 0.596261 0.058393
Si Si4 0.065079 0.601844 0.407071
Si Si5 0.936680 0.102045 0.848306
Si Si6 0.564439 0.794073 0.057819
Si Si7 0.433858 0.601823 0.708015
Si Si8 0.937096 0.221188 0.752126
O O1 0.250000 0.106527 0.350787
O O2 0.017814 0.160578 0.297349
O O3 0.997958 0.154335 0.398329
O O4 0.014769 0.000000 0.345286
O O5 0.500000 0.181086 0.500000
O O6 0.250000 0.208587 0.554003
O O7 0.486029 0.316566 0.563164
O O8 0.750000 0.596317 0.057024
O O9 0.513875 0.500000 0.082458
O O10 0.515640 0.694241 0.078860
O O11 0.500000 0.595407 0.000000
O O12 0.250000 0.609692 0.411977
O O13 0.018674 0.500000 0.422942
O O14 0.018592 0.611824 0.347029
O O15 0.750000 0.104525 0.849882
O O16 0.987845 0.170413 0.803724
O O17 0.000757 0.132516 0.903148
O O18 0.983474 0.000000 0.835671
O O19 0.750000 0.797647 0.055772
O O20 0.500000 0.804034 0.000000
O O21 0.250000 0.610780 0.699409
O O22 0.464180 0.500000 0.726902
O O23 0.492292 0.680214 0.744983
O O24 0.750000 0.227605 0.752205
#
# Coordination Sequence:
#
# PCOD9404201 Si02
#       8
#     8   8   8   8   8   8   8   8
#     4  10  21  39  63  88 113 146 191 242 297 355
#     4  12  25  40  59  84 118 156 196 244 295 350
#     4   8  14  26  46  73 104 138 177 220 267 321
#     4  10  20  36  59  86 117 154 195 238 287 345
#     4  10  22  40  60  84 114 149 191 240 292 344
#     4  10  20  35  57  84 115 153 194 237 286 341
#     4  10  20  34  56  88 123 157 191 230 281 340
#     4  10  20  37  63  89 116 150 190 237 289 345
#
# _framework density 19.238627999999999
#
# number of rings (size 3 to 8) (size 9 to 14) (size 15 to 20)
#    0.000    2.000    1.250    2.625    0.000    5.250 
#    0.000    0.625    0.000    4.500    0.000    0.000 
#    0.000    0.000    0.000    0.000    0.000    0.000 
#
# Total GULP energy -357245.715655 kJ/mol
# GULP energy per Si atom -5581.964307 kJ/mol
# Density = 1.919484 g / cm^3
# Si number density = 19.238628 Si / 1000 Ang^3
#
#
#
# Elastic Constant Matrix: (Units=GPa)
#
#
# Indices 1 2 3 4 5 6 
#
# 1 25.8700 26.5560 19.0487 0.0000 0.0000 0.0000
# 2 26.5560 102.4644 45.9567 0.0000 0.0000 0.0000
# 3 19.0487 45.9567 90.3264 0.0000 0.0000 0.0000
# 4 0.0000 0.0000 0.0000 13.8624 0.0000 0.0000
# 5 0.0000 0.0000 0.0000 0.0000 22.3976 0.0000
# 6 0.0000 0.0000 0.0000 0.0000 0.0000 19.1306
#
#
#
# Elastic Compliance Matrix: (Units=1/GPa)
#
#
# Indices 1 2 3 4 5 6 
#
# 1 0.054775 -0.011681 -0.005608 0.000000 0.000000 0.000000
# 2 -0.011681 0.015136 -0.005238 0.000000 0.000000 0.000000
# 3 -0.005608 -0.005238 0.014919 0.000000 0.000000 0.000000
# 4 0.000000 0.000000 0.000000 0.072137 0.000000 0.000000
# 5 0.000000 0.000000 0.000000 0.000000 0.044648 0.000000
# 6 0.000000 0.000000 0.000000 0.000000 0.000000 0.052272
#
#
# Mechanical properties :
#
#
# Convention : Reuss Voigt Hill
#
# Bulk Modulus (GPa) = 25.14084 44.64262 34.89173
# Shear Modulus (GPa) = 16.01545 19.55143 17.78344
#
# Velocity S-wave (km/s) = 2.88837 3.19134 3.04363
# Velocity P-wave (km/s) = 4.92137 6.06915 5.52515
#
# Compressibility (1/GPa) = 0.03977591
#
# Stress axis : x y z
#
# Youngs Moduli (GPa) = 18.25658 66.06786 67.03085
#
# Poissons Ratio (x) = 0.77172 0.37593
# Poissons Ratio (y) = 0.21325 0.35108
# Poissons Ratio (z) = 0.10239 0.34604
#
# Static dielectric constant tensor:
#      x y z
#    x 1.652110 0.000000 0.000000 
#    y 0.000000 1.701950 0.000000 
#    z 0.000000 0.000000 1.612120 
# 
# From -- ./inp_files/34869.got.cif
#   From: 2010.05.17/outbox.cif.g08.bks.cpg/sg51_18_cif.got.tgz:34869.got - 2010.06.03 11:52:47.
