data_PCOD9404284
_publ_section_title
;
Structure prediction by ZEFSAII (Michael W. Deem and Ramdas Pophale) SiO2 
 PCOD9404284
Probable space group: P M M A
;
_chemical_formula_sum "Si O2"
_cell_formula_units_Z 64
_cell_length_a 9.327315
_cell_length_b 14.845958
_cell_length_c 21.447688
_cell_angle_alpha 90.000000
_cell_angle_beta 90.000000
_cell_angle_gamma 90.000000
_cell_volume 2969.924129
_symmetry_space_group_name_H-M "P M M A"
_symmetry_group_IT_number 51
_symmetry_cell_setting 'orthorhombic'
loop_
_space_group_symop_operation_xyz
x,y,z
1/2-x,-y,z
1/2+x,-y,-z
-x,y,-z
-x,-y,-z
1/2+x,y,-z
1/2-x,y,z
x,-y,z
loop_
_atom_site_type_symbol
_atom_site_label
_atom_site_fract_x
_atom_site_fract_y
_atom_site_fract_z
Si Si1 0.411926 0.110352 0.816705
Si Si2 0.084267 0.609841 0.181627
Si Si3 0.089118 0.393288 0.320467
Si Si4 0.408103 0.894352 0.298638
Si Si5 0.913318 0.889842 0.938773
Si Si6 0.078179 0.341906 0.559963
Si Si7 0.586852 0.610376 0.061113
Si Si8 0.922566 0.148742 0.558783
O O1 0.250000 0.142102 0.824550
O O2 0.478189 0.141102 0.750858
O O3 0.510005 0.137094 0.874804
O O4 0.407529 0.000000 0.816901
O O5 0.250000 0.633411 0.170018
O O6 0.076375 0.500000 0.181306
O O7 0.047787 0.641045 0.251744
O O8 0.985888 0.641121 0.125245
O O9 0.250000 0.358235 0.337844
O O10 0.104059 0.500000 0.313601
O O11 0.973889 0.380000 0.374283
O O12 0.250000 0.853091 0.289360
O O13 0.442451 0.889355 0.371847
O O14 0.396706 0.000000 0.284102
O O15 0.750000 0.858574 0.940887
O O16 0.911377 0.000000 0.939193
O O17 0.000000 0.861697 0.000000
O O18 0.250000 0.341628 0.552802
O O19 0.000000 0.386603 0.500000
O O20 0.006932 0.243054 0.562029
O O21 0.750000 0.640322 0.057178
O O22 0.586114 0.500000 0.061617
O O23 0.500000 0.638135 0.000000
O O24 0.750000 0.156605 0.548207
O O25 0.000000 0.101625 0.500000
#
# Coordination Sequence:
#
# PCOD9404284 Si02
#       8
#     8   8   8   8   8   8   8   8
#     4   9  16  25  38  58  85 117 152 190 232 277
#     4   8  14  25  40  58  83 115 148 184 228 275
#     4   9  18  33  52  73  98 127 158 194 238 287
#     4   9  18  32  49  70  96 126 158 193 236 284
#     4   9  15  22  33  50  76 112 152 191 230 275
#     4  11  22  36  54  73  96 125 158 196 236 281
#     4   9  15  21  31  49  76 112 152 190 226 268
#     4  10  20  35  54  73  96 125 157 194 236 283
#
# _framework density 21.54937
#
# number of rings (size 3 to 8) (size 9 to 14) (size 15 to 20)
#    0.000    2.750    0.000    4.125    0.000    6.750 
#    0.000    1.250    0.000    0.000    0.000    0.000 
#    0.000    1.000    0.000    8.250    0.000   12.375 
#
# Total GULP energy -357050.355840 kJ/mol
# GULP energy per Si atom -5578.911810 kJ/mol
# Density = 2.150032 g / cm^3
# Si number density = 21.549370 Si / 1000 Ang^3
#
#
#
# Elastic Constant Matrix: (Units=GPa)
#
#
# Indices 1 2 3 4 5 6 
#
# 1 200.5801 12.6973 142.7596 0.0000 0.0000 0.0000
# 2 12.6973 40.7949 -0.1878 0.0000 0.0000 0.0000
# 3 142.7596 -0.1878 195.2343 0.0000 0.0000 0.0000
# 4 0.0000 0.0000 0.0000 61.7273 0.0000 0.0000
# 5 0.0000 0.0000 0.0000 0.0000 44.3227 0.0000
# 6 0.0000 0.0000 0.0000 0.0000 0.0000 -81.3720
#
#
#
# Elastic Compliance Matrix: (Units=1/GPa)
#
#
# Indices 1 2 3 4 5 6 
#
# 1 0.010851 -0.003414 -0.007938 0.000000 0.000000 0.000000
# 2 -0.003414 0.025587 0.002521 0.000000 0.000000 0.000000
# 3 -0.007938 0.002521 0.010929 0.000000 0.000000 0.000000
# 4 0.000000 0.000000 0.000000 0.016200 0.000000 0.000000
# 5 0.000000 0.000000 0.000000 0.000000 0.022562 0.000000
# 6 0.000000 0.000000 0.000000 0.000000 0.000000 -0.012289
#
#
# Mechanical properties :
#
#
# Convention : Reuss Voigt Hill
#
# Bulk Modulus (GPa) = 33.66403 83.01639 58.34021
# Shear Modulus (GPa) = 49.30748 23.69161 36.49955
#
# Velocity S-wave (km/s) = 4.78862 3.31933 4.12000
# Velocity P-wave (km/s) = 6.79928 7.30055 7.05437
#
# Compressibility (1/GPa) = 0.02970530
#
# Stress axis : x y z
#
# Youngs Moduli (GPa) = 92.15317 39.08223 91.49953
#
# Poissons Ratio (x) = 0.13343 0.72634
# Poissons Ratio (y) = 0.31462 -0.23067
# Poissons Ratio (z) = 0.73152 -0.09853
#
# Static dielectric constant tensor:
#      x y z
#    x 1.738550 0.000000 0.000000 
#    y 0.000000 1.873520 0.000000 
#    z 0.000000 0.000000 1.806750 
# 
# From -- ./inp_files/28619.got.cif
#   From: 2010.05.17/outbox.cif.g08.bks.cpg/sg51_15_cif.got.tgz:28619.got - 2010.06.03 11:52:47.
