data_PCOD9404420
_publ_section_title
;
Structure prediction by ZEFSAII (Michael W. Deem and Ramdas Pophale) SiO2 
 PCOD9404420
Probable space group: P M M A
;
_chemical_formula_sum "Si O2"
_cell_formula_units_Z 56
_cell_length_a 14.761748
_cell_length_b 10.958938
_cell_length_c 17.342197
_cell_angle_alpha 90.000000
_cell_angle_beta 90.000000
_cell_angle_gamma 90.000000
_cell_volume 2805.500642
_symmetry_space_group_name_H-M "P M M A"
_symmetry_group_IT_number 51
_symmetry_cell_setting 'orthorhombic'
loop_
_space_group_symop_operation_xyz
x,y,z
1/2-x,-y,z
1/2+x,-y,-z
-x,y,-z
-x,-y,-z
1/2+x,y,-z
1/2-x,y,z
x,-y,z
loop_
_atom_site_type_symbol
_atom_site_label
_atom_site_fract_x
_atom_site_fract_y
_atom_site_fract_z
Si Si1 0.352350 0.140362 0.928838
Si Si2 0.360652 0.861640 0.464703
Si Si3 0.144838 0.711043 0.198361
Si Si4 0.103360 0.367005 0.029174
Si Si5 0.971099 0.144445 0.216998
Si Si6 0.641910 0.369630 0.630147
Si Si7 0.645818 0.148052 0.359525
O O1 0.250000 0.136186 0.897745
O O2 0.355885 0.242672 0.994485
O O3 0.418956 0.181153 0.860847
O O4 0.374791 0.000000 0.953624
O O5 0.250000 0.867601 0.461338
O O6 0.392821 0.755101 0.408110
O O7 0.383229 0.826663 0.552731
O O8 0.393372 0.000000 0.447144
O O9 0.250000 0.746291 0.191443
O O10 0.134192 0.637299 0.277642
O O11 0.075142 0.820955 0.209257
O O12 0.115311 0.642103 0.121017
O O13 0.141154 0.500000 0.004479
O O14 0.000000 0.365556 0.000000
O O15 0.920356 0.194860 0.292711
O O16 0.962097 0.000000 0.220741
O O17 0.750000 0.370231 0.613419
O O18 0.604072 0.500000 0.602620
O O19 0.750000 0.189738 0.348013
O O20 0.648189 0.000000 0.355533
#
# Coordination Sequence:
#
# PCOD9404420 Si02
#       7
#     8   8   8   8   8   8   8
#     4  10  21  38  62  90 118 149 185 232 293 353
#     4   8  14  27  51  83 114 142 180 233 288 341
#     4  11  23  38  56  80 111 153 198 238 283 340
#     4  11  23  41  65  89 114 150 195 240 289 346
#     4  10  20  35  55  83 119 153 190 238 286 341
#     4   9  18  33  54  78 107 148 194 236 281 336
#     4   8  14  28  54  85 114 148 189 234 288 344
#
# _framework density 19.960787
#
# number of rings (size 3 to 8) (size 9 to 14) (size 15 to 20)
#    0.000    2.429    1.429    2.143    0.000    5.143 
#    0.000    2.143    0.000    6.000    0.000    2.000 
#    0.000    0.000    0.000    0.000    0.000    0.000 
#
# Total GULP energy -312157.192772 kJ/mol
# GULP energy per Si atom -5574.235585 kJ/mol
# Density = 1.991536 g / cm^3
# Si number density = 19.960787 Si / 1000 Ang^3
#
#
#
# Elastic Constant Matrix: (Units=GPa)
#
#
# Indices 1 2 3 4 5 6 
#
# 1 70.1236 13.5344 40.0817 0.0000 0.0000 0.0000
# 2 13.5344 90.6959 76.9277 0.0000 0.0000 0.0000
# 3 40.0817 76.9277 111.8438 0.0000 0.0000 0.0000
# 4 0.0000 0.0000 0.0000 -24.6630 0.0000 0.0000
# 5 0.0000 0.0000 0.0000 0.0000 13.5497 0.0000
# 6 0.0000 0.0000 0.0000 0.0000 0.0000 -6.8081
#
#
#
# Elastic Compliance Matrix: (Units=1/GPa)
#
#
# Indices 1 2 3 4 5 6 
#
# 1 0.019784 0.007348 -0.012144 0.000000 0.000000 0.000000
# 2 0.007348 0.029196 -0.022715 0.000000 0.000000 0.000000
# 3 -0.012144 -0.022715 0.028917 0.000000 0.000000 0.000000
# 4 0.000000 0.000000 0.000000 -0.040547 0.000000 0.000000
# 5 0.000000 0.000000 0.000000 0.000000 0.073803 0.000000
# 6 0.000000 0.000000 0.000000 0.000000 0.000000 -0.146884
#
#
# Mechanical properties :
#
#
# Convention : Reuss Voigt Hill
#
# Bulk Modulus (GPa) = 43.71580 59.30566 51.51073
# Shear Modulus (GPa) = 185.77217 5.89034 95.83125
#
# Velocity S-wave (km/s) = 9.65767 1.71970 6.93642
# Velocity P-wave (km/s) = 12.09583 5.80678 9.48757
#
# Compressibility (1/GPa) = 0.02287502
#
# Stress axis : x y z
#
# Youngs Moduli (GPa) = 50.54661 34.25158 34.58210
#
# Poissons Ratio (x) = -0.25169 0.41997
# Poissons Ratio (y) = -0.37144 0.78552
# Poissons Ratio (z) = 0.61385 0.77801
#
# Static dielectric constant tensor:
#      x y z
#    x 1.718430 0.000000 0.000000 
#    y 0.000000 1.710340 0.000000 
#    z 0.000000 0.000000 1.722930 
# 
# From -- ./inp_files/24175.got.cif
#   From: 2010.05.17/outbox.cif.g08.bks.cpg/sg51_13_cif.got.tgz:24175.got - 2010.06.03 11:52:47.
