data_PCOD9404061
_publ_section_title
;
Structure prediction by ZEFSAII (Michael W. Deem and Ramdas Pophale) SiO2 
 PCOD9404061
Probable space group: P M M A
;
_chemical_formula_sum "Si O2"
_cell_formula_units_Z 48
_cell_length_a 29.099075
_cell_length_b 7.689520
_cell_length_c 10.446422
_cell_angle_alpha 90.000000
_cell_angle_beta 90.000000
_cell_angle_gamma 90.000000
_cell_volume 2337.469650
_symmetry_space_group_name_H-M "P M M A"
_symmetry_group_IT_number 51
_symmetry_cell_setting 'orthorhombic'
loop_
_space_group_symop_operation_xyz
x,y,z
1/2-x,-y,z
1/2+x,-y,-z
-x,y,-z
-x,-y,-z
1/2+x,y,-z
1/2-x,y,z
x,-y,z
loop_
_atom_site_type_symbol
_atom_site_label
_atom_site_fract_x
_atom_site_fract_y
_atom_site_fract_z
Si Si1 0.897202 0.292585 0.780376
Si Si2 0.301824 0.212365 0.840920
Si Si3 0.300723 0.209184 0.136121
Si Si4 0.105506 0.203629 0.711228
Si Si5 0.450366 0.703306 0.464992
Si Si6 0.447868 0.289186 0.966845
O O1 0.903915 0.500000 0.783335
O O2 0.842980 0.261489 0.776223
O O3 0.925391 0.221260 0.659959
O O4 0.916330 0.225904 0.915834
O O5 0.250000 0.263727 0.801889
O O6 0.344538 0.272593 0.755501
O O7 0.302944 0.000000 0.840882
O O8 0.308567 0.268189 0.988918
O O9 0.250000 0.269802 0.175917
O O10 0.299858 0.000000 0.132399
O O11 0.082746 0.287071 0.587156
O O12 0.110629 0.000000 0.682641
O O13 0.071687 0.224004 0.832598
O O14 0.500000 0.781365 0.500000
O O15 0.458788 0.500000 0.435087
O O16 0.446501 0.500000 0.960442
O O17 0.500000 0.239043 0.000000
#
# Coordination Sequence:
#
# PCOD9404061 Si02
#       6
#     8   8   8   8   8   8
#     4  10  20  34  55  81 106 140 185 229 268 309
#     4   8  15  30  52  78 109 143 174 209 265 328
#     4   9  17  32  55  80 109 145 178 214 269 331
#     4  11  21  34  56  85 111 139 178 229 276 313
#     4  10  22  41  59  74 105 153 190 218 265 329
#     4  10  20  35  55  78 106 142 183 223 269 329
#
# _framework density 20.535025000000001
#
# number of rings (size 3 to 8) (size 9 to 14) (size 15 to 20)
#    0.000    2.333    1.667    2.500    0.000    4.333 
#    0.000    2.500    0.000    5.000    0.000    0.000 
#    0.000    0.000    0.000    0.000    0.000    0.000 
#
# Total GULP energy -267935.279666 kJ/mol
# GULP energy per Si atom -5581.984993 kJ/mol
# Density = 2.048829 g / cm^3
# Si number density = 20.535025 Si / 1000 Ang^3
#
#
#
# Elastic Constant Matrix: (Units=GPa)
#
#
# Indices 1 2 3 4 5 6 
#
# 1 96.3931 -7.5005 -4.2538 0.0000 0.0000 0.0000
# 2 -7.5005 33.3559 -9.7029 0.0000 0.0000 0.0000
# 3 -4.2538 -9.7029 42.2768 0.0000 0.0000 0.0000
# 4 0.0000 0.0000 0.0000 -7.2541 0.0000 0.0000
# 5 0.0000 0.0000 0.0000 0.0000 31.5974 0.0000
# 6 0.0000 0.0000 0.0000 0.0000 0.0000 -9.2081
#
#
#
# Elastic Compliance Matrix: (Units=1/GPa)
#
#
# Indices 1 2 3 4 5 6 
#
# 1 0.010677 0.002908 0.001742 0.000000 0.000000 0.000000
# 2 0.002908 0.032916 0.007847 0.000000 0.000000 0.000000
# 3 0.001742 0.007847 0.025630 0.000000 0.000000 0.000000
# 4 0.000000 0.000000 0.000000 -0.137854 0.000000 0.000000
# 5 0.000000 0.000000 0.000000 0.000000 0.031648 0.000000
# 6 0.000000 0.000000 0.000000 0.000000 0.000000 -0.108600
#
#
# Mechanical properties :
#
#
# Convention : Reuss Voigt Hill
#
# Bulk Modulus (GPa) = 10.61395 14.34573 12.47984
# Shear Modulus (GPa) = -35.92745 15.92591 -10.00077
#
# Velocity S-wave (km/s) = -4.18732 2.78789 -2.20923
# Velocity P-wave (km/s) = 4.26595 4.16704 0.64578
#
# Compressibility (1/GPa) = 0.09421561
#
# Stress axis : x y z
#
# Youngs Moduli (GPa) = 93.65679 30.38027 39.01707
#
# Poissons Ratio (x) = -0.08833 -0.06795
# Poissons Ratio (y) = -0.27231 -0.30617
# Poissons Ratio (z) = -0.16312 -0.23840
#
# Static dielectric constant tensor:
#      x y z
#    x 1.574040 0.000000 0.000000 
#    y 0.000000 1.780980 0.000000 
#    z 0.000000 0.000000 1.696290 
# 
# From -- ./inp_files/12756.got.cif
#   From: 2010.05.17/outbox.cif.g08.bks.cpg/sg51_7_cif.got.tgz:12756.got - 2010.06.03 11:52:47.
