data_PCOD9404928
_publ_section_title
;
Structure prediction by ZEFSAII (Michael W. Deem and Ramdas Pophale) SiO2 
 PCOD9404928
Probable space group: P M M A
;
_chemical_formula_sum "Si O2"
_cell_formula_units_Z 48
_cell_length_a 16.208244
_cell_length_b 9.212105
_cell_length_c 17.355559
_cell_angle_alpha 90.000000
_cell_angle_beta 90.000000
_cell_angle_gamma 90.000000
_cell_volume 2591.394017
_symmetry_space_group_name_H-M "P M M A"
_symmetry_group_IT_number 51
_symmetry_cell_setting 'orthorhombic'
loop_
_space_group_symop_operation_xyz
x,y,z
1/2-x,-y,z
1/2+x,-y,-z
-x,y,-z
-x,-y,-z
1/2+x,y,-z
1/2-x,y,z
x,-y,z
loop_
_atom_site_type_symbol
_atom_site_label
_atom_site_fract_x
_atom_site_fract_y
_atom_site_fract_z
Si Si1 0.419617 0.829285 0.845372
Si Si2 0.152309 0.669200 0.991806
Si Si3 0.152949 0.671936 0.698736
Si Si4 0.750000 0.173884 0.724954
Si Si5 0.113183 0.829051 0.150508
Si Si6 0.750000 0.675708 0.560207
Si Si7 0.087070 0.676759 0.535416
O O1 0.395902 0.753885 0.925476
O O2 0.370846 0.757055 0.775241
O O3 0.517086 0.810495 0.831376
O O4 0.401419 0.000000 0.850268
O O5 0.250000 0.680091 0.975537
O O6 0.129137 0.500000 0.991477
O O7 0.135468 0.738132 0.075008
O O8 0.250000 0.688548 0.681174
O O9 0.137997 0.500000 0.711157
O O10 0.101700 0.721080 0.623895
O O11 0.670839 0.210613 0.777649
O O12 0.750000 0.257083 0.644856
O O13 0.750000 0.000000 0.711602
O O14 0.128167 0.000000 0.133741
O O15 0.750000 0.500000 0.564433
O O16 0.833006 0.720048 0.514529
O O17 0.086445 0.500000 0.535528
O O18 0.000000 0.725912 0.500000
#
# Coordination Sequence:
#
# PCOD9404928 Si02
#       7
#     8   8   8   4   8   4   8
#     4  11  24  38  57  86 116 149 193 236 281 339
#     4  11  23  39  60  87 116 148 190 235 282 336
#     4  10  20  37  59  83 115 153 193 235 282 338
#     4  10  22  40  60  81 114 153 184 227 290 343
#     4  10  22  41  61  81 112 154 192 230 282 342
#     4  10  20  36  60  89 114 143 194 241 278 345
#     4   9  18  34  57  85 116 150 186 235 294 341
#
# _framework density 18.522849000000001
#
# number of rings (size 3 to 8) (size 9 to 14) (size 15 to 20)
#    0.000    1.833    1.667    2.000    2.333    7.333 
#    0.000    0.833    0.000    1.000    0.000    0.000 
#    0.000    0.000    0.000    0.000    0.000    0.000 
#
# Total GULP energy -268139.099476 kJ/mol
# GULP energy per Si atom -5586.231239 kJ/mol
# Density = 1.848069 g / cm^3
# Si number density = 18.522849 Si / 1000 Ang^3
#
#
#
# Elastic Constant Matrix: (Units=GPa)
#
#
# Indices 1 2 3 4 5 6 
#
# 1 65.5922 27.2709 19.0027 0.0000 0.0000 0.0000
# 2 27.2709 40.4392 25.0040 0.0000 0.0000 0.0000
# 3 19.0027 25.0040 91.4531 0.0000 0.0000 0.0000
# 4 0.0000 0.0000 0.0000 93.3776 0.0000 0.0000
# 5 0.0000 0.0000 0.0000 0.0000 10.0447 0.0000
# 6 0.0000 0.0000 0.0000 0.0000 0.0000 20.5947
#
#
#
# Elastic Compliance Matrix: (Units=1/GPa)
#
#
# Indices 1 2 3 4 5 6 
#
# 1 0.021213 -0.013936 -0.000598 0.000000 0.000000 0.000000
# 2 -0.013936 0.038914 -0.007744 0.000000 0.000000 0.000000
# 3 -0.000598 -0.007744 0.013176 0.000000 0.000000 0.000000
# 4 0.000000 0.000000 0.000000 0.010709 0.000000 0.000000
# 5 0.000000 0.000000 0.000000 0.000000 0.099555 0.000000
# 6 0.000000 0.000000 0.000000 0.000000 0.000000 0.048556
#
#
# Mechanical properties :
#
#
# Convention : Reuss Voigt Hill
#
# Bulk Modulus (GPa) = 34.78405 37.78220 36.28312
# Shear Modulus (GPa) = 17.46661 33.21720 25.34191
#
# Velocity S-wave (km/s) = 3.07412 4.23934 3.70285
# Velocity P-wave (km/s) = 5.60536 6.66368 6.15730
#
# Compressibility (1/GPa) = 0.02874881
#
# Stress axis : x y z
#
# Youngs Moduli (GPa) = 47.14131 25.69745 75.89573
#
# Poissons Ratio (x) = 0.35811 0.04536
# Poissons Ratio (y) = 0.65695 0.58772
# Poissons Ratio (z) = 0.02817 0.19900
#
# Static dielectric constant tensor:
#      x y z
#    x 1.645290 0.000000 0.000000 
#    y 0.000000 1.619280 0.000000 
#    z 0.000000 0.000000 1.596770 
# 
# From -- ./inp_files/24940.got.cif
#   From: 2010.05.17/outbox.cif.g08.bks.cpg/sg51_13_cif.got.tgz:24940.got - 2010.06.03 11:52:47.
