data_PCOD9404818
_publ_section_title
;
Structure prediction by ZEFSAII (Michael W. Deem and Ramdas Pophale) SiO2 
 PCOD9404818
Probable space group: P M M A
;
_chemical_formula_sum "Si O2"
_cell_formula_units_Z 48
_cell_length_a 16.892760
_cell_length_b 9.542344
_cell_length_c 16.465805
_cell_angle_alpha 90.000000
_cell_angle_beta 90.000000
_cell_angle_gamma 90.000000
_cell_volume 2654.230581
_symmetry_space_group_name_H-M "P M M A"
_symmetry_group_IT_number 51
_symmetry_cell_setting 'orthorhombic'
loop_
_space_group_symop_operation_xyz
x,y,z
1/2-x,-y,z
1/2+x,-y,-z
-x,y,-z
-x,-y,-z
1/2+x,y,-z
1/2-x,y,z
x,-y,z
loop_
_atom_site_type_symbol
_atom_site_label
_atom_site_fract_x
_atom_site_fract_y
_atom_site_fract_z
Si Si1 0.250000 0.667622 0.522738
Si Si2 0.561350 0.164659 0.724913
Si Si3 0.908943 0.334600 0.025817
Si Si4 0.842824 0.659422 0.853500
Si Si5 0.076924 0.667529 0.442309
Si Si6 0.891527 0.836082 0.189492
Si Si7 0.250000 0.831467 0.691137
O O1 0.250000 0.500000 0.536487
O O2 0.165300 0.699184 0.478397
O O3 0.250000 0.751309 0.606698
O O4 0.619234 0.237688 0.788948
O O5 0.566057 0.245274 0.639890
O O6 0.475255 0.178774 0.765766
O O7 0.578330 0.000000 0.714110
O O8 0.897597 0.500000 0.041051
O O9 0.889332 0.250606 0.106709
O O10 0.859255 0.295538 0.946034
O O11 0.000000 0.311495 0.000000
O O12 0.750000 0.652923 0.839655
O O13 0.876078 0.500000 0.845054
O O14 0.075626 0.500000 0.426181
O O15 0.000000 0.696844 0.500000
O O16 0.825383 0.793951 0.254175
O O17 0.879387 0.000000 0.169886
O O18 0.250000 0.000000 0.677501
#
# Coordination Sequence:
#
# PCOD9404818 Si02
#       7
#     4   8   8   8   8   8   4
#     4  10  22  40  62  89 114 145 190 237 288 345
#     4  11  23  38  59  87 117 151 195 238 286 346
#     4  10  20  36  58  83 110 148 196 240 285 337
#     4  10  22  39  58  82 116 154 193 239 287 337
#     4  10  22  40  62  87 117 152 192 239 293 349
#     4  10  22  38  57  84 118 155 191 234 285 340
#     4  10  22  40  60  85 118 153 190 231 286 345
#
# _framework density 18.084337000000001
#
# number of rings (size 3 to 8) (size 9 to 14) (size 15 to 20)
#    0.000    1.833    1.667    1.500    2.333    3.667 
#    0.000    0.000    0.000    0.000    0.000    0.000 
#    0.000    0.000    0.000    0.000    0.000    0.000 
#
# Total GULP energy -267908.268805 kJ/mol
# GULP energy per Si atom -5581.422267 kJ/mol
# Density = 1.804318 g / cm^3
# Si number density = 18.084337 Si / 1000 Ang^3
#
#
#
# Elastic Constant Matrix: (Units=GPa)
#
#
# Indices 1 2 3 4 5 6 
#
# 1 89.3904 50.2567 51.4419 0.0000 0.0000 0.0000
# 2 50.2567 75.2982 93.5038 0.0000 0.0000 0.0000
# 3 51.4419 93.5038 148.6084 0.0000 0.0000 0.0000
# 4 0.0000 0.0000 0.0000 173.1404 0.0000 0.0000
# 5 0.0000 0.0000 0.0000 0.0000 -287.2320 0.0000
# 6 0.0000 0.0000 0.0000 0.0000 0.0000 44.5841
#
#
#
# Elastic Compliance Matrix: (Units=1/GPa)
#
#
# Indices 1 2 3 4 5 6 
#
# 1 0.019177 -0.020835 0.006471 0.000000 0.000000 0.000000
# 2 -0.020835 0.083368 -0.045243 0.000000 0.000000 0.000000
# 3 0.006471 -0.045243 0.032956 0.000000 0.000000 0.000000
# 4 0.000000 0.000000 0.000000 0.005776 0.000000 0.000000
# 5 0.000000 0.000000 0.000000 0.000000 -0.003482 0.000000
# 6 0.000000 0.000000 0.000000 0.000000 0.000000 0.022430
#
#
# Mechanical properties :
#
#
# Convention : Reuss Voigt Hill
#
# Bulk Modulus (GPa) = 61.39748 78.18909 69.79328
# Shear Modulus (GPa) = 17.55216 -6.02853 5.76182
#
# Velocity S-wave (km/s) = 3.11878 -1.82779 1.78690
# Velocity P-wave (km/s) = 6.85517 6.23500 6.55243
#
# Compressibility (1/GPa) = 0.01628731
#
# Stress axis : x y z
#
# Youngs Moduli (GPa) = 52.14682 11.99505 30.34392
#
# Poissons Ratio (x) = 0.24991 -0.19636
# Poissons Ratio (y) = 1.08647 1.37284
# Poissons Ratio (z) = -0.33744 0.54269
#
# Static dielectric constant tensor:
#      x y z
#    x 1.634710 0.000000 0.000000 
#    y 0.000000 1.606120 0.000000 
#    z 0.000000 0.000000 1.583080 
# 
# From -- ./inp_files/24871.got.cif
#   From: 2010.05.17/outbox.cif.g08.bks.cpg/sg51_13_cif.got.tgz:24871.got - 2010.06.03 11:52:47.
