data_PCOD9404405
_publ_section_title
;
Structure prediction by ZEFSAII (Michael W. Deem and Ramdas Pophale) SiO2 
 PCOD9404405
Probable space group: P M M A
;
_chemical_formula_sum "Si O2"
_cell_formula_units_Z 48
_cell_length_a 30.034839
_cell_length_b 7.832185
_cell_length_c 10.166309
_cell_angle_alpha 90.000000
_cell_angle_beta 90.000000
_cell_angle_gamma 90.000000
_cell_volume 2391.506421
_symmetry_space_group_name_H-M "P M M A"
_symmetry_group_IT_number 51
_symmetry_cell_setting 'orthorhombic'
loop_
_space_group_symop_operation_xyz
x,y,z
1/2-x,-y,z
1/2+x,-y,-z
-x,y,-z
-x,-y,-z
1/2+x,y,-z
1/2-x,y,z
x,-y,z
loop_
_atom_site_type_symbol
_atom_site_label
_atom_site_fract_x
_atom_site_fract_y
_atom_site_fract_z
Si Si1 0.531240 0.204723 0.125105
Si Si2 0.199069 0.706222 0.781907
Si Si3 0.378197 0.703716 0.288848
Si Si4 0.198896 0.291300 0.482745
Si Si5 0.024996 0.700693 0.373928
Si Si6 0.876090 0.799128 0.013884
O O1 0.508038 0.283758 0.251275
O O2 0.533077 0.000000 0.146648
O O3 0.500000 0.236564 0.000000
O O4 0.580160 0.270746 0.088086
O O5 0.250000 0.760370 0.805815
O O6 0.198135 0.500000 0.783912
O O7 0.187029 0.759529 0.632633
O O8 0.166020 0.769301 0.893412
O O9 0.379018 0.500000 0.308766
O O10 0.337375 0.769827 0.377612
O O11 0.426477 0.772833 0.334844
O O12 0.371536 0.730796 0.133665
O O13 0.250000 0.237766 0.455854
O O14 0.199238 0.500000 0.480605
O O15 0.032412 0.500000 0.401893
O O16 0.000000 0.777357 0.500000
O O17 0.883651 0.000000 0.998346
#
# Coordination Sequence:
#
# PCOD9404405 Si02
#       6
#     8   8   8   8   8   8
#     4  10  21  39  57  75 108 152 190 222 264 323
#     4   9  19  37  61  86 110 141 181 224 275 332
#     4  10  20  35  55  81 111 143 182 227 276 329
#     4   8  16  33  57  82 107 137 175 221 271 325
#     4  10  22  36  54  84 113 140 180 232 282 325
#     4  11  23  37  55  81 112 148 187 227 271 319
#
# _framework density 20.071031999999999
#
# number of rings (size 3 to 8) (size 9 to 14) (size 15 to 20)
#    0.000    2.333    1.667    1.500    2.333    3.000 
#    0.000    2.500    0.000    1.000    0.000    0.000 
#    0.000    0.000    0.000    0.000    0.000    0.000 
#
# Total GULP energy -267892.550930 kJ/mol
# GULP energy per Si atom -5581.094811 kJ/mol
# Density = 2.002535 g / cm^3
# Si number density = 20.071032 Si / 1000 Ang^3
#
#
#
# Elastic Constant Matrix: (Units=GPa)
#
#
# Indices 1 2 3 4 5 6 
#
# 1 146.8708 5.4421 96.4730 0.0000 0.0000 0.0000
# 2 5.4421 19.6581 2.4053 0.0000 0.0000 0.0000
# 3 96.4730 2.4053 120.3416 0.0000 0.0000 0.0000
# 4 0.0000 0.0000 0.0000 -35.5850 0.0000 0.0000
# 5 0.0000 0.0000 0.0000 0.0000 38.2873 0.0000
# 6 0.0000 0.0000 0.0000 0.0000 0.0000 15.4068
#
#
#
# Elastic Compliance Matrix: (Units=1/GPa)
#
#
# Indices 1 2 3 4 5 6 
#
# 1 0.014513 -0.002601 -0.011583 0.000000 0.000000 0.000000
# 2 -0.002601 0.051460 0.001056 0.000000 0.000000 0.000000
# 3 -0.011583 0.001056 0.017574 0.000000 0.000000 0.000000
# 4 0.000000 0.000000 0.000000 -0.028102 0.000000 0.000000
# 5 0.000000 0.000000 0.000000 0.000000 0.026118 0.000000
# 6 0.000000 0.000000 0.000000 0.000000 0.000000 0.064906
#
#
# Mechanical properties :
#
#
# Convention : Reuss Voigt Hill
#
# Bulk Modulus (GPa) = 17.45398 55.05681 36.25539
# Shear Modulus (GPa) = 26.06577 15.79183 20.92880
#
# Velocity S-wave (km/s) = 3.60762 2.80803 3.23265
# Velocity P-wave (km/s) = 5.10571 6.16473 5.66004
#
# Compressibility (1/GPa) = 0.05729352
#
# Stress axis : x y z
#
# Youngs Moduli (GPa) = 68.90271 19.43240 56.90247
#
# Poissons Ratio (x) = 0.05054 0.65908
# Poissons Ratio (y) = 0.17919 -0.06010
# Poissons Ratio (z) = 0.79808 -0.02053
#
# Static dielectric constant tensor:
#      x y z
#    x 1.697130 0.000000 0.000000 
#    y 0.000000 1.730590 0.000000 
#    z 0.000000 0.000000 1.674470 
# 
# From -- ./inp_files/12747.got.cif
#   From: 2010.05.17/outbox.cif.g08.bks.cpg/sg51_7_cif.got.tgz:12747.got - 2010.06.03 11:52:47.
