data_PCOD9404573
_publ_section_title
;
Structure prediction by ZEFSAII (Michael W. Deem and Ramdas Pophale) SiO2 
 PCOD9404573
Probable space group: P M M A
;
_chemical_formula_sum "Si O2"
_cell_formula_units_Z 64
_cell_length_a 8.647795
_cell_length_b 14.827576
_cell_length_c 25.965747
_cell_angle_alpha 90.000000
_cell_angle_beta 90.000000
_cell_angle_gamma 90.000000
_cell_volume 3329.479658
_symmetry_space_group_name_H-M "P M M A"
_symmetry_group_IT_number 51
_symmetry_cell_setting 'orthorhombic'
loop_
_space_group_symop_operation_xyz
x,y,z
1/2-x,-y,z
1/2+x,-y,-z
-x,y,-z
-x,-y,-z
1/2+x,y,-z
1/2-x,y,z
x,-y,z
loop_
_atom_site_type_symbol
_atom_site_label
_atom_site_fract_x
_atom_site_fract_y
_atom_site_fract_z
Si Si1 0.937005 0.105467 0.343664
Si Si2 0.434558 0.213779 0.554105
Si Si3 0.563351 0.596284 0.058350
Si Si4 0.064940 0.601378 0.406146
Si Si5 0.936418 0.101952 0.848430
Si Si6 0.564610 0.794156 0.057776
Si Si7 0.434055 0.601851 0.709279
Si Si8 0.935455 0.220001 0.751882
O O1 0.750000 0.111487 0.339890
O O2 0.983758 0.153191 0.397175
O O3 0.009598 0.160381 0.296573
O O4 0.979858 0.000000 0.342504
O O5 0.500000 0.180155 0.500000
O O6 0.250000 0.213343 0.552259
O O7 0.491288 0.316001 0.563423
O O8 0.750000 0.596340 0.056922
O O9 0.514201 0.500000 0.082441
O O10 0.515953 0.694294 0.078827
O O11 0.500000 0.595420 0.000000
O O12 0.250000 0.607024 0.409497
O O13 0.016866 0.500000 0.422685
O O14 0.013530 0.611387 0.346595
O O15 0.750000 0.104390 0.850339
O O16 0.987747 0.170067 0.803773
O O17 0.001077 0.132422 0.903185
O O18 0.984032 0.000000 0.835708
O O19 0.750000 0.797750 0.055673
O O20 0.500000 0.804118 0.000000
O O21 0.250000 0.611754 0.702134
O O22 0.465021 0.500000 0.727994
O O23 0.495367 0.680596 0.745413
O O24 0.750000 0.225035 0.751517
#
# Coordination Sequence:
#
# PCOD9404573 Si02
#       8
#     8   8   8   8   8   8   8   8
#     4  10  22  40  61  85 113 148 192 241 294 352
#     4  11  23  38  57  82 116 155 195 243 294 347
#     4   8  14  26  46  74 107 141 178 220 265 317
#     4  10  20  35  57  85 116 151 192 237 286 343
#     4  10  23  42  60  82 114 150 191 241 292 341
#     4  10  20  35  58  86 116 153 194 236 285 341
#     4  10  20  35  58  88 121 156 191 229 280 343
#     4  11  22  38  63  90 117 149 190 240 292 345
#
# _framework density 19.222223
#
# number of rings (size 3 to 8) (size 9 to 14) (size 15 to 20)
#    0.000    2.000    1.250    2.250    0.000    5.250 
#    0.000    0.625    0.000    2.250    0.000    0.000 
#    0.000    0.000    0.000    0.000    0.000    0.000 
#
# Total GULP energy -357237.611050 kJ/mol
# GULP energy per Si atom -5581.837673 kJ/mol
# Density = 1.917847 g / cm^3
# Si number density = 19.222223 Si / 1000 Ang^3
#
#
#
# Elastic Constant Matrix: (Units=GPa)
#
#
# Indices 1 2 3 4 5 6 
#
# 1 24.9216 22.2696 17.4474 0.0000 0.0000 0.0000
# 2 22.2696 96.7369 41.8889 0.0000 0.0000 0.0000
# 3 17.4474 41.8889 87.5397 0.0000 0.0000 0.0000
# 4 0.0000 0.0000 0.0000 13.7914 0.0000 0.0000
# 5 0.0000 0.0000 0.0000 0.0000 25.9766 0.0000
# 6 0.0000 0.0000 0.0000 0.0000 0.0000 21.7294
#
#
#
# Elastic Compliance Matrix: (Units=1/GPa)
#
#
# Indices 1 2 3 4 5 6 
#
# 1 0.052861 -0.009595 -0.005944 0.000000 0.000000 0.000000
# 2 -0.009595 0.014781 -0.005160 0.000000 0.000000 0.000000
# 3 -0.005944 -0.005160 0.015077 0.000000 0.000000 0.000000
# 4 0.000000 0.000000 0.000000 0.072509 0.000000 0.000000
# 5 0.000000 0.000000 0.000000 0.000000 0.038496 0.000000
# 6 0.000000 0.000000 0.000000 0.000000 0.000000 0.046021
#
#
# Mechanical properties :
#
#
# Convention : Reuss Voigt Hill
#
# Bulk Modulus (GPa) = 24.20137 41.37887 32.79012
# Shear Modulus (GPa) = 16.95384 20.80563 18.87973
#
# Velocity S-wave (km/s) = 2.97306 3.29351 3.13738
# Velocity P-wave (km/s) = 4.93994 6.00302 5.49724
#
# Compressibility (1/GPa) = 0.04131997
#
# Stress axis : x y z
#
# Youngs Moduli (GPa) = 18.91736 67.65559 66.32417
#
# Poissons Ratio (x) = 0.64916 0.39425
# Poissons Ratio (y) = 0.18151 0.34226
# Poissons Ratio (z) = 0.11245 0.34913
#
# Static dielectric constant tensor:
#      x y z
#    x 1.653150 0.000000 0.000000 
#    y 0.000000 1.701280 0.000000 
#    z 0.000000 0.000000 1.606850 
# 
# From -- ./inp_files/34870.got.cif
#   From: 2010.05.17/outbox.cif.g08.bks.cpg/sg51_18_cif.got.tgz:34870.got - 2010.06.03 11:52:47.
