data_PCOD9404716
_publ_section_title
;
Structure prediction by ZEFSAII (Michael W. Deem and Ramdas Pophale) SiO2 
 PCOD9404716
Probable space group: P M M A
;
_chemical_formula_sum "Si O2"
_cell_formula_units_Z 44
_cell_length_a 9.500057
_cell_length_b 8.008020
_cell_length_c 30.958282
_cell_angle_alpha 90.000000
_cell_angle_beta 90.000000
_cell_angle_gamma 90.000000
_cell_volume 2355.202275
_symmetry_space_group_name_H-M "P M M A"
_symmetry_group_IT_number 51
_symmetry_cell_setting 'orthorhombic'
loop_
_space_group_symop_operation_xyz
x,y,z
1/2-x,-y,z
1/2+x,-y,-z
-x,y,-z
-x,-y,-z
1/2+x,y,-z
1/2-x,y,z
x,-y,z
loop_
_atom_site_type_symbol
_atom_site_label
_atom_site_fract_x
_atom_site_fract_y
_atom_site_fract_z
Si Si1 0.421026 0.000000 0.454614
Si Si2 0.590435 0.200250 0.959563
Si Si3 0.921078 0.685836 0.604602
Si Si4 0.588546 0.798468 0.217846
Si Si5 0.088513 0.301075 0.877326
Si Si6 0.414780 0.202069 0.300970
O O1 0.500000 0.000000 0.500000
O O2 0.461674 0.164399 0.427107
O O3 0.250000 0.000000 0.459787
O O4 0.750000 0.266152 0.959416
O O5 0.509675 0.235163 0.915188
O O6 0.598822 0.000000 0.964401
O O7 0.500000 0.266166 0.000000
O O8 0.750000 0.688396 0.605609
O O9 0.966006 0.500000 0.591162
O O10 0.966621 0.722881 0.653766
O O11 0.750000 0.740042 0.221710
O O12 0.536651 0.744890 0.170641
O O13 0.498774 0.741317 0.258777
O O14 0.588329 0.000000 0.218642
O O15 0.250000 0.236277 0.881670
O O16 0.093321 0.500000 0.880685
O O17 0.250000 0.243326 0.295982
O O18 0.425105 0.000000 0.304447
#
# Coordination Sequence:
#
# PCOD9404716 Si02
#       6
#     4   8   8   8   8   8
#     4  10  20  36  56  78 106 140 178 222 269 318
#     4  10  21  37  58  81 102 128 167 214 263 315
#     4   9  17  31  53  78 104 138 178 219 266 319
#     4   9  18  32  50  73 103 140 175 210 258 309
#     4  10  21  36  53  74 104 141 176 211 255 309
#     4   9  16  29  50  74  99 130 172 217 257 304
#
# _framework density 18.682047000000001
#
# number of rings (size 3 to 8) (size 9 to 14) (size 15 to 20)
#    0.000    2.545    0.909    1.091    0.000    4.364 
#    0.000    2.727    0.000    1.091    0.000    0.000 
#    0.000    0.000    0.000    0.000    0.000    0.000 
#
# Total GULP energy -245446.439470 kJ/mol
# GULP energy per Si atom -5578.328170 kJ/mol
# Density = 1.863953 g / cm^3
# Si number density = 18.682047 Si / 1000 Ang^3
#
#
#
# Elastic Constant Matrix: (Units=GPa)
#
#
# Indices 1 2 3 4 5 6 
#
# 1 62.8206 29.7604 75.2467 0.0000 0.0000 0.0000
# 2 29.7604 60.7224 53.6980 0.0000 0.0000 0.0000
# 3 75.2467 53.6980 184.6251 0.0000 0.0000 0.0000
# 4 0.0000 0.0000 0.0000 -17.4649 0.0000 0.0000
# 5 0.0000 0.0000 0.0000 0.0000 37.9387 0.0000
# 6 0.0000 0.0000 0.0000 0.0000 0.0000 7.2527
#
#
#
# Elastic Compliance Matrix: (Units=1/GPa)
#
#
# Indices 1 2 3 4 5 6 
#
# 1 0.032491 -0.005673 -0.011592 0.000000 0.000000 0.000000
# 2 -0.005673 0.023161 -0.004424 0.000000 0.000000 0.000000
# 3 -0.011592 -0.004424 0.011428 0.000000 0.000000 0.000000
# 4 0.000000 0.000000 0.000000 -0.057258 0.000000 0.000000
# 5 0.000000 0.000000 0.000000 0.000000 0.026358 0.000000
# 6 0.000000 0.000000 0.000000 0.000000 0.000000 0.137879
#
#
# Mechanical properties :
#
#
# Convention : Reuss Voigt Hill
#
# Bulk Modulus (GPa) = 42.19201 69.50868 55.85035
# Shear Modulus (GPa) = 22.18881 15.50951 18.84916
#
# Velocity S-wave (km/s) = 3.45005 2.88441 3.17984
# Velocity P-wave (km/s) = 6.20514 6.95558 6.59105
#
# Compressibility (1/GPa) = 0.02370117
#
# Stress axis : x y z
#
# Youngs Moduli (GPa) = 30.77777 43.17559 87.50587
#
# Poissons Ratio (x) = 0.24493 1.01439
# Poissons Ratio (y) = 0.17460 0.38716
# Poissons Ratio (z) = 0.35678 0.19103
#
# Static dielectric constant tensor:
#      x y z
#    x 1.640390 0.000000 0.000000 
#    y 0.000000 1.668460 0.000000 
#    z 0.000000 0.000000 1.617980 
# 
# From -- ./inp_files/36821.got.cif
#   From: 2010.05.17/outbox.cif.g08.bks.cpg/sg51_19_cif.got.tgz:36821.got - 2010.06.03 11:52:47.
