data_PCOD9404124
_publ_section_title
;
Structure prediction by ZEFSAII (Michael W. Deem and Ramdas Pophale) SiO2 
 PCOD9404124
Probable space group: P M M A
;
_chemical_formula_sum "Si O2"
_cell_formula_units_Z 48
_cell_length_a 8.831779
_cell_length_b 20.772580
_cell_length_c 14.720913
_cell_angle_alpha 90.000000
_cell_angle_beta 90.000000
_cell_angle_gamma 90.000000
_cell_volume 2700.681561
_symmetry_space_group_name_H-M "P M M A"
_symmetry_group_IT_number 51
_symmetry_cell_setting 'orthorhombic'
loop_
_space_group_symop_operation_xyz
x,y,z
1/2-x,-y,z
1/2+x,-y,-z
-x,y,-z
-x,-y,-z
1/2+x,y,-z
1/2-x,y,z
x,-y,z
loop_
_atom_site_type_symbol
_atom_site_label
_atom_site_fract_x
_atom_site_fract_y
_atom_site_fract_z
Si Si1 0.929144 0.926690 0.785954
Si Si2 0.928118 0.735823 0.403730
Si Si3 0.932245 0.573399 0.901750
Si Si4 0.068244 0.694555 0.217000
Si Si5 0.071659 0.891103 0.596511
Si Si6 0.430886 0.188694 0.899486
O O1 0.750000 0.912242 0.788829
O O2 0.987358 0.920664 0.682669
O O3 0.017464 0.875518 0.846926
O O4 0.952511 0.000000 0.817194
O O5 0.750000 0.721659 0.402261
O O6 0.944861 0.813452 0.394932
O O7 0.000000 0.717298 0.500000
O O8 0.010176 0.703172 0.319102
O O9 0.750000 0.574193 0.909062
O O10 0.979370 0.500000 0.880020
O O11 0.975352 0.626334 0.827567
O O12 0.000000 0.590425 0.000000
O O13 0.250000 0.700821 0.214443
O O14 0.995200 0.751080 0.157005
O O15 0.250000 0.906437 0.598510
O O16 0.000000 0.910251 0.500000
O O17 0.250000 0.192130 0.903311
O O18 0.500000 0.189296 0.000000
#
# Coordination Sequence:
#
# PCOD9404124 Si02
#       6
#     8   8   8   8   8   8
#     4  11  24  41  60  82 110 145 185 231 283 339
#     4  10  20  34  55  84 115 148 185 230 279 333
#     4   9  19  35  55  83 118 155 192 229 275 328
#     4  11  21  35  59  87 117 151 186 232 280 329
#     4  10  20  35  57  83 112 147 183 228 280 335
#     4  12  25  41  60  83 111 145 186 234 281 333
#
# _framework density 17.773292000000001
#
# number of rings (size 3 to 8) (size 9 to 14) (size 15 to 20)
#    0.000    1.500    1.667    4.000    0.000    6.000 
#    0.000    0.000    0.000    0.500    0.000    0.000 
#    0.000    0.000    0.000    0.000    0.000    0.000 
#
# Total GULP energy -268297.175504 kJ/mol
# GULP energy per Si atom -5589.524490 kJ/mol
# Density = 1.773284 g / cm^3
# Si number density = 17.773292 Si / 1000 Ang^3
#
#
#
# Elastic Constant Matrix: (Units=GPa)
#
#
# Indices 1 2 3 4 5 6 
#
# 1 102.5392 58.0286 59.3143 0.0000 0.0000 0.0000
# 2 58.0286 84.3276 69.1262 0.0000 0.0000 0.0000
# 3 59.3143 69.1262 146.6140 0.0000 0.0000 0.0000
# 4 0.0000 0.0000 0.0000 68.7161 0.0000 0.0000
# 5 0.0000 0.0000 0.0000 0.0000 37.9450 0.0000
# 6 0.0000 0.0000 0.0000 0.0000 0.0000 157.5911
#
#
#
# Elastic Compliance Matrix: (Units=1/GPa)
#
#
# Indices 1 2 3 4 5 6 
#
# 1 0.016374 -0.009514 -0.002138 0.000000 0.000000 0.000000
# 2 -0.009514 0.024858 -0.007871 0.000000 0.000000 0.000000
# 3 -0.002138 -0.007871 0.011397 0.000000 0.000000 0.000000
# 4 0.000000 0.000000 0.000000 0.014553 0.000000 0.000000
# 5 0.000000 0.000000 0.000000 0.000000 0.026354 0.000000
# 6 0.000000 0.000000 0.000000 0.000000 0.000000 0.006346
#
#
# Mechanical properties :
#
#
# Convention : Reuss Voigt Hill
#
# Bulk Modulus (GPa) = 73.63253 78.49101 76.06177
# Shear Modulus (GPa) = 34.85434 62.65121 48.75277
#
# Velocity S-wave (km/s) = 4.43318 5.94363 5.24308
# Velocity P-wave (km/s) = 8.22939 9.55827 8.91861
#
# Compressibility (1/GPa) = 0.01358095
#
# Stress axis : x y z
#
# Youngs Moduli (GPa) = 61.07383 40.22892 87.74507
#
# Poissons Ratio (x) = 0.38276 0.18762
# Poissons Ratio (y) = 0.58109 0.69063
# Poissons Ratio (z) = 0.13059 0.31664
#
# Static dielectric constant tensor:
#      x y z
#    x 1.591170 0.000000 0.000000 
#    y 0.000000 1.607490 0.000000 
#    z 0.000000 0.000000 1.575400 
# 
# From -- ./inp_files/21120.got.cif
#   From: 2010.05.17/outbox.cif.g08.bks.cpg/sg51_11_cif.got.tgz:21120.got - 2010.06.03 11:52:47.
