data_PCOD9404391
_publ_section_title
;
Structure prediction by ZEFSAII (Michael W. Deem and Ramdas Pophale) SiO2 
 PCOD9404391
Probable space group: P M M A
;
_chemical_formula_sum "Si O2"
_cell_formula_units_Z 48
_cell_length_a 8.776581
_cell_length_b 31.480972
_cell_length_c 9.567136
_cell_angle_alpha 90.000000
_cell_angle_beta 90.000000
_cell_angle_gamma 90.000000
_cell_volume 2643.354718
_symmetry_space_group_name_H-M "P M M A"
_symmetry_group_IT_number 51
_symmetry_cell_setting 'orthorhombic'
loop_
_space_group_symop_operation_xyz
x,y,z
1/2-x,-y,z
1/2+x,-y,-z
-x,y,-z
-x,-y,-z
1/2+x,y,-z
1/2-x,y,z
x,-y,z
loop_
_atom_site_type_symbol
_atom_site_label
_atom_site_fract_x
_atom_site_fract_y
_atom_site_fract_z
Si Si1 0.068143 0.752815 0.153393
Si Si2 0.432495 0.174283 0.654572
Si Si3 0.566583 0.921219 0.345186
Si Si4 0.933353 0.418720 0.344199
Si Si5 0.432775 0.655045 0.155419
Si Si6 0.933325 0.500000 0.156083
Si Si7 0.565642 0.000000 0.154656
O O1 0.250000 0.756878 0.149580
O O2 0.032215 0.704039 0.194278
O O3 0.998695 0.788228 0.252721
O O4 0.000000 0.758985 0.000000
O O5 0.500000 0.178300 0.500000
O O6 0.250000 0.177120 0.650530
O O7 0.474384 0.126475 0.703853
O O8 0.500000 0.927686 0.500000
O O9 0.750000 0.923007 0.355912
O O10 0.516890 0.958191 0.240658
O O11 0.750000 0.417321 0.352302
O O12 0.977701 0.458636 0.246130
O O13 0.000000 0.422862 0.500000
O O14 0.995889 0.377047 0.266443
O O15 0.250000 0.649973 0.150177
O O16 0.500000 0.647207 0.000000
O O17 0.750000 0.500000 0.143942
O O18 0.000000 0.500000 0.000000
O O19 0.750000 0.000000 0.148056
O O20 0.500000 0.000000 0.000000
#
# Coordination Sequence:
#
# PCOD9404391 Si02
#       7
#     8   8   8   8   8   4   4
#     4  10  21  37  57  81 110 145 183 225 274 325
#     4  10  20  35  55  80 109 141 180 224 270 322
#     4   9  19  35  55  78 104 137 177 219 263 317
#     4  11  23  39  59  85 116 149 186 229 277 324
#     4  10  21  38  59  83 111 145 186 228 272 326
#     4  10  23  40  60  86 114 148 187 226 271 326
#     4  10  21  36  52  76 108 138 173 216 264 316
#
# _framework density 18.158742
#
# number of rings (size 3 to 8) (size 9 to 14) (size 15 to 20)
#    0.000    2.000    0.000    3.000    0.000    7.333 
#    0.000    1.667    0.000    0.000    0.000    0.000 
#    0.000    0.000    0.000    0.000    0.000    0.000 
#
# Total GULP energy -268057.717561 kJ/mol
# GULP energy per Si atom -5584.535783 kJ/mol
# Density = 1.811741 g / cm^3
# Si number density = 18.158742 Si / 1000 Ang^3
#
#
#
# Elastic Constant Matrix: (Units=GPa)
#
#
# Indices 1 2 3 4 5 6 
#
# 1 53.2205 67.5447 52.8929 0.0000 0.0000 0.0000
# 2 67.5447 184.8214 128.6713 0.0000 0.0000 0.0000
# 3 52.8929 128.6713 144.9489 0.0000 0.0000 0.0000
# 4 0.0000 0.0000 0.0000 40.5602 0.0000 0.0000
# 5 0.0000 0.0000 0.0000 0.0000 39.9205 0.0000
# 6 0.0000 0.0000 0.0000 0.0000 0.0000 37.0257
#
#
#
# Elastic Compliance Matrix: (Units=1/GPa)
#
#
# Indices 1 2 3 4 5 6 
#
# 1 0.035825 -0.010449 -0.003797 0.000000 0.000000 0.000000
# 2 -0.010449 0.017212 -0.011466 0.000000 0.000000 0.000000
# 3 -0.003797 -0.011466 0.018463 0.000000 0.000000 0.000000
# 4 0.000000 0.000000 0.000000 0.024655 0.000000 0.000000
# 5 0.000000 0.000000 0.000000 0.000000 0.025050 0.000000
# 6 0.000000 0.000000 0.000000 0.000000 0.000000 0.027008
#
#
# Mechanical properties :
#
#
# Convention : Reuss Voigt Hill
#
# Bulk Modulus (GPa) = 49.81250 97.91206 73.86228
# Shear Modulus (GPa) = 24.23313 32.42672 28.32992
#
# Velocity S-wave (km/s) = 3.65707 4.23038 3.95413
# Velocity P-wave (km/s) = 6.73227 8.82602 7.84927
#
# Compressibility (1/GPa) = 0.02007528
#
# Stress axis : x y z
#
# Youngs Moduli (GPa) = 27.91361 58.09919 54.16191
#
# Poissons Ratio (x) = 0.60707 0.20567
# Poissons Ratio (y) = 0.29167 0.62103
# Poissons Ratio (z) = 0.10599 0.66618
#
# Static dielectric constant tensor:
#      x y z
#    x 1.610660 0.000000 0.000000 
#    y 0.000000 1.634830 0.000000 
#    z 0.000000 0.000000 1.570650 
# 
# From -- ./inp_files/6193.got.cif
#   From: 2010.05.17/outbox.cif.g08.bks.cpg/sg51_4_cif.got.tgz:6193.got - 2010.06.03 11:52:47.
