data_PCOD9404426
_publ_section_title
;
Structure prediction by ZEFSAII (Michael W. Deem and Ramdas Pophale) SiO2 
 PCOD9404426
Probable space group: P M M A
;
_chemical_formula_sum "Si O2"
_cell_formula_units_Z 56
_cell_length_a 18.747796
_cell_length_b 7.445523
_cell_length_c 18.989693
_cell_angle_alpha 90.000000
_cell_angle_beta 90.000000
_cell_angle_gamma 90.000000
_cell_volume 2650.717055
_symmetry_space_group_name_H-M "P M M A"
_symmetry_group_IT_number 51
_symmetry_cell_setting 'orthorhombic'
loop_
_space_group_symop_operation_xyz
x,y,z
1/2-x,-y,z
1/2+x,-y,-z
-x,y,-z
-x,-y,-z
1/2+x,y,-z
1/2-x,y,z
x,-y,z
loop_
_atom_site_type_symbol
_atom_site_label
_atom_site_fract_x
_atom_site_fract_y
_atom_site_fract_z
Si Si1 0.830361 0.789461 0.370607
Si Si2 0.090120 0.716920 0.773072
Si Si3 0.575071 0.280482 0.768661
Si Si4 0.417263 0.715440 0.077742
Si Si5 0.421378 0.707472 0.496062
Si Si6 0.411169 0.715459 0.926464
Si Si7 0.168490 0.280041 0.364369
O O1 0.750000 0.716162 0.375613
O O2 0.861310 0.768086 0.292374
O O3 0.882933 0.709893 0.428789
O O4 0.827586 0.000000 0.386375
O O5 0.088761 0.500000 0.775780
O O6 0.115461 0.781212 0.850517
O O7 0.007833 0.775008 0.761483
O O8 0.574564 0.500000 0.769647
O O9 0.604669 0.219983 0.844941
O O10 0.622513 0.223921 0.703123
O O11 0.406065 0.500000 0.077096
O O12 0.503061 0.742407 0.076152
O O13 0.387332 0.785272 0.003172
O O14 0.500000 0.790178 0.500000
O O15 0.432154 0.500000 0.474576
O O16 0.370140 0.782400 0.435653
O O17 0.399500 0.500000 0.927611
O O18 0.250000 0.220173 0.361139
O O19 0.170113 0.500000 0.364246
#
# Coordination Sequence:
#
# PCOD9404426 Si02
#       7
#     8   8   8   8   8   8   8
#     4  11  24  38  50  68  97 130 161 194 238 292
#     4   9  16  28  48  70  91 119 159 203 239 272
#     4   8  13  22  39  65  94 122 153 188 226 272
#     4   7   9  15  30  56  90 120 145 180 227 272
#     4  10  20  35  56  77  94 116 152 197 240 283
#     4   7  10  17  33  60  88 114 148 189 231 270
#     4   9  16  25  39  62  91 119 145 175 217 271
#
# _framework density 21.126359000000001
#
# number of rings (size 3 to 8) (size 9 to 14) (size 15 to 20)
#    0.000    3.286    0.000    4.286    0.000    4.286 
#    0.000    0.000    0.000    0.857    0.000   12.000 
#    0.000    0.000    0.000    3.286    0.000    2.571 
#
# Total GULP energy -312098.390646 kJ/mol
# GULP energy per Si atom -5573.185547 kJ/mol
# Density = 2.107827 g / cm^3
# Si number density = 21.126359 Si / 1000 Ang^3
#
#
#
# Elastic Constant Matrix: (Units=GPa)
#
#
# Indices 1 2 3 4 5 6 
#
# 1 90.7561 0.4187 51.2542 0.0000 0.0000 0.0000
# 2 0.4187 60.2075 -9.5875 0.0000 0.0000 0.0000
# 3 51.2542 -9.5875 153.6499 0.0000 0.0000 0.0000
# 4 0.0000 0.0000 0.0000 -10.1930 0.0000 0.0000
# 5 0.0000 0.0000 0.0000 0.0000 -11.3233 0.0000
# 6 0.0000 0.0000 0.0000 0.0000 0.0000 -2.3417
#
#
#
# Elastic Compliance Matrix: (Units=1/GPa)
#
#
# Indices 1 2 3 4 5 6 
#
# 1 0.013617 -0.000826 -0.004594 0.000000 0.000000 0.000000
# 2 -0.000826 0.016826 0.001326 0.000000 0.000000 0.000000
# 3 -0.004594 0.001326 0.008123 0.000000 0.000000 0.000000
# 4 0.000000 0.000000 0.000000 -0.098106 0.000000 0.000000
# 5 0.000000 0.000000 0.000000 0.000000 -0.088313 0.000000
# 6 0.000000 0.000000 0.000000 0.000000 0.000000 -0.427033
#
#
# Mechanical properties :
#
#
# Convention : Reuss Voigt Hill
#
# Bulk Modulus (GPa) = 32.91945 43.19827 38.05886
# Shear Modulus (GPa) = -8.98357 12.73025 1.87334
#
# Velocity S-wave (km/s) = -2.06435 2.45741 0.94269
# Velocity P-wave (km/s) = 3.15182 5.34264 4.38621
#
# Compressibility (1/GPa) = 0.03037718
#
# Stress axis : x y z
#
# Youngs Moduli (GPa) = 73.43940 59.43166 123.10127
#
# Poissons Ratio (x) = 0.04910 0.56550
# Poissons Ratio (y) = 0.06068 -0.16317
# Poissons Ratio (z) = 0.33736 -0.07878
#
# Static dielectric constant tensor:
#      x y z
#    x 1.714280 0.000000 0.000000 
#    y 0.000000 1.813560 0.000000 
#    z 0.000000 0.000000 1.787490 
# 
# From -- ./inp_files/30396.got.cif
#   From: 2010.05.17/outbox.cif.g08.bks.cpg/sg51_16_cif.got.tgz:30396.got - 2010.06.03 11:52:47.
