data_PCOD9404404
_publ_section_title
;
Structure prediction by ZEFSAII (Michael W. Deem and Ramdas Pophale) SiO2 
 PCOD9404404
Probable space group: P M M A
;
_chemical_formula_sum "Si O2"
_cell_formula_units_Z 40
_cell_length_a 8.623810
_cell_length_b 25.825135
_cell_length_c 9.786744
_cell_angle_alpha 90.000000
_cell_angle_beta 90.000000
_cell_angle_gamma 90.000000
_cell_volume 2179.616105
_symmetry_space_group_name_H-M "P M M A"
_symmetry_group_IT_number 51
_symmetry_cell_setting 'orthorhombic'
loop_
_space_group_symop_operation_xyz
x,y,z
1/2-x,-y,z
1/2+x,-y,-z
-x,y,-z
-x,-y,-z
1/2+x,y,-z
1/2-x,y,z
x,-y,z
loop_
_atom_site_type_symbol
_atom_site_label
_atom_site_fract_x
_atom_site_fract_y
_atom_site_fract_z
Si Si1 0.437010 0.848943 0.151650
Si Si2 0.063024 0.057891 0.347707
Si Si3 0.435539 0.263761 0.847058
Si Si4 0.934883 0.353480 0.653294
Si Si5 0.065244 0.561287 0.850849
O O1 0.250000 0.845809 0.149004
O O2 0.486520 0.895641 0.249818
O O3 0.504470 0.793258 0.193975
O O4 0.500000 0.858924 0.000000
O O5 0.250000 0.058610 0.352132
O O6 0.000000 0.065398 0.500000
O O7 0.014882 0.000000 0.301455
O O8 0.250000 0.264334 0.852128
O O9 0.496703 0.306198 0.741699
O O10 0.500000 0.274038 0.000000
O O11 0.750000 0.349877 0.649992
O O12 0.000000 0.353066 0.500000
O O13 0.986547 0.405079 0.733595
O O14 0.250000 0.569834 0.848951
O O15 0.035575 0.500000 0.832883
O O16 0.000000 0.576328 0.000000
#
# Coordination Sequence:
#
# PCOD9404404 Si02
#       5
#     8   8   8   8   8
#     4  10  20  35  55  81 111 142 182 229 277 328
#     4   9  19  35  54  77 107 143 182 224 271 327
#     4  11  22  39  61  84 112 147 188 231 280 335
#     4  12  25  41  60  85 117 151 190 234 283 335
#     4  10  21  39  63  90 119 153 193 234 278 330
#
# _framework density 18.351856000000002
#
# number of rings (size 3 to 8) (size 9 to 14) (size 15 to 20)
#    0.000    1.600    0.000    6.600    0.000    4.400 
#    0.000    2.000    0.000    0.000    0.000    0.000 
#    0.000    0.000    0.000    0.000    0.000    0.000 
#
# Total GULP energy -223551.079290 kJ/mol
# GULP energy per Si atom -5588.776982 kJ/mol
# Density = 1.831009 g / cm^3
# Si number density = 18.351856 Si / 1000 Ang^3
#
#
#
# Elastic Constant Matrix: (Units=GPa)
#
#
# Indices 1 2 3 4 5 6 
#
# 1 123.3875 70.5372 61.4272 0.0000 0.0000 0.0000
# 2 70.5372 121.6768 96.7152 0.0000 0.0000 0.0000
# 3 61.4272 96.7152 119.4407 0.0000 0.0000 0.0000
# 4 0.0000 0.0000 0.0000 89.2229 0.0000 0.0000
# 5 0.0000 0.0000 0.0000 0.0000 35.8901 0.0000
# 6 0.0000 0.0000 0.0000 0.0000 0.0000 46.8759
#
#
#
# Elastic Compliance Matrix: (Units=1/GPa)
#
#
# Indices 1 2 3 4 5 6 
#
# 1 0.012222 -0.005862 -0.001539 0.000000 0.000000 0.000000
# 2 -0.005862 0.025872 -0.017935 0.000000 0.000000 0.000000
# 3 -0.001539 -0.017935 0.023687 0.000000 0.000000 0.000000
# 4 0.000000 0.000000 0.000000 0.011208 0.000000 0.000000
# 5 0.000000 0.000000 0.000000 0.000000 0.027863 0.000000
# 6 0.000000 0.000000 0.000000 0.000000 0.000000 0.021333
#
#
# Mechanical properties :
#
#
# Convention : Reuss Voigt Hill
#
# Bulk Modulus (GPa) = 90.01842 91.31826 90.66834
# Shear Modulus (GPa) = 28.31909 43.45280 35.88595
#
# Velocity S-wave (km/s) = 3.93252 4.87124 4.42683
# Velocity P-wave (km/s) = 8.35329 9.02809 8.69724
#
# Compressibility (1/GPa) = 0.01110884
#
# Stress axis : x y z
#
# Youngs Moduli (GPa) = 81.82137 38.65119 42.21790
#
# Poissons Ratio (x) = 0.22656 0.06498
# Poissons Ratio (y) = 0.47961 0.75719
# Poissons Ratio (z) = 0.12593 0.69322
#
# Static dielectric constant tensor:
#      x y z
#    x 1.616880 0.000000 0.000000 
#    y 0.000000 1.637820 0.000000 
#    z 0.000000 0.000000 1.588210 
# 
# From -- ./inp_files/5265.got.cif
#   From: 2010.05.17/outbox.cif.g08.bks.cpg/sg51_3_cif.got.tgz:5265.got - 2010.06.03 11:52:47.
