data_PCOD9404345
_publ_section_title
;
Structure prediction by ZEFSAII (Michael W. Deem and Ramdas Pophale) SiO2 
 PCOD9404345
Probable space group: P M M A
;
_chemical_formula_sum "Si O2"
_cell_formula_units_Z 56
_cell_length_a 23.152604
_cell_length_b 14.032063
_cell_length_c 9.020257
_cell_angle_alpha 90.000000
_cell_angle_beta 90.000000
_cell_angle_gamma 90.000000
_cell_volume 2930.490251
_symmetry_space_group_name_H-M "P M M A"
_symmetry_group_IT_number 51
_symmetry_cell_setting 'orthorhombic'
loop_
_space_group_symop_operation_xyz
x,y,z
1/2-x,-y,z
1/2+x,-y,-z
-x,y,-z
-x,-y,-z
1/2+x,y,-z
1/2-x,y,z
x,-y,z
loop_
_atom_site_type_symbol
_atom_site_label
_atom_site_fract_x
_atom_site_fract_y
_atom_site_fract_z
Si Si1 0.684986 0.282245 0.246387
Si Si2 0.682240 0.106449 0.032071
Si Si3 0.905671 0.892300 0.756939
Si Si4 0.921930 0.608848 0.339132
Si Si5 0.186251 0.786162 0.415323
Si Si6 0.021016 0.712654 0.169000
Si Si7 0.621081 0.609368 0.677613
O O1 0.750000 0.315995 0.211157
O O2 0.669707 0.195152 0.138443
O O3 0.637167 0.363980 0.254443
O O4 0.686243 0.239100 0.411899
O O5 0.750000 0.113691 0.989021
O O6 0.675257 0.000000 0.100194
O O7 0.639184 0.111499 0.894290
O O8 0.865875 0.856591 0.621964
O O9 0.955947 0.817183 0.788491
O O10 0.926071 0.000000 0.738214
O O11 0.939354 0.500000 0.309986
O O12 0.909815 0.617510 0.515322
O O13 0.970392 0.679066 0.278281
O O14 0.250000 0.822269 0.374834
O O15 0.171698 0.687553 0.329372
O O16 0.075053 0.642512 0.200315
O O17 0.000000 0.708978 0.000000
O O18 0.639285 0.500000 0.695633
#
# Coordination Sequence:
#
# PCOD9404345 Si02
#       7
#     8   8   8   8   8   8   8
#     4   9  18  33  53  79 108 134 166 209 251 296
#     4   9  17  31  52  75 100 134 172 208 253 308
#     4  10  21  36  53  74 101 134 172 212 256 306
#     4  10  20  35  55  76 102 138 172 205 252 307
#     4   9  18  32  53  81 109 136 167 206 251 297
#     4  11  22  35  53  75 100 131 172 219 259 299
#     4   9  19  35  54  76 104 138 173 207 247 299
#
# _framework density 19.10943
#
# number of rings (size 3 to 8) (size 9 to 14) (size 15 to 20)
#    0.000    2.429    0.000    2.143    0.000    4.571 
#    0.000    5.000    0.000   11.143    0.000    4.000 
#    0.000    0.000    0.000    0.000    0.000    0.000 
#
# Total GULP energy -312382.438670 kJ/mol
# GULP energy per Si atom -5578.257833 kJ/mol
# Density = 1.906594 g / cm^3
# Si number density = 19.109430 Si / 1000 Ang^3
#
#
#
# Elastic Constant Matrix: (Units=GPa)
#
#
# Indices 1 2 3 4 5 6 
#
# 1 51.9824 29.2896 10.7734 0.0000 0.0000 0.0000
# 2 29.2896 105.0460 15.5757 0.0000 0.0000 0.0000
# 3 10.7734 15.5757 10.1580 0.0000 0.0000 0.0000
# 4 0.0000 0.0000 0.0000 16.7841 0.0000 0.0000
# 5 0.0000 0.0000 0.0000 0.0000 23.8400 0.0000
# 6 0.0000 0.0000 0.0000 0.0000 0.0000 21.0176
#
#
#
# Elastic Compliance Matrix: (Units=1/GPa)
#
#
# Indices 1 2 3 4 5 6 
#
# 1 0.025942 -0.004082 -0.021255 0.000000 0.000000 0.000000
# 2 -0.004082 0.012963 -0.015548 0.000000 0.000000 0.000000
# 3 -0.021255 -0.015548 0.144826 0.000000 0.000000 0.000000
# 4 0.000000 0.000000 0.000000 0.059580 0.000000 0.000000
# 5 0.000000 0.000000 0.000000 0.000000 0.041946 0.000000
# 6 0.000000 0.000000 0.000000 0.000000 0.000000 0.047579
#
#
# Mechanical properties :
#
#
# Convention : Reuss Voigt Hill
#
# Bulk Modulus (GPa) = 9.80748 30.94042 20.37395
# Shear Modulus (GPa) = 11.14593 19.76484 15.45539
#
# Velocity S-wave (km/s) = 2.41772 3.21954 2.84700
# Velocity P-wave (km/s) = 3.59683 5.48151 4.63595
#
# Compressibility (1/GPa) = 0.10196295
#
# Stress axis : x y z
#
# Youngs Moduli (GPa) = 38.54708 77.14210 6.90482
#
# Poissons Ratio (x) = 0.31488 0.14676
# Poissons Ratio (y) = 0.15734 0.10735
# Poissons Ratio (z) = 0.81932 1.19938
#
# Static dielectric constant tensor:
#      x y z
#    x 1.678000 0.000000 0.000000 
#    y 0.000000 1.658560 0.000000 
#    z 0.000000 0.000000 1.661370 
# 
# From -- ./inp_files/10995.got.cif
#   From: 2010.05.17/outbox.cif.g08.bks.cpg/sg51_6_cif.got.tgz:10995.got - 2010.06.03 11:52:47.
