data_PCOD9404408
_publ_section_title
;
Structure prediction by ZEFSAII (Michael W. Deem and Ramdas Pophale) SiO2 
 PCOD9404408
Probable space group: P M M A
;
_chemical_formula_sum "Si O2"
_cell_formula_units_Z 48
_cell_length_a 8.547378
_cell_length_b 31.617376
_cell_length_c 9.522235
_cell_angle_alpha 90.000000
_cell_angle_beta 90.000000
_cell_angle_gamma 90.000000
_cell_volume 2573.342721
_symmetry_space_group_name_H-M "P M M A"
_symmetry_group_IT_number 51
_symmetry_cell_setting 'orthorhombic'
loop_
_space_group_symop_operation_xyz
x,y,z
1/2-x,-y,z
1/2+x,-y,-z
-x,y,-z
-x,-y,-z
1/2+x,y,-z
1/2-x,y,z
x,-y,z
loop_
_atom_site_type_symbol
_atom_site_label
_atom_site_fract_x
_atom_site_fract_y
_atom_site_fract_z
Si Si1 0.561289 0.451829 0.154882
Si Si2 0.437106 0.217785 0.659143
Si Si3 0.938755 0.046803 0.842111
Si Si4 0.938256 0.373323 0.342010
Si Si5 0.438559 0.126346 0.342499
Si Si6 0.936998 0.704689 0.841366
O O1 0.750000 0.451684 0.150097
O O2 0.509343 0.500000 0.185481
O O3 0.512067 0.417496 0.269522
O O4 0.500000 0.440316 0.000000
O O5 0.500000 0.224228 0.500000
O O6 0.250000 0.219159 0.655731
O O7 0.494265 0.171380 0.706668
O O8 0.502343 0.253726 0.760929
O O9 0.750000 0.047420 0.844411
O O10 0.990530 0.086428 0.749666
O O11 0.987745 0.000000 0.789662
O O12 0.000000 0.051117 0.000000
O O13 0.750000 0.371396 0.343507
O O14 0.000000 0.369831 0.500000
O O15 0.001983 0.335444 0.246345
O O16 0.500000 0.120412 0.500000
O O17 0.250000 0.128698 0.343055
O O18 0.750000 0.704570 0.843378
O O19 0.000000 0.703265 0.000000
#
# Coordination Sequence:
#
# PCOD9404408 Si02
#       6
#     8   8   8   8   8   8
#     4   9  19  36  58  84 115 151 191 235 283 335
#     4  11  22  39  61  85 114 148 186 228 279 334
#     4   9  19  35  54  77 107 143 183 227 274 326
#     4  11  23  39  59  85 117 153 193 236 284 335
#     4  10  20  35  55  81 112 145 184 228 275 328
#     4  12  25  42  62  86 115 147 187 232 281 335
#
# _framework density 18.652781999999998
#
# number of rings (size 3 to 8) (size 9 to 14) (size 15 to 20)
#    0.000    1.667    0.000    6.000    0.000    5.333 
#    0.000    1.667    0.000    0.000    0.000    0.000 
#    0.000    0.000    0.000    0.000    0.000    0.000 
#
# Total GULP energy -268201.472685 kJ/mol
# GULP energy per Si atom -5587.530681 kJ/mol
# Density = 1.861033 g / cm^3
# Si number density = 18.652782 Si / 1000 Ang^3
#
#
#
# Elastic Constant Matrix: (Units=GPa)
#
#
# Indices 1 2 3 4 5 6 
#
# 1 96.1685 55.7991 46.5120 0.0000 0.0000 0.0000
# 2 55.7991 177.5613 118.8117 0.0000 0.0000 0.0000
# 3 46.5120 118.8117 132.8865 0.0000 0.0000 0.0000
# 4 0.0000 0.0000 0.0000 43.4372 0.0000 0.0000
# 5 0.0000 0.0000 0.0000 0.0000 34.1073 0.0000
# 6 0.0000 0.0000 0.0000 0.0000 0.0000 29.1729
#
#
#
# Elastic Compliance Matrix: (Units=1/GPa)
#
#
# Indices 1 2 3 4 5 6 
#
# 1 0.012977 -0.002586 -0.002230 0.000000 0.000000 0.000000
# 2 -0.002586 0.014534 -0.012089 0.000000 0.000000 0.000000
# 3 -0.002230 -0.012089 0.019115 0.000000 0.000000 0.000000
# 4 0.000000 0.000000 0.000000 0.023022 0.000000 0.000000
# 5 0.000000 0.000000 0.000000 0.000000 0.029319 0.000000
# 6 0.000000 0.000000 0.000000 0.000000 0.000000 0.034278
#
#
# Mechanical properties :
#
#
# Convention : Reuss Voigt Hill
#
# Bulk Modulus (GPa) = 78.03359 94.31798 86.17579
# Shear Modulus (GPa) = 29.18372 33.70971 31.44671
#
# Velocity S-wave (km/s) = 3.95976 4.25575 4.11042
# Velocity P-wave (km/s) = 7.92666 8.65006 8.29625
#
# Compressibility (1/GPa) = 0.01281499
#
# Stress axis : x y z
#
# Youngs Moduli (GPa) = 77.05655 68.80484 52.31537
#
# Poissons Ratio (x) = 0.17792 0.11668
# Poissons Ratio (y) = 0.19925 0.63246
# Poissons Ratio (z) = 0.17186 0.83181
#
# Static dielectric constant tensor:
#      x y z
#    x 1.633220 0.000000 0.000000 
#    y 0.000000 1.655670 0.000000 
#    z 0.000000 0.000000 1.603780 
# 
# From -- ./inp_files/6058.got.cif
#   From: 2010.05.17/outbox.cif.g08.bks.cpg/sg51_4_cif.got.tgz:6058.got - 2010.06.03 11:52:47.
