data_PCOD9404815
_publ_section_title
;
Structure prediction by ZEFSAII (Michael W. Deem and Ramdas Pophale) SiO2 
 PCOD9404815
Probable space group: P M M A
;
_chemical_formula_sum "Si O2"
_cell_formula_units_Z 56
_cell_length_a 14.880117
_cell_length_b 15.943286
_cell_length_c 11.338976
_cell_angle_alpha 90.000000
_cell_angle_beta 90.000000
_cell_angle_gamma 90.000000
_cell_volume 2690.035547
_symmetry_space_group_name_H-M "P M M A"
_symmetry_group_IT_number 51
_symmetry_cell_setting 'orthorhombic'
loop_
_space_group_symop_operation_xyz
x,y,z
1/2-x,-y,z
1/2+x,-y,-z
-x,y,-z
-x,-y,-z
1/2+x,y,-z
1/2-x,y,z
x,-y,z
loop_
_atom_site_type_symbol
_atom_site_label
_atom_site_fract_x
_atom_site_fract_y
_atom_site_fract_z
Si Si1 0.407741 0.590725 0.927295
Si Si2 0.151470 0.354120 0.698027
Si Si3 0.400706 0.405006 0.444581
Si Si4 0.641107 0.753598 0.716428
Si Si5 0.143239 0.162952 0.773059
Si Si6 0.352184 0.765895 0.017897
Si Si7 0.976777 0.092011 0.637357
O O1 0.366423 0.500000 0.950373
O O2 0.418527 0.601682 0.785956
O O3 0.500000 0.594078 0.000000
O O4 0.354089 0.671512 0.969042
O O5 0.250000 0.375110 0.747785
O O6 0.152211 0.382262 0.563785
O O7 0.138522 0.254378 0.709999
O O8 0.500000 0.402715 0.500000
O O9 0.380601 0.500000 0.403788
O O10 0.386215 0.333122 0.347555
O O11 0.750000 0.758185 0.711702
O O12 0.607490 0.760135 0.852151
O O13 0.592993 0.832736 0.657018
O O14 0.250000 0.138238 0.769529
O O15 0.069658 0.107029 0.708457
O O16 0.113481 0.178056 0.909420
O O17 0.250000 0.793990 0.034461
O O18 0.000000 0.092039 0.500000
O O19 0.939904 0.000000 0.670086
#
# Coordination Sequence:
#
# PCOD9404815 Si02
#       7
#     8   8   8   8   8   8   8
#     4  10  21  32  50  81 115 154 203 260 318 366
#     4  10  20  36  58  82 114 161 212 261 314 375
#     4  11  24  38  58  89 126 168 218 272 325 380
#     4  11  24  42  63  89 127 172 213 262 320 379
#     4   9  19  39  66  94 124 162 207 259 320 381
#     4   9  21  38  59  87 117 160 212 259 312 377
#     4  11  25  43  66  97 127 160 206 258 318 387
#
# _framework density 20.817568999999999
#
# number of rings (size 3 to 8) (size 9 to 14) (size 15 to 20)
#    0.000    1.857    0.000    4.286    6.000    5.714 
#    0.000    4.286    0.000    2.571    0.000    0.000 
#    0.000    0.000    0.000    0.000    0.000    0.000 
#
# Total GULP energy -312370.738470 kJ/mol
# GULP energy per Si atom -5578.048901 kJ/mol
# Density = 2.077019 g / cm^3
# Si number density = 20.817569 Si / 1000 Ang^3
#
#
#
# Elastic Constant Matrix: (Units=GPa)
#
#
# Indices 1 2 3 4 5 6 
#
# 1 63.0286 29.4934 32.9195 0.0000 0.0000 0.0000
# 2 29.4934 112.6572 55.3113 0.0000 0.0000 0.0000
# 3 32.9195 55.3113 129.5092 0.0000 0.0000 0.0000
# 4 0.0000 0.0000 0.0000 7.2731 0.0000 0.0000
# 5 0.0000 0.0000 0.0000 0.0000 32.2367 0.0000
# 6 0.0000 0.0000 0.0000 0.0000 0.0000 20.6541
#
#
#
# Elastic Compliance Matrix: (Units=1/GPa)
#
#
# Indices 1 2 3 4 5 6 
#
# 1 0.019236 -0.003335 -0.003465 0.000000 0.000000 0.000000
# 2 -0.003335 0.011810 -0.004196 0.000000 0.000000 0.000000
# 3 -0.003465 -0.004196 0.010394 0.000000 0.000000 0.000000
# 4 0.000000 0.000000 0.000000 0.137493 0.000000 0.000000
# 5 0.000000 0.000000 0.000000 0.000000 0.031021 0.000000
# 6 0.000000 0.000000 0.000000 0.000000 0.000000 0.048416
#
#
# Mechanical properties :
#
#
# Convention : Reuss Voigt Hill
#
# Bulk Modulus (GPa) = 51.41918 60.07149 55.74533
# Shear Modulus (GPa) = 17.43101 24.53084 20.98093
#
# Velocity S-wave (km/s) = 2.89679 3.43647 3.17810
# Velocity P-wave (km/s) = 5.99517 6.68315 6.34849
#
# Compressibility (1/GPa) = 0.01944800
#
# Stress axis : x y z
#
# Youngs Moduli (GPa) = 51.98542 84.67664 96.20547
#
# Poissons Ratio (x) = 0.28236 0.33339
# Poissons Ratio (y) = 0.17335 0.40369
# Poissons Ratio (z) = 0.18015 0.35531
#
# Static dielectric constant tensor:
#      x y z
#    x -10.943530 0.000000 0.000000 
#    y 0.000000 1.728820 0.000000 
#    z 0.000000 0.000000 1.790260 
# 
# From -- ./inp_files/16620.got.cif
#   From: 2010.05.17/outbox.cif.g08.bks.cpg/sg51_9_cif.got.tgz:16620.got - 2010.06.03 11:52:47.
