data_PCOD9404338
_publ_section_title
;
Structure prediction by ZEFSAII (Michael W. Deem and Ramdas Pophale) SiO2 
 PCOD9404338
Probable space group: P M M A
;
_chemical_formula_sum "Si O2"
_cell_formula_units_Z 48
_cell_length_a 15.047998
_cell_length_b 8.484270
_cell_length_c 20.573202
_cell_angle_alpha 90.000000
_cell_angle_beta 90.000000
_cell_angle_gamma 90.000000
_cell_volume 2626.606992
_symmetry_space_group_name_H-M "P M M A"
_symmetry_group_IT_number 51
_symmetry_cell_setting 'orthorhombic'
loop_
_space_group_symop_operation_xyz
x,y,z
1/2-x,-y,z
1/2+x,-y,-z
-x,y,-z
-x,-y,-z
1/2+x,y,-z
1/2-x,y,z
x,-y,z
loop_
_atom_site_type_symbol
_atom_site_label
_atom_site_fract_x
_atom_site_fract_y
_atom_site_fract_z
Si Si1 0.750000 0.681570 0.080962
Si Si2 0.944140 0.188820 0.206202
Si Si3 0.441385 0.811006 0.562899
Si Si4 0.250000 0.310832 0.524057
Si Si5 0.750000 0.181773 0.219143
Si Si6 0.250000 0.307991 0.372636
Si Si7 0.940080 0.688787 0.680828
Si Si8 0.444839 0.313846 0.940035
O O1 0.750000 0.500000 0.107698
O O2 0.750000 0.802406 0.140671
O O3 0.840742 0.700418 0.042943
O O4 0.847944 0.249781 0.234352
O O5 0.955561 0.241112 0.131503
O O6 0.023038 0.249404 0.251058
O O7 0.940008 0.000000 0.208307
O O8 0.500000 0.762193 0.500000
O O9 0.340856 0.750226 0.555998
O O10 0.491952 0.746498 0.625621
O O11 0.439791 0.000000 0.565427
O O12 0.250000 0.500000 0.525814
O O13 0.250000 0.259018 0.448216
O O14 0.750000 0.000000 0.240778
O O15 0.250000 0.500000 0.372420
O O16 0.340878 0.255759 0.338125
O O17 0.939288 0.500000 0.681529
O O18 0.466063 0.500000 0.933750
O O19 0.500000 0.246435 0.000000
#
# Coordination Sequence:
#
# PCOD9404338 Si02
#       8
#     4   8   8   4   4   4   8   8
#     4   8  14  26  46  72  98 129 172 215 258 313
#     4  10  20  35  54  80 111 145 182 227 281 334
#     4  11  23  38  57  85 116 145 180 228 284 335
#     4  11  21  38  62  86 112 147 192 235 276 326
#     4   8  16  31  51  71 101 139 172 210 265 326
#     4   9  20  37  59  81 105 143 190 234 273 323
#     4  11  22  39  60  82 109 146 190 233 278 331
#     4   9  17  31  52  77 105 139 180 225 272 325
#
# _framework density 18.274526000000002
#
# number of rings (size 3 to 8) (size 9 to 14) (size 15 to 20)
#    0.000    2.167    1.667    1.750    0.000    2.333 
#    0.000    5.000    0.000    3.000    0.000    0.000 
#    0.000    0.000    0.000    0.000    0.000    0.000 
#
# Total GULP energy -267626.907296 kJ/mol
# GULP energy per Si atom -5575.560569 kJ/mol
# Density = 1.823293 g / cm^3
# Si number density = 18.274526 Si / 1000 Ang^3
#
#
#
# Elastic Constant Matrix: (Units=GPa)
#
#
# Indices 1 2 3 4 5 6 
#
# 1 166.5307 31.0333 78.7394 0.0000 0.0000 0.0000
# 2 31.0333 38.0627 23.1010 0.0000 0.0000 0.0000
# 3 78.7394 23.1010 98.5189 0.0000 0.0000 0.0000
# 4 0.0000 0.0000 0.0000 14.4026 0.0000 0.0000
# 5 0.0000 0.0000 0.0000 0.0000 27.1879 0.0000
# 6 0.0000 0.0000 0.0000 0.0000 0.0000 15.4382
#
#
#
# Elastic Compliance Matrix: (Units=1/GPa)
#
#
# Indices 1 2 3 4 5 6 
#
# 1 0.010126 -0.003899 -0.007178 0.000000 0.000000 0.000000
# 2 -0.003899 0.032133 -0.004419 0.000000 0.000000 0.000000
# 3 -0.007178 -0.004419 0.016924 0.000000 0.000000 0.000000
# 4 0.000000 0.000000 0.000000 0.069432 0.000000 0.000000
# 5 0.000000 0.000000 0.000000 0.000000 0.036781 0.000000
# 6 0.000000 0.000000 0.000000 0.000000 0.000000 0.064775
#
#
# Mechanical properties :
#
#
# Convention : Reuss Voigt Hill
#
# Bulk Modulus (GPa) = 35.47296 63.20663 49.33980
# Shear Modulus (GPa) = 18.48030 22.75496 20.61763
#
# Velocity S-wave (km/s) = 3.18348 3.53253 3.36254
# Velocity P-wave (km/s) = 5.74161 7.16245 6.49102
#
# Compressibility (1/GPa) = 0.02819049
#
# Stress axis : x y z
#
# Youngs Moduli (GPa) = 98.75948 31.12065 59.08872
#
# Poissons Ratio (x) = 0.12133 0.42417
# Poissons Ratio (y) = 0.38505 0.26109
# Poissons Ratio (z) = 0.70894 0.13751
#
# Static dielectric constant tensor:
#      x y z
#    x 1.655710 0.000000 0.000000 
#    y 0.000000 1.640190 0.000000 
#    z 0.000000 0.000000 1.604890 
# 
# From -- ./inp_files/29711.got.cif
#   From: 2010.05.17/outbox.cif.g08.bks.cpg/sg51_15_cif.got.tgz:29711.got - 2010.06.03 11:52:47.
