data_PCOD9404816
_publ_section_title
;
Structure prediction by ZEFSAII (Michael W. Deem and Ramdas Pophale) SiO2 
 PCOD9404816
Probable space group: P M M A
;
_chemical_formula_sum "Si O2"
_cell_formula_units_Z 48
_cell_length_a 32.195123
_cell_length_b 7.508578
_cell_length_c 10.468679
_cell_angle_alpha 90.000000
_cell_angle_beta 90.000000
_cell_angle_gamma 90.000000
_cell_volume 2530.694193
_symmetry_space_group_name_H-M "P M M A"
_symmetry_group_IT_number 51
_symmetry_cell_setting 'orthorhombic'
loop_
_space_group_symop_operation_xyz
x,y,z
1/2-x,-y,z
1/2+x,-y,-z
-x,y,-z
-x,-y,-z
1/2+x,y,-z
1/2-x,y,z
x,-y,z
loop_
_atom_site_type_symbol
_atom_site_label
_atom_site_fract_x
_atom_site_fract_y
_atom_site_fract_z
Si Si1 0.860563 0.215379 0.985727
Si Si2 0.633363 0.216962 0.517820
Si Si3 0.923650 0.213233 0.758827
Si Si4 0.798575 0.500000 0.580933
Si Si5 0.511060 0.704270 0.139709
Si Si6 0.099179 0.793355 0.753978
Si Si7 0.797783 0.500000 0.888545
O O1 0.897075 0.257951 0.884674
O O2 0.820993 0.325585 0.940938
O O3 0.854648 0.000000 0.983090
O O4 0.875450 0.277965 0.124995
O O5 0.602734 0.266161 0.634929
O O6 0.675933 0.326224 0.534352
O O7 0.611850 0.274248 0.384915
O O8 0.639114 0.000000 0.522175
O O9 0.969739 0.286928 0.775401
O O10 0.927860 0.000000 0.754357
O O11 0.750000 0.500000 0.543053
O O12 0.800407 0.500000 0.734996
O O13 0.522778 0.500000 0.115934
O O14 0.550692 0.783550 0.210657
O O15 0.500000 0.784667 0.000000
O O16 0.110475 0.000000 0.749324
O O17 0.750000 0.500000 0.926589
#
# Coordination Sequence:
#
# PCOD9404816 Si02
#       7
#     8   8   8   4   8   8   4
#     4  10  21  38  63  89 119 160 198 243 302 355
#     4  10  23  42  63  91 124 161 203 249 304 363
#     4  10  20  36  58  82 118 162 198 245 293 342
#     4  11  24  41  67  94 119 157 198 249 311 368
#     4  11  23  33  53  89 123 159 207 255 294 345
#     4  10  22  40  61  86 122 165 205 249 297 354
#     4  11  24  39  65  96 122 150 194 255 306 367
#
# _framework density 18.967127000000001
#
# number of rings (size 3 to 8) (size 9 to 14) (size 15 to 20)
#    0.000    1.667    3.333    0.500    4.667    2.000 
#    0.000    6.667    0.000    3.000    0.000    0.000 
#    0.000    0.000    0.000    0.000    0.000    0.000 
#
# Total GULP energy -267921.467556 kJ/mol
# GULP energy per Si atom -5581.697241 kJ/mol
# Density = 1.892396 g / cm^3
# Si number density = 18.967127 Si / 1000 Ang^3
#
#
#
# Elastic Constant Matrix: (Units=GPa)
#
#
# Indices 1 2 3 4 5 6 
#
# 1 135.9385 26.3878 54.7163 0.0000 0.0000 0.0000
# 2 26.3878 61.5953 24.1115 0.0000 0.0000 0.0000
# 3 54.7163 24.1115 130.7917 0.0000 0.0000 0.0000
# 4 0.0000 0.0000 0.0000 4.1961 0.0000 0.0000
# 5 0.0000 0.0000 0.0000 0.0000 26.4092 0.0000
# 6 0.0000 0.0000 0.0000 0.0000 0.0000 30.9236
#
#
#
# Elastic Compliance Matrix: (Units=1/GPa)
#
#
# Indices 1 2 3 4 5 6 
#
# 1 0.009225 -0.002631 -0.003374 0.000000 0.000000 0.000000
# 2 -0.002631 0.018248 -0.002263 0.000000 0.000000 0.000000
# 3 -0.003374 -0.002263 0.009475 0.000000 0.000000 0.000000
# 4 0.000000 0.000000 0.000000 0.238316 0.000000 0.000000
# 5 0.000000 0.000000 0.000000 0.000000 0.037866 0.000000
# 6 0.000000 0.000000 0.000000 0.000000 0.000000 0.032338
#
#
# Mechanical properties :
#
#
# Convention : Reuss Voigt Hill
#
# Bulk Modulus (GPa) = 48.99469 59.86187 54.42828
# Shear Modulus (GPa) = 13.55719 27.17979 20.36849
#
# Velocity S-wave (km/s) = 2.67642 3.78960 3.28057
# Velocity P-wave (km/s) = 5.95302 7.12583 6.56566
#
# Compressibility (1/GPa) = 0.02041038
#
# Stress axis : x y z
#
# Youngs Moduli (GPa) = 108.39865 54.79985 105.54549
#
# Poissons Ratio (x) = 0.14419 0.35614
# Poissons Ratio (y) = 0.28523 0.23888
# Poissons Ratio (z) = 0.36576 0.12403
#
# Static dielectric constant tensor:
#      x y z
#    x 1.618550 0.000000 0.000000 
#    y 0.000000 1.697500 0.000000 
#    z 0.000000 0.000000 1.678140 
# 
# From -- ./inp_files/12892.got.cif
#   From: 2010.05.17/outbox.cif.g08.bks.cpg/sg51_7_cif.got.tgz:12892.got - 2010.06.03 11:52:47.
