data_PCOD9404263
_publ_section_title
;
Structure prediction by ZEFSAII (Michael W. Deem and Ramdas Pophale) SiO2 
 PCOD9404263
Probable space group: P M M A
;
_chemical_formula_sum "Si O2"
_cell_formula_units_Z 40
_cell_length_a 14.853041
_cell_length_b 8.729381
_cell_length_c 17.158794
_cell_angle_alpha 90.000000
_cell_angle_beta 90.000000
_cell_angle_gamma 90.000000
_cell_volume 2224.772406
_symmetry_space_group_name_H-M "P M M A"
_symmetry_group_IT_number 51
_symmetry_cell_setting 'orthorhombic'
loop_
_space_group_symop_operation_xyz
x,y,z
1/2-x,-y,z
1/2+x,-y,-z
-x,y,-z
-x,-y,-z
1/2+x,y,-z
1/2-x,y,z
x,-y,z
loop_
_atom_site_type_symbol
_atom_site_label
_atom_site_fract_x
_atom_site_fract_y
_atom_site_fract_z
Si Si1 0.104525 0.314661 0.995812
Si Si2 0.250000 0.316116 0.123265
Si Si3 0.899655 0.683664 0.418000
Si Si4 0.750000 0.182257 0.120374
Si Si5 0.250000 0.315909 0.707483
Si Si6 0.901059 0.815863 0.582962
Si Si7 0.250000 0.815768 0.295448
O O1 0.106659 0.500000 0.989688
O O2 0.162046 0.247746 0.924242
O O3 0.162082 0.271123 0.072679
O O4 0.000000 0.267117 0.000000
O O5 0.250000 0.500000 0.128217
O O6 0.250000 0.249270 0.209131
O O7 0.901877 0.500000 0.425623
O O8 0.835903 0.723537 0.345905
O O9 0.866588 0.753833 0.499820
O O10 0.999708 0.747759 0.406034
O O11 0.750000 0.235232 0.209595
O O12 0.750000 0.000000 0.114563
O O13 0.250000 0.500000 0.719484
O O14 0.836419 0.769569 0.653456
O O15 0.905405 0.000000 0.579176
O O16 0.250000 0.000000 0.291027
#
# Coordination Sequence:
#
# PCOD9404263 Si02
#       7
#     8   4   8   4   4   8   4
#     4   9  19  39  63  82 106 142 180 218 265 321
#     4   9  19  34  55  83 107 133 173 218 263 310
#     4  10  20  35  55  78 102 136 182 226 265 307
#     4  11  23  36  55  85 115 141 175 220 269 326
#     4  10  22  38  55  76 108 145 180 223 270 315
#     4  10  20  35  53  75 106 143 178 216 266 318
#     4  10  22  36  51  74 108 145 174 209 260 313
#
# _framework density 17.979365999999999
#
# number of rings (size 3 to 8) (size 9 to 14) (size 15 to 20)
#    0.000    2.200    0.000    4.500    0.000    6.800 
#    0.000    6.000    0.000    0.000    0.000    0.000 
#    0.000    0.000    0.000    0.000    0.000    0.000 
#
# Total GULP energy -223291.472534 kJ/mol
# GULP energy per Si atom -5582.286813 kJ/mol
# Density = 1.793844 g / cm^3
# Si number density = 17.979366 Si / 1000 Ang^3
#
#
#
# Elastic Constant Matrix: (Units=GPa)
#
#
# Indices 1 2 3 4 5 6 
#
# 1 147.9704 40.7956 99.4467 0.0000 0.0000 0.0000
# 2 40.7956 41.1000 49.4716 0.0000 0.0000 0.0000
# 3 99.4467 49.4716 187.2911 0.0000 0.0000 0.0000
# 4 0.0000 0.0000 0.0000 58.9972 0.0000 0.0000
# 5 0.0000 0.0000 0.0000 0.0000 15.0055 0.0000
# 6 0.0000 0.0000 0.0000 0.0000 0.0000 -0.4054
#
#
#
# Elastic Compliance Matrix: (Units=1/GPa)
#
#
# Indices 1 2 3 4 5 6 
#
# 1 0.011411 -0.005913 -0.004497 0.000000 0.000000 0.000000
# 2 -0.005913 0.038738 -0.007092 0.000000 0.000000 0.000000
# 3 -0.004497 -0.007092 0.009600 0.000000 0.000000 0.000000
# 4 0.000000 0.000000 0.000000 0.016950 0.000000 0.000000
# 5 0.000000 0.000000 0.000000 0.000000 0.066642 0.000000
# 6 0.000000 0.000000 0.000000 0.000000 0.000000 -2.466864
#
#
# Mechanical properties :
#
#
# Convention : Reuss Voigt Hill
#
# Bulk Modulus (GPa) = 40.41478 83.97658 62.19568
# Shear Modulus (GPa) = -2.19272 27.16263 12.48495
#
# Velocity S-wave (km/s) = -1.10554 3.89107 2.63801
# Velocity P-wave (km/s) = 4.57139 8.18510 6.62923
#
# Compressibility (1/GPa) = 0.02474342
#
# Stress axis : x y z
#
# Youngs Moduli (GPa) = 87.63806 25.81474 104.16315
#
# Poissons Ratio (x) = 0.15265 0.46839
# Poissons Ratio (y) = 0.51824 0.73876
# Poissons Ratio (z) = 0.39408 0.18309
#
# Static dielectric constant tensor:
#      x y z
#    x 1.615150 0.000000 0.000000 
#    y 0.000000 1.604780 0.000000 
#    z 0.000000 0.000000 1.587810 
# 
# From -- ./inp_files/23877.got.cif
#   From: 2010.05.17/outbox.cif.g08.bks.cpg/sg51_12_cif.got.tgz:23877.got - 2010.06.03 11:52:47.
