data_PCOD9404304
_publ_section_title
;
Structure prediction by ZEFSAII (Michael W. Deem and Ramdas Pophale) SiO2 
 PCOD9404304
Probable space group: P M M A
;
_chemical_formula_sum "Si O2"
_cell_formula_units_Z 48
_cell_length_a 8.112597
_cell_length_b 19.181327
_cell_length_c 13.027369
_cell_angle_alpha 90.000000
_cell_angle_beta 90.000000
_cell_angle_gamma 90.000000
_cell_volume 2027.193787
_symmetry_space_group_name_H-M "P M M A"
_symmetry_group_IT_number 51
_symmetry_cell_setting 'orthorhombic'
loop_
_space_group_symop_operation_xyz
x,y,z
1/2-x,-y,z
1/2+x,-y,-z
-x,y,-z
-x,-y,-z
1/2+x,y,-z
1/2-x,y,z
x,-y,z
loop_
_atom_site_type_symbol
_atom_site_label
_atom_site_fract_x
_atom_site_fract_y
_atom_site_fract_z
Si Si1 0.447251 0.879896 0.109799
Si Si2 0.443826 0.076238 0.671021
Si Si3 0.558260 0.577347 0.833841
Si Si4 0.559841 0.225478 0.611551
Si Si5 0.066121 0.583210 0.609304
Si Si6 0.952188 0.725518 0.829936
O O1 0.250000 0.884184 0.122624
O O2 0.529892 0.916870 0.206571
O O3 0.496588 0.797770 0.115254
O O4 0.500000 0.908203 0.000000
O O5 0.250000 0.082557 0.647756
O O6 0.535172 0.142609 0.624896
O O7 0.503005 0.000000 0.637229
O O8 0.750000 0.573795 0.863337
O O9 0.484707 0.500000 0.856439
O O10 0.545989 0.588945 0.710329
O O11 0.486992 0.651113 0.873140
O O12 0.500000 0.244520 0.500000
O O13 0.750000 0.242582 0.615938
O O14 0.485979 0.261644 0.712733
O O15 0.250000 0.610543 0.629598
O O16 0.080874 0.500000 0.596773
O O17 0.000000 0.608963 0.500000
O O18 0.750000 0.722480 0.830201
#
# Coordination Sequence:
#
# PCOD9404304 Si02
#       6
#     8   8   8   8   8   8
#     4  10  20  36  58  81 107 138 173 213 258 312
#     4  10  21  37  57  83 113 141 173 214 258 307
#     4   9  16  28  47  68  91 122 161 207 260 312
#     4  10  20  35  54  75 105 145 187 226 261 304
#     4   9  16  25  36  53  80 113 150 192 238 290
#     4   8  17  33  51  74 102 133 173 219 263 309
#
# _framework density 23.678052999999998
#
# number of rings (size 3 to 8) (size 9 to 14) (size 15 to 20)
#    0.000    2.667    0.000    3.000    0.000    4.667 
#    0.000    6.667    0.000    0.500    0.000    0.000 
#    0.000    0.000    0.000    0.000    0.000    0.667 
#
# Total GULP energy -267884.690906 kJ/mol
# GULP energy per Si atom -5580.931061 kJ/mol
# Density = 2.362416 g / cm^3
# Si number density = 23.678053 Si / 1000 Ang^3
#
#
#
# Elastic Constant Matrix: (Units=GPa)
#
#
# Indices 1 2 3 4 5 6 
#
# 1 28.1822 -7.5926 -5.3043 0.0000 0.0000 0.0000
# 2 -7.5926 137.1376 -2.8479 0.0000 0.0000 0.0000
# 3 -5.3043 -2.8479 70.3105 0.0000 0.0000 0.0000
# 4 0.0000 0.0000 0.0000 8.7407 0.0000 0.0000
# 5 0.0000 0.0000 0.0000 0.0000 15.7604 0.0000
# 6 0.0000 0.0000 0.0000 0.0000 0.0000 7.7609
#
#
#
# Elastic Compliance Matrix: (Units=1/GPa)
#
#
# Indices 1 2 3 4 5 6 
#
# 1 0.036580 0.002084 0.002844 0.000000 0.000000 0.000000
# 2 0.002084 0.007417 0.000458 0.000000 0.000000 0.000000
# 3 0.002844 0.000458 0.014456 0.000000 0.000000 0.000000
# 4 0.000000 0.000000 0.000000 0.114407 0.000000 0.000000
# 5 0.000000 0.000000 0.000000 0.000000 0.063450 0.000000
# 6 0.000000 0.000000 0.000000 0.000000 0.000000 0.128851
#
#
# Mechanical properties :
#
#
# Convention : Reuss Voigt Hill
#
# Bulk Modulus (GPa) = 14.44566 22.68231 18.56398
# Shear Modulus (GPa) = 13.24631 23.21075 18.22853
#
# Velocity S-wave (km/s) = 2.36780 3.13431 2.77763
# Velocity P-wave (km/s) = 3.68638 4.76433 4.25959
#
# Compressibility (1/GPa) = 0.06922496
#
# Stress axis : x y z
#
# Youngs Moduli (GPa) = 27.33715 134.82817 69.17677
#
# Poissons Ratio (x) = -0.28103 -0.19674
# Poissons Ratio (y) = -0.05698 -0.03166
# Poissons Ratio (z) = -0.07775 -0.06170
#
# Static dielectric constant tensor:
#      x y z
#    x 1.850540 0.000000 0.000000 
#    y 0.000000 1.967600 0.000000 
#    z 0.000000 0.000000 1.894200 
# 
# From -- ./inp_files/21398.got.cif
#   From: 2010.05.17/outbox.cif.g08.bks.cpg/sg51_11_cif.got.tgz:21398.got - 2010.06.03 11:52:47.
