data_PCOD9404646
_publ_section_title
;
Structure prediction by ZEFSAII (Michael W. Deem and Ramdas Pophale) SiO2 
 PCOD9404646
Probable space group: P M M A
;
_chemical_formula_sum "Si O2"
_cell_formula_units_Z 48
_cell_length_a 19.647870
_cell_length_b 7.619404
_cell_length_c 17.106877
_cell_angle_alpha 90.000000
_cell_angle_beta 90.000000
_cell_angle_gamma 90.000000
_cell_volume 2560.986035
_symmetry_space_group_name_H-M "P M M A"
_symmetry_group_IT_number 51
_symmetry_cell_setting 'orthorhombic'
loop_
_space_group_symop_operation_xyz
x,y,z
1/2-x,-y,z
1/2+x,-y,-z
-x,y,-z
-x,-y,-z
1/2+x,y,-z
1/2-x,y,z
x,-y,z
loop_
_atom_site_type_symbol
_atom_site_label
_atom_site_fract_x
_atom_site_fract_y
_atom_site_fract_z
Si Si1 0.580861 0.789905 0.187257
Si Si2 0.673934 0.206296 0.873907
Si Si3 0.100532 0.500000 0.561663
Si Si4 0.169016 0.207653 0.663574
Si Si5 0.068071 0.787524 0.257046
Si Si6 0.924399 0.701893 0.010958
Si Si7 0.442801 0.500000 0.386575
O O1 0.633418 0.738200 0.254898
O O2 0.504806 0.748105 0.216770
O O3 0.593609 0.713100 0.101961
O O4 0.584943 0.000000 0.178696
O O5 0.750000 0.282217 0.877951
O O6 0.626467 0.271267 0.803452
O O7 0.680403 0.000000 0.858424
O O8 0.632525 0.221342 0.954498
O O9 0.137842 0.329376 0.596539
O O10 0.097064 0.500000 0.468190
O O11 0.023054 0.500000 0.592967
O O12 0.250000 0.229283 0.668022
O O13 0.154125 0.000000 0.651284
O O14 0.072371 0.672589 0.335032
O O15 0.070912 0.000000 0.269836
O O16 0.929660 0.500000 0.986232
O O17 0.000000 0.782625 0.000000
#
# Coordination Sequence:
#
# PCOD9404646 Si02
#       7
#     8   8   4   8   8   8   4
#     4  10  20  35  59  87 116 157 205 247 294 352
#     4  10  22  40  60  83 118 162 203 250 304 356
#     4  11  23  40  62  97 126 154 197 247 308 369
#     4  10  22  41  64  90 125 165 200 244 305 366
#     4  10  21  39  63  90 122 160 204 252 302 356
#     4  11  23  34  54  86 120 158 202 252 299 350
#     4  11  24  38  66  94 122 156 197 254 304 361
#
# _framework density 18.742781000000001
#
# number of rings (size 3 to 8) (size 9 to 14) (size 15 to 20)
#    0.000    1.667    3.333    0.750    3.500    2.333 
#    0.000    5.000    0.000    2.000    0.000    0.000 
#    0.000    0.000    0.000    0.000    0.000    0.000 
#
# Total GULP energy -268001.111387 kJ/mol
# GULP energy per Si atom -5583.356487 kJ/mol
# Density = 1.870012 g / cm^3
# Si number density = 18.742781 Si / 1000 Ang^3
#
#
#
# Elastic Constant Matrix: (Units=GPa)
#
#
# Indices 1 2 3 4 5 6 
#
# 1 134.4053 41.7680 78.8314 0.0000 0.0000 0.0000
# 2 41.7680 63.1419 47.9804 0.0000 0.0000 0.0000
# 3 78.8314 47.9804 163.4823 0.0000 0.0000 0.0000
# 4 0.0000 0.0000 0.0000 21.1615 0.0000 0.0000
# 5 0.0000 0.0000 0.0000 0.0000 24.1469 0.0000
# 6 0.0000 0.0000 0.0000 0.0000 0.0000 13.8181
#
#
#
# Elastic Compliance Matrix: (Units=1/GPa)
#
#
# Indices 1 2 3 4 5 6 
#
# 1 0.011196 -0.004252 -0.004151 0.000000 0.000000 0.000000
# 2 -0.004252 0.021998 -0.004406 0.000000 0.000000 0.000000
# 3 -0.004151 -0.004406 0.009411 0.000000 0.000000 0.000000
# 4 0.000000 0.000000 0.000000 0.047256 0.000000 0.000000
# 5 0.000000 0.000000 0.000000 0.000000 0.041413 0.000000
# 6 0.000000 0.000000 0.000000 0.000000 0.000000 0.072369
#
#
# Mechanical properties :
#
#
# Convention : Reuss Voigt Hill
#
# Bulk Modulus (GPa) = 58.86468 77.57655 68.22062
# Shear Modulus (GPa) = 21.28356 24.65529 22.96942
#
# Velocity S-wave (km/s) = 3.37346 3.63086 3.50452
# Velocity P-wave (km/s) = 6.82997 7.68488 7.27000
#
# Compressibility (1/GPa) = 0.01698812
#
# Stress axis : x y z
#
# Youngs Moduli (GPa) = 89.31684 45.45886 106.25312
#
# Poissons Ratio (x) = 0.19329 0.44104
# Poissons Ratio (y) = 0.37977 0.46813
# Poissons Ratio (z) = 0.37074 0.20028
#
# Static dielectric constant tensor:
#      x y z
#    x 1.661940 0.000000 0.000000 
#    y 0.000000 1.678620 0.000000 
#    z 0.000000 0.000000 1.609860 
# 
# From -- ./inp_files/24881.got.cif
#   From: 2010.05.17/outbox.cif.g08.bks.cpg/sg51_13_cif.got.tgz:24881.got - 2010.06.03 11:52:47.
