data_PCOD9404980
_publ_section_title
;
Structure prediction by ZEFSAII (Michael W. Deem and Ramdas Pophale) SiO2 
 PCOD9404980
Probable space group: P M M A
;
_chemical_formula_sum "Si O2"
_cell_formula_units_Z 38
_cell_length_a 7.535738
_cell_length_b 9.882776
_cell_length_c 24.980845
_cell_angle_alpha 90.000000
_cell_angle_beta 90.000000
_cell_angle_gamma 90.000000
_cell_volume 1860.423717
_symmetry_space_group_name_H-M "P M M A"
_symmetry_group_IT_number 51
_symmetry_cell_setting 'orthorhombic'
loop_
_space_group_symop_operation_xyz
x,y,z
1/2-x,-y,z
1/2+x,-y,-z
-x,y,-z
-x,-y,-z
1/2+x,y,-z
1/2-x,y,z
x,-y,z
loop_
_atom_site_type_symbol
_atom_site_label
_atom_site_fract_x
_atom_site_fract_y
_atom_site_fract_z
Si Si1 0.542274 0.240128 0.629431
Si Si2 0.539454 0.348446 0.937906
Si Si3 0.466130 0.344695 0.747465
Si Si4 0.959094 0.847677 0.157541
Si Si5 0.250000 0.000000 0.622215
Si Si6 0.539034 0.500000 0.562627
O O1 0.750000 0.207080 0.617218
O O2 0.532789 0.293866 0.690329
O O3 0.406812 0.117478 0.623468
O O4 0.478342 0.363679 0.591773
O O5 0.750000 0.354082 0.931884
O O6 0.467518 0.500000 0.925727
O O7 0.475263 0.234242 0.897610
O O8 0.500000 0.319459 0.000000
O O9 0.250000 0.341642 0.746125
O O10 0.519088 0.500000 0.757299
O O11 0.530264 0.245691 0.794574
O O12 0.750000 0.860531 0.168436
O O13 0.033169 0.000000 0.155189
O O14 0.750000 0.500000 0.570215
O O15 0.500000 0.500000 0.500000
#
# Coordination Sequence:
#
# PCOD9404980 Si02
#       6
#     8   8   8   8   2   4
#     4  11  24  43  68 104 134 178 231 278 334 401
#     4  10  21  38  60  83 110 149 201 258 318 376
#     4  10  20  36  63  94 127 169 216 268 325 387
#     4  10  22  37  57  88 124 161 206 249 308 387
#     4  12  26  42  70  94 150 186 216 270 346 414
#     4  10  24  44  76 106 134 176 239 291 332 390
#
# _framework density 20.425453000000001
#
# number of rings (size 3 to 8) (size 9 to 14) (size 15 to 20)
#    0.000    1.684    2.105    1.579    2.947    3.789 
#    0.000    0.526    0.000    0.000    0.000    0.000 
#    0.000    0.000    0.000    0.000    0.000    0.000 
#
# Total GULP energy -211744.801493 kJ/mol
# GULP energy per Si atom -5572.231618 kJ/mol
# Density = 2.037896 g / cm^3
# Si number density = 20.425453 Si / 1000 Ang^3
#
#
#
# Elastic Constant Matrix: (Units=GPa)
#
#
# Indices 1 2 3 4 5 6 
#
# 1 96.2739 56.3621 8.0961 0.0000 0.0000 0.0000
# 2 56.3621 238.2179 113.5792 0.0000 0.0000 0.0000
# 3 8.0961 113.5792 125.5069 0.0000 0.0000 0.0000
# 4 0.0000 0.0000 0.0000 -5.6158 0.0000 0.0000
# 5 0.0000 0.0000 0.0000 0.0000 24.0852 0.0000
# 6 0.0000 0.0000 0.0000 0.0000 0.0000 32.6253
#
#
#
# Elastic Compliance Matrix: (Units=1/GPa)
#
#
# Indices 1 2 3 4 5 6 
#
# 1 0.012821 -0.004642 0.003374 0.000000 0.000000 0.000000
# 2 -0.004642 0.009064 -0.007904 0.000000 0.000000 0.000000
# 3 0.003374 -0.007904 0.014902 0.000000 0.000000 0.000000
# 4 0.000000 0.000000 0.000000 -0.178069 0.000000 0.000000
# 5 0.000000 0.000000 0.000000 0.000000 0.041519 0.000000
# 6 0.000000 0.000000 0.000000 0.000000 0.000000 0.030651
#
#
# Mechanical properties :
#
#
# Convention : Reuss Voigt Hill
#
# Bulk Modulus (GPa) = 54.21717 90.67481 72.44599
# Shear Modulus (GPa) = -112.06001 29.01635 -41.52183
#
# Velocity S-wave (km/s) = -7.41499 3.77317 -4.51360
# Velocity P-wave (km/s) = 6.83431 7.96692 2.89517
#
# Compressibility (1/GPa) = 0.01844434
#
# Stress axis : x y z
#
# Youngs Moduli (GPa) = 77.99764 110.32119 67.10287
#
# Poissons Ratio (x) = 0.51211 -0.22639
# Poissons Ratio (y) = 0.36206 0.53035
# Poissons Ratio (z) = -0.26315 0.87193
#
# Static dielectric constant tensor:
#      x y z
#    x 1.761030 0.000000 0.000000 
#    y 0.000000 1.723190 0.000000 
#    z 0.000000 0.000000 1.674870 
# 
# From -- ./inp_files/34359.got.cif
#   From: 2010.05.17/outbox.cif.g08.bks.cpg/sg51_18_cif.got.tgz:34359.got - 2010.06.03 11:52:47.
