data_PCOD9404560
_publ_section_title
;
Structure prediction by ZEFSAII (Michael W. Deem and Ramdas Pophale) SiO2 
 PCOD9404560
Probable space group: P M M A
;
_chemical_formula_sum "Si O2"
_cell_formula_units_Z 56
_cell_length_a 16.961750
_cell_length_b 19.783948
_cell_length_c 8.249450
_cell_angle_alpha 90.000000
_cell_angle_beta 90.000000
_cell_angle_gamma 90.000000
_cell_volume 2768.271071
_symmetry_space_group_name_H-M "P M M A"
_symmetry_group_IT_number 51
_symmetry_cell_setting 'orthorhombic'
loop_
_space_group_symop_operation_xyz
x,y,z
1/2-x,-y,z
1/2+x,-y,-z
-x,y,-z
-x,-y,-z
1/2+x,y,-z
1/2-x,y,z
x,-y,z
loop_
_atom_site_type_symbol
_atom_site_label
_atom_site_fract_x
_atom_site_fract_y
_atom_site_fract_z
Si Si1 0.580328 0.575666 0.894349
Si Si2 0.341560 0.147748 0.778440
Si Si3 0.102067 0.716570 0.653784
Si Si4 0.341530 0.425543 0.775236
Si Si5 0.918582 0.286206 0.713564
Si Si6 0.654278 0.839032 0.868313
Si Si7 0.153713 0.921606 0.450683
O O1 0.579705 0.500000 0.823304
O O2 0.587717 0.636414 0.769821
O O3 0.500000 0.583903 0.000000
O O4 0.647569 0.579444 0.031076
O O5 0.250000 0.127492 0.782667
O O6 0.348082 0.228223 0.750212
O O7 0.376000 0.112653 0.617512
O O8 0.373925 0.133060 0.957688
O O9 0.117473 0.639176 0.699415
O O10 0.118508 0.724629 0.463233
O O11 0.010821 0.730639 0.693715
O O12 0.250000 0.423429 0.732216
O O13 0.373854 0.500000 0.728956
O O14 0.878698 0.236027 0.840321
O O15 0.750000 0.837053 0.870965
O O16 0.628836 0.882400 0.711851
O O17 0.250000 0.918073 0.451946
O O18 0.131513 0.000000 0.445187
#
# Coordination Sequence:
#
# PCOD9404560 Si02
#       7
#     8   8   8   8   8   8   8
#     4  10  20  37  57  79 111 149 193 246 295 343
#     4  10  20  35  57  84 114 151 190 232 287 344
#     4  11  22  36  54  81 115 149 191 243 291 343
#     4  10  21  37  57  81 110 148 192 239 295 352
#     4  11  23  35  55  83 111 150 197 239 291 349
#     4  10  21  36  58  87 117 152 193 241 290 345
#     4   9  18  35  58  86 120 152 186 234 291 348
#
# _framework density 20.229232
#
# number of rings (size 3 to 8) (size 9 to 14) (size 15 to 20)
#    0.000    1.857    2.857    1.286    0.000    3.429 
#    0.000    4.286    0.000    3.429    0.000    2.000 
#    0.000    0.000    0.000    0.000    0.000    0.000 
#
# Total GULP energy -312492.975517 kJ/mol
# GULP energy per Si atom -5580.231706 kJ/mol
# Density = 2.018319 g / cm^3
# Si number density = 20.229232 Si / 1000 Ang^3
#
#
#
# Elastic Constant Matrix: (Units=GPa)
#
#
# Indices 1 2 3 4 5 6 
#
# 1 14.1920 0.4216 8.0873 0.0000 0.0000 0.0000
# 2 0.4216 99.8949 54.2035 0.0000 0.0000 0.0000
# 3 8.0873 54.2035 140.7366 0.0000 0.0000 0.0000
# 4 0.0000 0.0000 0.0000 18.3101 0.0000 0.0000
# 5 0.0000 0.0000 0.0000 0.0000 15.6433 0.0000
# 6 0.0000 0.0000 0.0000 0.0000 0.0000 -13.6982
#
#
#
# Elastic Compliance Matrix: (Units=1/GPa)
#
#
# Indices 1 2 3 4 5 6 
#
# 1 0.073338 0.002500 -0.005177 0.000000 0.000000 0.000000
# 2 0.002500 0.012740 -0.005050 0.000000 0.000000 0.000000
# 3 -0.005177 -0.005050 0.009348 0.000000 0.000000 0.000000
# 4 0.000000 0.000000 0.000000 0.054615 0.000000 0.000000
# 5 0.000000 0.000000 0.000000 0.000000 0.063925 0.000000
# 6 0.000000 0.000000 0.000000 0.000000 0.000000 -0.073003
#
#
# Mechanical properties :
#
#
# Convention : Reuss Voigt Hill
#
# Bulk Modulus (GPa) = 12.50454 42.24981 27.37718
# Shear Modulus (GPa) = 27.31095 16.85846 22.08470
#
# Velocity S-wave (km/s) = 3.67832 2.88995 3.30771
# Velocity P-wave (km/s) = 4.92290 5.66274 5.30573
#
# Compressibility (1/GPa) = 0.07997093
#
# Stress axis : x y z
#
# Youngs Moduli (GPa) = 13.63544 78.49048 106.97337
#
# Poissons Ratio (x) = -0.19619 0.55380
# Poissons Ratio (y) = -0.03408 0.54027
# Poissons Ratio (z) = 0.07059 0.39642
#
# Static dielectric constant tensor:
#      x y z
#    x 1.721210 0.000000 0.000000 
#    y 0.000000 1.703430 0.000000 
#    z 0.000000 0.000000 1.734100 
# 
# From -- ./inp_files/11104.got.cif
#   From: 2010.05.17/outbox.cif.g08.bks.cpg/sg51_6_cif.got.tgz:11104.got - 2010.06.03 11:52:47.
