data_PCOD9404376
_publ_section_title
;
Structure prediction by ZEFSAII (Michael W. Deem and Ramdas Pophale) SiO2 
 PCOD9404376
Probable space group: P M M A
;
_chemical_formula_sum "Si O2"
_cell_formula_units_Z 36
_cell_length_a 8.785586
_cell_length_b 23.712995
_cell_length_c 9.562665
_cell_angle_alpha 90.000000
_cell_angle_beta 90.000000
_cell_angle_gamma 90.000000
_cell_volume 1992.214450
_symmetry_space_group_name_H-M "P M M A"
_symmetry_group_IT_number 51
_symmetry_cell_setting 'orthorhombic'
loop_
_space_group_symop_operation_xyz
x,y,z
1/2-x,-y,z
1/2+x,-y,-z
-x,y,-z
-x,-y,-z
1/2+x,y,-z
1/2-x,y,z
x,-y,z
loop_
_atom_site_type_symbol
_atom_site_label
_atom_site_fract_x
_atom_site_fract_y
_atom_site_fract_z
Si Si1 0.433274 0.711229 0.154252
Si Si2 0.433599 0.500000 0.155936
Si Si3 0.432445 0.839503 0.154001
Si Si4 0.933915 0.392794 0.655276
Si Si5 0.067896 0.063181 0.655137
O O1 0.250000 0.708457 0.143297
O O2 0.474332 0.775266 0.196354
O O3 0.482293 0.664652 0.266385
O O4 0.500000 0.700051 0.000000
O O5 0.250000 0.500000 0.144838
O O6 0.479026 0.554981 0.245388
O O7 0.500000 0.500000 0.000000
O O8 0.250000 0.843274 0.150288
O O9 0.498900 0.887132 0.253396
O O10 0.500000 0.847816 0.000000
O O11 0.750000 0.393030 0.645506
O O12 0.000000 0.397627 0.500000
O O13 0.250000 0.068269 0.649450
O O14 0.000000 0.066819 0.500000
O O15 0.031106 0.000000 0.709833
#
# Coordination Sequence:
#
# PCOD9404376 Si02
#       5
#     8   4   8   8   8
#     4   9  19  35  54  77 105 137 175 216 259 310
#     4  10  21  36  56  80 106 138 177 218 260 310
#     4  10  20  35  55  79 107 139 176 219 264 312
#     4  10  21  36  53  78 109 139 175 217 260 308
#     4  10  21  37  56  78 105 138 175 216 264 317
#
# _framework density 18.070343999999999
#
# number of rings (size 3 to 8) (size 9 to 14) (size 15 to 20)
#    0.000    2.222    0.000    2.333    0.000    5.333 
#    0.000    2.222    0.000    0.000    0.000    0.000 
#    0.000    0.000    0.000    0.000    0.000    0.000 
#
# Total GULP energy -200948.638370 kJ/mol
# GULP energy per Si atom -5581.906621 kJ/mol
# Density = 1.802921 g / cm^3
# Si number density = 18.070344 Si / 1000 Ang^3
#
#
#
# Elastic Constant Matrix: (Units=GPa)
#
#
# Indices 1 2 3 4 5 6 
#
# 1 36.3956 55.0897 41.6828 0.0000 0.0000 0.0000
# 2 55.0897 184.0909 126.5240 0.0000 0.0000 0.0000
# 3 41.6828 126.5240 143.5276 0.0000 0.0000 0.0000
# 4 0.0000 0.0000 0.0000 85.6350 0.0000 0.0000
# 5 0.0000 0.0000 0.0000 0.0000 39.1763 0.0000
# 6 0.0000 0.0000 0.0000 0.0000 0.0000 48.8849
#
#
#
# Elastic Compliance Matrix: (Units=1/GPa)
#
#
# Indices 1 2 3 4 5 6 
#
# 1 0.050886 -0.012866 -0.003436 0.000000 0.000000 0.000000
# 2 -0.012866 0.017035 -0.011281 0.000000 0.000000 0.000000
# 3 -0.003436 -0.011281 0.017910 0.000000 0.000000 0.000000
# 4 0.000000 0.000000 0.000000 0.011677 0.000000 0.000000
# 5 0.000000 0.000000 0.000000 0.000000 0.025526 0.000000
# 6 0.000000 0.000000 0.000000 0.000000 0.000000 0.020456
#
#
# Mechanical properties :
#
#
# Convention : Reuss Voigt Hill
#
# Bulk Modulus (GPa) = 32.61080 90.06746 61.33913
# Shear Modulus (GPa) = 23.93743 44.12041 34.02892
#
# Velocity S-wave (km/s) = 3.64356 4.94661 4.34422
# Velocity P-wave (km/s) = 5.98218 9.08714 7.69294
#
# Compressibility (1/GPa) = 0.03066468
#
# Stress axis : x y z
#
# Youngs Moduli (GPa) = 19.65189 58.70103 55.83577
#
# Poissons Ratio (x) = 0.75524 0.19187
# Poissons Ratio (y) = 0.25284 0.62987
# Poissons Ratio (z) = 0.06753 0.66220
#
# Static dielectric constant tensor:
#      x y z
#    x 1.607710 0.000000 0.000000 
#    y 0.000000 1.635630 0.000000 
#    z 0.000000 0.000000 1.561580 
# 
# From -- ./inp_files/5199.got.cif
#   From: 2010.05.17/outbox.cif.g08.bks.cpg/sg51_3_cif.got.tgz:5199.got - 2010.06.03 11:52:47.
