data_PCOD9404992
_publ_section_title
;
Structure prediction by ZEFSAII (Michael W. Deem and Ramdas Pophale) SiO2 
 PCOD9404992
Probable space group: P M M A
;
_chemical_formula_sum "Si O2"
_cell_formula_units_Z 48
_cell_length_a 15.578532
_cell_length_b 18.870768
_cell_length_c 7.855896
_cell_angle_alpha 90.000000
_cell_angle_beta 90.000000
_cell_angle_gamma 90.000000
_cell_volume 2309.467375
_symmetry_space_group_name_H-M "P M M A"
_symmetry_group_IT_number 51
_symmetry_cell_setting 'orthorhombic'
loop_
_space_group_symop_operation_xyz
x,y,z
1/2-x,-y,z
1/2+x,-y,-z
-x,y,-z
-x,-y,-z
1/2+x,y,-z
1/2-x,y,z
x,-y,z
loop_
_atom_site_type_symbol
_atom_site_label
_atom_site_fract_x
_atom_site_fract_y
_atom_site_fract_z
Si Si1 0.393613 0.846492 0.614144
Si Si2 0.846677 0.167842 0.007069
Si Si3 0.074493 0.916219 0.290469
Si Si4 0.354792 0.326879 0.959190
Si Si5 0.854515 0.314288 0.424438
Si Si6 0.644918 0.419117 0.725174
O O1 0.486164 0.875654 0.670582
O O2 0.366285 0.892299 0.450289
O O3 0.391505 0.764613 0.557195
O O4 0.343941 0.849794 0.792746
O O5 0.750000 0.171317 0.940460
O O6 0.894268 0.111515 0.890976
O O7 0.884399 0.247331 0.993514
O O8 0.062587 0.000000 0.292256
O O9 0.250000 0.324804 0.962667
O O10 0.378534 0.341180 0.764054
O O11 0.382933 0.383688 0.097496
O O12 0.750000 0.307598 0.430411
O O13 0.881546 0.367934 0.571252
O O14 0.750000 0.419768 0.724736
O O15 0.616295 0.500000 0.706402
#
# Coordination Sequence:
#
# PCOD9404992 Si02
#       6
#     8   8   8   8   8   8
#     4  10  20  37  58  77 105 146 185 224 270 320
#     4  10  21  37  58  82 107 140 182 227 274 324
#     4  11  24  39  56  81 111 141 177 224 276 334
#     4   8  15  28  45  67  96 130 169 211 255 307
#     4   9  17  30  50  75 102 137 184 230 265 306
#     4   9  16  25  41  70 108 143 171 211 270 322
#
# _framework density 20.784013000000002
#
# number of rings (size 3 to 8) (size 9 to 14) (size 15 to 20)
#    0.000    2.500    0.000    4.000    0.000    5.667 
#    0.000    3.333    0.000    4.500    0.000    9.333 
#    0.000   26.667    0.000    0.000    0.000    0.000 
#
# Total GULP energy -267840.671139 kJ/mol
# GULP energy per Si atom -5580.013982 kJ/mol
# Density = 2.073671 g / cm^3
# Si number density = 20.784013 Si / 1000 Ang^3
#
#
#
# Elastic Constant Matrix: (Units=GPa)
#
#
# Indices 1 2 3 4 5 6 
#
# 1 17.2835 21.7375 10.9896 0.0000 0.0000 0.0000
# 2 21.7375 151.3878 89.0293 0.0000 0.0000 0.0000
# 3 10.9896 89.0293 104.9441 0.0000 0.0000 0.0000
# 4 0.0000 0.0000 0.0000 -12.0296 0.0000 0.0000
# 5 0.0000 0.0000 0.0000 0.0000 14.1382 0.0000
# 6 0.0000 0.0000 0.0000 0.0000 0.0000 24.6872
#
#
#
# Elastic Compliance Matrix: (Units=1/GPa)
#
#
# Indices 1 2 3 4 5 6 
#
# 1 0.070917 -0.011606 0.002419 0.000000 0.000000 0.000000
# 2 -0.011606 0.015081 -0.011579 0.000000 0.000000 0.000000
# 3 0.002419 -0.011579 0.019099 0.000000 0.000000 0.000000
# 4 0.000000 0.000000 0.000000 -0.083128 0.000000 0.000000
# 5 0.000000 0.000000 0.000000 0.000000 0.070730 0.000000
# 6 0.000000 0.000000 0.000000 0.000000 0.000000 0.040507
#
#
# Mechanical properties :
#
#
# Convention : Reuss Voigt Hill
#
# Bulk Modulus (GPa) = 15.73164 57.45869 36.59517
# Shear Modulus (GPa) = 25.51994 15.48309 20.50151
#
# Velocity S-wave (km/s) = 3.50789 2.73234 3.14412
# Velocity P-wave (km/s) = 4.89822 6.13677 5.55214
#
# Compressibility (1/GPa) = 0.06356617
#
# Stress axis : x y z
#
# Youngs Moduli (GPa) = 14.10103 66.30661 52.35987
#
# Poissons Ratio (x) = 0.76952 -0.12667
# Poissons Ratio (y) = 0.16365 0.60628
# Poissons Ratio (z) = -0.03411 0.76777
#
# Static dielectric constant tensor:
#      x y z
#    x 1.823870 0.000000 0.000000 
#    y 0.000000 1.695140 0.000000 
#    z 0.000000 0.000000 1.763120 
# 
# From -- ./inp_files/8216.got.cif
#   From: 2010.05.17/outbox.cif.g08.bks.cpg/sg51_5_cif.got.tgz:8216.got - 2010.06.03 11:52:47.
