data_PCOD9404208
_publ_section_title
;
Structure prediction by ZEFSAII (Michael W. Deem and Ramdas Pophale) SiO2 
 PCOD9404208
Probable space group: P M M A
;
_chemical_formula_sum "Si O2"
_cell_formula_units_Z 56
_cell_length_a 16.432171
_cell_length_b 32.300272
_cell_length_c 5.087177
_cell_angle_alpha 90.000000
_cell_angle_beta 90.000000
_cell_angle_gamma 90.000000
_cell_volume 2700.088342
_symmetry_space_group_name_H-M "P M M A"
_symmetry_group_IT_number 51
_symmetry_cell_setting 'orthorhombic'
loop_
_space_group_symop_operation_xyz
x,y,z
1/2-x,-y,z
1/2+x,-y,-z
-x,y,-z
-x,-y,-z
1/2+x,y,-z
1/2-x,y,z
x,-y,z
loop_
_atom_site_type_symbol
_atom_site_label
_atom_site_fract_x
_atom_site_fract_y
_atom_site_fract_z
Si Si1 0.651944 0.598719 0.089700
Si Si2 0.651154 0.453262 0.596690
Si Si3 0.406155 0.231842 0.589131
Si Si4 0.344496 0.048358 0.608596
Si Si5 0.443721 0.319565 0.750989
Si Si6 0.655405 0.814786 0.905684
Si Si7 0.590903 0.093574 0.888842
O O1 0.750000 0.604395 0.083900
O O2 0.632801 0.564668 0.311302
O O3 0.609272 0.641424 0.162396
O O4 0.623511 0.579511 0.814375
O O5 0.750000 0.454868 0.619044
O O6 0.621035 0.500000 0.636583
O O7 0.500000 0.229436 0.500000
O O8 0.391514 0.279572 0.666511
O O9 0.355208 0.215051 0.344364
O O10 0.390435 0.204080 0.843827
O O11 0.250000 0.051764 0.526625
O O12 0.398303 0.068115 0.378717
O O13 0.363965 0.000000 0.646185
O O14 0.356563 0.072475 0.880623
O O15 0.500000 0.330066 0.500000
O O16 0.500000 0.307426 0.000000
O O17 0.750000 0.818937 0.973047
O O18 0.619609 0.859665 0.839320
O O19 0.500000 0.093530 0.000000
#
# Coordination Sequence:
#
# PCOD9404208 Si02
#       7
#     8   8   8   8   8   8   8
#     4  10  20  34  57  86 113 147 196 248 290 344
#     4   9  17  31  53  82 114 149 192 243 296 346
#     4  11  23  43  65  89 120 161 206 245 298 369
#     4  11  24  43  66  93 128 168 210 259 312 362
#     4  11  23  41  62  85 118 159 194 236 299 364
#     4  12  25  42  65  94 126 159 200 255 312 360
#     4  12  25  42  65  94 128 167 209 254 304 367
#
# _framework density 20.74006
#
# number of rings (size 3 to 8) (size 9 to 14) (size 15 to 20)
#    0.000    1.143    0.000    7.714    0.000    5.714 
#    0.000    1.429    0.000    8.571    0.000    0.000 
#    0.000    0.000    0.000    0.000    0.000    0.000 
#
# Total GULP energy -313356.234153 kJ/mol
# GULP energy per Si atom -5595.647038 kJ/mol
# Density = 2.069285 g / cm^3
# Si number density = 20.740060 Si / 1000 Ang^3
#
#
#
# Elastic Constant Matrix: (Units=GPa)
#
#
# Indices 1 2 3 4 5 6 
#
# 1 34.2494 26.3332 -2.7357 0.0000 0.0000 0.0000
# 2 26.3332 89.3827 2.7461 0.0000 0.0000 0.0000
# 3 -2.7357 2.7461 87.0369 0.0000 0.0000 0.0000
# 4 0.0000 0.0000 0.0000-3270.4262 0.0000 0.0000
# 5 0.0000 0.0000 0.0000 0.0000 31.5745 0.0000
# 6 0.0000 0.0000 0.0000 0.0000 0.0000 20.3172
#
#
#
# Elastic Compliance Matrix: (Units=1/GPa)
#
#
# Indices 1 2 3 4 5 6 
#
# 1 0.037955 -0.011230 0.001547 0.000000 0.000000 0.000000
# 2 -0.011230 0.014521 -0.000811 0.000000 0.000000 0.000000
# 3 0.001547 -0.000811 0.011564 0.000000 0.000000 0.000000
# 4 0.000000 0.000000 0.000000 -0.000306 0.000000 0.000000
# 5 0.000000 0.000000 0.000000 0.000000 0.031671 0.000000
# 6 0.000000 0.000000 0.000000 0.000000 0.000000 0.049219
#
#
# Mechanical properties :
#
#
# Convention : Reuss Voigt Hill
#
# Bulk Modulus (GPa) = 23.22712 29.26181 26.24447
# Shear Modulus (GPa) = 27.78354 -631.41854 -301.81750
#
# Velocity S-wave (km/s) = 3.66404 -17.46725 -12.07642
# Velocity P-wave (km/s) = 5.39664 19.81583 13.48227
#
# Compressibility (1/GPa) = 0.04305311
#
# Stress axis : x y z
#
# Youngs Moduli (GPa) = 26.34680 68.86500 86.47820
#
# Poissons Ratio (x) = 0.77333 -0.13381
# Poissons Ratio (y) = 0.29586 0.07014
# Poissons Ratio (z) = -0.04077 0.05586
#
# Static dielectric constant tensor:
#      x y z
#    x 1.746710 0.000000 0.000000 
#    y 0.000000 1.711400 0.000000 
#    z 0.000000 0.000000 1.710700 
# 
# From -- ./inp_files/1480.got.cif
#   From: 2010.05.17/outbox.cif.g08.bks.cpg/sg51_1_cif.got.tgz:1480.got - 2010.06.03 11:52:47.
