data_PCOD9404663
_publ_section_title
;
Structure prediction by ZEFSAII (Michael W. Deem and Ramdas Pophale) SiO2 
 PCOD9404663
Probable space group: P M M A
;
_chemical_formula_sum "Si O2"
_cell_formula_units_Z 30
_cell_length_a 7.396927
_cell_length_b 10.077339
_cell_length_c 19.785677
_cell_angle_alpha 90.000000
_cell_angle_beta 90.000000
_cell_angle_gamma 90.000000
_cell_volume 1474.850895
_symmetry_space_group_name_H-M "P M M A"
_symmetry_group_IT_number 51
_symmetry_cell_setting 'orthorhombic'
loop_
_space_group_symop_operation_xyz
x,y,z
1/2-x,-y,z
1/2+x,-y,-z
-x,y,-z
-x,-y,-z
1/2+x,y,-z
1/2-x,y,z
x,-y,z
loop_
_atom_site_type_symbol
_atom_site_label
_atom_site_fract_x
_atom_site_fract_y
_atom_site_fract_z
Si Si1 0.750000 0.500000 0.143469
Si Si2 0.035499 0.000000 0.079349
Si Si3 0.030250 0.846774 0.694835
Si Si4 0.039855 0.261932 0.157063
Si Si5 0.465946 0.650387 0.577825
O O1 0.591678 0.615735 0.145557
O O2 0.971492 0.134574 0.114600
O O3 0.250000 0.000000 0.090968
O O4 0.000000 0.000000 0.000000
O O5 0.250000 0.845893 0.695629
O O6 0.968131 0.757203 0.631820
O O7 0.967437 0.781954 0.764596
O O8 0.972798 0.000000 0.690035
O O9 0.250000 0.290381 0.139129
O O10 0.500000 0.687285 0.500000
O O11 0.250000 0.643835 0.586342
O O12 0.536113 0.500000 0.588594
#
# Coordination Sequence:
#
# PCOD9404663 Si02
#       5
#     2   4   8   8   8
#     4  12  26  42  70  94 148 182 204 276 342 380
#     4  10  24  44  76 104 133 176 231 273 320 397
#     4  10  20  35  60  89 122 167 216 277 333 391
#     4  11  24  43  67 104 133 172 229 271 326 401
#     4   9  19  34  52  77 115 161 217 267 326 401
#
# _framework density 20.34104
#
# number of rings (size 3 to 8) (size 9 to 14) (size 15 to 20)
#    0.000    1.867    2.667    0.400    3.733    1.600 
#    0.000    0.667    0.000    0.000    0.000    0.000 
#    0.000    0.000    0.000    0.000    0.000    0.000 
#
# Total GULP energy -167068.941624 kJ/mol
# GULP energy per Si atom -5568.964721 kJ/mol
# Density = 2.029474 g / cm^3
# Si number density = 20.341040 Si / 1000 Ang^3
#
#
#
# Elastic Constant Matrix: (Units=GPa)
#
#
# Indices 1 2 3 4 5 6 
#
# 1 120.4603 67.3919 15.3393 0.0000 0.0000 0.0000
# 2 67.3919 214.8834 88.1371 0.0000 0.0000 0.0000
# 3 15.3393 88.1371 105.3016 0.0000 0.0000 0.0000
# 4 0.0000 0.0000 0.0000 -20.8971 0.0000 0.0000
# 5 0.0000 0.0000 0.0000 0.0000 23.8805 0.0000
# 6 0.0000 0.0000 0.0000 0.0000 0.0000 32.4430
#
#
#
# Elastic Compliance Matrix: (Units=1/GPa)
#
#
# Indices 1 2 3 4 5 6 
#
# 1 0.010295 -0.003980 0.001832 0.000000 0.000000 0.000000
# 2 -0.003980 0.008625 -0.006639 0.000000 0.000000 0.000000
# 3 0.001832 -0.006639 0.014787 0.000000 0.000000 0.000000
# 4 0.000000 0.000000 0.000000 -0.047854 0.000000 0.000000
# 5 0.000000 0.000000 0.000000 0.000000 0.041875 0.000000
# 6 0.000000 0.000000 0.000000 0.000000 0.000000 0.030823
#
#
# Mechanical properties :
#
#
# Convention : Reuss Voigt Hill
#
# Bulk Modulus (GPa) = 61.99159 86.93133 74.46146
# Shear Modulus (GPa) = 61.34630 25.07041 43.20836
#
# Velocity S-wave (km/s) = 5.49767 3.51451 4.61390
# Velocity P-wave (km/s) = 8.41673 7.70057 8.06660
#
# Compressibility (1/GPa) = 0.01613122
#
# Stress axis : x y z
#
# Youngs Moduli (GPa) = 97.13616 115.94045 67.62726
#
# Poissons Ratio (x) = 0.46143 -0.12386
# Poissons Ratio (y) = 0.38659 0.44901
# Poissons Ratio (z) = -0.17791 0.76978
#
# Static dielectric constant tensor:
#      x y z
#    x 1.776430 0.000000 0.000000 
#    y 0.000000 1.696320 0.000000 
#    z 0.000000 0.000000 1.670220 
# 
# From -- ./inp_files/31089.got.cif
#   From: 2010.05.17/outbox.cif.g08.bks.cpg/sg51_16_cif.got.tgz:31089.got - 2010.06.03 11:52:47.
