data_PCOD9404497
_publ_section_title
;
Structure prediction by ZEFSAII (Michael W. Deem and Ramdas Pophale) SiO2 
 PCOD9404497
Probable space group: P M M A
;
_chemical_formula_sum "Si O2"
_cell_formula_units_Z 56
_cell_length_a 16.164204
_cell_length_b 8.016913
_cell_length_c 21.717839
_cell_angle_alpha 90.000000
_cell_angle_beta 90.000000
_cell_angle_gamma 90.000000
_cell_volume 2814.349976
_symmetry_space_group_name_H-M "P M M A"
_symmetry_group_IT_number 51
_symmetry_cell_setting 'orthorhombic'
loop_
_space_group_symop_operation_xyz
x,y,z
1/2-x,-y,z
1/2+x,-y,-z
-x,y,-z
-x,-y,-z
1/2+x,y,-z
1/2-x,y,z
x,-y,z
loop_
_atom_site_type_symbol
_atom_site_label
_atom_site_fract_x
_atom_site_fract_y
_atom_site_fract_z
Si Si1 0.591953 0.697892 0.811690
Si Si2 0.654872 0.200317 0.381415
Si Si3 0.750000 0.298034 0.737179
Si Si4 0.995395 0.303325 0.931461
Si Si5 0.658605 0.201000 0.136507
Si Si6 0.929566 0.200635 0.258783
Si Si7 0.750000 0.196590 0.594122
Si Si8 0.593202 0.691667 0.511314
O O1 0.604741 0.500000 0.819866
O O2 0.670340 0.765364 0.774863
O O3 0.567328 0.767180 0.879393
O O4 0.512722 0.723772 0.768327
O O5 0.750000 0.226711 0.363391
O O6 0.595993 0.257070 0.326270
O O7 0.635307 0.289576 0.444844
O O8 0.644272 0.000000 0.390562
O O9 0.750000 0.500000 0.739684
O O10 0.750000 0.255616 0.664983
O O11 0.975716 0.500000 0.937652
O O12 0.085762 0.283498 0.901850
O O13 0.000000 0.229566 0.000000
O O14 0.750000 0.255136 0.118454
O O15 0.640978 0.236627 0.208295
O O16 0.652591 0.000000 0.129079
O O17 0.939117 0.000000 0.260719
O O18 0.835746 0.246333 0.558910
O O19 0.750000 0.000000 0.594403
O O20 0.500000 0.767432 0.500000
O O21 0.579142 0.500000 0.528909
#
# Coordination Sequence:
#
# PCOD9404497 Si02
#       8
#     8   8   4   8   8   8   4   8
#     4   9  19  36  56  79 109 146 189 232 280 337
#     4  10  20  35  56  83 113 145 182 227 281 338
#     4  10  22  40  60  80 110 153 196 239 288 343
#     4   9  18  34  54  80 112 145 183 228 277 329
#     4   9  17  31  51  76 107 142 180 217 263 325
#     4   9  18  32  53  80 110 143 179 222 275 333
#     4  12  26  44  66  90 118 153 198 251 304 355
#     4  11  25  43  62  85 116 153 193 239 294 356
#
# _framework density 19.898022000000001
#
# number of rings (size 3 to 8) (size 9 to 14) (size 15 to 20)
#    0.000    2.286    0.714    1.500    2.000    4.571 
#    1.286    0.000    0.000    2.571    0.000    0.000 
#    0.000    0.000    0.000    0.000    0.000    0.000 
#
# Total GULP energy -312139.126746 kJ/mol
# GULP energy per Si atom -5573.912978 kJ/mol
# Density = 1.985273 g / cm^3
# Si number density = 19.898022 Si / 1000 Ang^3
#
#
#
# Elastic Constant Matrix: (Units=GPa)
#
#
# Indices 1 2 3 4 5 6 
#
# 1 118.1937 12.3026 68.7876 0.0000 0.0000 0.0000
# 2 12.3026 18.1442 11.0614 0.0000 0.0000 0.0000
# 3 68.7876 11.0614 165.0365 0.0000 0.0000 0.0000
# 4 0.0000 0.0000 0.0000 -49.2047 0.0000 0.0000
# 5 0.0000 0.0000 0.0000 0.0000 14.4767 0.0000
# 6 0.0000 0.0000 0.0000 0.0000 0.0000 13.4330
#
#
#
# Elastic Compliance Matrix: (Units=1/GPa)
#
#
# Indices 1 2 3 4 5 6 
#
# 1 0.011611 -0.005132 -0.004496 0.000000 0.000000 0.000000
# 2 -0.005132 0.059731 -0.001864 0.000000 0.000000 0.000000
# 3 -0.004496 -0.001864 0.008058 0.000000 0.000000 0.000000
# 4 0.000000 0.000000 0.000000 -0.020323 0.000000 0.000000
# 5 0.000000 0.000000 0.000000 0.000000 0.069076 0.000000
# 6 0.000000 0.000000 0.000000 0.000000 0.000000 0.074444
#
#
# Mechanical properties :
#
#
# Convention : Reuss Voigt Hill
#
# Bulk Modulus (GPa) = 17.72559 53.96416 35.84487
# Shear Modulus (GPa) = 20.45943 9.68920 15.07431
#
# Velocity S-wave (km/s) = 3.21006 2.20907 2.75540
# Velocity P-wave (km/s) = 4.76097 5.80396 5.30814
#
# Compressibility (1/GPa) = 0.05641562
#
# Stress axis : x y z
#
# Youngs Moduli (GPa) = 86.12292 16.74185 124.10024
#
# Poissons Ratio (x) = 0.08592 0.55791
# Poissons Ratio (y) = 0.44201 0.23135
# Poissons Ratio (z) = 0.38718 0.03121
#
# Static dielectric constant tensor:
#      x y z
#    x 1.717450 0.000000 0.000000 
#    y 0.000000 1.729370 0.000000 
#    z 0.000000 0.000000 1.704690 
# 
# From -- ./inp_files/33534.got.cif
#   From: 2010.05.17/outbox.cif.g08.bks.cpg/sg51_17_cif.got.tgz:33534.got - 2010.06.03 11:52:47.
