data_PCOD9404804
_publ_section_title
;
Structure prediction by ZEFSAII (Michael W. Deem and Ramdas Pophale) SiO2 
 PCOD9404804
Probable space group: P M M A
;
_chemical_formula_sum "Si O2"
_cell_formula_units_Z 64
_cell_length_a 19.141905
_cell_length_b 9.474039
_cell_length_c 20.744669
_cell_angle_alpha 90.000000
_cell_angle_beta 90.000000
_cell_angle_gamma 90.000000
_cell_volume 3762.069673
_symmetry_space_group_name_H-M "P M M A"
_symmetry_group_IT_number 51
_symmetry_cell_setting 'orthorhombic'
loop_
_space_group_symop_operation_xyz
x,y,z
1/2-x,-y,z
1/2+x,-y,-z
-x,y,-z
-x,-y,-z
1/2+x,y,-z
1/2-x,y,z
x,-y,z
loop_
_atom_site_type_symbol
_atom_site_label
_atom_site_fract_x
_atom_site_fract_y
_atom_site_fract_z
Si Si1 0.077009 0.668049 0.472435
Si Si2 0.833436 0.668402 0.184936
Si Si3 0.415743 0.169129 0.704545
Si Si4 0.668399 0.667163 0.788589
Si Si5 0.164821 0.838198 0.084689
Si Si6 0.334989 0.661791 0.961759
Si Si7 0.831141 0.831758 0.426802
Si Si8 0.058015 0.668342 0.322995
O O1 0.087499 0.500000 0.480108
O O2 0.133006 0.750922 0.514488
O O3 0.078698 0.701278 0.396613
O O4 0.000000 0.702058 0.500000
O O5 0.750000 0.692714 0.191387
O O6 0.845019 0.500000 0.194341
O O7 0.875354 0.759932 0.236042
O O8 0.854513 0.702621 0.111101
O O9 0.372356 0.199328 0.639164
O O10 0.490989 0.241047 0.696576
O O11 0.420722 0.000000 0.712021
O O12 0.750000 0.700206 0.775884
O O13 0.664257 0.500000 0.803158
O O14 0.644531 0.753707 0.851167
O O15 0.620645 0.695368 0.726810
O O16 0.250000 0.836203 0.083487
O O17 0.142201 0.000000 0.087189
O O18 0.140866 0.761604 0.019368
O O19 0.250000 0.662118 0.962440
O O20 0.356812 0.500000 0.973406
O O21 0.750000 0.793357 0.419924
O O22 0.835667 0.000000 0.437573
O O23 0.041359 0.500000 0.320597
#
# Coordination Sequence:
#
# PCOD9404804 Si02
#       8
#     8   8   8   8   8   8   8   8
#     4  10  20  36  58  82 106 134 174 223 269 313
#     4   9  18  32  51  76 106 140 179 223 266 308
#     4  11  22  35  53  76 107 145 181 217 260 312
#     4   9  18  33  53  76 102 134 171 214 264 316
#     4   9  16  26  44  72 104 135 168 211 260 310
#     4   8  14  26  45  70 100 135 174 213 257 311
#     4  10  22  38  55  79 110 143 179 217 261 316
#     4  10  21  37  57  79 105 137 176 217 261 319
#
# _framework density 17.011913
#
# number of rings (size 3 to 8) (size 9 to 14) (size 15 to 20)
#    0.000    2.500    1.250    1.875    0.000    5.250 
#    0.000    2.500    0.000    2.250    0.000    5.250 
#    0.000    0.000    0.000    0.000    0.000    0.000 
#
# Total GULP energy -356937.167394 kJ/mol
# GULP energy per Si atom -5577.143241 kJ/mol
# Density = 1.697319 g / cm^3
# Si number density = 17.011913 Si / 1000 Ang^3
#
#
#
# Elastic Constant Matrix: (Units=GPa)
#
#
# Indices 1 2 3 4 5 6 
#
# 1 78.2804 57.0142 70.5218 0.0000 0.0000 0.0000
# 2 57.0142 72.6138 95.2795 0.0000 0.0000 0.0000
# 3 70.5218 95.2795 179.1714 0.0000 0.0000 0.0000
# 4 0.0000 0.0000 0.0000 18.8514 0.0000 0.0000
# 5 0.0000 0.0000 0.0000 0.0000 1.6538 0.0000
# 6 0.0000 0.0000 0.0000 0.0000 0.0000 23.0819
#
#
#
# Elastic Compliance Matrix: (Units=1/GPa)
#
#
# Indices 1 2 3 4 5 6 
#
# 1 0.030143 -0.026800 0.002387 0.000000 0.000000 0.000000
# 2 -0.026800 0.069394 -0.026354 0.000000 0.000000 0.000000
# 3 0.002387 -0.026354 0.018656 0.000000 0.000000 0.000000
# 4 0.000000 0.000000 0.000000 0.053047 0.000000 0.000000
# 5 0.000000 0.000000 0.000000 0.000000 0.604670 0.000000
# 6 0.000000 0.000000 0.000000 0.000000 0.000000 0.043324
#
#
# Mechanical properties :
#
#
# Convention : Reuss Voigt Hill
#
# Bulk Modulus (GPa) = 60.02353 86.18853 73.10603
# Shear Modulus (GPa) = 5.39770 15.86742 10.63256
#
# Velocity S-wave (km/s) = 1.78320 3.05737 2.50273
# Velocity P-wave (km/s) = 6.29282 7.95217 7.17065
#
# Compressibility (1/GPa) = 0.01666013
#
# Stress axis : x y z
#
# Youngs Moduli (GPa) = 33.17486 14.41052 53.60259
#
# Poissons Ratio (x) = 0.38620 -0.12797
# Poissons Ratio (y) = 0.88909 1.41262
# Poissons Ratio (z) = -0.07920 0.37977
#
# Static dielectric constant tensor:
#      x y z
#    x 1.557440 0.000000 0.000000 
#    y 0.000000 1.565360 0.000000 
#    z 0.000000 0.000000 1.560180 
# 
# From -- ./inp_files/33854.got.cif
#   From: 2010.05.17/outbox.cif.g08.bks.cpg/sg51_17_cif.got.tgz:33854.got - 2010.06.03 11:52:47.
