data_PCOD9404841
_publ_section_title
;
Structure prediction by ZEFSAII (Michael W. Deem and Ramdas Pophale) SiO2 
 PCOD9404841
Probable space group: P M M A
;
_chemical_formula_sum "Si O2"
_cell_formula_units_Z 48
_cell_length_a 14.278036
_cell_length_b 12.337713
_cell_length_c 14.283376
_cell_angle_alpha 90.000000
_cell_angle_beta 90.000000
_cell_angle_gamma 90.000000
_cell_volume 2516.135383
_symmetry_space_group_name_H-M "P M M A"
_symmetry_group_IT_number 51
_symmetry_cell_setting 'orthorhombic'
loop_
_space_group_symop_operation_xyz
x,y,z
1/2-x,-y,z
1/2+x,-y,-z
-x,y,-z
-x,-y,-z
1/2+x,y,-z
1/2-x,y,z
x,-y,z
loop_
_atom_site_type_symbol
_atom_site_label
_atom_site_fract_x
_atom_site_fract_y
_atom_site_fract_z
Si Si1 0.642202 0.681960 0.633896
Si Si2 0.638335 0.000000 0.160480
Si Si3 0.136957 0.760044 0.569075
Si Si4 0.644578 0.122937 0.768742
Si Si5 0.977570 0.791220 0.106745
Si Si6 0.136411 0.000000 0.616999
Si Si7 0.457027 0.376806 0.733494
O O1 0.750000 0.641361 0.639781
O O2 0.613242 0.696775 0.526332
O O3 0.641733 0.802250 0.677841
O O4 0.564602 0.621999 0.695663
O O5 0.595076 0.108985 0.116135
O O6 0.750000 0.000000 0.151417
O O7 0.614845 0.000000 0.271800
O O8 0.250000 0.762424 0.573633
O O9 0.097311 0.694932 0.657024
O O10 0.103707 0.885478 0.573801
O O11 0.750000 0.129150 0.807055
O O12 0.571216 0.164648 0.843523
O O13 0.623753 0.000000 0.743382
O O14 0.949160 0.687686 0.168993
O O15 0.000000 0.764855 0.000000
O O16 0.250000 0.000000 0.608712
O O17 0.423073 0.500000 0.738951
#
# Coordination Sequence:
#
# PCOD9404841 Si02
#       7
#     8   4   8   8   8   4   8
#     4   9  20  36  56  84 116 153 192 232 280 334
#     4  11  21  37  61  88 121 153 178 224 289 354
#     4  10  20  36  58  88 121 155 190 229 282 342
#     4   9  18  33  54  83 119 152 184 226 276 334
#     4  11  23  40  59  85 114 146 190 236 288 352
#     4   9  18  33  55  83 119 154 182 216 274 344
#     4  11  24  41  59  80 111 151 199 248 286 327
#
# _framework density 19.076875000000001
#
# number of rings (size 3 to 8) (size 9 to 14) (size 15 to 20)
#    0.000    2.000    2.500    0.750    1.167    3.000 
#    0.000    2.500    0.000    0.000    0.000    4.667 
#    0.000    0.000    0.000    0.000    0.000    0.000 
#
# Total GULP energy -267929.784458 kJ/mol
# GULP energy per Si atom -5581.870510 kJ/mol
# Density = 1.903346 g / cm^3
# Si number density = 19.076875 Si / 1000 Ang^3
#
#
#
# Elastic Constant Matrix: (Units=GPa)
#
#
# Indices 1 2 3 4 5 6 
#
# 1 50.1749 10.5013 20.3857 0.0000 0.0000 0.0000
# 2 10.5013 112.7754 20.1800 0.0000 0.0000 0.0000
# 3 20.3857 20.1800 97.5398 0.0000 0.0000 0.0000
# 4 0.0000 0.0000 0.0000 -8.6287 0.0000 0.0000
# 5 0.0000 0.0000 0.0000 0.0000 17.2095 0.0000
# 6 0.0000 0.0000 0.0000 0.0000 0.0000 0.6782
#
#
#
# Elastic Compliance Matrix: (Units=1/GPa)
#
#
# Indices 1 2 3 4 5 6 
#
# 1 0.021954 -0.001270 -0.004325 0.000000 0.000000 0.000000
# 2 -0.001270 0.009282 -0.001655 0.000000 0.000000 0.000000
# 3 -0.004325 -0.001655 0.011499 0.000000 0.000000 0.000000
# 4 0.000000 0.000000 0.000000 -0.115892 0.000000 0.000000
# 5 0.000000 0.000000 0.000000 0.000000 0.058107 0.000000
# 6 0.000000 0.000000 0.000000 0.000000 0.000000 1.474421
#
#
# Mechanical properties :
#
#
# Convention : Reuss Voigt Hill
#
# Bulk Modulus (GPa) = 35.41987 40.29156 37.85571
# Shear Modulus (GPa) = 3.37090 15.81334 9.59212
#
# Velocity S-wave (km/s) = 1.33073 2.88223 2.24478
# Velocity P-wave (km/s) = 4.57912 5.67828 5.15806
#
# Compressibility (1/GPa) = 0.02823274
#
# Stress axis : x y z
#
# Youngs Moduli (GPa) = 45.55071 107.74039 86.96717
#
# Poissons Ratio (x) = 0.13686 0.37617
# Poissons Ratio (y) = 0.05786 0.14391
# Poissons Ratio (z) = 0.19703 0.17829
#
# Static dielectric constant tensor:
#      x y z
#    x 1.710140 0.000000 0.000000 
#    y 0.000000 1.656480 0.000000 
#    z 0.000000 0.000000 1.276450 
# 
# From -- ./inp_files/24093.got.cif
#   From: 2010.05.17/outbox.cif.g08.bks.cpg/sg51_13_cif.got.tgz:24093.got - 2010.06.03 11:52:47.
