data_PCOD9404130
_publ_section_title
;
Structure prediction by ZEFSAII (Michael W. Deem and Ramdas Pophale) SiO2 
 PCOD9404130
Probable space group: P M M A
;
_chemical_formula_sum "Si O2"
_cell_formula_units_Z 40
_cell_length_a 14.479436
_cell_length_b 9.343753
_cell_length_c 15.010465
_cell_angle_alpha 90.000000
_cell_angle_beta 90.000000
_cell_angle_gamma 90.000000
_cell_volume 2030.799937
_symmetry_space_group_name_H-M "P M M A"
_symmetry_group_IT_number 51
_symmetry_cell_setting 'orthorhombic'
loop_
_space_group_symop_operation_xyz
x,y,z
1/2-x,-y,z
1/2+x,-y,-z
-x,y,-z
-x,-y,-z
1/2+x,y,-z
1/2-x,y,z
x,-y,z
loop_
_atom_site_type_symbol
_atom_site_label
_atom_site_fract_x
_atom_site_fract_y
_atom_site_fract_z
Si Si1 0.389500 0.166206 0.505904
Si Si2 0.250000 0.825169 0.866066
Si Si3 0.389346 0.331797 0.995459
Si Si4 0.750000 0.828009 0.341161
Si Si5 0.642324 0.658405 0.668746
Si Si6 0.641968 0.158472 0.826777
O O1 0.500000 0.171878 0.500000
O O2 0.339710 0.209977 0.598304
O O3 0.358168 0.268013 0.426731
O O4 0.362766 0.000000 0.489131
O O5 0.161678 0.757185 0.917593
O O6 0.250000 0.780809 0.761685
O O7 0.250000 0.000000 0.873910
O O8 0.364438 0.500000 0.989764
O O9 0.500000 0.321976 0.000000
O O10 0.360431 0.259576 0.088037
O O11 0.750000 0.000000 0.335057
O O12 0.750000 0.642376 0.693576
O O13 0.600362 0.500000 0.667616
O O14 0.597803 0.762098 0.742249
O O15 0.750000 0.138368 0.806243
O O16 0.602098 0.000000 0.843481
#
# Coordination Sequence:
#
# PCOD9404130 Si02
#       6
#     8   4   8   4   8   8
#     4  10  20  36  60  87 116 156 205 254 306 362
#     4  11  23  41  64  89 122 171 219 262 316 375
#     4  11  24  41  62  90 125 163 204 257 320 379
#     4   9  20  39  60  85 122 161 203 258 310 361
#     4  10  20  34  55  84 117 152 188 235 298 361
#     4  10  20  35  59  88 115 150 195 244 299 358
#
# _framework density 19.696673000000001
#
# number of rings (size 3 to 8) (size 9 to 14) (size 15 to 20)
#    0.000    1.800    2.000    2.100    0.000    5.200 
#    0.000    4.000    0.000    0.000    0.000    0.000 
#    0.000    0.000    0.000    0.000    0.000    0.000 
#
# Total GULP energy -222899.913059 kJ/mol
# GULP energy per Si atom -5572.497826 kJ/mol
# Density = 1.965184 g / cm^3
# Si number density = 19.696673 Si / 1000 Ang^3
#
#
#
# Elastic Constant Matrix: (Units=GPa)
#
#
# Indices 1 2 3 4 5 6 
#
# 1 81.8647 34.5401 33.7668 0.0000 0.0000 0.0000
# 2 34.5401 141.5823 74.4059 0.0000 0.0000 0.0000
# 3 33.7668 74.4059 170.8704 0.0000 0.0000 0.0000
# 4 0.0000 0.0000 0.0000 37.6251 0.0000 0.0000
# 5 0.0000 0.0000 0.0000 0.0000 -12.9841 0.0000
# 6 0.0000 0.0000 0.0000 0.0000 0.0000 18.8942
#
#
#
# Elastic Compliance Matrix: (Units=1/GPa)
#
#
# Indices 1 2 3 4 5 6 
#
# 1 0.013969 -0.002538 -0.001655 0.000000 0.000000 0.000000
# 2 -0.002538 0.009620 -0.003688 0.000000 0.000000 0.000000
# 3 -0.001655 -0.003688 0.007785 0.000000 0.000000 0.000000
# 4 0.000000 0.000000 0.000000 0.026578 0.000000 0.000000
# 5 0.000000 0.000000 0.000000 0.000000 -0.077017 0.000000
# 6 0.000000 0.000000 0.000000 0.000000 0.000000 0.052926
#
#
# Mechanical properties :
#
#
# Convention : Reuss Voigt Hill
#
# Bulk Modulus (GPa) = 64.05071 75.52700 69.78886
# Shear Modulus (GPa) = 91.19599 25.48067 58.33833
#
# Velocity S-wave (km/s) = 6.81181 3.60064 5.44818
# Velocity P-wave (km/s) = 9.71889 7.46421 8.66520
#
# Compressibility (1/GPa) = 0.01561263
#
# Stress axis : x y z
#
# Youngs Moduli (GPa) = 71.58790 103.94911 128.44761
#
# Poissons Ratio (x) = 0.26381 0.21263
# Poissons Ratio (y) = 0.18168 0.47366
# Poissons Ratio (z) = 0.11850 0.38332
#
# Static dielectric constant tensor:
#      x y z
#    x 1.727010 0.000000 0.000000 
#    y 0.000000 1.733960 0.000000 
#    z 0.000000 0.000000 1.667230 
# 
# From -- ./inp_files/23753.got.cif
#   From: 2010.05.17/outbox.cif.g08.bks.cpg/sg51_12_cif.got.tgz:23753.got - 2010.06.03 11:52:47.
