data_PCOD9404228
_publ_section_title
;
Structure prediction by ZEFSAII (Michael W. Deem and Ramdas Pophale) SiO2 
 PCOD9404228
Probable space group: P M M A
;
_chemical_formula_sum "Si O2"
_cell_formula_units_Z 48
_cell_length_a 21.086034
_cell_length_b 8.289615
_cell_length_c 15.311425
_cell_angle_alpha 90.000000
_cell_angle_beta 90.000000
_cell_angle_gamma 90.000000
_cell_volume 2676.362121
_symmetry_space_group_name_H-M "P M M A"
_symmetry_group_IT_number 51
_symmetry_cell_setting 'orthorhombic'
loop_
_space_group_symop_operation_xyz
x,y,z
1/2-x,-y,z
1/2+x,-y,-z
-x,y,-z
-x,-y,-z
1/2+x,y,-z
1/2-x,y,z
x,-y,z
loop_
_atom_site_type_symbol
_atom_site_label
_atom_site_fract_x
_atom_site_fract_y
_atom_site_fract_z
Si Si1 0.944377 0.687581 0.060917
Si Si2 0.851511 0.191395 0.773933
Si Si3 0.681158 0.192445 0.975244
Si Si4 0.421202 0.500000 0.496500
Si Si5 0.820666 0.500000 0.656654
Si Si6 0.503172 0.185964 0.235520
Si Si7 0.943630 0.820902 0.428370
O O1 0.940832 0.500000 0.039473
O O2 0.963975 0.710219 0.160960
O O3 0.876722 0.756569 0.035261
O O4 0.000000 0.761689 0.000000
O O5 0.832190 0.229245 0.873490
O O6 0.824906 0.334017 0.713035
O O7 0.927604 0.203872 0.767537
O O8 0.834887 0.000000 0.755290
O O9 0.750000 0.260115 0.000154
O O10 0.684016 0.000000 0.979675
O O11 0.500000 0.500000 0.500000
O O12 0.382763 0.500000 0.405923
O O13 0.403012 0.332963 0.543548
O O14 0.750000 0.500000 0.614395
O O15 0.526905 0.214595 0.333593
O O16 0.517885 0.000000 0.213859
O O17 0.000000 0.831255 0.500000
O O18 0.913652 0.000000 0.426535
#
# Coordination Sequence:
#
# PCOD9404228 Si02
#       7
#     8   8   8   4   4   8   8
#     4  11  23  35  52  85 120 154 198 248 296 354
#     4  10  21  37  58  85 120 160 196 234 291 360
#     4  10  21  37  56  77 111 160 203 243 297 358
#     4  10  20  36  58  81 109 153 186 235 288 337
#     4  12  26  38  58  90 124 157 195 242 296 363
#     4  10  20  34  59  87 117 154 191 243 298 350
#     4   9  18  33  54  86 115 142 186 235 287 342
#
# _framework density 17.934792999999999
#
# number of rings (size 3 to 8) (size 9 to 14) (size 15 to 20)
#    0.000    1.833    1.667    3.000    3.500    4.000 
#    0.000    0.000    0.000    1.000    0.000    2.333 
#    0.000    0.000    0.000    0.000    0.000    0.000 
#
# Total GULP energy -267468.256871 kJ/mol
# GULP energy per Si atom -5572.255351 kJ/mol
# Density = 1.789397 g / cm^3
# Si number density = 17.934793 Si / 1000 Ang^3
#
#
#
# Elastic Constant Matrix: (Units=GPa)
#
#
# Indices 1 2 3 4 5 6 
#
# 1 80.2558 30.7089 36.2329 0.0000 0.0000 0.0000
# 2 30.7089 73.3460 25.9687 0.0000 0.0000 0.0000
# 3 36.2329 25.9687 71.9609 0.0000 0.0000 0.0000
# 4 0.0000 0.0000 0.0000 33.3689 0.0000 0.0000
# 5 0.0000 0.0000 0.0000 0.0000 -7.7256 0.0000
# 6 0.0000 0.0000 0.0000 0.0000 0.0000 -43.3637
#
#
#
# Elastic Compliance Matrix: (Units=1/GPa)
#
#
# Indices 1 2 3 4 5 6 
#
# 1 0.017497 -0.004823 -0.007070 0.000000 0.000000 0.000000
# 2 -0.004823 0.016961 -0.003692 0.000000 0.000000 0.000000
# 3 -0.007070 -0.003692 0.018788 0.000000 0.000000 0.000000
# 4 0.000000 0.000000 0.000000 0.029968 0.000000 0.000000
# 5 0.000000 0.000000 0.000000 0.000000 -0.129441 0.000000
# 6 0.000000 0.000000 0.000000 0.000000 0.000000 -0.023061
#
#
# Mechanical properties :
#
#
# Convention : Reuss Voigt Hill
#
# Bulk Modulus (GPa) = 45.29618 45.70931 45.50275
# Shear Modulus (GPa) = -162.55525 5.29940 -78.62792
#
# Velocity S-wave (km/s) = -9.53067 1.72082 -6.62844
# Velocity P-wave (km/s) = 9.78778 5.43047 5.75806
#
# Compressibility (1/GPa) = 0.02207692
#
# Stress axis : x y z
#
# Youngs Moduli (GPa) = 57.15192 58.96047 53.22411
#
# Poissons Ratio (x) = 0.28435 0.37627
# Poissons Ratio (y) = 0.27563 0.19652
# Poissons Ratio (z) = 0.40404 0.21770
#
# Static dielectric constant tensor:
#      x y z
#    x 1.616100 0.000000 0.000000 
#    y 0.000000 1.663850 0.000000 
#    z 0.000000 0.000000 1.600700 
# 
# From -- ./inp_files/24908.got.cif
#   From: 2010.05.17/outbox.cif.g08.bks.cpg/sg51_13_cif.got.tgz:24908.got - 2010.06.03 11:52:47.
