data_PCOD9404701
_publ_section_title
;
Structure prediction by ZEFSAII (Michael W. Deem and Ramdas Pophale) SiO2 
 PCOD9404701
Probable space group: P M M A
;
_chemical_formula_sum "Si O2"
_cell_formula_units_Z 52
_cell_length_a 10.566892
_cell_length_b 20.152584
_cell_length_c 12.761925
_cell_angle_alpha 90.000000
_cell_angle_beta 90.000000
_cell_angle_gamma 90.000000
_cell_volume 2717.654209
_symmetry_space_group_name_H-M "P M M A"
_symmetry_group_IT_number 51
_symmetry_cell_setting 'orthorhombic'
loop_
_space_group_symop_operation_xyz
x,y,z
1/2-x,-y,z
1/2+x,-y,-z
-x,y,-z
-x,-y,-z
1/2+x,y,-z
1/2-x,y,z
x,-y,z
loop_
_atom_site_type_symbol
_atom_site_label
_atom_site_fract_x
_atom_site_fract_y
_atom_site_fract_z
Si Si1 0.607798 0.578511 0.083322
Si Si2 0.402881 0.928127 0.176644
Si Si3 0.101841 0.115907 0.410646
Si Si4 0.384666 0.500000 0.575577
Si Si5 0.601048 0.213027 0.914980
Si Si6 0.110401 0.639186 0.692739
Si Si7 0.391351 0.264190 0.323322
O O1 0.750000 0.587946 0.040290
O O2 0.598081 0.500000 0.113015
O O3 0.593704 0.624580 0.184159
O O4 0.500000 0.592144 0.000000
O O5 0.250000 0.928385 0.171550
O O6 0.431957 0.918227 0.299791
O O7 0.439337 0.862972 0.112272
O O8 0.450649 0.000000 0.140634
O O9 0.250000 0.100126 0.436133
O O10 0.096794 0.194588 0.384026
O O11 0.000000 0.099695 0.500000
O O12 0.250000 0.500000 0.518021
O O13 0.500000 0.500000 0.500000
O O14 0.390482 0.433630 0.643241
O O15 0.750000 0.215040 0.949211
O O16 0.597136 0.248328 0.801306
O O17 0.500000 0.238702 0.000000
O O18 0.250000 0.668913 0.675396
O O19 0.000677 0.684917 0.648770
O O20 0.250000 0.290743 0.342429
#
# Coordination Sequence:
#
# PCOD9404701 Si02
#       7
#     8   8   8   4   8   8   8
#     4   9  17  31  50  72  98 126 154 189 236 290
#     4   8  15  30  51  74 102 137 172 204 247 302
#     4   9  18  33  52  73  99 131 166 208 254 299
#     4  10  22  40  57  76 102 130 163 206 255 306
#     4   9  18  33  52  74 103 138 173 210 248 290
#     4  10  20  36  56  75 100 132 164 204 254 300
#     4   9  20  36  51  71 101 134 169 206 247 300
#
# _framework density 19.134149000000001
#
# number of rings (size 3 to 8) (size 9 to 14) (size 15 to 20)
#    0.000    2.923    0.769    1.846    0.000    4.308 
#    0.000    8.462    0.000    0.923    0.000    0.000 
#    0.000    0.000    0.000    0.000    0.000    0.000 
#
# Total GULP energy -289915.441145 kJ/mol
# GULP energy per Si atom -5575.296945 kJ/mol
# Density = 1.909060 g / cm^3
# Si number density = 19.134149 Si / 1000 Ang^3
#
#
#
# Elastic Constant Matrix: (Units=GPa)
#
#
# Indices 1 2 3 4 5 6 
#
# 1 93.7354 24.9757 27.4024 0.0000 0.0000 0.0000
# 2 24.9757 53.7614 -17.8462 0.0000 0.0000 0.0000
# 3 27.4024 -17.8462 38.9810 0.0000 0.0000 0.0000
# 4 0.0000 0.0000 0.0000 -1.4224 0.0000 0.0000
# 5 0.0000 0.0000 0.0000 0.0000 27.8478 0.0000
# 6 0.0000 0.0000 0.0000 0.0000 0.0000 12.9474
#
#
#
# Elastic Compliance Matrix: (Units=1/GPa)
#
#
# Indices 1 2 3 4 5 6 
#
# 1 0.022940 -0.018879 -0.024769 0.000000 0.000000 0.000000
# 2 -0.018879 0.037471 0.030427 0.000000 0.000000 0.000000
# 3 -0.024769 0.030427 0.056995 0.000000 0.000000 0.000000
# 4 0.000000 0.000000 0.000000 -0.703023 0.000000 0.000000
# 5 0.000000 0.000000 0.000000 0.000000 0.035909 0.000000
# 6 0.000000 0.000000 0.000000 0.000000 0.000000 0.077236
#
#
# Mechanical properties :
#
#
# Convention : Reuss Voigt Hill
#
# Bulk Modulus (GPa) = 10.99346 28.39351 19.69349
# Shear Modulus (GPa) = -12.02768 18.00429 2.98831
#
# Velocity S-wave (km/s) = -2.50990 3.07082 1.25106
# Velocity P-wave (km/s) = 1.62529 5.23876 3.52158
#
# Compressibility (1/GPa) = 0.09096313
#
# Stress axis : x y z
#
# Youngs Moduli (GPa) = 43.59285 26.68702 17.54533
#
# Poissons Ratio (x) = 0.50383 0.43458
# Poissons Ratio (y) = 0.82299 -0.53384
# Poissons Ratio (z) = 1.07975 -0.81199
#
# Static dielectric constant tensor:
#      x y z
#    x 1.652460 0.000000 0.000000 
#    y 0.000000 1.719900 0.000000 
#    z 0.000000 0.000000 1.663260 
# 
# From -- ./inp_files/21570.got.cif
#   From: 2010.05.17/outbox.cif.g08.bks.cpg/sg51_11_cif.got.tgz:21570.got - 2010.06.03 11:52:47.
