data_PCOD9404450
_publ_section_title
;
Structure prediction by ZEFSAII (Michael W. Deem and Ramdas Pophale) SiO2 
 PCOD9404450
Probable space group: P M M A
;
_chemical_formula_sum "Si O2"
_cell_formula_units_Z 64
_cell_length_a 21.394072
_cell_length_b 8.907382
_cell_length_c 16.880643
_cell_angle_alpha 90.000000
_cell_angle_beta 90.000000
_cell_angle_gamma 90.000000
_cell_volume 3216.862634
_symmetry_space_group_name_H-M "P M M A"
_symmetry_group_IT_number 51
_symmetry_cell_setting 'orthorhombic'
loop_
_space_group_symop_operation_xyz
x,y,z
1/2-x,-y,z
1/2+x,-y,-z
-x,y,-z
-x,-y,-z
1/2+x,y,-z
1/2-x,y,z
x,-y,z
loop_
_atom_site_type_symbol
_atom_site_label
_atom_site_fract_x
_atom_site_fract_y
_atom_site_fract_z
Si Si1 0.093570 0.823171 0.317287
Si Si2 0.081999 0.325453 0.058994
Si Si3 0.853233 0.179639 0.220530
Si Si4 0.427645 0.679552 0.485983
Si Si5 0.678636 0.670896 0.795889
Si Si6 0.503520 0.821205 0.180252
Si Si7 0.321394 0.181295 0.598474
Si Si8 0.317712 0.319029 0.939682
O O1 0.088987 0.733023 0.397933
O O2 0.157019 0.785640 0.270984
O O3 0.040440 0.774755 0.254023
O O4 0.086852 0.000000 0.332710
O O5 0.067554 0.500000 0.044309
O O6 0.134234 0.316299 0.128291
O O7 0.021683 0.250182 0.098739
O O8 0.120318 0.260192 0.984557
O O9 0.926224 0.212956 0.205402
O O10 0.832684 0.220380 0.309124
O O11 0.819297 0.266290 0.150491
O O12 0.843449 0.000000 0.211760
O O13 0.500000 0.727367 0.500000
O O14 0.425134 0.500000 0.492788
O O15 0.376708 0.749234 0.545877
O O16 0.750000 0.691929 0.818978
O O17 0.671098 0.500000 0.765258
O O18 0.496999 0.000000 0.172011
O O19 0.250000 0.225188 0.576007
O O20 0.325335 0.000000 0.592255
O O21 0.250000 0.272747 0.974265
O O22 0.320487 0.500000 0.944916
#
# Coordination Sequence:
#
# PCOD9404450 Si02
#       8
#     8   8   8   8   8   8   8   8
#     4  10  20  35  56  80 107 140 178 220 268 324
#     4   9  18  33  53  77 107 144 184 225 270 323
#     4  10  21  38  59  81 108 143 183 228 279 334
#     4  11  24  40  60  87 116 147 186 232 283 340
#     4   9  17  31  52  76 105 142 179 217 265 319
#     4   9  19  35  55  81 111 143 180 224 274 326
#     4  10  22  41  64  88 115 151 195 240 288 343
#     4  10  21  36  54  78 108 142 183 229 275 326
#
# _framework density 19.895161000000002
#
# number of rings (size 3 to 8) (size 9 to 14) (size 15 to 20)
#    0.000    2.250    0.000    2.250    0.000    7.750 
#    0.000    2.500    0.000    2.250    0.000    0.000 
#    0.000    0.000    0.000    0.000    0.000    0.000 
#
# Total GULP energy -357164.749075 kJ/mol
# GULP energy per Si atom -5580.699204 kJ/mol
# Density = 1.984988 g / cm^3
# Si number density = 19.895161 Si / 1000 Ang^3
#
#
#
# Elastic Constant Matrix: (Units=GPa)
#
#
# Indices 1 2 3 4 5 6 
#
# 1 115.5164 31.9667 45.6968 0.0000 0.0000 0.0000
# 2 31.9667 15.1278 23.3363 0.0000 0.0000 0.0000
# 3 45.6968 23.3363 98.1215 0.0000 0.0000 0.0000
# 4 0.0000 0.0000 0.0000 30.0070 0.0000 0.0000
# 5 0.0000 0.0000 0.0000 0.0000 21.5987 0.0000
# 6 0.0000 0.0000 0.0000 0.0000 0.0000 21.9479
#
#
#
# Elastic Compliance Matrix: (Units=1/GPa)
#
#
# Indices 1 2 3 4 5 6 
#
# 1 0.020939 -0.046127 0.001219 0.000000 0.000000 0.000000
# 2 -0.046127 0.206021 -0.027516 0.000000 0.000000 0.000000
# 3 0.001219 -0.027516 0.016168 0.000000 0.000000 0.000000
# 4 0.000000 0.000000 0.000000 0.033326 0.000000 0.000000
# 5 0.000000 0.000000 0.000000 0.000000 0.046299 0.000000
# 6 0.000000 0.000000 0.000000 0.000000 0.000000 0.045562
#
#
# Mechanical properties :
#
#
# Convention : Reuss Voigt Hill
#
# Bulk Modulus (GPa) = 10.17504 47.86282 29.01893
# Shear Modulus (GPa) = 9.15878 23.22845 16.19361
#
# Velocity S-wave (km/s) = 2.14791 3.42064 2.85607
# Velocity P-wave (km/s) = 3.35809 6.30165 5.04914
#
# Compressibility (1/GPa) = 0.09827968
#
# Stress axis : x y z
#
# Youngs Moduli (GPa) = 47.75698 4.85388 61.85019
#
# Poissons Ratio (x) = 0.22389 -0.07537
# Poissons Ratio (y) = 2.20288 1.70187
# Poissons Ratio (z) = -0.05820 0.13356
#
# Static dielectric constant tensor:
#      x y z
#    x 1.772310 0.000000 0.000000 
#    y 0.000000 1.676730 0.000000 
#    z 0.000000 0.000000 1.681230 
# 
# From -- ./inp_files/30550.got.cif
#   From: 2010.05.17/outbox.cif.g08.bks.cpg/sg51_16_cif.got.tgz:30550.got - 2010.06.03 11:52:47.
