data_PCOD9404787
_publ_section_title
;
Structure prediction by ZEFSAII (Michael W. Deem and Ramdas Pophale) SiO2 
 PCOD9404787
Probable space group: P M M A
;
_chemical_formula_sum "Si O2"
_cell_formula_units_Z 32
_cell_length_a 8.621743
_cell_length_b 13.341963
_cell_length_c 14.388527
_cell_angle_alpha 90.000000
_cell_angle_beta 90.000000
_cell_angle_gamma 90.000000
_cell_volume 1655.126305
_symmetry_space_group_name_H-M "P M M A"
_symmetry_group_IT_number 51
_symmetry_cell_setting 'orthorhombic'
loop_
_space_group_symop_operation_xyz
x,y,z
1/2-x,-y,z
1/2+x,-y,-z
-x,y,-z
-x,-y,-z
1/2+x,y,-z
1/2-x,y,z
x,-y,z
loop_
_atom_site_type_symbol
_atom_site_label
_atom_site_fract_x
_atom_site_fract_y
_atom_site_fract_z
Si Si1 0.936839 0.000000 0.604803
Si Si2 0.064315 0.302166 0.784018
Si Si3 0.436166 0.778471 0.395664
Si Si4 0.063642 0.112378 0.104992
Si Si5 0.437410 0.500000 0.895711
O O1 0.984718 0.109462 0.640330
O O2 0.000000 0.000000 0.500000
O O3 0.750000 0.000000 0.606023
O O4 0.250000 0.300664 0.781608
O O5 0.013116 0.400419 0.840518
O O6 0.000445 0.298595 0.679367
O O7 0.004243 0.203455 0.836686
O O8 0.500000 0.765384 0.500000
O O9 0.250000 0.775007 0.398390
O O10 0.250000 0.119693 0.104514
O O11 0.023576 0.000000 0.140346
O O12 0.000000 0.119265 0.000000
O O13 0.250000 0.500000 0.899384
O O14 0.500000 0.500000 0.000000
#
# Coordination Sequence:
#
# PCOD9404787 Si02
#       5
#     4   8   8   8   4
#     4   8  16  30  50  76 111 150 189 230 278 332
#     4  11  23  39  60  87 117 154 199 245 296 353
#     4  10  20  36  57  85 120 159 199 244 293 347
#     4  10  21  37  57  84 119 154 190 237 294 356
#     4  10  24  44  65  88 117 150 195 250 300 352
#
# _framework density 19.333872
#
# number of rings (size 3 to 8) (size 9 to 14) (size 15 to 20)
#    0.000    2.000    0.000    3.000    1.750    6.500 
#    0.000    0.625    0.000    0.000    0.000    0.000 
#    0.000    0.000    0.000    0.000    0.000    0.000 
#
# Total GULP energy -178657.751600 kJ/mol
# GULP energy per Si atom -5583.054738 kJ/mol
# Density = 1.928987 g / cm^3
# Si number density = 19.333872 Si / 1000 Ang^3
#
#
#
# Elastic Constant Matrix: (Units=GPa)
#
#
# Indices 1 2 3 4 5 6 
#
# 1 49.3301 45.6265 38.9361 0.0000 0.0000 0.0000
# 2 45.6265 143.3401 100.2621 0.0000 0.0000 0.0000
# 3 38.9361 100.2621 143.1052 0.0000 0.0000 0.0000
# 4 0.0000 0.0000 0.0000 38.9437 0.0000 0.0000
# 5 0.0000 0.0000 0.0000 0.0000 33.9364 0.0000
# 6 0.0000 0.0000 0.0000 0.0000 0.0000 21.9303
#
#
#
# Elastic Compliance Matrix: (Units=1/GPa)
#
#
# Indices 1 2 3 4 5 6 
#
# 1 0.029299 -0.007354 -0.002819 0.000000 0.000000 0.000000
# 2 -0.007354 0.015527 -0.008877 0.000000 0.000000 0.000000
# 3 -0.002819 -0.008877 0.013975 0.000000 0.000000 0.000000
# 4 0.000000 0.000000 0.000000 0.025678 0.000000 0.000000
# 5 0.000000 0.000000 0.000000 0.000000 0.029467 0.000000
# 6 0.000000 0.000000 0.000000 0.000000 0.000000 0.045599
#
#
# Mechanical properties :
#
#
# Convention : Reuss Voigt Hill
#
# Bulk Modulus (GPa) = 48.31228 78.38054 63.34641
# Shear Modulus (GPa) = 24.44444 29.02546 26.73495
#
# Velocity S-wave (km/s) = 3.55960 3.87883 3.72264
# Velocity P-wave (km/s) = 6.47588 7.79031 7.16331
#
# Compressibility (1/GPa) = 0.02069867
#
# Stress axis : x y z
#
# Youngs Moduli (GPa) = 34.13108 64.40463 71.55828
#
# Poissons Ratio (x) = 0.47364 0.20174
# Poissons Ratio (y) = 0.25101 0.63526
# Poissons Ratio (z) = 0.09622 0.57175
#
# Static dielectric constant tensor:
#      x y z
#    x 1.653960 0.000000 0.000000 
#    y 0.000000 1.691800 0.000000 
#    z 0.000000 0.000000 1.679170 
# 
# From -- ./inp_files/20105.got.cif
#   From: 2010.05.17/outbox.cif.g08.bks.cpg/sg51_11_cif.got.tgz:20105.got - 2010.06.03 11:52:47.
