data_PCOD9404274
_publ_section_title
;
Structure prediction by ZEFSAII (Michael W. Deem and Ramdas Pophale) SiO2 
 PCOD9404274
Probable space group: P M M A
;
_chemical_formula_sum "Si O2"
_cell_formula_units_Z 56
_cell_length_a 22.802009
_cell_length_b 9.191976
_cell_length_c 14.972493
_cell_angle_alpha 90.000000
_cell_angle_beta 90.000000
_cell_angle_gamma 90.000000
_cell_volume 3138.167448
_symmetry_space_group_name_H-M "P M M A"
_symmetry_group_IT_number 51
_symmetry_cell_setting 'orthorhombic'
loop_
_space_group_symop_operation_xyz
x,y,z
1/2-x,-y,z
1/2+x,-y,-z
-x,y,-z
-x,-y,-z
1/2+x,y,-z
1/2-x,y,z
x,-y,z
loop_
_atom_site_type_symbol
_atom_site_label
_atom_site_fract_x
_atom_site_fract_y
_atom_site_fract_z
Si Si1 0.183574 0.326193 0.195851
Si Si2 0.587644 0.327108 0.291912
Si Si3 0.817509 0.328359 0.439170
Si Si4 0.488038 0.832275 0.394936
Si Si5 0.946058 0.826276 0.118904
Si Si6 0.151173 0.829210 0.377599
Si Si7 0.080014 0.825463 0.087067
O O1 0.250000 0.295844 0.163219
O O2 0.176089 0.500000 0.200271
O O3 0.177113 0.257688 0.294320
O O4 0.132886 0.255922 0.135261
O O5 0.589128 0.500000 0.282690
O O6 0.639094 0.282406 0.360060
O O7 0.527601 0.274692 0.337894
O O8 0.589696 0.253199 0.195580
O O9 0.750000 0.313488 0.411876
O O10 0.828695 0.500000 0.458122
O O11 0.828429 0.237757 0.528738
O O12 0.500000 0.808312 0.500000
O O13 0.419469 0.816166 0.375281
O O14 0.504830 0.000000 0.374534
O O15 0.015280 0.785953 0.124198
O O16 0.943162 0.000000 0.130920
O O17 0.923733 0.794755 0.018893
O O18 0.166125 0.000000 0.372018
O O19 0.086772 0.000000 0.098887
#
# Coordination Sequence:
#
# PCOD9404274 Si02
#       7
#     8   8   8   8   8   8   8
#     4  11  24  39  55  80 116 153 185 225 278 329
#     4  11  22  34  54  83 111 143 184 224 266 324
#     4  10  22  39  54  71 104 147 185 224 268 314
#     4  10  20  35  53  77 111 145 176 222 281 325
#     4   9  19  37  61  86 113 141 174 223 284 333
#     4  11  22  36  57  82 107 142 187 228 271 326
#     4   9  19  38  62  86 110 142 181 224 274 331
#
# _framework density 17.844808
#
# number of rings (size 3 to 8) (size 9 to 14) (size 15 to 20)
#    0.000    1.857    1.429    3.429    0.000    9.714 
#    0.000    2.143    0.000    2.571    0.000    0.000 
#    0.000    0.000    0.000    0.000    0.000    0.000 
#
# Total GULP energy -312808.536879 kJ/mol
# GULP energy per Si atom -5585.866730 kJ/mol
# Density = 1.780419 g / cm^3
# Si number density = 17.844808 Si / 1000 Ang^3
#
#
#
# Elastic Constant Matrix: (Units=GPa)
#
#
# Indices 1 2 3 4 5 6 
#
# 1 91.7872 50.6276 63.2913 0.0000 0.0000 0.0000
# 2 50.6276 56.4819 56.8282 0.0000 0.0000 0.0000
# 3 63.2913 56.8282 111.1908 0.0000 0.0000 0.0000
# 4 0.0000 0.0000 0.0000 -110.9016 0.0000 0.0000
# 5 0.0000 0.0000 0.0000 0.0000 15.0538 0.0000
# 6 0.0000 0.0000 0.0000 0.0000 0.0000 22.5603
#
#
#
# Elastic Compliance Matrix: (Units=1/GPa)
#
#
# Indices 1 2 3 4 5 6 
#
# 1 0.022945 -0.015287 -0.005248 0.000000 0.000000 0.000000
# 2 -0.015287 0.046631 -0.015131 0.000000 0.000000 0.000000
# 3 -0.005248 -0.015131 0.019714 0.000000 0.000000 0.000000
# 4 0.000000 0.000000 0.000000 -0.009017 0.000000 0.000000
# 5 0.000000 0.000000 0.000000 0.000000 0.066428 0.000000
# 6 0.000000 0.000000 0.000000 0.000000 0.000000 0.044326
#
#
# Mechanical properties :
#
#
# Convention : Reuss Voigt Hill
#
# Bulk Modulus (GPa) = 55.68328 66.77268 61.22798
# Shear Modulus (GPa) = 18.63272 -8.74330 4.94471
#
# Velocity S-wave (km/s) = 3.23484 -2.21591 1.66642
# Velocity P-wave (km/s) = 6.72489 5.56352 6.17159
#
# Compressibility (1/GPa) = 0.01795871
#
# Stress axis : x y z
#
# Youngs Moduli (GPa) = 43.58187 21.44486 50.72581
#
# Poissons Ratio (x) = 0.32783 0.26619
# Poissons Ratio (y) = 0.66624 0.76753
# Poissons Ratio (z) = 0.22870 0.32448
#
# Static dielectric constant tensor:
#      x y z
#    x 1.597920 0.000000 0.000000 
#    y 0.000000 1.597460 0.000000 
#    z 0.000000 0.000000 1.598780 
# 
# From -- ./inp_files/25666.got.cif
#   From: 2010.05.17/outbox.cif.g08.bks.cpg/sg51_13_cif.got.tgz:25666.got - 2010.06.03 11:52:47.
