data_PCOD9404581
_publ_section_title
;
Structure prediction by ZEFSAII (Michael W. Deem and Ramdas Pophale) SiO2 
 PCOD9404581
Probable space group: P M M A
;
_chemical_formula_sum "Si O2"
_cell_formula_units_Z 44
_cell_length_a 8.473501
_cell_length_b 15.334510
_cell_length_c 16.339714
_cell_angle_alpha 90.000000
_cell_angle_beta 90.000000
_cell_angle_gamma 90.000000
_cell_volume 2123.133186
_symmetry_space_group_name_H-M "P M M A"
_symmetry_group_IT_number 51
_symmetry_cell_setting 'orthorhombic'
loop_
_space_group_symop_operation_xyz
x,y,z
1/2-x,-y,z
1/2+x,-y,-z
-x,y,-z
-x,-y,-z
1/2+x,y,-z
1/2-x,y,z
x,-y,z
loop_
_atom_site_type_symbol
_atom_site_label
_atom_site_fract_x
_atom_site_fract_y
_atom_site_fract_z
Si Si1 0.750000 0.097504 0.160158
Si Si2 0.996440 0.597310 0.182522
Si Si3 0.070569 0.401535 0.370700
Si Si4 0.750000 0.404994 0.959834
Si Si5 0.250000 0.281589 0.886097
Si Si6 0.569292 0.101204 0.729902
Si Si7 0.064989 0.780486 0.588726
O O1 0.750000 0.179527 0.100418
O O2 0.585522 0.106994 0.211269
O O3 0.750000 0.000000 0.125001
O O4 0.921916 0.500000 0.182107
O O5 0.073863 0.603019 0.271492
O O6 0.106111 0.598815 0.102940
O O7 0.892102 0.681936 0.168610
O O8 0.250000 0.388947 0.400642
O O9 0.018391 0.500000 0.392151
O O10 0.962874 0.323150 0.400771
O O11 0.750000 0.500000 0.000936
O O12 0.750000 0.332798 0.028685
O O13 0.750000 0.117283 0.762547
O O14 0.533793 0.168379 0.657302
O O15 0.568556 0.000000 0.701429
O O16 0.250000 0.800595 0.597345
O O17 0.000000 0.805696 0.500000
#
# Coordination Sequence:
#
# PCOD9404581 Si02
#       7
#     4   8   8   4   4   8   8
#     4  10  22  42  64  93 127 161 212 263 311 375
#     4  10  20  35  57  86 120 158 201 253 308 366
#     4  10  21  39  60  82 115 163 215 261 305 362
#     4  10  20  38  58  85 127 167 204 253 317 379
#     4  12  22  32  56  90 120 158 200 252 314 374
#     4  10  21  41  68  94 125 164 205 258 321 378
#     4  12  25  40  60  90 128 164 204 257 314 373
#
# _framework density 20.72409
#
# number of rings (size 3 to 8) (size 9 to 14) (size 15 to 20)
#    0.000    1.455    1.818    4.091    1.273    2.545 
#    1.636    0.000    0.000    2.182    0.000    0.000 
#    0.000    0.000    0.000    0.000    0.000    0.000 
#
# Total GULP energy -245465.132671 kJ/mol
# GULP energy per Si atom -5578.753015 kJ/mol
# Density = 2.067692 g / cm^3
# Si number density = 20.724090 Si / 1000 Ang^3
#
#
#
# Elastic Constant Matrix: (Units=GPa)
#
#
# Indices 1 2 3 4 5 6 
#
# 1 113.4171 27.6700 6.5946 0.0000 0.0000 0.0000
# 2 27.6700 120.1006 19.0627 0.0000 0.0000 0.0000
# 3 6.5946 19.0627 39.9465 0.0000 0.0000 0.0000
# 4 0.0000 0.0000 0.0000 57.4580 0.0000 0.0000
# 5 0.0000 0.0000 0.0000 0.0000 1717.7441 0.0000
# 6 0.0000 0.0000 0.0000 0.0000 0.0000 -271.1134
#
#
#
# Elastic Compliance Matrix: (Units=1/GPa)
#
#
# Indices 1 2 3 4 5 6 
#
# 1 0.009354 -0.002066 -0.000558 0.000000 0.000000 0.000000
# 2 -0.002066 0.009465 -0.004176 0.000000 0.000000 0.000000
# 3 -0.000558 -0.004176 0.027118 0.000000 0.000000 0.000000
# 4 0.000000 0.000000 0.000000 0.017404 0.000000 0.000000
# 5 0.000000 0.000000 0.000000 0.000000 0.000582 0.000000
# 6 0.000000 0.000000 0.000000 0.000000 0.000000 -0.003688
#
#
# Mechanical properties :
#
#
# Convention : Reuss Voigt Hill
#
# Bulk Modulus (GPa) = 30.92454 42.23541 36.57997
# Shear Modulus (GPa) = 59.09186 315.49355 187.29270
#
# Velocity S-wave (km/s) = 5.34561 12.35175 9.51686
# Velocity P-wave (km/s) = 7.28389 14.96145 11.76648
#
# Compressibility (1/GPa) = 0.03233678
#
# Stress axis : x y z
#
# Youngs Moduli (GPa) = 106.91085 105.65002 36.87546
#
# Poissons Ratio (x) = 0.21832 0.02058
# Poissons Ratio (y) = 0.22092 0.15398
# Poissons Ratio (z) = 0.05966 0.44117
#
# Static dielectric constant tensor:
#      x y z
#    x 1.673120 0.000000 0.000000 
#    y 0.000000 1.730040 0.000000 
#    z 0.000000 0.000000 1.706270 
# 
# From -- ./inp_files/27463.got.cif
#   From: 2010.05.17/outbox.cif.g08.bks.cpg/sg51_14_cif.got.tgz:27463.got - 2010.06.03 11:52:47.
