data_PCOD9404685
_publ_section_title
;
Structure prediction by ZEFSAII (Michael W. Deem and Ramdas Pophale) SiO2 
 PCOD9404685
Probable space group: P M M A
;
_chemical_formula_sum "Si O2"
_cell_formula_units_Z 48
_cell_length_a 8.408700
_cell_length_b 18.176606
_cell_length_c 16.029729
_cell_angle_alpha 90.000000
_cell_angle_beta 90.000000
_cell_angle_gamma 90.000000
_cell_volume 2450.009859
_symmetry_space_group_name_H-M "P M M A"
_symmetry_group_IT_number 51
_symmetry_cell_setting 'orthorhombic'
loop_
_space_group_symop_operation_xyz
x,y,z
1/2-x,-y,z
1/2+x,-y,-z
-x,y,-z
-x,-y,-z
1/2+x,y,-z
1/2-x,y,z
x,-y,z
loop_
_atom_site_type_symbol
_atom_site_label
_atom_site_fract_x
_atom_site_fract_y
_atom_site_fract_z
Si Si1 0.442413 0.084867 0.750345
Si Si2 0.441108 0.180905 0.096059
Si Si3 0.557355 0.185638 0.404416
Si Si4 0.057668 0.657487 0.094243
Si Si5 0.571521 0.500000 0.854960
Si Si6 0.923998 0.500000 0.658888
Si Si7 0.561109 0.650784 0.406267
O O1 0.250000 0.086814 0.750662
O O2 0.499766 0.122900 0.835790
O O3 0.495653 0.128776 0.667016
O O4 0.493648 0.000000 0.746827
O O5 0.250000 0.179646 0.092782
O O6 0.493048 0.262712 0.128515
O O7 0.500000 0.169920 0.000000
O O8 0.500000 0.172454 0.500000
O O9 0.750000 0.184083 0.407202
O O10 0.505076 0.268340 0.377140
O O11 0.250000 0.655197 0.102202
O O12 0.994101 0.578526 0.124561
O O13 0.000000 0.661546 0.000000
O O14 0.250000 0.500000 0.104979
O O15 0.591042 0.500000 0.757154
O O16 0.750000 0.500000 0.617459
O O17 0.005637 0.423351 0.637275
O O18 0.500000 0.644960 0.500000
O O19 0.750000 0.652070 0.404358
#
# Coordination Sequence:
#
# PCOD9404685 Si02
#       7
#     8   8   8   8   4   4   8
#     4  10  22  40  61  86 117 150 184 229 286 343
#     4  10  21  37  60  87 116 151 192 235 282 336
#     4   9  20  38  60  86 115 150 188 232 283 338
#     4   9  18  34  54  77 105 141 181 223 268 319
#     4   9  19  33  49  74 109 143 178 219 268 318
#     4  11  22  33  50  76 108 145 182 225 272 318
#     4  10  20  36  55  76 105 141 183 226 270 323
#
# _framework density 19.591757000000001
#
# number of rings (size 3 to 8) (size 9 to 14) (size 15 to 20)
#    0.000    2.333    0.000    1.750    2.333    3.000 
#    0.000    1.667    0.000    0.000    0.000    0.000 
#    0.000    0.000    0.000    0.000    0.000    0.000 
#
# Total GULP energy -267358.136700 kJ/mol
# GULP energy per Si atom -5569.961181 kJ/mol
# Density = 1.954717 g / cm^3
# Si number density = 19.591757 Si / 1000 Ang^3
#
#
#
# Elastic Constant Matrix: (Units=GPa)
#
#
# Indices 1 2 3 4 5 6 
#
# 1 20.8996 29.4862 12.5193 0.0000 0.0000 0.0000
# 2 29.4862 206.8539 95.1530 0.0000 0.0000 0.0000
# 3 12.5193 95.1530 90.3393 0.0000 0.0000 0.0000
# 4 0.0000 0.0000 0.0000 46.7028 0.0000 0.0000
# 5 0.0000 0.0000 0.0000 0.0000 22.4298 0.0000
# 6 0.0000 0.0000 0.0000 0.0000 0.0000 8.0232
#
#
#
# Elastic Compliance Matrix: (Units=1/GPa)
#
#
# Indices 1 2 3 4 5 6 
#
# 1 0.059977 -0.009168 0.001345 0.000000 0.000000 0.000000
# 2 -0.009168 0.010780 -0.010084 0.000000 0.000000 0.000000
# 3 0.001345 -0.010084 0.021504 0.000000 0.000000 0.000000
# 4 0.000000 0.000000 0.000000 0.021412 0.000000 0.000000
# 5 0.000000 0.000000 0.000000 0.000000 0.044584 0.000000
# 6 0.000000 0.000000 0.000000 0.000000 0.000000 0.124639
#
#
# Mechanical properties :
#
#
# Convention : Reuss Voigt Hill
#
# Bulk Modulus (GPa) = 17.71565 65.82330 41.76947
# Shear Modulus (GPa) = 14.81375 27.49342 21.15359
#
# Velocity S-wave (km/s) = 2.75275 3.75015 3.28947
# Velocity P-wave (km/s) = 4.37785 7.24030 5.98278
#
# Compressibility (1/GPa) = 0.05644726
#
# Stress axis : x y z
#
# Youngs Moduli (GPa) = 16.67303 92.76742 46.50343
#
# Poissons Ratio (x) = 0.85051 -0.06255
# Poissons Ratio (y) = 0.15286 0.46892
# Poissons Ratio (z) = -0.02243 0.93542
#
# Static dielectric constant tensor:
#      x y z
#    x 1.738140 0.000000 0.000000 
#    y 0.000000 1.786400 0.000000 
#    z 0.000000 0.000000 1.644100 
# 
# From -- ./inp_files/21170.got.cif
#   From: 2010.05.17/outbox.cif.g08.bks.cpg/sg51_11_cif.got.tgz:21170.got - 2010.06.03 11:52:47.
