data_PCOD9404723
_publ_section_title
;
Structure prediction by ZEFSAII (Michael W. Deem and Ramdas Pophale) SiO2 
 PCOD9404723
Probable space group: P M M A
;
_chemical_formula_sum "Si O2"
_cell_formula_units_Z 64
_cell_length_a 8.726560
_cell_length_b 24.382540
_cell_length_c 15.479511
_cell_angle_alpha 90.000000
_cell_angle_beta 90.000000
_cell_angle_gamma 90.000000
_cell_volume 3293.663762
_symmetry_space_group_name_H-M "P M M A"
_symmetry_group_IT_number 51
_symmetry_cell_setting 'orthorhombic'
loop_
_space_group_symop_operation_xyz
x,y,z
1/2-x,-y,z
1/2+x,-y,-z
-x,y,-z
-x,-y,-z
1/2+x,y,-z
1/2-x,y,z
x,-y,z
loop_
_atom_site_type_symbol
_atom_site_label
_atom_site_fract_x
_atom_site_fract_y
_atom_site_fract_z
Si Si1 0.062798 0.561367 0.229346
Si Si2 0.933885 0.220064 0.904073
Si Si3 0.068592 0.938337 0.269636
Si Si4 0.568121 0.174776 0.270439
Si Si5 0.934164 0.347042 0.905579
Si Si6 0.433841 0.259977 0.406321
Si Si7 0.565890 0.387926 0.592126
Si Si8 0.078640 0.935134 0.915085
O O1 0.250000 0.562344 0.228749
O O2 0.014441 0.500000 0.205142
O O3 0.011039 0.608616 0.163838
O O4 0.014453 0.576533 0.326390
O O5 0.750000 0.213169 0.905201
O O6 0.971305 0.283987 0.882855
O O7 0.004627 0.184578 0.826709
O O8 0.000000 0.210431 0.000000
O O9 0.250000 0.934156 0.283244
O O10 0.984467 0.884859 0.305711
O O11 0.029171 0.933911 0.167925
O O12 0.018383 0.000000 0.296973
O O13 0.750000 0.177989 0.269475
O O14 0.499210 0.221542 0.331805
O O15 0.750000 0.350024 0.909535
O O16 0.000000 0.358681 0.000000
O O17 0.500000 0.244110 0.500000
O O18 0.250000 0.256120 0.407006
O O19 0.475758 0.323984 0.392400
O O20 0.500000 0.405158 0.500000
O O21 0.750000 0.390439 0.587626
O O22 0.250000 0.912772 0.898356
O O23 0.098439 0.000000 0.931917
O O24 0.000000 0.910990 0.000000
#
# Coordination Sequence:
#
# PCOD9404723 Si02
#       8
#     8   8   8   8   8   8   8   8
#     4   9  17  30  49  74 106 146 188 224 265 323
#     4  10  20  36  56  80 111 145 186 234 284 337
#     4  10  21  37  55  75 102 139 180 218 261 316
#     4  12  24  37  57  85 114 145 181 223 275 330
#     4   9  18  33  53  75 101 138 182 230 281 328
#     4  10  20  37  60  86 114 142 179 227 279 333
#     4   9  18  33  54  79 107 141 178 219 269 324
#     4   9  16  27  44  66  93 127 169 215 258 301
#
# _framework density 19.431249000000001
#
# number of rings (size 3 to 8) (size 9 to 14) (size 15 to 20)
#    0.000    2.250    0.000    3.375    0.000    6.250 
#    0.000    3.125    0.000    1.125    0.000    0.000 
#    0.000    0.000    0.000    0.000    0.000    0.000 
#
# Total GULP energy -357231.410309 kJ/mol
# GULP energy per Si atom -5581.740786 kJ/mol
# Density = 1.938702 g / cm^3
# Si number density = 19.431249 Si / 1000 Ang^3
#
#
#
# Elastic Constant Matrix: (Units=GPa)
#
#
# Indices 1 2 3 4 5 6 
#
# 1 50.8055 27.9475 17.1768 0.0000 0.0000 0.0000
# 2 27.9475 113.1876 42.8025 0.0000 0.0000 0.0000
# 3 17.1768 42.8025 54.2185 0.0000 0.0000 0.0000
# 4 0.0000 0.0000 0.0000 -5.5267 0.0000 0.0000
# 5 0.0000 0.0000 0.0000 0.0000 30.2225 0.0000
# 6 0.0000 0.0000 0.0000 0.0000 0.0000 14.7752
#
#
#
# Elastic Compliance Matrix: (Units=1/GPa)
#
#
# Indices 1 2 3 4 5 6 
#
# 1 0.023388 -0.004238 -0.004064 0.000000 0.000000 0.000000
# 2 -0.004238 0.013363 -0.009207 0.000000 0.000000 0.000000
# 3 -0.004064 -0.009207 0.026999 0.000000 0.000000 0.000000
# 4 0.000000 0.000000 0.000000 -0.180941 0.000000 0.000000
# 5 0.000000 0.000000 0.000000 0.000000 0.033088 0.000000
# 6 0.000000 0.000000 0.000000 0.000000 0.000000 0.067681
#
#
# Mechanical properties :
#
#
# Convention : Reuss Voigt Hill
#
# Bulk Modulus (GPa) = 34.80257 43.78502 39.29380
# Shear Modulus (GPa) = 177.47476 16.57986 97.02731
#
# Velocity S-wave (km/s) = 9.56729 2.92423 7.07404
# Velocity P-wave (km/s) = 11.83188 5.82955 9.32677
#
# Compressibility (1/GPa) = 0.02873351
#
# Stress axis : x y z
#
# Youngs Moduli (GPa) = 42.75665 74.83425 37.03780
#
# Poissons Ratio (x) = 0.31716 0.15051
# Poissons Ratio (y) = 0.18121 0.34099
# Poissons Ratio (z) = 0.17375 0.68897
#
# Static dielectric constant tensor:
#      x y z
#    x 1.666900 0.000000 0.000000 
#    y 0.000000 1.726000 0.000000 
#    z 0.000000 0.000000 1.656650 
# 
# From -- ./inp_files/22317.got.cif
#   From: 2010.05.17/outbox.cif.g08.bks.cpg/sg51_12_cif.got.tgz:22317.got - 2010.06.03 11:52:47.
