data_PCOD9404640
_publ_section_title
;
Structure prediction by ZEFSAII (Michael W. Deem and Ramdas Pophale) SiO2 
 PCOD9404640
Probable space group: P M M A
;
_chemical_formula_sum "Si O2"
_cell_formula_units_Z 60
_cell_length_a 23.925905
_cell_length_b 20.793859
_cell_length_c 5.512204
_cell_angle_alpha 90.000000
_cell_angle_beta 90.000000
_cell_angle_gamma 90.000000
_cell_volume 2742.387058
_symmetry_space_group_name_H-M "P M M A"
_symmetry_group_IT_number 51
_symmetry_cell_setting 'orthorhombic'
loop_
_space_group_symop_operation_xyz
x,y,z
1/2-x,-y,z
1/2+x,-y,-z
-x,y,-z
-x,-y,-z
1/2+x,y,-z
1/2-x,y,z
x,-y,z
loop_
_atom_site_type_symbol
_atom_site_label
_atom_site_fract_x
_atom_site_fract_y
_atom_site_fract_z
Si Si1 0.648814 0.072068 0.839818
Si Si2 0.578257 0.572302 0.136709
Si Si3 0.811621 0.744761 0.059941
Si Si4 0.608008 0.318464 0.750705
Si Si5 0.313900 0.130123 0.659331
Si Si6 0.500000 0.648559 0.500000
Si Si7 0.981598 0.926240 0.751494
Si Si8 0.187040 0.382456 0.628071
O O1 0.674283 0.113614 0.619834
O O2 0.584296 0.068867 0.766606
O O3 0.672902 0.000000 0.828591
O O4 0.653332 0.096269 0.117571
O O5 0.566365 0.500000 0.053659
O O6 0.529451 0.601673 0.304054
O O7 0.637119 0.571725 0.284256
O O8 0.588082 0.624448 0.928126
O O9 0.750000 0.759307 0.949155
O O10 0.819819 0.794645 0.278227
O O11 0.809100 0.673576 0.170769
O O12 0.865587 0.742465 0.887783
O O13 0.552355 0.308696 0.591942
O O14 0.660503 0.347226 0.603636
O O15 0.250000 0.111449 0.706034
O O16 0.000000 0.895463 0.500000
O O17 0.006056 0.000000 0.751719
O O18 0.000000 0.893552 0.000000
O O19 0.250000 0.407922 0.588902
#
# Coordination Sequence:
#
# PCOD9404640 Si02
#       8
#     8   8   8   8   8   4   8   8
#     4  11  23  39  61  93 130 165 203 252 313 380
#     4  10  21  36  55  84 120 158 201 241 292 366
#     4   9  20  38  61  85 111 151 205 256 301 363
#     4  10  20  35  59  85 112 151 199 253 308 355
#     4  11  24  39  61  91 124 167 209 253 312 381
#     4  10  21  36  58  84 114 158 201 244 306 358
#     4   9  17  32  57  83 109 148 197 241 284 342
#     4   9  19  36  58  83 112 149 196 252 308 356
#
# _framework density 21.878751000000001
#
# number of rings (size 3 to 8) (size 9 to 14) (size 15 to 20)
#    0.000    2.133    0.000    2.600    1.867    7.733 
#    0.000    0.000    1.467    6.400    0.000    0.000 
#    0.000    0.000    0.000    0.000    0.000    0.000 
#
# Total GULP energy -334519.597460 kJ/mol
# GULP energy per Si atom -5575.326624 kJ/mol
# Density = 2.182895 g / cm^3
# Si number density = 21.878751 Si / 1000 Ang^3
#
#
#
# Elastic Constant Matrix: (Units=GPa)
#
#
# Indices 1 2 3 4 5 6 
#
# 1 109.1510 5.8615 15.5029 0.0000 0.0000 0.0000
# 2 5.8615 43.4568 -5.3719 0.0000 0.0000 0.0000
# 3 15.5029 -5.3719 74.0268 0.0000 0.0000 0.0000
# 4 0.0000 0.0000 0.0000 34.1925 0.0000 0.0000
# 5 0.0000 0.0000 0.0000 0.0000 41.2793 0.0000
# 6 0.0000 0.0000 0.0000 0.0000 0.0000 10.4695
#
#
#
# Elastic Compliance Matrix: (Units=1/GPa)
#
#
# Indices 1 2 3 4 5 6 
#
# 1 0.009545 -0.001548 -0.002111 0.000000 0.000000 0.000000
# 2 -0.001548 0.023471 0.002027 0.000000 0.000000 0.000000
# 3 -0.002111 0.002027 0.014098 0.000000 0.000000 0.000000
# 4 0.000000 0.000000 0.000000 0.029246 0.000000 0.000000
# 5 0.000000 0.000000 0.000000 0.000000 0.024225 0.000000
# 6 0.000000 0.000000 0.000000 0.000000 0.000000 0.095516
#
#
# Mechanical properties :
#
#
# Convention : Reuss Voigt Hill
#
# Bulk Modulus (GPa) = 22.80547 28.73552 25.77050
# Shear Modulus (GPa) = 23.36654 31.23106 27.29880
#
# Velocity S-wave (km/s) = 3.27157 3.78227 3.53616
# Velocity P-wave (km/s) = 4.97163 5.67773 5.33637
#
# Compressibility (1/GPa) = 0.04384912
#
# Stress axis : x y z
#
# Youngs Moduli (GPa) = 104.77093 42.60603 70.93262
#
# Poissons Ratio (x) = 0.06597 0.14976
# Poissons Ratio (y) = 0.16222 -0.14381
# Poissons Ratio (z) = 0.22120 -0.08638
#
# Static dielectric constant tensor:
#      x y z
#    x 1.819780 0.000000 0.000000 
#    y 0.000000 1.798500 0.000000 
#    z 0.000000 0.000000 1.869700 
# 
# From -- ./inp_files/3171.got.cif
#   From: 2010.05.17/outbox.cif.g08.bks.cpg/sg51_2_cif.got.tgz:3171.got - 2010.06.03 11:52:47.
