data_PCOD9404413
_publ_section_title
;
Structure prediction by ZEFSAII (Michael W. Deem and Ramdas Pophale) SiO2 
 PCOD9404413
Probable space group: P M M A
;
_chemical_formula_sum "Si O2"
_cell_formula_units_Z 64
_cell_length_a 8.565475
_cell_length_b 23.836708
_cell_length_c 15.067343
_cell_angle_alpha 90.000000
_cell_angle_beta 90.000000
_cell_angle_gamma 90.000000
_cell_volume 3076.340501
_symmetry_space_group_name_H-M "P M M A"
_symmetry_group_IT_number 51
_symmetry_cell_setting 'orthorhombic'
loop_
_space_group_symop_operation_xyz
x,y,z
1/2-x,-y,z
1/2+x,-y,-z
-x,y,-z
-x,-y,-z
1/2+x,y,-z
1/2-x,y,z
x,-y,z
loop_
_atom_site_type_symbol
_atom_site_label
_atom_site_fract_x
_atom_site_fract_y
_atom_site_fract_z
Si Si1 0.934108 0.837612 0.598165
Si Si2 0.936685 0.933353 0.092401
Si Si3 0.069972 0.436276 0.634460
Si Si4 0.432416 0.254140 0.732675
Si Si5 0.071208 0.328110 0.409400
Si Si6 0.061631 0.680152 0.904450
Si Si7 0.436992 0.562956 0.167560
Si Si8 0.438308 0.934091 0.712022
O O1 0.750000 0.835451 0.591750
O O2 0.000000 0.826025 0.500000
O O3 0.988345 0.794613 0.675154
O O4 0.989979 0.897797 0.634009
O O5 0.750000 0.928807 0.090177
O O6 0.989497 0.912576 0.189495
O O7 0.975724 0.000000 0.092770
O O8 0.000000 0.909083 0.000000
O O9 0.250000 0.418079 0.620774
O O10 0.055026 0.500000 0.604014
O O11 0.947497 0.394757 0.590047
O O12 0.027620 0.435829 0.738939
O O13 0.250000 0.240604 0.738986
O O14 0.464653 0.307927 0.671037
O O15 0.488149 0.274845 0.829033
O O16 0.250000 0.311206 0.397652
O O17 0.000000 0.305088 0.500000
O O18 0.250000 0.676872 0.902294
O O19 0.994020 0.617839 0.884797
O O20 0.000000 0.697994 0.000000
O O21 0.250000 0.567874 0.182490
O O22 0.464414 0.500000 0.128467
O O23 0.250000 0.929441 0.708974
O O24 0.476975 0.000000 0.705392
#
# Coordination Sequence:
#
# PCOD9404413 Si02
#       8
#     8   8   8   8   8   8   8   8
#     4  12  26  44  68  96 126 163 207 257 311 373
#     4   8  14  26  48  80 119 163 207 249 293 343
#     4  10  20  35  55  81 116 156 199 248 304 365
#     4  11  24  45  68  91 121 157 200 253 309 365
#     4  12  24  38  60  87 117 154 199 251 304 366
#     4  11  24  41  66  94 125 163 206 258 315 377
#     4  10  20  35  58  88 123 163 207 256 312 376
#     4   9  19  38  63  93 132 174 214 260 313 368
#
# _framework density 20.803937999999999
#
# number of rings (size 3 to 8) (size 9 to 14) (size 15 to 20)
#    0.000    1.625    1.250    4.875    0.000    4.500 
#    0.000    1.875    0.000    0.000    0.000    0.000 
#    0.000    0.000    0.000    0.000    0.000    0.000 
#
# Total GULP energy -357304.568261 kJ/mol
# GULP energy per Si atom -5582.883879 kJ/mol
# Density = 2.075659 g / cm^3
# Si number density = 20.803938 Si / 1000 Ang^3
#
#
#
# Elastic Constant Matrix: (Units=GPa)
#
#
# Indices 1 2 3 4 5 6 
#
# 1 63.7036 36.0822 34.7002 0.0000 0.0000 0.0000
# 2 36.0822 81.7304 53.2985 0.0000 0.0000 0.0000
# 3 34.7002 53.2985 151.6214 0.0000 0.0000 0.0000
# 4 0.0000 0.0000 0.0000 -23.6326 0.0000 0.0000
# 5 0.0000 0.0000 0.0000 0.0000 32.4094 0.0000
# 6 0.0000 0.0000 0.0000 0.0000 0.0000 28.0584
#
#
#
# Elastic Compliance Matrix: (Units=1/GPa)
#
#
# Indices 1 2 3 4 5 6 
#
# 1 0.021410 -0.008118 -0.002046 0.000000 0.000000 0.000000
# 2 -0.008118 0.018952 -0.004804 0.000000 0.000000 0.000000
# 3 -0.002046 -0.004804 0.008753 0.000000 0.000000 0.000000
# 4 0.000000 0.000000 0.000000 -0.042314 0.000000 0.000000
# 5 0.000000 0.000000 0.000000 0.000000 0.030855 0.000000
# 6 0.000000 0.000000 0.000000 0.000000 0.000000 0.035640
#
#
# Mechanical properties :
#
#
# Convention : Reuss Voigt Hill
#
# Bulk Modulus (GPa) = 52.14252 60.57967 56.36109
# Shear Modulus (GPa) = 45.60992 18.89867 32.25430
#
# Velocity S-wave (km/s) = 4.68735 3.01727 3.94178
# Velocity P-wave (km/s) = 7.37653 6.42815 6.91861
#
# Compressibility (1/GPa) = 0.01917821
#
# Stress axis : x y z
#
# Youngs Moduli (GPa) = 46.70650 52.76456 114.25236
#
# Poissons Ratio (x) = 0.42832 0.23381
# Poissons Ratio (y) = 0.37915 0.54890
# Poissons Ratio (z) = 0.09558 0.25350
#
# Static dielectric constant tensor:
#      x y z
#    x 1.707600 0.000000 0.000000 
#    y 0.000000 1.794090 0.000000 
#    z 0.000000 0.000000 1.779010 
# 
# From -- ./inp_files/22322.got.cif
#   From: 2010.05.17/outbox.cif.g08.bks.cpg/sg51_12_cif.got.tgz:22322.got - 2010.06.03 11:52:47.
