data_PCOD9404308
_publ_section_title
;
Structure prediction by ZEFSAII (Michael W. Deem and Ramdas Pophale) SiO2 
 PCOD9404308
Probable space group: P M M A
;
_chemical_formula_sum "Si O2"
_cell_formula_units_Z 32
_cell_length_a 8.682976
_cell_length_b 22.199986
_cell_length_c 9.026783
_cell_angle_alpha 90.000000
_cell_angle_beta 90.000000
_cell_angle_gamma 90.000000
_cell_volume 1740.020254
_symmetry_space_group_name_H-M "P M M A"
_symmetry_group_IT_number 51
_symmetry_cell_setting 'orthorhombic'
loop_
_space_group_symop_operation_xyz
x,y,z
1/2-x,-y,z
1/2+x,-y,-z
-x,y,-z
-x,-y,-z
1/2+x,y,-z
1/2-x,y,z
x,-y,z
loop_
_atom_site_type_symbol
_atom_site_label
_atom_site_fract_x
_atom_site_fract_y
_atom_site_fract_z
Si Si1 0.933993 0.752485 0.167625
Si Si2 0.566434 0.000000 0.663933
Si Si3 0.935627 0.500000 0.832395
Si Si4 0.565226 0.369721 0.831384
Si Si5 0.565039 0.885160 0.166598
O O1 0.750000 0.747255 0.160392
O O2 0.973107 0.818514 0.230852
O O3 0.000911 0.691683 0.239007
O O4 0.000000 0.753977 0.000000
O O5 0.500000 0.000000 0.500000
O O6 0.505876 0.059716 0.745010
O O7 0.750000 0.000000 0.663155
O O8 0.750000 0.500000 0.840882
O O9 0.980396 0.564930 0.764893
O O10 0.000000 0.500000 0.000000
O O11 0.750000 0.365850 0.837267
O O12 0.500000 0.370778 0.000000
O O13 0.750000 0.890490 0.162302
O O14 0.500000 0.887630 0.000000
#
# Coordination Sequence:
#
# PCOD9404308 Si02
#       5
#     8   4   4   8   8
#     4   9  16  25  39  59  83 111 146 188 230 271
#     4  12  25  40  57  76 100 128 158 194 239 290
#     4   8  14  20  26  40  64 100 141 180 221 266
#     4   9  14  20  30  45  70 103 142 184 225 269
#     4  10  20  35  54  76 101 129 163 201 241 286
#
# _framework density 18.39059
#
# number of rings (size 3 to 8) (size 9 to 14) (size 15 to 20)
#    0.000    2.500    0.000    5.250    0.000    4.000 
#    0.000    0.000    0.000    0.000    0.000    0.000 
#    0.000    0.000    0.000    1.125    0.000   15.750 
#
# Total GULP energy -178159.231840 kJ/mol
# GULP energy per Si atom -5567.475995 kJ/mol
# Density = 1.834873 g / cm^3
# Si number density = 18.390590 Si / 1000 Ang^3
#
#
#
# Elastic Constant Matrix: (Units=GPa)
#
#
# Indices 1 2 3 4 5 6 
#
# 1 84.7349 77.5983 12.6823 0.0000 0.0000 0.0000
# 2 77.5983 260.5114 42.5871 0.0000 0.0000 0.0000
# 3 12.6823 42.5871 22.2081 0.0000 0.0000 0.0000
# 4 0.0000 0.0000 0.0000 -5.7409 0.0000 0.0000
# 5 0.0000 0.0000 0.0000 0.0000 13.0576 0.0000
# 6 0.0000 0.0000 0.0000 0.0000 0.0000 24.2644
#
#
#
# Elastic Compliance Matrix: (Units=1/GPa)
#
#
# Indices 1 2 3 4 5 6 
#
# 1 0.016228 -0.004834 0.000003 0.000000 0.000000 0.000000
# 2 -0.004834 0.007032 -0.010723 0.000000 0.000000 0.000000
# 3 0.000003 -0.010723 0.065590 0.000000 0.000000 0.000000
# 4 0.000000 0.000000 0.000000 -0.174189 0.000000 0.000000
# 5 0.000000 0.000000 0.000000 0.000000 0.076584 0.000000
# 6 0.000000 0.000000 0.000000 0.000000 0.000000 0.041213
#
#
# Mechanical properties :
#
#
# Convention : Reuss Voigt Hill
#
# Bulk Modulus (GPa) = 17.31866 70.35441 43.83653
# Shear Modulus (GPa) = 60.37614 21.95533 41.16574
#
# Velocity S-wave (km/s) = 5.73596 3.45894 4.73632
# Velocity P-wave (km/s) = 7.30108 7.36825 7.33474
#
# Compressibility (1/GPa) = 0.05774118
#
# Stress axis : x y z
#
# Youngs Moduli (GPa) = 61.62080 142.21451 15.24618
#
# Poissons Ratio (x) = 0.68753 -0.00005
# Poissons Ratio (y) = 0.29790 0.16349
# Poissons Ratio (z) = -0.00020 1.52501
#
# Static dielectric constant tensor:
#      x y z
#    x 1.614620 0.000000 0.000000 
#    y 0.000000 1.746430 0.000000 
#    z 0.000000 0.000000 1.566190 
# 
# From -- ./inp_files/5180.got.cif
#   From: 2010.05.17/outbox.cif.g08.bks.cpg/sg51_3_cif.got.tgz:5180.got - 2010.06.03 11:52:47.
