data_PCOD9404827
_publ_section_title
;
Structure prediction by ZEFSAII (Michael W. Deem and Ramdas Pophale) SiO2 
 PCOD9404827
Probable space group: P M M A
;
_chemical_formula_sum "Si O2"
_cell_formula_units_Z 56
_cell_length_a 20.809367
_cell_length_b 9.451113
_cell_length_c 15.006694
_cell_angle_alpha 90.000000
_cell_angle_beta 90.000000
_cell_angle_gamma 90.000000
_cell_volume 2951.391705
_symmetry_space_group_name_H-M "P M M A"
_symmetry_group_IT_number 51
_symmetry_cell_setting 'orthorhombic'
loop_
_space_group_symop_operation_xyz
x,y,z
1/2-x,-y,z
1/2+x,-y,-z
-x,y,-z
-x,-y,-z
1/2+x,y,-z
1/2-x,y,z
x,-y,z
loop_
_atom_site_type_symbol
_atom_site_label
_atom_site_fract_x
_atom_site_fract_y
_atom_site_fract_z
Si Si1 0.250000 0.165781 0.791098
Si Si2 0.588618 0.165678 0.694231
Si Si3 0.611926 0.831882 0.484920
Si Si4 0.963289 0.666218 0.337101
Si Si5 0.135630 0.654693 0.822831
Si Si6 0.750000 0.828047 0.412488
Si Si7 0.826037 0.169795 0.864654
Si Si8 0.428429 0.662306 0.012928
O O1 0.312602 0.225379 0.835909
O O2 0.250000 0.219432 0.689431
O O3 0.250000 0.000000 0.789341
O O4 0.606896 0.185423 0.590761
O O5 0.526672 0.264213 0.705185
O O6 0.645382 0.194722 0.764799
O O7 0.570765 0.000000 0.705924
O O8 0.560248 0.747594 0.425797
O O9 0.683371 0.784035 0.456823
O O10 0.604470 0.000000 0.465050
O O11 0.973125 0.500000 0.355029
O O12 0.907511 0.681494 0.263553
O O13 0.166727 0.500000 0.811228
O O14 0.095140 0.651000 0.911970
O O15 0.750000 0.000000 0.414741
O O16 0.750000 0.210490 0.872439
O O17 0.875933 0.251359 0.929643
O O18 0.829314 0.000000 0.880925
O O19 0.433976 0.500000 0.049228
O O20 0.500000 0.724570 0.000000
#
# Coordination Sequence:
#
# PCOD9404827 Si02
#       8
#     4   8   8   8   8   4   8   8
#     4  11  21  35  57  86 115 148 190 239 283 335
#     4  10  22  38  60  84 114 156 196 238 290 347
#     4  10  20  36  58  84 115 153 197 238 285 346
#     4  11  22  37  58  85 119 154 190 241 292 341
#     4  10  22  38  58  84 116 153 188 229 288 350
#     4   9  18  33  55  82 111 146 190 237 279 331
#     4  10  23  42  62  90 124 155 197 252 304 352
#     4  10  22  42  66  89 116 155 201 242 290 357
#
# _framework density 18.9741
#
# number of rings (size 3 to 8) (size 9 to 14) (size 15 to 20)
#    0.000    1.857    1.429    1.929    2.000    5.714 
#    0.000    0.357    0.000    0.000    0.000    0.000 
#    0.000    0.000    0.000    0.000    0.000    0.000 
#
# Total GULP energy -312352.741642 kJ/mol
# GULP energy per Si atom -5577.727529 kJ/mol
# Density = 1.893091 g / cm^3
# Si number density = 18.974100 Si / 1000 Ang^3
#
#
#
# Elastic Constant Matrix: (Units=GPa)
#
#
# Indices 1 2 3 4 5 6 
#
# 1 134.2642 55.2981 36.6493 0.0000 0.0000 0.0000
# 2 55.2981 56.5638 35.9506 0.0000 0.0000 0.0000
# 3 36.6493 35.9506 80.6601 0.0000 0.0000 0.0000
# 4 0.0000 0.0000 0.0000 17.0514 0.0000 0.0000
# 5 0.0000 0.0000 0.0000 0.0000 30.1340 0.0000
# 6 0.0000 0.0000 0.0000 0.0000 0.0000 37.9643
#
#
#
# Elastic Compliance Matrix: (Units=1/GPa)
#
#
# Indices 1 2 3 4 5 6 
#
# 1 0.012474 -0.011989 -0.000324 0.000000 0.000000 0.000000
# 2 -0.011989 0.036189 -0.010682 0.000000 0.000000 0.000000
# 3 -0.000324 -0.010682 0.017306 0.000000 0.000000 0.000000
# 4 0.000000 0.000000 0.000000 0.058646 0.000000 0.000000
# 5 0.000000 0.000000 0.000000 0.000000 0.033185 0.000000
# 6 0.000000 0.000000 0.000000 0.000000 0.000000 0.026341
#
#
# Mechanical properties :
#
#
# Convention : Reuss Voigt Hill
#
# Bulk Modulus (GPa) = 50.05391 58.58712 54.32051
# Shear Modulus (GPa) = 21.11553 26.60262 23.85907
#
# Velocity S-wave (km/s) = 3.33958 3.74846 3.54991
# Velocity P-wave (km/s) = 6.42711 7.04833 6.74488
#
# Compressibility (1/GPa) = 0.01997846
#
# Stress axis : x y z
#
# Youngs Moduli (GPa) = 80.16451 27.63249 57.78270
#
# Poissons Ratio (x) = 0.33129 0.01874
# Poissons Ratio (y) = 0.96110 0.61725
# Poissons Ratio (z) = 0.02600 0.29518
#
# Static dielectric constant tensor:
#      x y z
#    x 1.669530 0.000000 0.000000 
#    y 0.000000 1.657790 0.000000 
#    z 0.000000 0.000000 1.678580 
# 
# From -- ./inp_files/25906.got.cif
#   From: 2010.05.17/outbox.cif.g08.bks.cpg/sg51_13_cif.got.tgz:25906.got - 2010.06.03 11:52:47.
