data_PCOD9404393
_publ_section_title
;
Structure prediction by ZEFSAII (Michael W. Deem and Ramdas Pophale) SiO2 
 PCOD9404393
Probable space group: P M M A
;
_chemical_formula_sum "Si O2"
_cell_formula_units_Z 64
_cell_length_a 20.586706
_cell_length_b 8.444879
_cell_length_c 20.711033
_cell_angle_alpha 90.000000
_cell_angle_beta 90.000000
_cell_angle_gamma 90.000000
_cell_volume 3600.659504
_symmetry_space_group_name_H-M "P M M A"
_symmetry_group_IT_number 51
_symmetry_cell_setting 'orthorhombic'
loop_
_space_group_symop_operation_xyz
x,y,z
1/2-x,-y,z
1/2+x,-y,-z
-x,y,-z
-x,-y,-z
1/2+x,y,-z
1/2-x,y,z
x,-y,z
loop_
_atom_site_type_symbol
_atom_site_label
_atom_site_fract_x
_atom_site_fract_y
_atom_site_fract_z
Si Si1 0.823243 0.306437 0.572657
Si Si2 0.102782 0.309684 0.300929
Si Si3 0.930412 0.693743 0.470303
Si Si4 0.431798 0.310494 0.814829
Si Si5 0.952848 0.308671 0.328171
Si Si6 0.675891 0.810808 0.086858
Si Si7 0.675695 0.689261 0.942826
Si Si8 0.424090 0.186449 0.162825
O O1 0.750000 0.255249 0.560442
O O2 0.824655 0.500000 0.572568
O O3 0.847877 0.258270 0.643557
O O4 0.873281 0.253760 0.517696
O O5 0.107661 0.500000 0.292730
O O6 0.108716 0.232055 0.231132
O O7 0.029950 0.275908 0.326353
O O8 0.929849 0.500000 0.469563
O O9 0.924670 0.748512 0.396178
O O10 0.000000 0.739817 0.500000
O O11 0.426539 0.500000 0.814711
O O12 0.425202 0.251827 0.740454
O O13 0.377077 0.241947 0.861300
O O14 0.504819 0.267232 0.837363
O O15 0.946372 0.500000 0.327928
O O16 0.750000 0.763742 0.104830
O O17 0.674231 0.000000 0.080686
O O18 0.661932 0.737351 0.016650
O O19 0.750000 0.742769 0.928232
O O20 0.674073 0.500000 0.937292
O O21 0.622785 0.759731 0.894595
O O22 0.434374 0.000000 0.159638
#
# Coordination Sequence:
#
# PCOD9404393 Si02
#       8
#     8   8   8   8   8   8   8   8
#     4   9  16  24  38  65  98 128 164 213 263 312
#     4   9  16  29  46  66  96 133 172 210 256 312
#     4   9  13  21  40  64  92 129 165 203 259 318
#     4  10  20  35  55  80 110 142 180 224 268 316
#     4   8  14  25  43  68  95 129 170 211 256 309
#     4  10  21  38  59  82 109 141 178 220 267 319
#     4  10  21  38  59  81 106 139 179 220 264 319
#     4  11  22  35  53  79 110 141 176 219 267 317
#
# _framework density 17.774522000000001
#
# number of rings (size 3 to 8) (size 9 to 14) (size 15 to 20)
#    0.000    2.500    1.250    3.000    0.000    2.500 
#    0.000    4.375    0.000    2.250    0.000    7.875 
#    0.000    0.000    0.000    0.000    0.000    0.000 
#
# Total GULP energy -356903.576356 kJ/mol
# GULP energy per Si atom -5576.618381 kJ/mol
# Density = 1.773407 g / cm^3
# Si number density = 17.774522 Si / 1000 Ang^3
#
#
#
# Elastic Constant Matrix: (Units=GPa)
#
#
# Indices 1 2 3 4 5 6 
#
# 1 93.9639 -1.3289 71.0076 0.0000 0.0000 0.0000
# 2 -1.3289 15.4587 -0.6226 0.0000 0.0000 0.0000
# 3 71.0076 -0.6226 112.8309 0.0000 0.0000 0.0000
# 4 0.0000 0.0000 0.0000 -23.2715 0.0000 0.0000
# 5 0.0000 0.0000 0.0000 0.0000 30.8145 0.0000
# 6 0.0000 0.0000 0.0000 0.0000 0.0000 16.1005
#
#
#
# Elastic Compliance Matrix: (Units=1/GPa)
#
#
# Indices 1 2 3 4 5 6 
#
# 1 0.020317 0.001232 -0.012779 0.000000 0.000000 0.000000
# 2 0.001232 0.064777 -0.000418 0.000000 0.000000 0.000000
# 3 -0.012779 -0.000418 0.016903 0.000000 0.000000 0.000000
# 4 0.000000 0.000000 0.000000 -0.042971 0.000000 0.000000
# 5 0.000000 0.000000 0.000000 0.000000 0.032452 0.000000
# 6 0.000000 0.000000 0.000000 0.000000 0.000000 0.062110
#
#
# Mechanical properties :
#
#
# Convention : Reuss Voigt Hill
#
# Bulk Modulus (GPa) = 12.80953 40.04063 26.42508
# Shear Modulus (GPa) = 24.56511 14.94186 19.75348
#
# Velocity S-wave (km/s) = 3.72161 2.90251 3.33729
# Velocity P-wave (km/s) = 5.06848 5.81452 5.45427
#
# Compressibility (1/GPa) = 0.07806685
#
# Stress axis : x y z
#
# Youngs Moduli (GPa) = 49.22010 15.43747 59.16177
#
# Poissons Ratio (x) = -0.01902 0.75604
# Poissons Ratio (y) = -0.06063 0.02472
# Poissons Ratio (z) = 0.62899 0.00645
#
# Static dielectric constant tensor:
#      x y z
#    x 1.588680 0.000000 0.000000 
#    y 0.000000 1.602920 0.000000 
#    z 0.000000 0.000000 1.605500 
# 
# From -- ./inp_files/30525.got.cif
#   From: 2010.05.17/outbox.cif.g08.bks.cpg/sg51_16_cif.got.tgz:30525.got - 2010.06.03 11:52:47.
