data_PCOD9404283
_publ_section_title
;
Structure prediction by ZEFSAII (Michael W. Deem and Ramdas Pophale) SiO2 
 PCOD9404283
Probable space group: P M M A
;
_chemical_formula_sum "Si O2"
_cell_formula_units_Z 64
_cell_length_a 8.275237
_cell_length_b 29.366416
_cell_length_c 15.295156
_cell_angle_alpha 90.000000
_cell_angle_beta 90.000000
_cell_angle_gamma 90.000000
_cell_volume 3716.937839
_symmetry_space_group_name_H-M "P M M A"
_symmetry_group_IT_number 51
_symmetry_cell_setting 'orthorhombic'
loop_
_space_group_symop_operation_xyz
x,y,z
1/2-x,-y,z
1/2+x,-y,-z
-x,y,-z
-x,-y,-z
1/2+x,y,-z
1/2-x,y,z
x,-y,z
loop_
_atom_site_type_symbol
_atom_site_label
_atom_site_fract_x
_atom_site_fract_y
_atom_site_fract_z
Si Si1 0.942256 0.871343 0.403786
Si Si2 0.056209 0.082131 0.904480
Si Si3 0.054850 0.767123 0.596477
Si Si4 0.447694 0.732459 0.779032
Si Si5 0.945737 0.350950 0.100718
Si Si6 0.444509 0.187130 0.904616
Si Si7 0.054880 0.451135 0.899012
Si Si8 0.557954 0.049435 0.721699
O O1 0.750000 0.869016 0.403670
O O2 0.002217 0.819513 0.388822
O O3 0.000000 0.885611 0.500000
O O4 0.992635 0.907812 0.331995
O O5 0.250000 0.081092 0.901103
O O6 0.000272 0.134972 0.894071
O O7 0.987462 0.054974 0.823040
O O8 0.000000 0.066412 0.000000
O O9 0.250000 0.767627 0.596970
O O10 0.000560 0.736719 0.678397
O O11 0.000000 0.752860 0.500000
O O12 0.250000 0.731795 0.779569
O O13 0.502194 0.688965 0.834907
O O14 0.498816 0.778150 0.830300
O O15 0.750000 0.350203 0.099961
O O16 0.999176 0.401351 0.133011
O O17 0.000000 0.344296 0.000000
O O18 0.250000 0.186322 0.903228
O O19 0.500000 0.203386 0.000000
O O20 0.250000 0.451161 0.895783
O O21 0.999384 0.500000 0.860471
O O22 0.000000 0.451582 0.000000
O O23 0.750000 0.049824 0.712971
O O24 0.496319 0.000000 0.690194
#
# Coordination Sequence:
#
# PCOD9404283 Si02
#       8
#     8   8   8   8   8   8   8   8
#     4  10  20  36  58  79  98 120 145 176 217 265
#     4  10  20  35  54  73  94 122 155 189 224 262
#     4   9  18  33  51  70  90 113 143 178 215 259
#     4   9  16  27  43  62  88 118 144 173 215 263
#     4   9  16  25  38  57  84 119 152 182 218 258
#     4   9  17  29  45  66  90 116 145 175 208 251
#     4   8  13  21  33  50  74 107 148 188 220 251
#     4  11  24  39  54  74  98 122 150 184 221 262
#
# _framework density 17.218474000000001
#
# number of rings (size 3 to 8) (size 9 to 14) (size 15 to 20)
#    0.000    2.625    0.000    2.250    0.000    4.500 
#    0.000    1.250    0.000    0.000    0.000    0.000 
#    0.000    0.500    0.000    0.375    0.000    1.000 
#
# Total GULP energy -356714.340445 kJ/mol
# GULP energy per Si atom -5573.661569 kJ/mol
# Density = 1.717928 g / cm^3
# Si number density = 17.218474 Si / 1000 Ang^3
#
#
#
# Elastic Constant Matrix: (Units=GPa)
#
#
# Indices 1 2 3 4 5 6 
#
# 1 8.9789 7.7219 4.8600 0.0000 0.0000 0.0000
# 2 7.7219 76.2963 55.7961 0.0000 0.0000 0.0000
# 3 4.8600 55.7961 99.6130 0.0000 0.0000 0.0000
# 4 0.0000 0.0000 0.0000 12.9916 0.0000 0.0000
# 5 0.0000 0.0000 0.0000 0.0000 24.8577 0.0000
# 6 0.0000 0.0000 0.0000 0.0000 0.0000 12.9440
#
#
#
# Elastic Compliance Matrix: (Units=1/GPa)
#
#
# Indices 1 2 3 4 5 6 
#
# 1 0.122147 -0.013558 0.001635 0.000000 0.000000 0.000000
# 2 -0.013558 0.023706 -0.012617 0.000000 0.000000 0.000000
# 3 0.001635 -0.012617 0.017026 0.000000 0.000000 0.000000
# 4 0.000000 0.000000 0.000000 0.076973 0.000000 0.000000
# 5 0.000000 0.000000 0.000000 0.000000 0.040229 0.000000
# 6 0.000000 0.000000 0.000000 0.000000 0.000000 0.077256
#
#
# Mechanical properties :
#
#
# Convention : Reuss Voigt Hill
#
# Bulk Modulus (GPa) = 8.78741 35.73823 22.26282
# Shear Modulus (GPa) = 11.25239 17.92600 14.58919
#
# Velocity S-wave (km/s) = 2.55915 3.23009 2.91400
# Velocity P-wave (km/s) = 3.72114 5.89170 4.92743
#
# Compressibility (1/GPa) = 0.11379924
#
# Stress axis : x y z
#
# Youngs Moduli (GPa) = 8.18683 42.18380 58.73327
#
# Poissons Ratio (x) = 0.57193 -0.09602
# Poissons Ratio (y) = 0.11100 0.74103
# Poissons Ratio (z) = -0.01338 0.53222
#
# Static dielectric constant tensor:
#      x y z
#    x 1.594090 0.000000 0.000000 
#    y 0.000000 1.634120 0.000000 
#    z 0.000000 0.000000 1.564180 
# 
# From -- ./inp_files/22571.got.cif
#   From: 2010.05.17/outbox.cif.g08.bks.cpg/sg51_12_cif.got.tgz:22571.got - 2010.06.03 11:52:47.
