data_PCOD9404105
_publ_section_title
;
Structure prediction by ZEFSAII (Michael W. Deem and Ramdas Pophale) SiO2 
 PCOD9404105
Probable space group: P M M A
;
_chemical_formula_sum "Si O2"
_cell_formula_units_Z 56
_cell_length_a 14.236531
_cell_length_b 8.060933
_cell_length_c 22.464572
_cell_angle_alpha 90.000000
_cell_angle_beta 90.000000
_cell_angle_gamma 90.000000
_cell_volume 2578.028050
_symmetry_space_group_name_H-M "P M M A"
_symmetry_group_IT_number 51
_symmetry_cell_setting 'orthorhombic'
loop_
_space_group_symop_operation_xyz
x,y,z
1/2-x,-y,z
1/2+x,-y,-z
-x,y,-z
-x,-y,-z
1/2+x,y,-z
1/2-x,y,z
x,-y,z
loop_
_atom_site_type_symbol
_atom_site_label
_atom_site_fract_x
_atom_site_fract_y
_atom_site_fract_z
Si Si1 0.355009 0.306234 0.367458
Si Si2 0.353529 0.696347 0.224521
Si Si3 0.445233 0.191079 0.796248
Si Si4 0.025770 0.189581 0.563512
Si Si5 0.858995 0.202187 0.327338
Si Si6 0.643150 0.807960 0.959286
Si Si7 0.940187 0.311727 0.076928
O O1 0.250000 0.270912 0.388926
O O2 0.376505 0.500000 0.379860
O O3 0.355025 0.287686 0.296256
O O4 0.430671 0.192797 0.398410
O O5 0.250000 0.748909 0.203433
O O6 0.365010 0.500000 0.210876
O O7 0.442102 0.795975 0.202050
O O8 0.412068 0.260390 0.732332
O O9 0.410505 0.280902 0.855354
O O10 0.415445 0.000000 0.799377
O O11 0.099401 0.266069 0.610188
O O12 0.000000 0.268485 0.500000
O O13 0.056951 0.000000 0.550972
O O14 0.750000 0.240511 0.321993
O O15 0.870164 0.000000 0.328921
O O16 0.750000 0.743795 0.949692
O O17 0.552687 0.720451 0.929501
O O18 0.641401 0.000000 0.940753
O O19 0.616028 0.797603 0.029354
O O20 0.921684 0.500000 0.059627
#
# Coordination Sequence:
#
# PCOD9404105 Si02
#       7
#     8   8   8   8   8   8   8
#     4   9  18  33  53  76 105 140 176 218 275 341
#     4   9  18  33  53  77 106 141 178 222 283 346
#     4  11  21  35  57  82 111 150 196 241 286 340
#     4  10  20  34  55  83 110 141 186 237 288 340
#     4   9  19  36  55  77 109 148 188 233 286 340
#     4  10  21  40  65  90 119 155 197 243 286 335
#     4  11  23  38  59  88 122 157 194 240 291 345
#
# _framework density 21.722028000000002
#
# number of rings (size 3 to 8) (size 9 to 14) (size 15 to 20)
#    0.000    2.143    1.429    3.857    0.000    3.714 
#    0.000    4.286    0.000    3.429    0.000    0.000 
#    0.000    0.000    0.000    0.000    0.000    0.000 
#
# Total GULP energy -312531.590407 kJ/mol
# GULP energy per Si atom -5580.921257 kJ/mol
# Density = 2.167259 g / cm^3
# Si number density = 21.722028 Si / 1000 Ang^3
#
#
#
# Elastic Constant Matrix: (Units=GPa)
#
#
# Indices 1 2 3 4 5 6 
#
# 1 65.6608 -3.5143 23.6242 0.0000 0.0000 0.0000
# 2 -3.5143 25.3922 -0.1175 0.0000 0.0000 0.0000
# 3 23.6242 -0.1175 117.6960 0.0000 0.0000 0.0000
# 4 0.0000 0.0000 0.0000 -3.9140 0.0000 0.0000
# 5 0.0000 0.0000 0.0000 0.0000 -1.4296 0.0000
# 6 0.0000 0.0000 0.0000 0.0000 0.0000 62.7092
#
#
#
# Elastic Compliance Matrix: (Units=1/GPa)
#
#
# Indices 1 2 3 4 5 6 
#
# 1 0.016546 0.002275 -0.003319 0.000000 0.000000 0.000000
# 2 0.002275 0.039695 -0.000417 0.000000 0.000000 0.000000
# 3 -0.003319 -0.000417 0.009162 0.000000 0.000000 0.000000
# 4 0.000000 0.000000 0.000000 -0.255492 0.000000 0.000000
# 5 0.000000 0.000000 0.000000 0.000000 -0.699480 0.000000
# 6 0.000000 0.000000 0.000000 0.000000 0.000000 0.015947
#
#
# Mechanical properties :
#
#
# Convention : Reuss Voigt Hill
#
# Bulk Modulus (GPa) = 16.00499 27.63709 21.82104
# Shear Modulus (GPa) = -5.88323 24.05689 9.08683
#
# Velocity S-wave (km/s) = -1.64751 3.33150 2.04751
# Velocity P-wave (km/s) = 1.94037 5.24874 3.95691
#
# Compressibility (1/GPa) = 0.06248052
#
# Stress axis : x y z
#
# Youngs Moduli (GPa) = 60.43903 25.19205 109.14402
#
# Poissons Ratio (x) = -0.05730 0.36223
# Poissons Ratio (y) = -0.13747 0.04550
# Poissons Ratio (z) = 0.20058 0.01050
#
# Static dielectric constant tensor:
#      x y z
#    x 1.781040 0.000000 0.000000 
#    y 0.000000 1.781920 0.000000 
#    z 0.000000 0.000000 1.818580 
# 
# From -- ./inp_files/33473.got.cif
#   From: 2010.05.17/outbox.cif.g08.bks.cpg/sg51_17_cif.got.tgz:33473.got - 2010.06.03 11:52:47.
