data_PCOD9404644
_publ_section_title
;
Structure prediction by ZEFSAII (Michael W. Deem and Ramdas Pophale) SiO2 
 PCOD9404644
Probable space group: P M M A
;
_chemical_formula_sum "Si O2"
_cell_formula_units_Z 44
_cell_length_a 9.678605
_cell_length_b 27.013180
_cell_length_c 9.385441
_cell_angle_alpha 90.000000
_cell_angle_beta 90.000000
_cell_angle_gamma 90.000000
_cell_volume 2453.822602
_symmetry_space_group_name_H-M "P M M A"
_symmetry_group_IT_number 51
_symmetry_cell_setting 'orthorhombic'
loop_
_space_group_symop_operation_xyz
x,y,z
1/2-x,-y,z
1/2+x,-y,-z
-x,y,-z
-x,-y,-z
1/2+x,y,-z
1/2-x,y,z
x,-y,z
loop_
_atom_site_type_symbol
_atom_site_label
_atom_site_fract_x
_atom_site_fract_y
_atom_site_fract_z
Si Si1 0.085160 0.000000 0.642953
Si Si2 0.750000 0.445516 0.854017
Si Si3 0.583576 0.797459 0.147695
Si Si4 0.080682 0.276144 0.350086
Si Si5 0.250000 0.442070 0.802388
Si Si6 0.589578 0.085552 0.138737
Si Si7 0.494502 0.373642 0.171353
O O1 0.051119 0.048658 0.735113
O O2 0.000000 0.000000 0.500000
O O3 0.250000 0.000000 0.616156
O O4 0.750000 0.500000 0.794482
O O5 0.621684 0.414156 0.809381
O O6 0.750000 0.448201 0.025727
O O7 0.750000 0.784346 0.140193
O O8 0.496884 0.768375 0.266912
O O9 0.576113 0.856403 0.175182
O O10 0.500000 0.787961 0.000000
O O11 0.250000 0.270698 0.361983
O O12 0.044624 0.324605 0.256207
O O13 0.000000 0.280907 0.500000
O O14 0.250000 0.500000 0.748350
O O15 0.375689 0.404845 0.772840
O O16 0.750000 0.076276 0.104781
O O17 0.500000 0.075269 0.000000
O O18 0.500000 0.362608 0.000000
#
# Coordination Sequence:
#
# PCOD9404644 Si02
#       7
#     4   4   8   8   4   8   8
#     4  10  21  36  54  82 122 162 203 244 286 342
#     4   9  16  32  55  85 115 143 181 232 281 334
#     4  10  21  39  64  91 119 151 193 244 296 351
#     4  12  26  42  59  82 114 155 198 243 296 351
#     4   9  18  30  55  91 119 141 177 232 287 338
#     4   9  19  36  59  88 118 152 194 242 292 344
#     4  10  20  35  59  86 114 146 187 231 285 344
#
# _framework density 17.931206
#
# number of rings (size 3 to 8) (size 9 to 14) (size 15 to 20)
#    0.000    2.000    0.909    2.455    2.545    4.364 
#    0.000    1.818    0.000    3.273    0.000    0.000 
#    0.000    0.000    0.000    0.000    0.000    0.000 
#
# Total GULP energy -245061.673930 kJ/mol
# GULP energy per Si atom -5569.583498 kJ/mol
# Density = 1.789039 g / cm^3
# Si number density = 17.931206 Si / 1000 Ang^3
#
#
#
# Elastic Constant Matrix: (Units=GPa)
#
#
# Indices 1 2 3 4 5 6 
#
# 1 161.3129 70.9904 72.4892 0.0000 0.0000 0.0000
# 2 70.9904 94.8183 81.0853 0.0000 0.0000 0.0000
# 3 72.4892 81.0853 112.8420 0.0000 0.0000 0.0000
# 4 0.0000 0.0000 0.0000 -13.5816 0.0000 0.0000
# 5 0.0000 0.0000 0.0000 0.0000 34.1986 0.0000
# 6 0.0000 0.0000 0.0000 0.0000 0.0000 33.1195
#
#
#
# Elastic Compliance Matrix: (Units=1/GPa)
#
#
# Indices 1 2 3 4 5 6 
#
# 1 0.009526 -0.004926 -0.002580 0.000000 0.000000 0.000000
# 2 -0.004926 0.029905 -0.018325 0.000000 0.000000 0.000000
# 3 -0.002580 -0.018325 0.023687 0.000000 0.000000 0.000000
# 4 0.000000 0.000000 0.000000 -0.073629 0.000000 0.000000
# 5 0.000000 0.000000 0.000000 0.000000 0.029241 0.000000
# 6 0.000000 0.000000 0.000000 0.000000 0.000000 0.030194
#
#
# Mechanical properties :
#
#
# Convention : Reuss Voigt Hill
#
# Bulk Modulus (GPa) = 87.28154 90.90032 89.09093
# Shear Modulus (GPa) = 47.89092 20.37454 34.13273
#
# Velocity S-wave (km/s) = 5.17360 3.37450 4.36769
# Velocity P-wave (km/s) = 9.19074 8.12324 8.67343
#
# Compressibility (1/GPa) = 0.01145718
#
# Stress axis : x y z
#
# Youngs Moduli (GPa) = 104.97203 33.43902 42.21761
#
# Poissons Ratio (x) = 0.16473 0.10892
# Poissons Ratio (y) = 0.51711 0.77362
# Poissons Ratio (z) = 0.27082 0.61275
#
# Static dielectric constant tensor:
#      x y z
#    x 1.611040 0.000000 0.000000 
#    y 0.000000 1.612820 0.000000 
#    z 0.000000 0.000000 1.600270 
# 
# From -- ./inp_files/5917.got.cif
#   From: 2010.05.17/outbox.cif.g08.bks.cpg/sg51_3_cif.got.tgz:5917.got - 2010.06.03 11:52:47.
