data_PCOD9404639
_publ_section_title
;
Structure prediction by ZEFSAII (Michael W. Deem and Ramdas Pophale) SiO2 
 PCOD9404639
Probable space group: P M M A
;
_chemical_formula_sum "Si O2"
_cell_formula_units_Z 64
_cell_length_a 32.141483
_cell_length_b 8.164239
_cell_length_c 12.427877
_cell_angle_alpha 90.000000
_cell_angle_beta 90.000000
_cell_angle_gamma 90.000000
_cell_volume 3261.208512
_symmetry_space_group_name_H-M "P M M A"
_symmetry_group_IT_number 51
_symmetry_cell_setting 'orthorhombic'
loop_
_space_group_symop_operation_xyz
x,y,z
1/2-x,-y,z
1/2+x,-y,-z
-x,y,-z
-x,-y,-z
1/2+x,y,-z
1/2-x,y,z
x,-y,z
loop_
_atom_site_type_symbol
_atom_site_label
_atom_site_fract_x
_atom_site_fract_y
_atom_site_fract_z
Si Si1 0.952225 0.308375 0.500695
Si Si2 0.201697 0.195897 0.761021
Si Si3 0.626684 0.196989 0.633974
Si Si4 0.058342 0.807845 0.731931
Si Si5 0.202732 0.199986 0.512737
Si Si6 0.889875 0.198061 0.868938
Si Si7 0.514749 0.199731 0.881996
Si Si8 0.626602 0.312580 0.105672
O O1 0.955193 0.500000 0.525364
O O2 0.918435 0.235218 0.582760
O O3 0.934521 0.281803 0.380326
O O4 0.000000 0.241038 0.500000
O O5 0.250000 0.224456 0.785385
O O6 0.194596 0.245022 0.636889
O O7 0.171076 0.287226 0.840070
O O8 0.194019 0.000000 0.768752
O O9 0.665088 0.258937 0.561793
O O10 0.630108 0.254909 0.757198
O O11 0.629758 0.000000 0.635574
O O12 0.094069 0.787853 0.821271
O O13 0.016334 0.745239 0.788940
O O14 0.054165 0.000000 0.706522
O O15 0.250000 0.251862 0.483754
O O16 0.202948 0.000000 0.509985
O O17 0.938127 0.249072 0.864297
O O18 0.888564 0.000000 0.871527
O O19 0.872465 0.258936 0.981968
O O20 0.512940 0.000000 0.881909
O O21 0.500000 0.253940 0.000000
O O22 0.613129 0.500000 0.111758
#
# Coordination Sequence:
#
# PCOD9404639 Si02
#       8
#     8   8   8   8   8   8   8   8
#     4  11  24  39  54  79 119 155 184 228 289 351
#     4   9  18  35  60  85 109 141 181 227 279 336
#     4  10  20  35  59  85 109 147 195 239 281 332
#     4  11  21  36  60  83 108 142 188 240 280 326
#     4   8  15  31  57  88 114 134 168 225 288 338
#     4  10  20  36  55  78 109 146 195 240 273 325
#     4   9  16  30  52  75 100 138 185 235 280 310
#     4  12  24  36  53  81 115 148 182 224 285 346
#
# _framework density 19.624625000000002
#
# number of rings (size 3 to 8) (size 9 to 14) (size 15 to 20)
#    0.000    2.000    1.250    4.125    0.000    3.750 
#    0.000    2.500    0.000    3.375    0.000    0.000 
#    0.000    0.000    0.000    0.000    0.000    0.000 
#
# Total GULP energy -357347.801215 kJ/mol
# GULP energy per Si atom -5583.559394 kJ/mol
# Density = 1.957996 g / cm^3
# Si number density = 19.624625 Si / 1000 Ang^3
#
#
#
# Elastic Constant Matrix: (Units=GPa)
#
#
# Indices 1 2 3 4 5 6 
#
# 1 91.5704 11.2742 61.0032 0.0000 0.0000 0.0000
# 2 11.2742 11.6045 3.5209 0.0000 0.0000 0.0000
# 3 61.0032 3.5209 117.1966 0.0000 0.0000 0.0000
# 4 0.0000 0.0000 0.0000 115.6827 0.0000 0.0000
# 5 0.0000 0.0000 0.0000 0.0000 35.4427 0.0000
# 6 0.0000 0.0000 0.0000 0.0000 0.0000 204.8498
#
#
#
# Elastic Compliance Matrix: (Units=1/GPa)
#
#
# Indices 1 2 3 4 5 6 
#
# 1 0.019207 -0.015771 -0.009524 0.000000 0.000000 0.000000
# 2 -0.015771 0.099916 0.005207 0.000000 0.000000 0.000000
# 3 -0.009524 0.005207 0.013334 0.000000 0.000000 0.000000
# 4 0.000000 0.000000 0.000000 0.008644 0.000000 0.000000
# 5 0.000000 0.000000 0.000000 0.000000 0.028215 0.000000
# 6 0.000000 0.000000 0.000000 0.000000 0.000000 0.004882
#
#
# Mechanical properties :
#
#
# Convention : Reuss Voigt Hill
#
# Bulk Modulus (GPa) = 10.83640 41.32977 26.08308
# Shear Modulus (GPa) = 20.39721 80.83325 50.61523
#
# Velocity S-wave (km/s) = 3.22742 6.42488 5.08406
# Velocity P-wave (km/s) = 4.40706 8.72609 6.91256
#
# Compressibility (1/GPa) = 0.09228159
#
# Stress axis : x y z
#
# Youngs Moduli (GPa) = 52.06461 10.00845 74.99874
#
# Poissons Ratio (x) = 0.15784 0.71427
# Poissons Ratio (y) = 0.82110 -0.39054
# Poissons Ratio (z) = 0.49585 -0.05212
#
# Static dielectric constant tensor:
#      x y z
#    x 1.683700 0.000000 0.000000 
#    y 0.000000 1.688890 0.000000 
#    z 0.000000 0.000000 1.686000 
# 
# From -- ./inp_files/19603.got.cif
#   From: 2010.05.17/outbox.cif.g08.bks.cpg/sg51_10_cif.got.tgz:19603.got - 2010.06.03 11:52:47.
