data_PCOD9404353
_publ_section_title
;
Structure prediction by ZEFSAII (Michael W. Deem and Ramdas Pophale) SiO2 
 PCOD9404353
Probable space group: P M M A
;
_chemical_formula_sum "Si O2"
_cell_formula_units_Z 40
_cell_length_a 26.990906
_cell_length_b 8.428779
_cell_length_c 9.413210
_cell_angle_alpha 90.000000
_cell_angle_beta 90.000000
_cell_angle_gamma 90.000000
_cell_volume 2141.508868
_symmetry_space_group_name_H-M "P M M A"
_symmetry_group_IT_number 51
_symmetry_cell_setting 'orthorhombic'
loop_
_space_group_symop_operation_xyz
x,y,z
1/2-x,-y,z
1/2+x,-y,-z
-x,y,-z
-x,-y,-z
1/2+x,y,-z
1/2-x,y,z
x,-y,z
loop_
_atom_site_type_symbol
_atom_site_label
_atom_site_fract_x
_atom_site_fract_y
_atom_site_fract_z
Si Si1 0.856972 0.807216 0.590127
Si Si2 0.750000 0.817648 0.922316
Si Si3 0.950980 0.192056 0.085172
Si Si4 0.048029 0.193807 0.588082
Si Si5 0.250000 0.816367 0.423264
Si Si6 0.356797 0.688097 0.087668
O O1 0.902226 0.755233 0.492404
O O2 0.803251 0.746481 0.536922
O O3 0.863927 0.756648 0.753258
O O4 0.855215 0.000000 0.589421
O O5 0.750000 0.815263 0.749283
O O6 0.698026 0.739312 0.964623
O O7 0.750000 0.000000 0.968107
O O8 0.953614 0.244894 0.248677
O O9 0.950643 0.000000 0.083377
O O10 0.900946 0.249432 0.010435
O O11 0.000000 0.244544 0.000000
O O12 0.000000 0.245560 0.500000
O O13 0.047874 0.000000 0.587961
O O14 0.250000 0.000000 0.470765
O O15 0.358566 0.500000 0.095559
#
# Coordination Sequence:
#
# PCOD9404353 Si02
#       6
#     8   4   8   8   4   8
#     4   9  16  30  51  73  99 131 171 215 258 307
#     4   9  17  33  56  79 104 138 180 218 256 305
#     4  10  20  35  55  77 104 141 183 224 267 316
#     4   9  17  30  51  77  99 126 173 227 268 305
#     4   7  12  23  44  71  94 120 154 198 248 297
#     4  11  21  33  52  80 112 142 174 214 264 317
#
# _framework density 18.678419000000002
#
# number of rings (size 3 to 8) (size 9 to 14) (size 15 to 20)
#    0.000    2.600    0.000    4.500    0.000    3.600 
#    0.000    2.000    0.000    6.000    0.000    2.800 
#    0.000    0.000    0.000    0.000    0.000    0.000 
#
# Total GULP energy -223049.594094 kJ/mol
# GULP energy per Si atom -5576.239852 kJ/mol
# Density = 1.863591 g / cm^3
# Si number density = 18.678419 Si / 1000 Ang^3
#
#
#
# Elastic Constant Matrix: (Units=GPa)
#
#
# Indices 1 2 3 4 5 6 
#
# 1 229.7767 25.9766 111.8626 0.0000 0.0000 0.0000
# 2 25.9766 24.1078 16.3677 0.0000 0.0000 0.0000
# 3 111.8626 16.3677 119.0729 0.0000 0.0000 0.0000
# 4 0.0000 0.0000 0.0000 0.1649 0.0000 0.0000
# 5 0.0000 0.0000 0.0000 0.0000 33.0551 0.0000
# 6 0.0000 0.0000 0.0000 0.0000 0.0000 0.7973
#
#
#
# Elastic Compliance Matrix: (Units=1/GPa)
#
#
# Indices 1 2 3 4 5 6 
#
# 1 0.008365 -0.004057 -0.007301 0.000000 0.000000 0.000000
# 2 -0.004057 0.047717 -0.002748 0.000000 0.000000 0.000000
# 3 -0.007301 -0.002748 0.015635 0.000000 0.000000 0.000000
# 4 0.000000 0.000000 0.000000 6.063375 0.000000 0.000000
# 5 0.000000 0.000000 0.000000 0.000000 0.030253 0.000000
# 6 0.000000 0.000000 0.000000 0.000000 0.000000 1.254168
#
#
# Mechanical properties :
#
#
# Convention : Reuss Voigt Hill
#
# Bulk Modulus (GPa) = 22.98550 75.70792 49.34671
# Shear Modulus (GPa) = 0.67004 21.38684 11.02844
#
# Velocity S-wave (km/s) = 0.59959 3.38746 2.43253
# Velocity P-wave (km/s) = 3.57938 7.47798 5.86226
#
# Compressibility (1/GPa) = 0.04350569
#
# Stress axis : x y z
#
# Youngs Moduli (GPa) = 119.54734 20.95675 63.96050
#
# Poissons Ratio (x) = 0.08501 0.46696
# Poissons Ratio (y) = 0.48495 0.17578
# Poissons Ratio (z) = 0.87278 0.05759
#
# Static dielectric constant tensor:
#      x y z
#    x 1.666910 0.000000 0.000000 
#    y 0.000000 1.624740 0.000000 
#    z 0.000000 0.000000 1.616120 
# 
# From -- ./inp_files/12165.got.cif
#   From: 2010.05.17/outbox.cif.g08.bks.cpg/sg51_7_cif.got.tgz:12165.got - 2010.06.03 11:52:47.
