data_PCOD9404786
_publ_section_title
;
Structure prediction by ZEFSAII (Michael W. Deem and Ramdas Pophale) SiO2 
 PCOD9404786
Probable space group: P M M A
;
_chemical_formula_sum "Si O2"
_cell_formula_units_Z 64
_cell_length_a 15.051180
_cell_length_b 23.282770
_cell_length_c 8.774074
_cell_angle_alpha 90.000000
_cell_angle_beta 90.000000
_cell_angle_gamma 90.000000
_cell_volume 3074.726497
_symmetry_space_group_name_H-M "P M M A"
_symmetry_group_IT_number 51
_symmetry_cell_setting 'orthorhombic'
loop_
_space_group_symop_operation_xyz
x,y,z
1/2-x,-y,z
1/2+x,-y,-z
-x,y,-z
-x,-y,-z
1/2+x,y,-z
1/2-x,y,z
x,-y,z
loop_
_atom_site_type_symbol
_atom_site_label
_atom_site_fract_x
_atom_site_fract_y
_atom_site_fract_z
Si Si1 0.473703 0.108949 0.166806
Si Si2 0.144522 0.736306 0.808746
Si Si3 0.982805 0.564151 0.818928
Si Si4 0.642503 0.224042 0.856898
Si Si5 0.911520 0.836255 0.401149
Si Si6 0.144673 0.659772 0.317127
Si Si7 0.644322 0.618622 0.333684
Si Si8 0.652926 0.061835 0.600426
O O1 0.409666 0.165144 0.169223
O O2 0.562258 0.128684 0.250998
O O3 0.423110 0.064982 0.274150
O O4 0.500000 0.089872 0.000000
O O5 0.250000 0.736046 0.821534
O O6 0.123843 0.776988 0.665206
O O7 0.118031 0.671746 0.774690
O O8 0.112715 0.756814 0.973544
O O9 0.946617 0.500000 0.788611
O O10 0.914214 0.613681 0.772044
O O11 0.073249 0.571572 0.719148
O O12 0.000000 0.568342 0.000000
O O13 0.750000 0.215539 0.852132
O O14 0.620839 0.275178 0.736720
O O15 0.854599 0.881030 0.498704
O O16 0.000000 0.826016 0.500000
O O17 0.250000 0.653920 0.282136
O O18 0.132896 0.643374 0.494997
O O19 0.750000 0.604382 0.315798
O O20 0.750000 0.062995 0.673844
O O21 0.644697 0.000000 0.517400
#
# Coordination Sequence:
#
# PCOD9404786 Si02
#       8
#     8   8   8   8   8   8   8   8
#     4  11  22  37  59  92 124 156 198 256 319 371
#     4  10  20  36  57  84 121 161 201 247 304 369
#     4  11  25  43  65  91 122 167 215 264 313 372
#     4  10  21  37  59  87 126 165 198 244 307 378
#     4  10  22  35  58  89 119 158 202 251 306 360
#     4  10  23  41  63  93 126 165 208 261 321 376
#     4  10  23  40  62  93 127 166 209 261 318 374
#     4  10  23  44  65  84 116 165 212 255 307 372
#
# _framework density 20.814858000000001
#
# number of rings (size 3 to 8) (size 9 to 14) (size 15 to 20)
#    0.000    1.750    1.250    1.875    5.250    6.000 
#    0.000    2.500    0.000    1.500    0.000    0.000 
#    0.000    0.000    0.000    0.000    0.000    0.000 
#
# Total GULP energy -357173.099302 kJ/mol
# GULP energy per Si atom -5580.829677 kJ/mol
# Density = 2.076748 g / cm^3
# Si number density = 20.814858 Si / 1000 Ang^3
#
#
#
# Elastic Constant Matrix: (Units=GPa)
#
#
# Indices 1 2 3 4 5 6 
#
# 1 39.2546 22.5148 3.8050 0.0000 0.0000 0.0000
# 2 22.5148 60.9296 -3.6487 0.0000 0.0000 0.0000
# 3 3.8050 -3.6487 65.2234 0.0000 0.0000 0.0000
# 4 0.0000 0.0000 0.0000 23.8520 0.0000 0.0000
# 5 0.0000 0.0000 0.0000 0.0000 19.7375 0.0000
# 6 0.0000 0.0000 0.0000 0.0000 0.0000 54.2256
#
#
#
# Elastic Compliance Matrix: (Units=1/GPa)
#
#
# Indices 1 2 3 4 5 6 
#
# 1 0.032759 -0.012260 -0.002597 0.000000 0.000000 0.000000
# 2 -0.012260 0.021056 0.001893 0.000000 0.000000 0.000000
# 3 -0.002597 0.001893 0.015589 0.000000 0.000000 0.000000
# 4 0.000000 0.000000 0.000000 0.041925 0.000000 0.000000
# 5 0.000000 0.000000 0.000000 0.000000 0.050665 0.000000
# 6 0.000000 0.000000 0.000000 0.000000 0.000000 0.018441
#
#
# Mechanical properties :
#
#
# Convention : Reuss Voigt Hill
#
# Bulk Modulus (GPa) = 23.00138 23.41662 23.20900
# Shear Modulus (GPa) = 22.63916 29.07878 25.85897
#
# Velocity S-wave (km/s) = 3.30152 3.74173 3.52850
# Velocity P-wave (km/s) = 5.06042 5.47191 5.27018
#
# Compressibility (1/GPa) = 0.04347566
#
# Stress axis : x y z
#
# Youngs Moduli (GPa) = 30.52639 47.49181 64.14640
#
# Poissons Ratio (x) = 0.58227 0.16658
# Poissons Ratio (y) = 0.37427 -0.12144
# Poissons Ratio (z) = 0.07928 -0.08991
#
# Static dielectric constant tensor:
#      x y z
#    x 1.751830 0.000000 0.000000 
#    y 0.000000 1.764110 0.000000 
#    z 0.000000 0.000000 1.769590 
# 
# From -- ./inp_files/8701.got.cif
#   From: 2010.05.17/outbox.cif.g08.bks.cpg/sg51_5_cif.got.tgz:8701.got - 2010.06.03 11:52:47.
