data_PCOD9404966
_publ_section_title
;
Structure prediction by ZEFSAII (Michael W. Deem and Ramdas Pophale) SiO2 
 PCOD9404966
Probable space group: P M M A
;
_chemical_formula_sum "Si O2"
_cell_formula_units_Z 48
_cell_length_a 14.884515
_cell_length_b 8.941324
_cell_length_c 20.053469
_cell_angle_alpha 90.000000
_cell_angle_beta 90.000000
_cell_angle_gamma 90.000000
_cell_volume 2668.861467
_symmetry_space_group_name_H-M "P M M A"
_symmetry_group_IT_number 51
_symmetry_cell_setting 'orthorhombic'
loop_
_space_group_symop_operation_xyz
x,y,z
1/2-x,-y,z
1/2+x,-y,-z
-x,y,-z
-x,-y,-z
1/2+x,y,-z
1/2-x,y,z
x,-y,z
loop_
_atom_site_type_symbol
_atom_site_label
_atom_site_fract_x
_atom_site_fract_y
_atom_site_fract_z
Si Si1 0.750000 0.820139 0.127015
Si Si2 0.009475 0.320968 0.671501
Si Si3 0.144515 0.678062 0.552816
Si Si4 0.441807 0.179317 0.812775
Si Si5 0.250000 0.319929 0.019760
Si Si6 0.643860 0.177393 0.588384
Si Si7 0.554092 0.320395 0.931840
O O1 0.840545 0.776833 0.165731
O O2 0.750000 0.749135 0.053831
O O3 0.750000 0.000000 0.120088
O O4 0.007743 0.500000 0.677317
O O5 0.083973 0.279966 0.615714
O O6 0.032981 0.249128 0.742034
O O7 0.915806 0.260892 0.642682
O O8 0.250000 0.706598 0.566160
O O9 0.133535 0.500000 0.541063
O O10 0.118982 0.763269 0.485271
O O11 0.507870 0.238858 0.870226
O O12 0.446260 0.000000 0.809270
O O13 0.250000 0.500000 0.012879
O O14 0.341941 0.278016 0.057071
O O15 0.750000 0.207435 0.597192
O O16 0.629251 0.000000 0.592235
O O17 0.548896 0.500000 0.921882
O O18 0.500000 0.285984 0.000000
#
# Coordination Sequence:
#
# PCOD9404966 Si02
#       7
#     4   8   8   8   4   8   8
#     4  10  22  38  58  86 118 151 186 229 288 344
#     4  11  23  38  59  85 115 154 194 236 286 339
#     4   9  19  36  58  86 117 149 189 235 283 339
#     4  11  24  40  58  84 119 155 190 234 286 344
#     4  10  20  36  62  90 114 145 188 239 286 336
#     4  10  21  38  60  85 114 150 192 238 288 341
#     4  10  20  37  61  88 116 148 191 237 283 339
#
# _framework density 17.985196999999999
#
# number of rings (size 3 to 8) (size 9 to 14) (size 15 to 20)
#    0.000    1.833    1.667    2.000    1.167    6.000 
#    1.500    0.000    0.000    0.000    0.000    0.000 
#    0.000    0.000    0.000    0.000    0.000    0.000 
#
# Total GULP energy -268182.131301 kJ/mol
# GULP energy per Si atom -5587.127735 kJ/mol
# Density = 1.794426 g / cm^3
# Si number density = 17.985197 Si / 1000 Ang^3
#
#
#
# Elastic Constant Matrix: (Units=GPa)
#
#
# Indices 1 2 3 4 5 6 
#
# 1 142.8489 60.5697 102.3146 0.0000 0.0000 0.0000
# 2 60.5697 47.5587 68.7235 0.0000 0.0000 0.0000
# 3 102.3146 68.7235 167.7710 0.0000 0.0000 0.0000
# 4 0.0000 0.0000 0.0000 58.9143 0.0000 0.0000
# 5 0.0000 0.0000 0.0000 0.0000 9.9418 0.0000
# 6 0.0000 0.0000 0.0000 0.0000 0.0000 21.3010
#
#
#
# Elastic Compliance Matrix: (Units=1/GPa)
#
#
# Indices 1 2 3 4 5 6 
#
# 1 0.015997 -0.015379 -0.003456 0.000000 0.000000 0.000000
# 2 -0.015379 0.066312 -0.017784 0.000000 0.000000 0.000000
# 3 -0.003456 -0.017784 0.015353 0.000000 0.000000 0.000000
# 4 0.000000 0.000000 0.000000 0.016974 0.000000 0.000000
# 5 0.000000 0.000000 0.000000 0.000000 0.100585 0.000000
# 6 0.000000 0.000000 0.000000 0.000000 0.000000 0.046946
#
#
# Mechanical properties :
#
#
# Convention : Reuss Voigt Hill
#
# Bulk Modulus (GPa) = 40.94493 91.26601 66.10547
# Shear Modulus (GPa) = 14.55411 26.46948 20.51180
#
# Velocity S-wave (km/s) = 2.84778 3.84048 3.38077
# Velocity P-wave (km/s) = 5.79900 8.39768 7.21628
#
# Compressibility (1/GPa) = 0.02442305
#
# Stress axis : x y z
#
# Youngs Moduli (GPa) = 62.51358 15.08025 65.13496
#
# Poissons Ratio (x) = 0.23192 0.22508
# Poissons Ratio (y) = 0.96142 1.15836
# Poissons Ratio (z) = 0.21602 0.26819
#
# Static dielectric constant tensor:
#      x y z
#    x 1.622770 0.000000 0.000000 
#    y 0.000000 1.601120 0.000000 
#    z 0.000000 0.000000 1.565460 
# 
# From -- ./inp_files/29564.got.cif
#   From: 2010.05.17/outbox.cif.g08.bks.cpg/sg51_15_cif.got.tgz:29564.got - 2010.06.03 11:52:47.
