data_PCOD9404692
_publ_section_title
;
Structure prediction by ZEFSAII (Michael W. Deem and Ramdas Pophale) SiO2 
 PCOD9404692
Probable space group: P M M A
;
_chemical_formula_sum "Si O2"
_cell_formula_units_Z 52
_cell_length_a 14.284966
_cell_length_b 11.525848
_cell_length_c 16.733254
_cell_angle_alpha 90.000000
_cell_angle_beta 90.000000
_cell_angle_gamma 90.000000
_cell_volume 2755.069141
_symmetry_space_group_name_H-M "P M M A"
_symmetry_group_IT_number 51
_symmetry_cell_setting 'orthorhombic'
loop_
_space_group_symop_operation_xyz
x,y,z
1/2-x,-y,z
1/2+x,-y,-z
-x,y,-z
-x,-y,-z
1/2+x,y,-z
1/2-x,y,z
x,-y,z
loop_
_atom_site_type_symbol
_atom_site_label
_atom_site_fract_x
_atom_site_fract_y
_atom_site_fract_z
Si Si1 0.363176 0.132455 0.455800
Si Si2 0.854058 0.365012 0.107096
Si Si3 0.500000 0.771410 0.000000
Si Si4 0.638728 0.626825 0.460818
Si Si5 0.039229 0.136103 0.284580
Si Si6 0.643017 0.711997 0.287747
Si Si7 0.355465 0.861842 0.127330
O O1 0.250000 0.132736 0.453142
O O2 0.393418 0.247594 0.505068
O O3 0.404786 0.148215 0.367271
O O4 0.389461 0.000000 0.484127
O O5 0.750000 0.318406 0.086214
O O6 0.856296 0.500000 0.086862
O O7 0.863512 0.350917 0.202573
O O8 0.936104 0.302026 0.060388
O O9 0.573769 0.839579 0.945158
O O10 0.750000 0.625997 0.476813
O O11 0.603620 0.500000 0.490209
O O12 0.626645 0.633360 0.365348
O O13 0.098727 0.184125 0.209651
O O14 0.937860 0.193168 0.289059
O O15 0.025934 0.000000 0.270706
O O16 0.750000 0.757849 0.295151
O O17 0.250000 0.815481 0.114725
O O18 0.347321 0.000000 0.136620
#
# Coordination Sequence:
#
# PCOD9404692 Si02
#       7
#     8   8   4   8   8   8   8
#     4   9  18  34  58  84 112 149 192 236 284 341
#     4  10  21  37  57  81 111 148 189 232 281 340
#     4  12  20  36  60  88 112 140 186 234 288 336
#     4   9  18  34  57  83 114 151 191 236 285 340
#     4  10  20  36  56  81 111 148 191 231 280 343
#     4  10  20  36  55  78 110 151 191 231 283 340
#     4  10  21  37  58  84 116 151 185 227 281 343
#
# _framework density 18.874300000000002
#
# number of rings (size 3 to 8) (size 9 to 14) (size 15 to 20)
#    0.000    2.154    1.538    1.846    0.000    5.231 
#    0.000    5.385    0.000    0.000    0.000    0.000 
#    0.000    0.000    0.000    0.000    0.000    0.000 
#
# Total GULP energy -289754.189817 kJ/mol
# GULP energy per Si atom -5572.195958 kJ/mol
# Density = 1.883134 g / cm^3
# Si number density = 18.874300 Si / 1000 Ang^3
#
#
#
# Elastic Constant Matrix: (Units=GPa)
#
#
# Indices 1 2 3 4 5 6 
#
# 1 126.4050 46.4816 34.3567 0.0000 0.0000 0.0000
# 2 46.4816 92.2673 47.5314 0.0000 0.0000 0.0000
# 3 34.3567 47.5314 70.4833 0.0000 0.0000 0.0000
# 4 0.0000 0.0000 0.0000 6.8771 0.0000 0.0000
# 5 0.0000 0.0000 0.0000 0.0000 25.8093 0.0000
# 6 0.0000 0.0000 0.0000 0.0000 0.0000 3.9882
#
#
#
# Elastic Compliance Matrix: (Units=1/GPa)
#
#
# Indices 1 2 3 4 5 6 
#
# 1 0.009937 -0.003847 -0.002249 0.000000 0.000000 0.000000
# 2 -0.003847 0.018097 -0.010329 0.000000 0.000000 0.000000
# 3 -0.002249 -0.010329 0.022249 0.000000 0.000000 0.000000
# 4 0.000000 0.000000 0.000000 0.145410 0.000000 0.000000
# 5 0.000000 0.000000 0.000000 0.000000 0.038746 0.000000
# 6 0.000000 0.000000 0.000000 0.000000 0.000000 0.250737
#
#
# Mechanical properties :
#
#
# Convention : Reuss Voigt Hill
#
# Bulk Modulus (GPa) = 57.36218 60.65501 59.00860
# Shear Modulus (GPa) = 9.54495 18.05399 13.79947
#
# Velocity S-wave (km/s) = 2.25124 3.09615 2.70687
# Velocity P-wave (km/s) = 6.10042 6.70728 6.41103
#
# Compressibility (1/GPa) = 0.01743309
#
# Stress axis : x y z
#
# Youngs Moduli (GPa) = 100.63213 55.25770 44.94495
#
# Poissons Ratio (x) = 0.21259 0.10110
# Poissons Ratio (y) = 0.38717 0.46422
# Poissons Ratio (z) = 0.22635 0.57074
#
# Static dielectric constant tensor:
#      x y z
#    x 1.660870 0.000000 0.000000 
#    y 0.000000 1.658750 0.000000 
#    z 0.000000 0.000000 1.654690 
# 
# From -- ./inp_files/24185.got.cif
#   From: 2010.05.17/outbox.cif.g08.bks.cpg/sg51_13_cif.got.tgz:24185.got - 2010.06.03 11:52:47.
