data_PCOD9404160
_publ_section_title
;
Structure prediction by ZEFSAII (Michael W. Deem and Ramdas Pophale) SiO2 
 PCOD9404160
Probable space group: P M M A
;
_chemical_formula_sum "Si O2"
_cell_formula_units_Z 64
_cell_length_a 19.325913
_cell_length_b 7.528876
_cell_length_c 20.671188
_cell_angle_alpha 90.000000
_cell_angle_beta 90.000000
_cell_angle_gamma 90.000000
_cell_volume 3007.707518
_symmetry_space_group_name_H-M "P M M A"
_symmetry_group_IT_number 51
_symmetry_cell_setting 'orthorhombic'
loop_
_space_group_symop_operation_xyz
x,y,z
1/2-x,-y,z
1/2+x,-y,-z
-x,y,-z
-x,-y,-z
1/2+x,y,-z
1/2-x,y,z
x,-y,z
loop_
_atom_site_type_symbol
_atom_site_label
_atom_site_fract_x
_atom_site_fract_y
_atom_site_fract_z
Si Si1 0.428195 0.216527 0.034846
Si Si2 0.829474 0.783089 0.221666
Si Si3 0.104820 0.709388 0.288788
Si Si4 0.553223 0.214865 0.318054
Si Si5 0.671678 0.215811 0.078788
Si Si6 0.828416 0.713617 0.577294
Si Si7 0.932535 0.787667 0.464056
Si Si8 0.830068 0.208206 0.849349
O O1 0.391568 0.276781 0.102436
O O2 0.434724 0.000000 0.040109
O O3 0.500000 0.274768 0.000000
O O4 0.372867 0.270361 0.981119
O O5 0.750000 0.727067 0.232357
O O6 0.884674 0.720693 0.273189
O O7 0.852559 0.729210 0.149769
O O8 0.828538 0.000000 0.223060
O O9 0.118221 0.500000 0.287762
O O10 0.133914 0.780564 0.357482
O O11 0.142539 0.779282 0.224465
O O12 0.022351 0.737794 0.291175
O O13 0.566611 0.280005 0.390940
O O14 0.555750 0.000000 0.318500
O O15 0.750000 0.275004 0.071575
O O16 0.671377 0.000000 0.078708
O O17 0.750000 0.778813 0.575614
O O18 0.827332 0.500000 0.581721
O O19 0.868478 0.755857 0.511326
O O20 0.000000 0.715319 0.500000
O O21 0.939894 0.000000 0.458866
O O22 0.750000 0.279253 0.855244
O O23 0.824185 0.000000 0.865816
#
# Coordination Sequence:
#
# PCOD9404160 Si02
#       8
#     8   8   8   8   8   8   8   8
#     4   9  17  27  44  75 110 139 171 215 269 323
#     4   8  15  27  46  75 107 138 172 213 264 320
#     4  11  23  38  57  80 109 147 190 233 277 326
#     4  10  20  34  56  82 113 144 179 225 272 329
#     4   8  13  23  40  64  97 133 165 201 250 308
#     4  10  22  39  58  80 106 141 188 234 273 324
#     4  10  20  35  54  81 112 141 174 217 275 334
#     4  10  21  36  55  81 113 146 182 229 283 334
#
# _framework density 21.278663999999999
#
# number of rings (size 3 to 8) (size 9 to 14) (size 15 to 20)
#    0.000    2.500    1.250    1.875    1.750    4.250 
#    0.000    1.250    0.000    0.750    0.000    0.000 
#    0.000    0.000    0.000    0.000    0.000    0.000 
#
# Total GULP energy -356889.162098 kJ/mol
# GULP energy per Si atom -5576.393158 kJ/mol
# Density = 2.123023 g / cm^3
# Si number density = 21.278664 Si / 1000 Ang^3
#
#
#
# Elastic Constant Matrix: (Units=GPa)
#
#
# Indices 1 2 3 4 5 6 
#
# 1 86.7259 -8.3470 69.8915 0.0000 0.0000 0.0000
# 2 -8.3470 51.1626 -5.1246 0.0000 0.0000 0.0000
# 3 69.8915 -5.1246 133.7801 0.0000 0.0000 0.0000
# 4 0.0000 0.0000 0.0000 3.0845 0.0000 0.0000
# 5 0.0000 0.0000 0.0000 0.0000 40.2512 0.0000
# 6 0.0000 0.0000 0.0000 0.0000 0.0000 19.7410
#
#
#
# Elastic Compliance Matrix: (Units=1/GPa)
#
#
# Indices 1 2 3 4 5 6 
#
# 1 0.020169 0.002244 -0.010451 0.000000 0.000000 0.000000
# 2 0.002244 0.019870 -0.000411 0.000000 0.000000 0.000000
# 3 -0.010451 -0.000411 0.012919 0.000000 0.000000 0.000000
# 4 0.000000 0.000000 0.000000 0.324201 0.000000 0.000000
# 5 0.000000 0.000000 0.000000 0.000000 0.024844 0.000000
# 6 0.000000 0.000000 0.000000 0.000000 0.000000 0.050656
#
#
# Mechanical properties :
#
#
# Convention : Reuss Voigt Hill
#
# Bulk Modulus (GPa) = 27.99415 42.72318 35.35867
# Shear Modulus (GPa) = 10.37767 26.96525 18.67146
#
# Velocity S-wave (km/s) = 2.21080 3.56370 2.96543
# Velocity P-wave (km/s) = 4.43862 6.08726 5.32711
#
# Compressibility (1/GPa) = 0.03572175
#
# Stress axis : x y z
#
# Youngs Moduli (GPa) = 49.58133 50.32614 77.40421
#
# Poissons Ratio (x) = -0.11291 0.80895
# Poissons Ratio (y) = -0.11124 0.03181
# Poissons Ratio (z) = 0.51817 0.02068
#
# Static dielectric constant tensor:
#      x y z
#    x 1.582540 0.000000 0.000000 
#    y 0.000000 1.816190 0.000000 
#    z 0.000000 0.000000 1.776930 
# 
# From -- ./inp_files/33953.got.cif
#   From: 2010.05.17/outbox.cif.g08.bks.cpg/sg51_17_cif.got.tgz:33953.got - 2010.06.03 11:52:47.
