data_PCOD9404752
_publ_section_title
;
Structure prediction by ZEFSAII (Michael W. Deem and Ramdas Pophale) SiO2 
 PCOD9404752
Probable space group: P M M A
;
_chemical_formula_sum "Si O2"
_cell_formula_units_Z 48
_cell_length_a 16.048728
_cell_length_b 8.846397
_cell_length_c 17.942120
_cell_angle_alpha 90.000000
_cell_angle_beta 90.000000
_cell_angle_gamma 90.000000
_cell_volume 2547.304125
_symmetry_space_group_name_H-M "P M M A"
_symmetry_group_IT_number 51
_symmetry_cell_setting 'orthorhombic'
loop_
_space_group_symop_operation_xyz
x,y,z
1/2-x,-y,z
1/2+x,-y,-z
-x,y,-z
-x,-y,-z
1/2+x,y,-z
1/2-x,y,z
x,-y,z
loop_
_atom_site_type_symbol
_atom_site_label
_atom_site_fract_x
_atom_site_fract_y
_atom_site_fract_z
Si Si1 0.419916 0.680112 0.840713
Si Si2 0.101410 0.174280 0.993865
Si Si3 0.153629 0.684080 0.684462
Si Si4 0.750000 0.179755 0.741717
Si Si5 0.118293 0.678306 0.147904
Si Si6 0.750000 0.683316 0.576308
Si Si7 0.091532 0.684520 0.524682
O O1 0.405680 0.500000 0.846834
O O2 0.380100 0.757265 0.913070
O O3 0.384492 0.736332 0.762314
O O4 0.519544 0.703386 0.840762
O O5 0.126181 0.000000 0.998628
O O6 0.137165 0.263758 0.064442
O O7 0.000000 0.182255 0.000000
O O8 0.250000 0.725503 0.679763
O O9 0.148816 0.500000 0.685230
O O10 0.108996 0.734793 0.609105
O O11 0.671075 0.236192 0.789876
O O12 0.750000 0.250895 0.659326
O O13 0.750000 0.000000 0.736351
O O14 0.135039 0.500000 0.153331
O O15 0.750000 0.500000 0.580925
O O16 0.832713 0.728986 0.529909
O O17 0.091895 0.500000 0.524548
O O18 0.000000 0.734387 0.500000
#
# Coordination Sequence:
#
# PCOD9404752 Si02
#       7
#     8   8   8   4   8   4   8
#     4   9  18  31  54  83 111 144 187 234 275 323
#     4   9  17  32  54  78 109 148 185 224 275 331
#     4   9  16  29  48  78 115 144 173 222 280 325
#     4  12  26  40  54  77 112 149 182 227 288 343
#     4  10  20  36  57  81 107 141 188 237 280 325
#     4  10  20  36  58  85 112 141 182 231 278 333
#     4   9  17  29  52  83 113 141 176 227 283 331
#
# _framework density 18.843451000000002
#
# number of rings (size 3 to 8) (size 9 to 14) (size 15 to 20)
#    0.000    2.500    0.833    1.750    2.333    2.667 
#    1.500    0.000    0.000    1.500    0.000    0.000 
#    0.000    0.000    0.000    0.000    0.000    0.000 
#
# Total GULP energy -267830.714418 kJ/mol
# GULP energy per Si atom -5579.806550 kJ/mol
# Density = 1.880056 g / cm^3
# Si number density = 18.843451 Si / 1000 Ang^3
#
#
#
# Elastic Constant Matrix: (Units=GPa)
#
#
# Indices 1 2 3 4 5 6 
#
# 1 82.2447 30.3763 80.2476 0.0000 0.0000 0.0000
# 2 30.3763 32.8007 41.6967 0.0000 0.0000 0.0000
# 3 80.2476 41.6967 214.8727 0.0000 0.0000 0.0000
# 4 0.0000 0.0000 0.0000 -0.7501 0.0000 0.0000
# 5 0.0000 0.0000 0.0000 0.0000 23.9276 0.0000
# 6 0.0000 0.0000 0.0000 0.0000 0.0000 10.5121
#
#
#
# Elastic Compliance Matrix: (Units=1/GPa)
#
#
# Indices 1 2 3 4 5 6 
#
# 1 0.023039 -0.013803 -0.005926 0.000000 0.000000 0.000000
# 2 -0.013803 0.048740 -0.004303 0.000000 0.000000 0.000000
# 3 -0.005926 -0.004303 0.007702 0.000000 0.000000 0.000000
# 4 0.000000 0.000000 0.000000 -1.333214 0.000000 0.000000
# 5 0.000000 0.000000 0.000000 0.000000 0.041793 0.000000
# 6 0.000000 0.000000 0.000000 0.000000 0.000000 0.095129
#
#
# Mechanical properties :
#
#
# Convention : Reuss Voigt Hill
#
# Bulk Modulus (GPa) = 31.82976 70.50660 51.16818
# Shear Modulus (GPa) = -4.72467 18.57775 6.92654
#
# Velocity S-wave (km/s) = -1.58517 3.14331 1.91933
# Velocity P-wave (km/s) = 3.68483 7.11844 5.66790
#
# Compressibility (1/GPa) = 0.03141714
#
# Stress axis : x y z
#
# Youngs Moduli (GPa) = 43.40552 20.51690 129.83657
#
# Poissons Ratio (x) = 0.28319 0.76936
# Poissons Ratio (y) = 0.59913 0.55872
# Poissons Ratio (z) = 0.25720 0.08829
#
# Static dielectric constant tensor:
#      x y z
#    x 1.660280 0.000000 0.000000 
#    y 0.000000 1.625710 0.000000 
#    z 0.000000 0.000000 1.634990 
# 
# From -- ./inp_files/29551.got.cif
#   From: 2010.05.17/outbox.cif.g08.bks.cpg/sg51_15_cif.got.tgz:29551.got - 2010.06.03 11:52:47.
