data_PCOD9404254
_publ_section_title
;
Structure prediction by ZEFSAII (Michael W. Deem and Ramdas Pophale) SiO2 
 PCOD9404254
Probable space group: P M M A
;
_chemical_formula_sum "Si O2"
_cell_formula_units_Z 64
_cell_length_a 25.277903
_cell_length_b 7.992010
_cell_length_c 15.668229
_cell_angle_alpha 90.000000
_cell_angle_beta 90.000000
_cell_angle_gamma 90.000000
_cell_volume 3165.315264
_symmetry_space_group_name_H-M "P M M A"
_symmetry_group_IT_number 51
_symmetry_cell_setting 'orthorhombic'
loop_
_space_group_symop_operation_xyz
x,y,z
1/2-x,-y,z
1/2+x,-y,-z
-x,y,-z
-x,-y,-z
1/2+x,y,-z
1/2-x,y,z
x,-y,z
loop_
_atom_site_type_symbol
_atom_site_label
_atom_site_fract_x
_atom_site_fract_y
_atom_site_fract_z
Si Si1 0.310309 0.297804 0.861310
Si Si2 0.153065 0.811892 0.531102
Si Si3 0.308277 0.797323 0.352705
Si Si4 0.689780 0.704257 0.943892
Si Si5 0.611536 0.699559 0.796440
Si Si6 0.887120 0.199928 0.289760
Si Si7 0.054337 0.685488 0.449931
Si Si8 0.508417 0.198130 0.724742
O O1 0.250000 0.244878 0.841521
O O2 0.311315 0.500000 0.859741
O O3 0.351246 0.234133 0.791875
O O4 0.322218 0.245263 0.958663
O O5 0.185190 0.736819 0.451057
O O6 0.141562 0.732454 0.623948
O O7 0.094923 0.815569 0.488543
O O8 0.174141 0.000000 0.545344
O O9 0.250000 0.747090 0.320823
O O10 0.354482 0.740745 0.289075
O O11 0.310768 0.000000 0.355835
O O12 0.750000 0.757073 0.923451
O O13 0.689718 0.500000 0.942309
O O14 0.647429 0.762564 0.874906
O O15 0.607422 0.500000 0.801509
O O16 0.551759 0.769785 0.798057
O O17 0.947579 0.259634 0.273297
O O18 0.890884 0.000000 0.303124
O O19 0.077655 0.500000 0.460926
O O20 0.037527 0.714945 0.353956
O O21 0.000000 0.694772 0.500000
O O22 0.506527 0.000000 0.709501
#
# Coordination Sequence:
#
# PCOD9404254 Si02
#       8
#     8   8   8   8   8   8   8   8
#     4   9  19  38  63  86 108 138 177 226 282 333
#     4  10  20  35  53  73 104 148 187 221 266 323
#     4  10  21  35  51  75 109 148 186 225 274 333
#     4   8  16  34  59  84 109 139 178 224 279 339
#     4  11  21  34  56  84 110 142 184 232 280 325
#     4  10  22  37  56  82 110 147 190 227 269 323
#     4  11  21  32  51  79 106 136 182 235 274 309
#     4  11  22  36  53  77 113 153 187 220 270 333
#
# _framework density 20.219156000000002
#
# number of rings (size 3 to 8) (size 9 to 14) (size 15 to 20)
#    0.000    2.000    2.500    2.250    0.000    3.500 
#    0.000    3.125    0.000    5.250    0.000    0.000 
#    0.000    0.000    0.000    0.000    0.000    0.000 
#
# Total GULP energy -356807.071708 kJ/mol
# GULP energy per Si atom -5575.110495 kJ/mol
# Density = 2.017314 g / cm^3
# Si number density = 20.219156 Si / 1000 Ang^3
#
#
#
# Elastic Constant Matrix: (Units=GPa)
#
#
# Indices 1 2 3 4 5 6 
#
# 1 87.4626 -1.9188 51.4638 0.0000 0.0000 0.0000
# 2 -1.9188 23.7079 -12.0366 0.0000 0.0000 0.0000
# 3 51.4638 -12.0366 101.3956 0.0000 0.0000 0.0000
# 4 0.0000 0.0000 0.0000 17.3642 0.0000 0.0000
# 5 0.0000 0.0000 0.0000 0.0000 34.1623 0.0000
# 6 0.0000 0.0000 0.0000 0.0000 0.0000 30.3950
#
#
#
# Elastic Compliance Matrix: (Units=1/GPa)
#
#
# Indices 1 2 3 4 5 6 
#
# 1 0.016514 -0.003106 -0.008751 0.000000 0.000000 0.000000
# 2 -0.003106 0.045469 0.006974 0.000000 0.000000 0.000000
# 3 -0.008751 0.006974 0.015132 0.000000 0.000000 0.000000
# 4 0.000000 0.000000 0.000000 0.057590 0.000000 0.000000
# 5 0.000000 0.000000 0.000000 0.000000 0.029272 0.000000
# 6 0.000000 0.000000 0.000000 0.000000 0.000000 0.032900
#
#
# Mechanical properties :
#
#
# Convention : Reuss Voigt Hill
#
# Bulk Modulus (GPa) = 14.84776 31.95366 23.40071
# Shear Modulus (GPa) = 21.82525 28.05480 24.94002
#
# Velocity S-wave (km/s) = 3.28904 3.72901 3.51591
# Velocity P-wave (km/s) = 4.66723 5.86333 5.29913
#
# Compressibility (1/GPa) = 0.06735024
#
# Stress axis : x y z
#
# Youngs Moduli (GPa) = 60.55374 21.99278 66.08654
#
# Poissons Ratio (x) = 0.06831 0.57830
# Poissons Ratio (y) = 0.18809 -0.46090
# Poissons Ratio (z) = 0.52988 -0.15338
#
# Static dielectric constant tensor:
#      x y z
#    x 1.735470 0.000000 0.000000 
#    y 0.000000 1.747610 0.000000 
#    z 0.000000 0.000000 1.746160 
# 
# From -- ./inp_files/26180.got.cif
#   From: 2010.05.17/outbox.cif.g08.bks.cpg/sg51_14_cif.got.tgz:26180.got - 2010.06.03 11:52:47.
