data_PCOD9404493
_publ_section_title
;
Structure prediction by ZEFSAII (Michael W. Deem and Ramdas Pophale) SiO2 
 PCOD9404493
Probable space group: P M M A
;
_chemical_formula_sum "Si O2"
_cell_formula_units_Z 56
_cell_length_a 15.810341
_cell_length_b 8.824872
_cell_length_c 22.164633
_cell_angle_alpha 90.000000
_cell_angle_beta 90.000000
_cell_angle_gamma 90.000000
_cell_volume 3092.503477
_symmetry_space_group_name_H-M "P M M A"
_symmetry_group_IT_number 51
_symmetry_cell_setting 'orthorhombic'
loop_
_space_group_symop_operation_xyz
x,y,z
1/2-x,-y,z
1/2+x,-y,-z
-x,y,-z
-x,-y,-z
1/2+x,y,-z
1/2-x,y,z
x,-y,z
loop_
_atom_site_type_symbol
_atom_site_label
_atom_site_fract_x
_atom_site_fract_y
_atom_site_fract_z
Si Si1 0.071226 0.181430 0.315315
Si Si2 0.073747 0.182256 0.455626
Si Si3 0.101825 0.679421 0.002663
Si Si4 0.846801 0.180585 0.124372
Si Si5 0.996833 0.319325 0.202414
Si Si6 0.250000 0.673856 0.312158
Si Si7 0.750000 0.328174 0.541401
Si Si8 0.153772 0.181601 0.129160
O O1 0.058953 0.224799 0.385517
O O2 0.164521 0.238780 0.295995
O O3 0.005628 0.258832 0.270400
O O4 0.067539 0.000000 0.310181
O O5 0.164171 0.244816 0.476042
O O6 0.000000 0.234960 0.500000
O O7 0.076890 0.000000 0.457076
O O8 0.119422 0.500000 0.008010
O O9 0.138542 0.766365 0.060298
O O10 0.139173 0.745337 0.941097
O O11 0.000000 0.698517 0.000000
O O12 0.750000 0.207248 0.143719
O O13 0.915430 0.251537 0.169079
O O14 0.860498 0.000000 0.119922
O O15 0.994652 0.500000 0.200364
O O16 0.080459 0.260602 0.167611
O O17 0.250000 0.500000 0.290271
O O18 0.250000 0.669838 0.385362
O O19 0.750000 0.500000 0.519734
O O20 0.250000 0.222507 0.147178
O O21 0.144967 0.000000 0.134092
#
# Coordination Sequence:
#
# PCOD9404493 Si02
#       8
#     8   8   8   8   8   4   4   8
#     4  10  20  35  56  82 115 151 190 234 283 337
#     4   9  18  34  58  85 113 149 193 236 281 333
#     4  11  22  37  59  88 117 147 184 231 289 342
#     4  11  24  42  65  88 110 145 193 241 288 339
#     4  12  25  40  59  84 116 151 189 234 284 340
#     4   9  17  31  51  79 113 149 187 224 271 334
#     4   9  17  29  49  81 117 149 183 226 277 330
#     4  11  24  40  59  84 115 151 189 230 281 338
#
# _framework density 18.108305999999999
#
# number of rings (size 3 to 8) (size 9 to 14) (size 15 to 20)
#    0.000    1.571    1.429    3.857    1.000    7.143 
#    0.000    0.000    1.571    0.000    0.000    0.000 
#    0.000    0.000    0.000    0.000    0.000    0.000 
#
# Total GULP energy -312955.230855 kJ/mol
# GULP energy per Si atom -5588.486265 kJ/mol
# Density = 1.806709 g / cm^3
# Si number density = 18.108306 Si / 1000 Ang^3
#
#
#
# Elastic Constant Matrix: (Units=GPa)
#
#
# Indices 1 2 3 4 5 6 
#
# 1 127.3584 53.9413 61.0115 0.0000 0.0000 0.0000
# 2 53.9413 76.8687 29.2333 0.0000 0.0000 0.0000
# 3 61.0115 29.2333 85.9129 0.0000 0.0000 0.0000
# 4 0.0000 0.0000 0.0000 21.0871 0.0000 0.0000
# 5 0.0000 0.0000 0.0000 0.0000 19.4496 0.0000
# 6 0.0000 0.0000 0.0000 0.0000 0.0000 2541.7185
#
#
#
# Elastic Compliance Matrix: (Units=1/GPa)
#
#
# Indices 1 2 3 4 5 6 
#
# 1 0.014798 -0.007337 -0.008012 0.000000 0.000000 0.000000
# 2 -0.007337 0.018581 -0.001112 0.000000 0.000000 0.000000
# 3 -0.008012 -0.001112 0.017708 0.000000 0.000000 0.000000
# 4 0.000000 0.000000 0.000000 0.047422 0.000000 0.000000
# 5 0.000000 0.000000 0.000000 0.000000 0.051415 0.000000
# 6 0.000000 0.000000 0.000000 0.000000 0.000000 0.000393
#
#
# Mechanical properties :
#
#
# Convention : Reuss Voigt Hill
#
# Bulk Modulus (GPa) = 55.05367 64.27914 59.66640
# Shear Modulus (GPa) = 26.41402 526.18130 276.29766
#
# Velocity S-wave (km/s) = 3.82340 17.06474 12.36575
# Velocity P-wave (km/s) = 7.06821 20.58757 15.39168
#
# Compressibility (1/GPa) = 0.01816409
#
# Stress axis : x y z
#
# Youngs Moduli (GPa) = 67.57894 53.81945 56.47206
#
# Poissons Ratio (x) = 0.39487 0.45246
# Poissons Ratio (y) = 0.49582 0.06280
# Poissons Ratio (z) = 0.54144 0.05985
#
# Static dielectric constant tensor:
#      x y z
#    x 1.604040 0.000000 0.000000 
#    y 0.000000 1.604370 0.000000 
#    z 0.000000 0.000000 1.623590 
# 
# From -- ./inp_files/33499.got.cif
#   From: 2010.05.17/outbox.cif.g08.bks.cpg/sg51_17_cif.got.tgz:33499.got - 2010.06.03 11:52:47.
