data_PCOD9404195
_publ_section_title
;
Structure prediction by ZEFSAII (Michael W. Deem and Ramdas Pophale) SiO2 
 PCOD9404195
Probable space group: P M M A
;
_chemical_formula_sum "Si O2"
_cell_formula_units_Z 44
_cell_length_a 10.419049
_cell_length_b 8.026424
_cell_length_c 28.491995
_cell_angle_alpha 90.000000
_cell_angle_beta 90.000000
_cell_angle_gamma 90.000000
_cell_volume 2382.720151
_symmetry_space_group_name_H-M "P M M A"
_symmetry_group_IT_number 51
_symmetry_cell_setting 'orthorhombic'
loop_
_space_group_symop_operation_xyz
x,y,z
1/2-x,-y,z
1/2+x,-y,-z
-x,y,-z
-x,-y,-z
1/2+x,y,-z
1/2-x,y,z
x,-y,z
loop_
_atom_site_type_symbol
_atom_site_label
_atom_site_fract_x
_atom_site_fract_y
_atom_site_fract_z
Si Si1 0.490833 0.300418 0.390103
Si Si2 0.399747 0.000000 0.957789
Si Si3 0.601590 0.311479 0.111688
Si Si4 0.601785 0.803992 0.813631
Si Si5 0.250000 0.802887 0.559524
Si Si6 0.901628 0.698779 0.708943
Si Si7 0.250000 0.701973 0.451032
O O1 0.474594 0.500000 0.386899
O O2 0.624369 0.263767 0.414533
O O3 0.476952 0.238211 0.336715
O O4 0.375443 0.238201 0.423077
O O5 0.419108 0.165300 0.926117
O O6 0.250000 0.000000 0.973370
O O7 0.500000 0.000000 0.000000
O O8 0.750000 0.293683 0.128264
O O9 0.588363 0.500000 0.092620
O O10 0.499678 0.286656 0.153250
O O11 0.750000 0.745335 0.819789
O O12 0.568837 0.780116 0.758838
O O13 0.598194 0.000000 0.824852
O O14 0.250000 0.753490 0.504987
O O15 0.250000 0.000000 0.562683
O O16 0.750000 0.723750 0.699137
O O17 0.921891 0.500000 0.714386
O O18 0.250000 0.500000 0.450363
#
# Coordination Sequence:
#
# PCOD9404195 Si02
#       7
#     8   4   8   8   4   8   4
#     4  10  20  38  61  81 105 138 180 231 282 340
#     4  10  22  40  62  90 128 166 206 256 303 354
#     4  10  21  39  62  88 122 165 209 252 302 357
#     4  10  20  34  56  87 120 155 196 241 293 354
#     4  12  26  38  50  78 114 142 178 224 278 341
#     4   9  17  33  57  84 110 139 183 237 290 343
#     4  10  20  38  64  84  98 134 184 228 280 341
#
# _framework density 18.466289
#
# number of rings (size 3 to 8) (size 9 to 14) (size 15 to 20)
#    0.000    2.000    1.818    1.909    0.000    5.818 
#    1.636    0.000    0.000    0.000    0.000    0.000 
#    0.000    0.000    0.000    0.000    0.000    0.000 
#
# Total GULP energy -245575.155029 kJ/mol
# GULP energy per Si atom -5581.253523 kJ/mol
# Density = 1.842426 g / cm^3
# Si number density = 18.466289 Si / 1000 Ang^3
#
#
#
# Elastic Constant Matrix: (Units=GPa)
#
#
# Indices 1 2 3 4 5 6 
#
# 1 114.2236 21.8002 79.7500 0.0000 0.0000 0.0000
# 2 21.8002 63.4646 35.2775 0.0000 0.0000 0.0000
# 3 79.7500 35.2775 115.7260 0.0000 0.0000 0.0000
# 4 0.0000 0.0000 0.0000 20.5497 0.0000 0.0000
# 5 0.0000 0.0000 0.0000 0.0000 39.5202 0.0000
# 6 0.0000 0.0000 0.0000 0.0000 0.0000 2.0945
#
#
#
# Elastic Compliance Matrix: (Units=1/GPa)
#
#
# Indices 1 2 3 4 5 6 
#
# 1 0.016907 0.000805 -0.011897 0.000000 0.000000 0.000000
# 2 0.000805 0.019010 -0.006350 0.000000 0.000000 0.000000
# 3 -0.011897 -0.006350 0.018775 0.000000 0.000000 0.000000
# 4 0.000000 0.000000 0.000000 0.048663 0.000000 0.000000
# 5 0.000000 0.000000 0.000000 0.000000 0.025304 0.000000
# 6 0.000000 0.000000 0.000000 0.000000 0.000000 0.477433
#
#
# Mechanical properties :
#
#
# Convention : Reuss Voigt Hill
#
# Bulk Modulus (GPa) = 50.48049 63.00775 56.74412
# Shear Modulus (GPa) = 7.72109 22.87198 15.29653
#
# Velocity S-wave (km/s) = 2.04701 3.52316 2.88123
# Velocity P-wave (km/s) = 5.74308 7.12353 6.47023
#
# Compressibility (1/GPa) = 0.01980963
#
# Stress axis : x y z
#
# Youngs Moduli (GPa) = 59.14609 52.60436 53.26193
#
# Poissons Ratio (x) = -0.04236 0.63364
# Poissons Ratio (y) = -0.04763 0.33820
# Poissons Ratio (z) = 0.70365 0.33403
#
# Static dielectric constant tensor:
#      x y z
#    x 1.598810 0.000000 0.000000 
#    y 0.000000 1.657880 0.000000 
#    z 0.000000 0.000000 1.612440 
# 
# From -- ./inp_files/36858.got.cif
#   From: 2010.05.17/outbox.cif.g08.bks.cpg/sg51_19_cif.got.tgz:36858.got - 2010.06.03 11:52:47.
