data_PCOD9404550
_publ_section_title
;
Structure prediction by ZEFSAII (Michael W. Deem and Ramdas Pophale) SiO2 
 PCOD9404550
Probable space group: P M M A
;
_chemical_formula_sum "Si O2"
_cell_formula_units_Z 56
_cell_length_a 8.795729
_cell_length_b 14.283967
_cell_length_c 23.987487
_cell_angle_alpha 90.000000
_cell_angle_beta 90.000000
_cell_angle_gamma 90.000000
_cell_volume 3013.737560
_symmetry_space_group_name_H-M "P M M A"
_symmetry_group_IT_number 51
_symmetry_cell_setting 'orthorhombic'
loop_
_space_group_symop_operation_xyz
x,y,z
1/2-x,-y,z
1/2+x,-y,-z
-x,y,-z
-x,-y,-z
1/2+x,y,-z
1/2-x,y,z
x,-y,z
loop_
_atom_site_type_symbol
_atom_site_label
_atom_site_fract_x
_atom_site_fract_y
_atom_site_fract_z
Si Si1 0.567745 0.710710 0.440649
Si Si2 0.433789 0.893021 0.624275
Si Si3 0.929859 0.207024 0.061579
Si Si4 0.569602 0.892981 0.839130
Si Si5 0.432170 0.398249 0.062589
Si Si6 0.067504 0.785004 0.270817
Si Si7 0.566345 0.392475 0.327159
O O1 0.500000 0.684985 0.500000
O O2 0.750000 0.708207 0.444479
O O3 0.521915 0.816185 0.422163
O O4 0.523334 0.643318 0.389309
O O5 0.250000 0.890310 0.628601
O O6 0.502281 0.854247 0.681824
O O7 0.479959 0.000000 0.613080
O O8 0.750000 0.213411 0.056252
O O9 0.981028 0.127897 0.104291
O O10 0.995339 0.304624 0.086657
O O11 0.000000 0.193904 0.000000
O O12 0.750000 0.879546 0.849531
O O13 0.522084 0.824062 0.789495
O O14 0.547206 0.000000 0.820894
O O15 0.250000 0.388592 0.059909
O O16 0.467187 0.500000 0.088621
O O17 0.500000 0.401304 0.000000
O O18 0.250000 0.785321 0.273900
O O19 0.005147 0.682126 0.284895
O O20 0.750000 0.386304 0.323470
O O21 0.521359 0.500000 0.318344
#
# Coordination Sequence:
#
# PCOD9404550 Si02
#       7
#     8   8   8   8   8   8   8
#     4   9  18  31  47  72 106 143 183 225 268 315
#     4   9  18  33  52  73 102 142 182 220 267 323
#     4  11  22  36  56  81 111 145 181 221 264 314
#     4  10  22  40  59  79 107 141 175 215 264 318
#     4   9  16  28  49  75 103 136 172 209 250 297
#     4  10  20  35  57  84 109 132 168 221 274 320
#     4   9  19  37  58  78 106 145 182 218 266 322
#
# _framework density 18.581578
#
# number of rings (size 3 to 8) (size 9 to 14) (size 15 to 20)
#    0.000    2.429    0.000    4.286    0.000    6.571 
#    0.000    0.714    0.000    0.857    0.000    0.000 
#    0.000    0.000    0.000    0.000    0.000    0.000 
#
# Total GULP energy -312326.365472 kJ/mol
# GULP energy per Si atom -5577.256526 kJ/mol
# Density = 1.853929 g / cm^3
# Si number density = 18.581578 Si / 1000 Ang^3
#
#
#
# Elastic Constant Matrix: (Units=GPa)
#
#
# Indices 1 2 3 4 5 6 
#
# 1 46.8985 32.4086 31.0366 0.0000 0.0000 0.0000
# 2 32.4086 106.2511 36.3689 0.0000 0.0000 0.0000
# 3 31.0366 36.3689 83.6856 0.0000 0.0000 0.0000
# 4 0.0000 0.0000 0.0000 13.3361 0.0000 0.0000
# 5 0.0000 0.0000 0.0000 0.0000 26.8046 0.0000
# 6 0.0000 0.0000 0.0000 0.0000 0.0000 27.1864
#
#
#
# Elastic Compliance Matrix: (Units=1/GPa)
#
#
# Indices 1 2 3 4 5 6 
#
# 1 0.031817 -0.006656 -0.008907 0.000000 0.000000 0.000000
# 2 -0.006656 0.012449 -0.002942 0.000000 0.000000 0.000000
# 3 -0.008907 -0.002942 0.016531 0.000000 0.000000 0.000000
# 4 0.000000 0.000000 0.000000 0.074985 0.000000 0.000000
# 5 0.000000 0.000000 0.000000 0.000000 0.037307 0.000000
# 6 0.000000 0.000000 0.000000 0.000000 0.000000 0.036783
#
#
# Mechanical properties :
#
#
# Convention : Reuss Voigt Hill
#
# Bulk Modulus (GPa) = 42.03937 48.49595 45.26766
# Shear Modulus (GPa) = 19.62244 22.60017 21.11130
#
# Velocity S-wave (km/s) = 3.25317 3.49129 3.37433
# Velocity P-wave (km/s) = 6.06499 6.51212 6.29253
#
# Compressibility (1/GPa) = 0.02378723
#
# Stress axis : x y z
#
# Youngs Moduli (GPa) = 31.42997 80.32958 60.49100
#
# Poissons Ratio (x) = 0.53466 0.53882
# Poissons Ratio (y) = 0.20919 0.17794
# Poissons Ratio (z) = 0.27996 0.23630
#
# Static dielectric constant tensor:
#      x y z
#    x 1.624900 0.000000 0.000000 
#    y 0.000000 1.683480 0.000000 
#    z 0.000000 0.000000 1.621750 
# 
# From -- ./inp_files/31966.got.cif
#   From: 2010.05.17/outbox.cif.g08.bks.cpg/sg51_16_cif.got.tgz:31966.got - 2010.06.03 11:52:47.
