data_PCOD9404507
_publ_section_title
;
Structure prediction by ZEFSAII (Michael W. Deem and Ramdas Pophale) SiO2 
 PCOD9404507
Probable space group: P M M A
;
_chemical_formula_sum "Si O2"
_cell_formula_units_Z 56
_cell_length_a 15.185160
_cell_length_b 13.975461
_cell_length_c 11.346190
_cell_angle_alpha 90.000000
_cell_angle_beta 90.000000
_cell_angle_gamma 90.000000
_cell_volume 2407.884032
_symmetry_space_group_name_H-M "P M M A"
_symmetry_group_IT_number 51
_symmetry_cell_setting 'orthorhombic'
loop_
_space_group_symop_operation_xyz
x,y,z
1/2-x,-y,z
1/2+x,-y,-z
-x,y,-z
-x,-y,-z
1/2+x,y,-z
1/2-x,y,z
x,-y,z
loop_
_atom_site_type_symbol
_atom_site_label
_atom_site_fract_x
_atom_site_fract_y
_atom_site_fract_z
Si Si1 0.141622 0.110645 0.705009
Si Si2 0.072672 0.707756 0.102228
Si Si3 0.356305 0.105800 0.227376
Si Si4 0.643864 0.792831 0.539889
Si Si5 0.342695 0.753035 0.893383
Si Si6 0.154271 0.391768 0.677111
Si Si7 0.953515 0.389322 0.652224
O O1 0.250000 0.113192 0.702519
O O2 0.114744 0.173116 0.590085
O O3 0.106588 0.159840 0.825860
O O4 0.115681 0.000000 0.694975
O O5 0.099300 0.809047 0.156346
O O6 0.051954 0.635691 0.207085
O O7 0.147796 0.686535 0.008358
O O8 0.000000 0.721178 0.000000
O O9 0.250000 0.113166 0.215809
O O10 0.378123 0.125851 0.364269
O O11 0.383274 0.000000 0.190965
O O12 0.750000 0.785574 0.539848
O O13 0.603098 0.694683 0.591644
O O14 0.250000 0.802438 0.918032
O O15 0.342356 0.680372 0.784655
O O16 0.250000 0.379912 0.612726
O O17 0.153994 0.500000 0.721010
O O18 0.057381 0.382485 0.619977
O O19 0.925243 0.500000 0.631307
#
# Coordination Sequence:
#
# PCOD9404507 Si02
#       7
#     8   8   8   8   8   8   8
#     4   9  18  35  62  91 119 160 210 258 309 365
#     4  11  21  34  53  83 118 158 192 250 306 368
#     4   9  18  33  54  78 108 150 197 243 298 364
#     4   9  18  35  60  89 121 157 203 258 311 366
#     4  10  20  35  56  84 119 157 203 254 304 363
#     4   9  18  35  59  84 111 150 201 256 312 368
#     4  10  21  37  60  89 123 164 208 254 311 376
#
# _framework density 23.256934000000001
#
# number of rings (size 3 to 8) (size 9 to 14) (size 15 to 20)
#    0.000    2.429    1.429    0.857    0.000    4.286 
#    0.000    2.857    0.000    5.143    0.000    0.000 
#    0.000    1.143    0.000    7.429    0.000    0.000 
#
# Total GULP energy -311749.655917 kJ/mol
# GULP energy per Si atom -5566.958141 kJ/mol
# Density = 2.320400 g / cm^3
# Si number density = 23.256934 Si / 1000 Ang^3
#
#
#
# Elastic Constant Matrix: (Units=GPa)
#
#
# Indices 1 2 3 4 5 6 
#
# 1 63.8268 8.1447 -7.5670 0.0000 0.0000 0.0000
# 2 8.1447 118.9034 9.4429 0.0000 0.0000 0.0000
# 3 -7.5670 9.4429 75.8683 0.0000 0.0000 0.0000
# 4 0.0000 0.0000 0.0000 35.5472 0.0000 0.0000
# 5 0.0000 0.0000 0.0000 0.0000 25.9974 0.0000
# 6 0.0000 0.0000 0.0000 0.0000 0.0000 15.8190
#
#
#
# Elastic Compliance Matrix: (Units=1/GPa)
#
#
# Indices 1 2 3 4 5 6 
#
# 1 0.016033 -0.001237 0.001753 0.000000 0.000000 0.000000
# 2 -0.001237 0.008590 -0.001193 0.000000 0.000000 0.000000
# 3 0.001753 -0.001193 0.013504 0.000000 0.000000 0.000000
# 4 0.000000 0.000000 0.000000 0.028132 0.000000 0.000000
# 5 0.000000 0.000000 0.000000 0.000000 0.038465 0.000000
# 6 0.000000 0.000000 0.000000 0.000000 0.000000 0.063215
#
#
# Mechanical properties :
#
#
# Convention : Reuss Voigt Hill
#
# Bulk Modulus (GPa) = 27.19379 30.95997 29.07688
# Shear Modulus (GPa) = 27.54055 32.04458 29.79256
#
# Velocity S-wave (km/s) = 3.44493 3.71597 3.58301
# Velocity P-wave (km/s) = 5.24801 5.63491 5.44490
#
# Compressibility (1/GPa) = 0.03677310
#
# Stress axis : x y z
#
# Youngs Moduli (GPa) = 62.37080 116.41908 74.05207
#
# Poissons Ratio (x) = 0.14406 -0.12982
# Poissons Ratio (y) = 0.07718 0.08831
# Poissons Ratio (z) = -0.10934 0.13883
#
# Static dielectric constant tensor:
#      x y z
#    x 1.776480 0.000000 0.000000 
#    y 0.000000 1.842120 0.000000 
#    z 0.000000 0.000000 7.577290 
# 
# From -- ./inp_files/16651.got.cif
#   From: 2010.05.17/outbox.cif.g08.bks.cpg/sg51_9_cif.got.tgz:16651.got - 2010.06.03 11:52:47.
