data_PCOD9404649
_publ_section_title
;
Structure prediction by ZEFSAII (Michael W. Deem and Ramdas Pophale) SiO2 
 PCOD9404649
Probable space group: P M M A
;
_chemical_formula_sum "Si O2"
_cell_formula_units_Z 64
_cell_length_a 27.854334
_cell_length_b 13.260343
_cell_length_c 9.561983
_cell_angle_alpha 90.000000
_cell_angle_beta 90.000000
_cell_angle_gamma 90.000000
_cell_volume 3531.795136
_symmetry_space_group_name_H-M "P M M A"
_symmetry_group_IT_number 51
_symmetry_cell_setting 'orthorhombic'
loop_
_space_group_symop_operation_xyz
x,y,z
1/2-x,-y,z
1/2+x,-y,-z
-x,y,-z
-x,-y,-z
1/2+x,y,-z
1/2-x,y,z
x,-y,z
loop_
_atom_site_type_symbol
_atom_site_label
_atom_site_fract_x
_atom_site_fract_y
_atom_site_fract_z
Si Si1 0.579067 0.382128 0.754747
Si Si2 0.517108 0.271643 0.343373
Si Si3 0.804414 0.880479 0.704285
Si Si4 0.129755 0.782779 0.067607
Si Si5 0.194490 0.776851 0.596367
Si Si6 0.955391 0.884898 0.106047
Si Si7 0.693144 0.887390 0.130020
Si Si8 0.112574 0.383101 0.564450
O O1 0.573722 0.500000 0.789451
O O2 0.527187 0.330446 0.729227
O O3 0.609105 0.320708 0.870376
O O4 0.605262 0.375089 0.603747
O O5 0.500000 0.240364 0.500000
O O6 0.532630 0.181078 0.242315
O O7 0.563220 0.342960 0.367276
O O8 0.750000 0.860028 0.760640
O O9 0.847096 0.843374 0.803125
O O10 0.808369 0.823898 0.557448
O O11 0.807730 0.000000 0.684680
O O12 0.087484 0.838161 0.984394
O O13 0.172341 0.793116 0.955514
O O14 0.250000 0.745552 0.620457
O O15 0.182634 0.863495 0.708757
O O16 0.156786 0.686703 0.608370
O O17 0.944942 0.000000 0.145876
O O18 0.000000 0.883764 0.000000
O O19 0.750000 0.890259 0.112035
O O20 0.675254 0.000000 0.088187
O O21 0.119958 0.500000 0.599020
#
# Coordination Sequence:
#
# PCOD9404649 Si02
#       8
#     8   8   8   8   8   8   8   8
#     4  10  21  39  61  86 115 150 198 250 294 339
#     4  10  21  41  65  86 112 153 205 253 286 339
#     4  10  20  35  59  89 117 151 199 242 279 342
#     4  12  21  37  58  84 118 156 190 238 293 348
#     4  10  20  36  58  88 121 151 190 241 295 352
#     4  11  23  38  56  84 123 159 186 227 293 358
#     4  10  21  37  58  84 117 156 194 236 289 348
#     4  10  20  37  62  88 114 150 197 246 298 344
#
# _framework density 18.121096000000001
#
# number of rings (size 3 to 8) (size 9 to 14) (size 15 to 20)
#    0.000    1.625    2.500    3.000    0.000    4.500 
#    0.000    4.375    0.000    2.250    0.000    0.000 
#    0.000    0.000    0.000    0.000    0.000    0.000 
#
# Total GULP energy -356985.938632 kJ/mol
# GULP energy per Si atom -5577.905291 kJ/mol
# Density = 1.807985 g / cm^3
# Si number density = 18.121096 Si / 1000 Ang^3
#
#
#
# Elastic Constant Matrix: (Units=GPa)
#
#
# Indices 1 2 3 4 5 6 
#
# 1 71.0699 52.2766 37.4842 0.0000 0.0000 0.0000
# 2 52.2766 127.8175 55.3490 0.0000 0.0000 0.0000
# 3 37.4842 55.3490 77.0839 0.0000 0.0000 0.0000
# 4 0.0000 0.0000 0.0000 16.0532 0.0000 0.0000
# 5 0.0000 0.0000 0.0000 0.0000 22.9275 0.0000
# 6 0.0000 0.0000 0.0000 0.0000 0.0000 9.5442
#
#
#
# Elastic Compliance Matrix: (Units=1/GPa)
#
#
# Indices 1 2 3 4 5 6 
#
# 1 0.021959 -0.006323 -0.006138 0.000000 0.000000 0.000000
# 2 -0.006323 0.013175 -0.006385 0.000000 0.000000 0.000000
# 3 -0.006138 -0.006385 0.020542 0.000000 0.000000 0.000000
# 4 0.000000 0.000000 0.000000 0.062293 0.000000 0.000000
# 5 0.000000 0.000000 0.000000 0.000000 0.043616 0.000000
# 6 0.000000 0.000000 0.000000 0.000000 0.000000 0.104776
#
#
# Mechanical properties :
#
#
# Convention : Reuss Voigt Hill
#
# Bulk Modulus (GPa) = 55.60589 62.91010 59.25800
# Shear Modulus (GPa) = 16.12654 18.42907 17.27781
#
# Velocity S-wave (km/s) = 2.98641 3.19250 3.09117
# Velocity P-wave (km/s) = 6.53023 6.95566 6.74630
#
# Compressibility (1/GPa) = 0.01798371
#
# Stress axis : x y z
#
# Youngs Moduli (GPa) = 45.53919 75.90266 48.67997
#
# Poissons Ratio (x) = 0.47995 0.29879
# Poissons Ratio (y) = 0.28796 0.31083
# Poissons Ratio (z) = 0.27952 0.48465
#
# Static dielectric constant tensor:
#      x y z
#    x 1.641550 0.000000 0.000000 
#    y 0.000000 1.582790 0.000000 
#    z 0.000000 0.000000 1.633770 
# 
# From -- ./inp_files/13200.got.cif
#   From: 2010.05.17/outbox.cif.g08.bks.cpg/sg51_7_cif.got.tgz:13200.got - 2010.06.03 11:52:47.
