data_PCOD9404167
_publ_section_title
;
Structure prediction by ZEFSAII (Michael W. Deem and Ramdas Pophale) SiO2 
 PCOD9404167
Probable space group: P M M A
;
_chemical_formula_sum "Si O2"
_cell_formula_units_Z 44
_cell_length_a 9.006492
_cell_length_b 17.305894
_cell_length_c 15.405159
_cell_angle_alpha 90.000000
_cell_angle_beta 90.000000
_cell_angle_gamma 90.000000
_cell_volume 2401.131206
_symmetry_space_group_name_H-M "P M M A"
_symmetry_group_IT_number 51
_symmetry_cell_setting 'orthorhombic'
loop_
_space_group_symop_operation_xyz
x,y,z
1/2-x,-y,z
1/2+x,-y,-z
-x,y,-z
-x,-y,-z
1/2+x,y,-z
1/2-x,y,z
x,-y,z
loop_
_atom_site_type_symbol
_atom_site_label
_atom_site_fract_x
_atom_site_fract_y
_atom_site_fract_z
Si Si1 0.073277 0.411424 0.593753
Si Si2 0.573376 0.882832 0.728909
Si Si3 0.071072 0.000000 0.596189
Si Si4 0.921422 0.885492 0.089075
Si Si5 0.079456 0.697626 0.912300
Si Si6 0.925317 0.698391 0.733051
O O1 0.250000 0.402847 0.587006
O O2 0.041137 0.500000 0.621277
O O3 0.000000 0.400200 0.500000
O O4 0.007275 0.350515 0.660330
O O5 0.750000 0.898574 0.725373
O O6 0.488668 0.927463 0.652551
O O7 0.508456 0.906661 0.823107
O O8 0.551150 0.790487 0.720984
O O9 0.000000 0.000000 0.500000
O O10 0.250000 0.000000 0.591208
O O11 0.750000 0.910226 0.092883
O O12 0.920810 0.791598 0.086187
O O13 0.000000 0.910993 0.000000
O O14 0.250000 0.672311 0.908257
O O15 0.990273 0.675654 0.826571
O O16 0.000000 0.671116 0.000000
O O17 0.750000 0.684431 0.730034
#
# Coordination Sequence:
#
# PCOD9404167 Si02
#       6
#     8   8   4   8   8   8
#     4  10  21  37  57  81 110 143 178 220 272 326
#     4  10  21  38  58  82 111 143 182 226 270 320
#     4  12  26  44  63  80 103 140 182 226 278 328
#     4   9  16  28  49  78 110 144 179 218 266 318
#     4   9  16  27  46  74 109 145 182 222 263 312
#     4  10  20  34  56  84 112 144 182 223 267 318
#
# _framework density 18.324695999999999
#
# number of rings (size 3 to 8) (size 9 to 14) (size 15 to 20)
#    0.000    2.182    0.000    3.545    0.000    8.364 
#    0.000    0.455    0.000    0.545    0.000    0.000 
#    0.000    0.000    0.000    0.000    0.000    0.000 
#
# Total GULP energy -245722.703701 kJ/mol
# GULP energy per Si atom -5584.606902 kJ/mol
# Density = 1.828299 g / cm^3
# Si number density = 18.324696 Si / 1000 Ang^3
#
#
#
# Elastic Constant Matrix: (Units=GPa)
#
#
# Indices 1 2 3 4 5 6 
#
# 1 158.3182 58.9832 100.4033 0.0000 0.0000 0.0000
# 2 58.9832 62.8564 64.2988 0.0000 0.0000 0.0000
# 3 100.4033 64.2988 166.9558 0.0000 0.0000 0.0000
# 4 0.0000 0.0000 0.0000 -83.5275 0.0000 0.0000
# 5 0.0000 0.0000 0.0000 0.0000 42.2586 0.0000
# 6 0.0000 0.0000 0.0000 0.0000 0.0000 -0.1439
#
#
#
# Elastic Compliance Matrix: (Units=1/GPa)
#
#
# Indices 1 2 3 4 5 6 
#
# 1 0.011481 -0.006123 -0.004546 0.000000 0.000000 0.000000
# 2 -0.006123 0.029517 -0.007686 0.000000 0.000000 0.000000
# 3 -0.004546 -0.007686 0.011683 0.000000 0.000000 0.000000
# 4 0.000000 0.000000 0.000000 -0.011972 0.000000 0.000000
# 5 0.000000 0.000000 0.000000 0.000000 0.023664 0.000000
# 6 0.000000 0.000000 0.000000 0.000000 0.000000 -6.947639
#
#
# Mechanical properties :
#
#
# Convention : Reuss Voigt Hill
#
# Bulk Modulus (GPa) = 62.60999 92.83343 77.72171
# Shear Modulus (GPa) = -0.73086 2.68045 0.97479
#
# Velocity S-wave (km/s) = -0.63222 1.21076 0.73014
# Velocity P-wave (km/s) = 5.80588 7.26119 6.57393
#
# Compressibility (1/GPa) = 0.01597189
#
# Stress axis : x y z
#
# Youngs Moduli (GPa) = 87.10367 33.87927 85.59113
#
# Poissons Ratio (x) = 0.20743 0.38911
# Poissons Ratio (y) = 0.53331 0.65781
# Poissons Ratio (z) = 0.39599 0.26038
#
# Static dielectric constant tensor:
#      x y z
#    x 1.608840 0.000000 0.000000 
#    y 0.000000 1.638620 0.000000 
#    z 0.000000 0.000000 1.572000 
# 
# From -- ./inp_files/20947.got.cif
#   From: 2010.05.17/outbox.cif.g08.bks.cpg/sg51_11_cif.got.tgz:20947.got - 2010.06.03 11:52:47.
