data_PCOD9404789
_publ_section_title
;
Structure prediction by ZEFSAII (Michael W. Deem and Ramdas Pophale) SiO2 
 PCOD9404789
Probable space group: P M M A
;
_chemical_formula_sum "Si O2"
_cell_formula_units_Z 32
_cell_length_a 8.405805
_cell_length_b 13.440769
_cell_length_c 14.316240
_cell_angle_alpha 90.000000
_cell_angle_beta 90.000000
_cell_angle_gamma 90.000000
_cell_volume 1617.455714
_symmetry_space_group_name_H-M "P M M A"
_symmetry_group_IT_number 51
_symmetry_cell_setting 'orthorhombic'
loop_
_space_group_symop_operation_xyz
x,y,z
1/2-x,-y,z
1/2+x,-y,-z
-x,y,-z
-x,-y,-z
1/2+x,y,-z
1/2-x,y,z
x,-y,z
loop_
_atom_site_type_symbol
_atom_site_label
_atom_site_fract_x
_atom_site_fract_y
_atom_site_fract_z
Si Si1 0.561149 0.500000 0.893927
Si Si2 0.058087 0.000000 0.392955
Si Si3 0.559199 0.781505 0.606010
Si Si4 0.940368 0.306289 0.213938
Si Si5 0.442466 0.890592 0.893252
O O1 0.750000 0.500000 0.895824
O O2 0.502148 0.597704 0.839891
O O3 0.500000 0.500000 0.000000
O O4 0.002774 0.891791 0.358495
O O5 0.000000 0.000000 0.500000
O O6 0.250000 0.000000 0.389010
O O7 0.500000 0.768019 0.500000
O O8 0.750000 0.780720 0.605378
O O9 0.495831 0.701700 0.679183
O O10 0.750000 0.306755 0.210892
O O11 0.999914 0.205610 0.162693
O O12 0.250000 0.889632 0.892097
O O13 0.495201 0.000000 0.857393
O O14 0.500000 0.882977 0.000000
#
# Coordination Sequence:
#
# PCOD9404789 Si02
#       5
#     4   4   8   8   8
#     4  12  26  46  69  92 121 156 202 256 308 364
#     4   8  16  30  50  78 115 158 203 246 292 348
#     4  10  20  36  57  86 123 164 208 253 303 357
#     4  11  23  39  62  90 121 158 205 252 304 364
#     4   9  19  35  55  83 118 154 191 237 295 358
#
# _framework density 19.784158000000001
#
# number of rings (size 3 to 8) (size 9 to 14) (size 15 to 20)
#    0.000    2.000    0.000    3.375    1.750    5.000 
#    0.000    0.625    0.000    0.000    0.000    0.000 
#    0.000    0.000    0.000    0.000    0.000    0.000 
#
# Total GULP energy -178664.536240 kJ/mol
# GULP energy per Si atom -5583.266757 kJ/mol
# Density = 1.973913 g / cm^3
# Si number density = 19.784158 Si / 1000 Ang^3
#
#
#
# Elastic Constant Matrix: (Units=GPa)
#
#
# Indices 1 2 3 4 5 6 
#
# 1 57.4568 40.3217 30.5567 0.0000 0.0000 0.0000
# 2 40.3217 157.4884 100.2893 0.0000 0.0000 0.0000
# 3 30.5567 100.2893 135.4350 0.0000 0.0000 0.0000
# 4 0.0000 0.0000 0.0000 40.1944 0.0000 0.0000
# 5 0.0000 0.0000 0.0000 0.0000 30.8922 0.0000
# 6 0.0000 0.0000 0.0000 0.0000 0.0000 20.8984
#
#
#
# Elastic Compliance Matrix: (Units=1/GPa)
#
#
# Indices 1 2 3 4 5 6 
#
# 1 0.021367 -0.004543 -0.001457 0.000000 0.000000 0.000000
# 2 -0.004543 0.012982 -0.008588 0.000000 0.000000 0.000000
# 3 -0.001457 -0.008588 0.014072 0.000000 0.000000 0.000000
# 4 0.000000 0.000000 0.000000 0.024879 0.000000 0.000000
# 5 0.000000 0.000000 0.000000 0.000000 0.032371 0.000000
# 6 0.000000 0.000000 0.000000 0.000000 0.000000 0.047851
#
#
# Mechanical properties :
#
#
# Convention : Reuss Voigt Hill
#
# Bulk Modulus (GPa) = 51.96100 76.96841 64.46471
# Shear Modulus (GPa) = 26.43947 30.34448 28.39198
#
# Velocity S-wave (km/s) = 3.65964 3.92059 3.79236
# Velocity P-wave (km/s) = 6.64667 7.71254 7.19936
#
# Compressibility (1/GPa) = 0.01924520
#
# Stress axis : x y z
#
# Youngs Moduli (GPa) = 46.80051 77.03218 71.06523
#
# Poissons Ratio (x) = 0.34995 0.10353
# Poissons Ratio (y) = 0.21261 0.61030
# Poissons Ratio (z) = 0.06818 0.66154
#
# Static dielectric constant tensor:
#      x y z
#    x 1.666900 0.000000 0.000000 
#    y 0.000000 1.723650 0.000000 
#    z 0.000000 0.000000 1.672250 
# 
# From -- ./inp_files/20113.got.cif
#   From: 2010.05.17/outbox.cif.g08.bks.cpg/sg51_11_cif.got.tgz:20113.got - 2010.06.03 11:52:47.
