data_PCOD9404725
_publ_section_title
;
Structure prediction by ZEFSAII (Michael W. Deem and Ramdas Pophale) SiO2 
 PCOD9404725
Probable space group: P M M A
;
_chemical_formula_sum "Si O2"
_cell_formula_units_Z 54
_cell_length_a 14.220737
_cell_length_b 32.185500
_cell_length_c 5.246609
_cell_angle_alpha 90.000000
_cell_angle_beta 90.000000
_cell_angle_gamma 90.000000
_cell_volume 2401.380970
_symmetry_space_group_name_H-M "P M M A"
_symmetry_group_IT_number 51
_symmetry_cell_setting 'orthorhombic'
loop_
_space_group_symop_operation_xyz
x,y,z
1/2-x,-y,z
1/2+x,-y,-z
-x,y,-z
-x,-y,-z
1/2+x,y,-z
1/2-x,y,z
x,-y,z
loop_
_atom_site_type_symbol
_atom_site_label
_atom_site_fract_x
_atom_site_fract_y
_atom_site_fract_z
Si Si1 0.936667 0.500000 0.750978
Si Si2 0.638143 0.409783 0.846127
Si Si3 0.635137 0.218641 0.838745
Si Si4 0.250000 0.000000 0.674021
Si Si5 0.640032 0.124928 0.918284
Si Si6 0.135100 0.731493 0.660713
Si Si7 0.100544 0.926593 0.590358
Si Si8 0.865653 0.363638 0.347021
O O1 0.879969 0.542753 0.771104
O O2 0.000000 0.500000 0.500000
O O3 0.000000 0.500000 0.000000
O O4 0.750000 0.404229 0.856748
O O5 0.602781 0.380613 0.619524
O O6 0.602943 0.394433 0.120998
O O7 0.750000 0.217784 0.828362
O O8 0.604241 0.170849 0.848697
O O9 0.604616 0.245588 0.596800
O O10 0.607450 0.241526 0.096952
O O11 0.330893 0.036487 0.666015
O O12 0.750000 0.128577 0.995036
O O13 0.636252 0.097867 0.660556
O O14 0.592152 0.103656 0.164018
O O15 0.250000 0.730472 0.656033
O O16 0.104338 0.683867 0.688394
O O17 0.000000 0.942964 0.500000
O O18 0.750000 0.363809 0.347960
#
# Coordination Sequence:
#
# PCOD9404725 Si02
#       8
#     4   8   8   2   8   8   8   8
#     4  12  25  40  57  80 108 142 192 246 299 358
#     4  10  20  36  56  81 109 151 188 242 300 359
#     4   9  17  27  51  81 121 161 199 242 300 350
#     4  12  26  50  72 100 136 174 218 282 328 396
#     4  11  21  42  64  95 133 175 215 268 318 377
#     4   9  15  26  44  83 121 153 191 247 295 353
#     4  12  26  44  70  99 132 174 221 269 333 390
#     4   9  17  29  51  80 118 148 187 241 301 344
#
# _framework density 22.487058999999999
#
# number of rings (size 3 to 8) (size 9 to 14) (size 15 to 20)
#    0.000    1.778    1.481    3.556    0.000    7.111 
#    0.000    4.444    0.000    0.000    0.000   36.296 
#    0.000    0.000    0.000    0.000    0.000    0.000 
#
# Total GULP energy -301623.913298 kJ/mol
# GULP energy per Si atom -5585.628024 kJ/mol
# Density = 2.243588 g / cm^3
# Si number density = 22.487059 Si / 1000 Ang^3
#
#
#
# Elastic Constant Matrix: (Units=GPa)
#
#
# Indices 1 2 3 4 5 6 
#
# 1 60.6555 1.2335 3.4605 0.0000 0.0000 0.0000
# 2 1.2335 151.0263 46.0513 0.0000 0.0000 0.0000
# 3 3.4605 46.0513 153.8239 0.0000 0.0000 0.0000
# 4 0.0000 0.0000 0.0000 -79.0495 0.0000 0.0000
# 5 0.0000 0.0000 0.0000 0.0000 27.0649 0.0000
# 6 0.0000 0.0000 0.0000 0.0000 0.0000 -18.6116
#
#
#
# Elastic Compliance Matrix: (Units=1/GPa)
#
#
# Indices 1 2 3 4 5 6 
#
# 1 0.016508 -0.000024 -0.000364 0.000000 0.000000 0.000000
# 2 -0.000024 0.007287 -0.002181 0.000000 0.000000 0.000000
# 3 -0.000364 -0.002181 0.007162 0.000000 0.000000 0.000000
# 4 0.000000 0.000000 0.000000 -0.012650 0.000000 0.000000
# 5 0.000000 0.000000 0.000000 0.000000 0.036948 0.000000
# 6 0.000000 0.000000 0.000000 0.000000 0.000000 -0.053730
#
#
# Mechanical properties :
#
#
# Convention : Reuss Voigt Hill
#
# Bulk Modulus (GPa) = 38.73174 51.88847 45.31010
# Shear Modulus (GPa) = 327.47668 6.86480 167.17074
#
# Velocity S-wave (km/s) = 12.08077 1.74912 8.63147
# Velocity P-wave (km/s) = 14.55524 5.21576 10.93295
#
# Compressibility (1/GPa) = 0.02581862
#
# Stress axis : x y z
#
# Youngs Moduli (GPa) = 60.57736 137.23898 139.62495
#
# Poissons Ratio (x) = 0.00326 0.05086
# Poissons Ratio (y) = 0.00144 0.30451
# Poissons Ratio (z) = 0.02207 0.29930
#
# Static dielectric constant tensor:
#      x y z
#    x 1.913620 0.000000 0.000000 
#    y 0.000000 1.872010 0.000000 
#    z 0.000000 0.000000 1.770160 
# 
# From -- ./inp_files/1502.got.cif
#   From: 2010.05.17/outbox.cif.g08.bks.cpg/sg51_1_cif.got.tgz:1502.got - 2010.06.03 11:52:47.
