data_PCOD9404245
_publ_section_title
;
Structure prediction by ZEFSAII (Michael W. Deem and Ramdas Pophale) SiO2 
 PCOD9404245
Probable space group: P M M A
;
_chemical_formula_sum "Si O2"
_cell_formula_units_Z 56
_cell_length_a 9.014776
_cell_length_b 13.840314
_cell_length_c 24.933101
_cell_angle_alpha 90.000000
_cell_angle_beta 90.000000
_cell_angle_gamma 90.000000
_cell_volume 3110.836452
_symmetry_space_group_name_H-M "P M M A"
_symmetry_group_IT_number 51
_symmetry_cell_setting 'orthorhombic'
loop_
_space_group_symop_operation_xyz
x,y,z
1/2-x,-y,z
1/2+x,-y,-z
-x,y,-z
-x,-y,-z
1/2+x,y,-z
1/2-x,y,z
x,-y,z
loop_
_atom_site_type_symbol
_atom_site_label
_atom_site_fract_x
_atom_site_fract_y
_atom_site_fract_z
Si Si1 0.069538 0.190879 0.670029
Si Si2 0.072135 0.000000 0.141901
Si Si3 0.078103 0.129842 0.944575
Si Si4 0.572013 0.114071 0.444421
Si Si5 0.586530 0.387454 0.835037
Si Si6 0.428425 0.613183 0.727318
Si Si7 0.069713 0.000000 0.739900
Si Si8 0.079720 0.360590 0.945579
O O1 0.250000 0.190872 0.670556
O O2 0.021856 0.168400 0.609232
O O3 0.022146 0.298055 0.689165
O O4 0.027697 0.098591 0.707530
O O5 0.010244 0.910699 0.106386
O O6 0.003477 0.000000 0.201309
O O7 0.250000 0.000000 0.143635
O O8 0.250000 0.100422 0.942660
O O9 0.078440 0.244851 0.945327
O O10 0.000000 0.100125 0.000000
O O11 0.500000 0.147363 0.500000
O O12 0.750000 0.122356 0.448357
O O13 0.537359 0.000000 0.437682
O O14 0.750000 0.341037 0.836473
O O15 0.604930 0.500000 0.822897
O O16 0.485310 0.353727 0.786045
O O17 0.508951 0.385429 0.892303
O O18 0.250000 0.611709 0.727694
O O19 0.473771 0.500000 0.715580
O O20 0.250000 0.000000 0.744929
O O21 0.250000 0.392668 0.943698
O O22 0.000000 0.392859 0.000000
#
# Coordination Sequence:
#
# PCOD9404245 Si02
#       8
#     8   4   8   8   8   8   4   8
#     4   9  17  32  55  78 106 142 178 218 263 311
#     4  12  25  37  50  73 104 134 168 212 261 318
#     4  10  21  38  57  75  96 128 169 213 261 316
#     4   9  16  29  50  77 107 141 179 217 257 306
#     4  10  21  36  53  74 101 132 167 209 262 322
#     4   9  18  33  54  79 103 134 180 225 262 307
#     4  10  20  35  52  75 105 140 180 216 261 322
#     4  10  21  36  55  76  98 126 163 209 262 319
#
# _framework density 18.001588999999999
#
# number of rings (size 3 to 8) (size 9 to 14) (size 15 to 20)
#    0.000    2.286    0.714    2.143    2.000    2.857 
#    0.000    1.429    0.000    0.429    0.000    0.000 
#    0.000    0.000    0.000    0.000    0.000    0.000 
#
# Total GULP energy -312017.694949 kJ/mol
# GULP energy per Si atom -5571.744553 kJ/mol
# Density = 1.796062 g / cm^3
# Si number density = 18.001589 Si / 1000 Ang^3
#
#
#
# Elastic Constant Matrix: (Units=GPa)
#
#
# Indices 1 2 3 4 5 6 
#
# 1 62.6297 29.0671 46.6635 0.0000 0.0000 0.0000
# 2 29.0671 112.4619 63.5560 0.0000 0.0000 0.0000
# 3 46.6635 63.5560 177.9853 0.0000 0.0000 0.0000
# 4 0.0000 0.0000 0.0000 15.0292 0.0000 0.0000
# 5 0.0000 0.0000 0.0000 0.0000 29.6383 0.0000
# 6 0.0000 0.0000 0.0000 0.0000 0.0000 10.8247
#
#
#
# Elastic Compliance Matrix: (Units=1/GPa)
#
#
# Indices 1 2 3 4 5 6 
#
# 1 0.020542 -0.002838 -0.004372 0.000000 0.000000 0.000000
# 2 -0.002838 0.011532 -0.003374 0.000000 0.000000 0.000000
# 3 -0.004372 -0.003374 0.007969 0.000000 0.000000 0.000000
# 4 0.000000 0.000000 0.000000 0.066537 0.000000 0.000000
# 5 0.000000 0.000000 0.000000 0.000000 0.033740 0.000000
# 6 0.000000 0.000000 0.000000 0.000000 0.000000 0.092381
#
#
# Mechanical properties :
#
#
# Convention : Reuss Voigt Hill
#
# Bulk Modulus (GPa) = 52.98078 70.18332 61.58205
# Shear Modulus (GPa) = 19.21879 25.35112 22.28495
#
# Velocity S-wave (km/s) = 3.27098 3.75677 3.52226
# Velocity P-wave (km/s) = 6.61520 7.60852 7.12918
#
# Compressibility (1/GPa) = 0.01887477
#
# Stress axis : x y z
#
# Youngs Moduli (GPa) = 48.68159 86.71382 125.48007
#
# Poissons Ratio (x) = 0.24614 0.54859
# Poissons Ratio (y) = 0.13818 0.42334
# Poissons Ratio (z) = 0.21283 0.29255
#
# Static dielectric constant tensor:
#      x y z
#    x 1.628710 0.000000 0.000000 
#    y 0.000000 1.827310 0.000000 
#    z 0.000000 0.000000 1.593550 
# 
# From -- ./inp_files/32079.got.cif
#   From: 2010.05.17/outbox.cif.g08.bks.cpg/sg51_17_cif.got.tgz:32079.got - 2010.06.03 11:52:47.
