data_PCOD9404140
_publ_section_title
;
Structure prediction by ZEFSAII (Michael W. Deem and Ramdas Pophale) SiO2 
 PCOD9404140
Probable space group: P M M A
;
_chemical_formula_sum "Si O2"
_cell_formula_units_Z 48
_cell_length_a 17.797049
_cell_length_b 9.065012
_cell_length_c 15.658401
_cell_angle_alpha 90.000000
_cell_angle_beta 90.000000
_cell_angle_gamma 90.000000
_cell_volume 2526.177079
_symmetry_space_group_name_H-M "P M M A"
_symmetry_group_IT_number 51
_symmetry_cell_setting 'orthorhombic'
loop_
_space_group_symop_operation_xyz
x,y,z
1/2-x,-y,z
1/2+x,-y,-z
-x,y,-z
-x,-y,-z
1/2+x,y,-z
1/2-x,y,z
x,-y,z
loop_
_atom_site_type_symbol
_atom_site_label
_atom_site_fract_x
_atom_site_fract_y
_atom_site_fract_z
Si Si1 0.158600 0.830324 0.464271
Si Si2 0.590297 0.675422 0.179976
Si Si3 0.159424 0.671304 0.292097
Si Si4 0.663976 0.173837 0.023957
Si Si5 0.839167 0.822714 0.343891
Si Si6 0.931405 0.176163 0.856927
O O1 0.250000 0.831256 0.465722
O O2 0.135341 0.729184 0.385503
O O3 0.135849 0.783439 0.559631
O O4 0.134639 0.000000 0.449956
O O5 0.587304 0.500000 0.182875
O O6 0.647452 0.731532 0.107422
O O7 0.615787 0.740504 0.270697
O O8 0.510254 0.742948 0.153816
O O9 0.250000 0.683542 0.287302
O O10 0.139113 0.500000 0.280653
O O11 0.122076 0.769507 0.219251
O O12 0.750000 0.193135 0.995296
O O13 0.653492 0.000000 0.044817
O O14 0.607972 0.211746 0.947076
O O15 0.750000 0.790107 0.335550
O O16 0.847419 0.000000 0.335198
O O17 0.941700 0.000000 0.853072
#
# Coordination Sequence:
#
# PCOD9404140 Si02
#       6
#     8   8   8   8   8   8
#     4   8  15  30  54  82 110 144 188 233 274 321
#     4  12  25  38  55  83 118 151 182 224 282 340
#     4  10  20  34  55  85 119 150 181 226 283 336
#     4  10  22  41  64  87 109 139 184 232 274 324
#     4   9  18  35  59  84 111 147 192 237 276 322
#     4  11  23  40  61  82 109 149 193 233 273 323
#
# _framework density 19.001044
#
# number of rings (size 3 to 8) (size 9 to 14) (size 15 to 20)
#    0.000    2.000    0.000    5.000    0.000    8.333 
#    0.000    2.500    0.000    5.000    0.000    0.000 
#    0.000    0.000    0.000    0.000    0.000    0.000 
#
# Total GULP energy -268142.228387 kJ/mol
# GULP energy per Si atom -5586.296425 kJ/mol
# Density = 1.895780 g / cm^3
# Si number density = 19.001044 Si / 1000 Ang^3
#
#
#
# Elastic Constant Matrix: (Units=GPa)
#
#
# Indices 1 2 3 4 5 6 
#
# 1 23.4079 7.1415 -3.5620 0.0000 0.0000 0.0000
# 2 7.1415 35.1898 19.1133 0.0000 0.0000 0.0000
# 3 -3.5620 19.1133 74.3970 0.0000 0.0000 0.0000
# 4 0.0000 0.0000 0.0000 -28.4655 0.0000 0.0000
# 5 0.0000 0.0000 0.0000 0.0000 -10.8595 0.0000
# 6 0.0000 0.0000 0.0000 0.0000 0.0000 22.7000
#
#
#
# Elastic Compliance Matrix: (Units=1/GPa)
#
#
# Indices 1 2 3 4 5 6 
#
# 1 0.047408 -0.012614 0.005510 0.000000 0.000000 0.000000
# 2 -0.012614 0.036382 -0.009951 0.000000 0.000000 0.000000
# 3 0.005510 -0.009951 0.016262 0.000000 0.000000 0.000000
# 4 0.000000 0.000000 0.000000 -0.035130 0.000000 0.000000
# 5 0.000000 0.000000 0.000000 0.000000 -0.092086 0.000000
# 6 0.000000 0.000000 0.000000 0.000000 0.000000 0.044053
#
#
# Mechanical properties :
#
#
# Convention : Reuss Voigt Hill
#
# Bulk Modulus (GPa) = 15.16471 19.82004 17.49238
# Shear Modulus (GPa) = 68.51357 4.02845 36.27101
#
# Velocity S-wave (km/s) = 6.01133 1.45764 4.37383
# Velocity P-wave (km/s) = 7.49531 3.64508 5.89349
#
# Compressibility (1/GPa) = 0.06594256
#
# Stress axis : x y z
#
# Youngs Moduli (GPa) = 21.09365 27.48610 61.49414
#
# Poissons Ratio (x) = 0.34671 -0.33886
# Poissons Ratio (y) = 0.26608 0.61192
# Poissons Ratio (z) = -0.11624 0.27351
#
# Static dielectric constant tensor:
#      x y z
#    x 1.666860 0.000000 0.000000 
#    y 0.000000 1.632840 0.000000 
#    z 0.000000 0.000000 1.645440 
# 
# From -- ./inp_files/24765.got.cif
#   From: 2010.05.17/outbox.cif.g08.bks.cpg/sg51_13_cif.got.tgz:24765.got - 2010.06.03 11:52:47.
