data_PCOD9404811
_publ_section_title
;
Structure prediction by ZEFSAII (Michael W. Deem and Ramdas Pophale) SiO2 
 PCOD9404811
Probable space group: P M M A
;
_chemical_formula_sum "Si O2"
_cell_formula_units_Z 48
_cell_length_a 16.092383
_cell_length_b 9.038432
_cell_length_c 17.246111
_cell_angle_alpha 90.000000
_cell_angle_beta 90.000000
_cell_angle_gamma 90.000000
_cell_volume 2508.445284
_symmetry_space_group_name_H-M "P M M A"
_symmetry_group_IT_number 51
_symmetry_cell_setting 'orthorhombic'
loop_
_space_group_symop_operation_xyz
x,y,z
1/2-x,-y,z
1/2+x,-y,-z
-x,y,-z
-x,-y,-z
1/2+x,y,-z
1/2-x,y,z
x,-y,z
loop_
_atom_site_type_symbol
_atom_site_label
_atom_site_fract_x
_atom_site_fract_y
_atom_site_fract_z
Si Si1 0.651538 0.329076 0.502825
Si Si2 0.503663 0.821929 0.908874
Si Si3 0.412534 0.172463 0.648516
Si Si4 0.390703 0.171649 0.336811
Si Si5 0.157241 0.323289 0.179590
Si Si6 0.842353 0.180202 0.187698
O O1 0.750000 0.321170 0.487436
O O2 0.628493 0.500000 0.515819
O O3 0.605001 0.264356 0.428370
O O4 0.632518 0.236248 0.579721
O O5 0.583836 0.749564 0.869664
O O6 0.418783 0.772226 0.866288
O O7 0.509904 0.000000 0.899316
O O8 0.500000 0.789070 0.000000
O O9 0.509418 0.179194 0.670530
O O10 0.361023 0.223758 0.723456
O O11 0.391786 0.000000 0.633034
O O12 0.351589 0.264429 0.267301
O O13 0.365874 0.000000 0.330892
O O14 0.250000 0.284609 0.150874
O O15 0.148800 0.500000 0.178895
O O16 0.750000 0.228801 0.163845
O O17 0.843041 0.000000 0.186757
#
# Coordination Sequence:
#
# PCOD9404811 Si02
#       6
#     8   8   8   8   8   8
#     4  11  24  38  52  79 119 157 197 244 296 355
#     4  10  21  39  64  94 125 157 199 249 300 358
#     4  10  20  36  58  82 111 152 200 247 298 353
#     4  11  22  38  61  87 114 151 203 254 300 353
#     4  11  24  41  62  89 124 166 206 246 301 363
#     4   9  17  33  58  87 119 154 194 243 298 353
#
# _framework density 19.135359000000001
#
# number of rings (size 3 to 8) (size 9 to 14) (size 15 to 20)
#    0.000    1.667    1.667    3.000    0.000    9.667 
#    0.000    1.667    0.000    0.500    0.000    0.000 
#    0.000    0.000    0.000    0.000    0.000    0.000 
#
# Total GULP energy -268225.860137 kJ/mol
# GULP energy per Si atom -5588.038753 kJ/mol
# Density = 1.909181 g / cm^3
# Si number density = 19.135359 Si / 1000 Ang^3
#
#
#
# Elastic Constant Matrix: (Units=GPa)
#
#
# Indices 1 2 3 4 5 6 
#
# 1 124.5704 33.1961 59.4398 0.0000 0.0000 0.0000
# 2 33.1961 34.8753 30.4192 0.0000 0.0000 0.0000
# 3 59.4398 30.4192 106.0311 0.0000 0.0000 0.0000
# 4 0.0000 0.0000 0.0000 1.5860 0.0000 0.0000
# 5 0.0000 0.0000 0.0000 0.0000 3.4618 0.0000
# 6 0.0000 0.0000 0.0000 0.0000 0.0000 27.0957
#
#
#
# Elastic Compliance Matrix: (Units=1/GPa)
#
#
# Indices 1 2 3 4 5 6 
#
# 1 0.012303 -0.007595 -0.004718 0.000000 0.000000 0.000000
# 2 -0.007595 0.042932 -0.008059 0.000000 0.000000 0.000000
# 3 -0.004718 -0.008059 0.014388 0.000000 0.000000 0.000000
# 4 0.000000 0.000000 0.000000 0.630535 0.000000 0.000000
# 5 0.000000 0.000000 0.000000 0.000000 0.288867 0.000000
# 6 0.000000 0.000000 0.000000 0.000000 0.000000 0.036906
#
#
# Mechanical properties :
#
#
# Convention : Reuss Voigt Hill
#
# Bulk Modulus (GPa) = 34.62733 56.84301 45.73517
# Shear Modulus (GPa) = 4.64554 15.92349 10.28451
#
# Velocity S-wave (km/s) = 1.55981 2.88783 2.32084
# Velocity P-wave (km/s) = 4.62377 6.39450 5.57983
#
# Compressibility (1/GPa) = 0.02887892
#
# Stress axis : x y z
#
# Youngs Moduli (GPa) = 81.28258 23.29238 69.50271
#
# Poissons Ratio (x) = 0.17692 0.32790
# Poissons Ratio (y) = 0.61738 0.56012
# Poissons Ratio (z) = 0.38347 0.18771
#
# Static dielectric constant tensor:
#      x y z
#    x 1.680690 0.000000 0.000000 
#    y 0.000000 1.642500 0.000000 
#    z 0.000000 0.000000 1.629080 
# 
# From -- ./inp_files/29416.got.cif
#   From: 2010.05.17/outbox.cif.g08.bks.cpg/sg51_15_cif.got.tgz:29416.got - 2010.06.03 11:52:47.
