data_PCOD9404270
_publ_section_title
;
Structure prediction by ZEFSAII (Michael W. Deem and Ramdas Pophale) SiO2 
 PCOD9404270
Probable space group: P M M A
;
_chemical_formula_sum "Si O2"
_cell_formula_units_Z 56
_cell_length_a 15.431808
_cell_length_b 7.654641
_cell_length_c 22.060974
_cell_angle_alpha 90.000000
_cell_angle_beta 90.000000
_cell_angle_gamma 90.000000
_cell_volume 2605.951456
_symmetry_space_group_name_H-M "P M M A"
_symmetry_group_IT_number 51
_symmetry_cell_setting 'orthorhombic'
loop_
_space_group_symop_operation_xyz
x,y,z
1/2-x,-y,z
1/2+x,-y,-z
-x,y,-z
-x,-y,-z
1/2+x,y,-z
1/2-x,y,z
x,-y,z
loop_
_atom_site_type_symbol
_atom_site_label
_atom_site_fract_x
_atom_site_fract_y
_atom_site_fract_z
Si Si1 0.049124 0.304449 0.835422
Si Si2 0.572191 0.194867 0.936574
Si Si3 0.000803 0.211196 0.407270
Si Si4 0.750000 0.702741 0.880662
Si Si5 0.654192 0.288654 0.060683
Si Si6 0.250000 0.298066 0.264852
Si Si7 0.559251 0.293591 0.723928
Si Si8 0.351106 0.787060 0.501258
O O1 0.074714 0.500000 0.815478
O O2 0.128917 0.223070 0.872193
O O3 0.983099 0.315386 0.892172
O O4 0.997435 0.220388 0.779760
O O5 0.666201 0.205984 0.906312
O O6 0.537428 0.000000 0.930229
O O7 0.589674 0.238539 0.006580
O O8 0.009487 0.274219 0.338909
O O9 0.087372 0.266301 0.444622
O O10 0.912227 0.265413 0.441656
O O11 0.000915 0.000000 0.407700
O O12 0.750000 0.500000 0.901534
O O13 0.750000 0.702498 0.808114
O O14 0.750000 0.228279 0.044033
O O15 0.654617 0.500000 0.063097
O O16 0.250000 0.500000 0.287206
O O17 0.343114 0.219430 0.283006
O O18 0.571633 0.500000 0.738611
O O19 0.250000 0.728291 0.500686
O O20 0.348175 0.000000 0.500984
#
# Coordination Sequence:
#
# PCOD9404270 Si02
#       8
#     8   8   8   4   8   4   8   8
#     4  10  21  38  57  74  98 141 184 213 257 324
#     4  12  23  34  52  81 109 132 166 221 281 321
#     4   9  18  32  53  82 108 137 179 219 257 305
#     4  11  19  35  57  75 103 143 178 209 254 329
#     4  10  21  37  57  76  96 131 180 224 263 321
#     4   9  18  33  53  73 101 141 176 201 252 319
#     4  10  20  35  53  76 108 142 173 214 261 308
#     4   8  15  31  54  78 109 145 178 213 254 307
#
# _framework density 21.489270999999999
#
# number of rings (size 3 to 8) (size 9 to 14) (size 15 to 20)
#    0.000    2.143    2.143    2.786    1.000    2.857 
#    0.000    2.143    0.000    2.143    0.000    0.000 
#    0.000    0.000    0.000    0.000    0.000    0.000 
#
# Total GULP energy -312269.652272 kJ/mol
# GULP energy per Si atom -5576.243791 kJ/mol
# Density = 2.144036 g / cm^3
# Si number density = 21.489271 Si / 1000 Ang^3
#
#
#
# Elastic Constant Matrix: (Units=GPa)
#
#
# Indices 1 2 3 4 5 6 
#
# 1 122.0232 2.8216 45.1255 0.0000 0.0000 0.0000
# 2 2.8216 57.2401 1.0200 0.0000 0.0000 0.0000
# 3 45.1255 1.0200 121.4289 0.0000 0.0000 0.0000
# 4 0.0000 0.0000 0.0000 18.8888 0.0000 0.0000
# 5 0.0000 0.0000 0.0000 0.0000 18.4928 0.0000
# 6 0.0000 0.0000 0.0000 0.0000 0.0000 -17.0234
#
#
#
# Elastic Compliance Matrix: (Units=1/GPa)
#
#
# Indices 1 2 3 4 5 6 
#
# 1 0.009510 -0.000406 -0.003531 0.000000 0.000000 0.000000
# 2 -0.000406 0.017490 0.000004 0.000000 0.000000 0.000000
# 3 -0.003531 0.000004 0.009547 0.000000 0.000000 0.000000
# 4 0.000000 0.000000 0.000000 0.052941 0.000000 0.000000
# 5 0.000000 0.000000 0.000000 0.000000 0.054075 0.000000
# 6 0.000000 0.000000 0.000000 0.000000 0.000000 -0.058743
#
#
# Mechanical properties :
#
#
# Convention : Reuss Voigt Hill
#
# Bulk Modulus (GPa) = 34.86468 44.29180 39.57824
# Shear Modulus (GPa) = 48.90080 20.85333 34.87707
#
# Velocity S-wave (km/s) = 4.77549 3.11851 4.03302
# Velocity P-wave (km/s) = 6.83129 5.79851 6.33598
#
# Compressibility (1/GPa) = 0.02868232
#
# Stress axis : x y z
#
# Youngs Moduli (GPa) = 105.14944 57.17484 104.74101
#
# Poissons Ratio (x) = 0.02321 0.36982
# Poissons Ratio (y) = 0.04268 -0.00041
# Poissons Ratio (z) = 0.37126 -0.00022
#
# Static dielectric constant tensor:
#      x y z
#    x 1.854040 0.000000 0.000000 
#    y 0.000000 1.816930 0.000000 
#    z 0.000000 0.000000 1.752120 
# 
# From -- ./inp_files/33566.got.cif
#   From: 2010.05.17/outbox.cif.g08.bks.cpg/sg51_17_cif.got.tgz:33566.got - 2010.06.03 11:52:47.
