data_PCOD9404442
_publ_section_title
;
Structure prediction by ZEFSAII (Michael W. Deem and Ramdas Pophale) SiO2 
 PCOD9404442
Probable space group: P M M A
;
_chemical_formula_sum "Si O2"
_cell_formula_units_Z 48
_cell_length_a 8.747851
_cell_length_b 30.795556
_cell_length_c 9.775966
_cell_angle_alpha 90.000000
_cell_angle_beta 90.000000
_cell_angle_gamma 90.000000
_cell_volume 2633.595729
_symmetry_space_group_name_H-M "P M M A"
_symmetry_group_IT_number 51
_symmetry_cell_setting 'orthorhombic'
loop_
_space_group_symop_operation_xyz
x,y,z
1/2-x,-y,z
1/2+x,-y,-z
-x,y,-z
-x,-y,-z
1/2+x,y,-z
1/2-x,y,z
x,-y,z
loop_
_atom_site_type_symbol
_atom_site_label
_atom_site_fract_x
_atom_site_fract_y
_atom_site_fract_z
Si Si1 0.567338 0.449062 0.851952
Si Si2 0.433803 0.795362 0.148949
Si Si3 0.434312 0.873596 0.348546
Si Si4 0.566950 0.378248 0.348434
Si Si5 0.566550 0.299481 0.148581
Si Si6 0.065568 0.950148 0.148753
O O1 0.750000 0.444253 0.854988
O O2 0.531003 0.500000 0.830039
O O3 0.497376 0.419199 0.734894
O O4 0.500000 0.436522 0.000000
O O5 0.250000 0.793356 0.140115
O O6 0.477661 0.831174 0.260668
O O7 0.498803 0.747775 0.182670
O O8 0.500000 0.807357 0.000000
O O9 0.500000 0.872749 0.500000
O O10 0.250000 0.874425 0.356156
O O11 0.484462 0.916060 0.263353
O O12 0.500000 0.376359 0.500000
O O13 0.750000 0.380989 0.354740
O O14 0.526071 0.335375 0.260893
O O15 0.750000 0.296508 0.138464
O O16 0.500000 0.311896 0.000000
O O17 0.250000 0.948641 0.141015
O O18 0.020297 0.000000 0.178899
O O19 0.000000 0.938501 0.000000
#
# Coordination Sequence:
#
# PCOD9404442 Si02
#       6
#     8   8   8   8   8   8
#     4  10  21  38  61  87 114 146 185 228 272 321
#     4  10  20  35  56  80 105 136 176 221 266 314
#     4  10  22  36  51  76 108 141 176 215 262 316
#     4  11  24  39  57  82 113 149 185 225 274 326
#     4  10  21  37  58  83 108 139 180 223 269 320
#     4   9  18  34  55  78 104 135 174 219 264 312
#
# _framework density 18.226030999999999
#
# number of rings (size 3 to 8) (size 9 to 14) (size 15 to 20)
#    0.000    2.000    0.000    4.000    0.000    8.333 
#    0.000    3.333    0.000    0.000    0.000    0.000 
#    0.000    0.000    0.000    0.000    0.000    0.000 
#
# Total GULP energy -268148.778315 kJ/mol
# GULP energy per Si atom -5586.432882 kJ/mol
# Density = 1.818455 g / cm^3
# Si number density = 18.226031 Si / 1000 Ang^3
#
#
#
# Elastic Constant Matrix: (Units=GPa)
#
#
# Indices 1 2 3 4 5 6 
#
# 1 42.9339 51.3713 56.9612 0.0000 0.0000 0.0000
# 2 51.3713 127.8291 131.2300 0.0000 0.0000 0.0000
# 3 56.9612 131.2300 191.9607 0.0000 0.0000 0.0000
# 4 0.0000 0.0000 0.0000 -10.3833 0.0000 0.0000
# 5 0.0000 0.0000 0.0000 0.0000 37.7466 0.0000
# 6 0.0000 0.0000 0.0000 0.0000 0.0000 15.6379
#
#
#
# Elastic Compliance Matrix: (Units=1/GPa)
#
#
# Indices 1 2 3 4 5 6 
#
# 1 0.045501 -0.014839 -0.003357 0.000000 0.000000 0.000000
# 2 -0.014839 0.031075 -0.016840 0.000000 0.000000 0.000000
# 3 -0.003357 -0.016840 0.017718 0.000000 0.000000 0.000000
# 4 0.000000 0.000000 0.000000 -0.096309 0.000000 0.000000
# 5 0.000000 0.000000 0.000000 0.000000 0.026492 0.000000
# 6 0.000000 0.000000 0.000000 0.000000 0.000000 0.063947
#
#
# Mechanical properties :
#
#
# Convention : Reuss Voigt Hill
#
# Bulk Modulus (GPa) = 41.28727 93.53876 67.41301
# Shear Modulus (GPa) = 30.01691 16.81099 23.41395
#
# Velocity S-wave (km/s) = 4.06264 3.04034 3.58808
# Velocity P-wave (km/s) = 6.68646 7.98485 7.36432
#
# Compressibility (1/GPa) = 0.02422054
#
# Stress axis : x y z
#
# Youngs Moduli (GPa) = 21.97744 32.18014 56.43907
#
# Poissons Ratio (x) = 0.47753 0.18947
# Poissons Ratio (y) = 0.32613 0.95046
# Poissons Ratio (z) = 0.07378 0.54193
#
# Static dielectric constant tensor:
#      x y z
#    x 1.613860 0.000000 0.000000 
#    y 0.000000 1.628540 0.000000 
#    z 0.000000 0.000000 1.582330 
# 
# From -- ./inp_files/6056.got.cif
#   From: 2010.05.17/outbox.cif.g08.bks.cpg/sg51_4_cif.got.tgz:6056.got - 2010.06.03 11:52:47.
