data_PCOD9404990
_publ_section_title
;
Structure prediction by ZEFSAII (Michael W. Deem and Ramdas Pophale) SiO2 
 PCOD9404990
Probable space group: P M M A
;
_chemical_formula_sum "Si O2"
_cell_formula_units_Z 56
_cell_length_a 19.962652
_cell_length_b 15.818021
_cell_length_c 9.872134
_cell_angle_alpha 90.000000
_cell_angle_beta 90.000000
_cell_angle_gamma 90.000000
_cell_volume 3117.320284
_symmetry_space_group_name_H-M "P M M A"
_symmetry_group_IT_number 51
_symmetry_cell_setting 'orthorhombic'
loop_
_space_group_symop_operation_xyz
x,y,z
1/2-x,-y,z
1/2+x,-y,-z
-x,y,-z
-x,-y,-z
1/2+x,y,-z
1/2-x,y,z
x,-y,z
loop_
_atom_site_type_symbol
_atom_site_label
_atom_site_fract_x
_atom_site_fract_y
_atom_site_fract_z
Si Si1 0.326433 0.179376 0.703195
Si Si2 0.432744 0.400839 0.912927
Si Si3 0.671149 0.739555 0.010526
Si Si4 0.171399 0.793323 0.292681
Si Si5 0.323566 0.344333 0.509730
Si Si6 0.044267 0.595356 0.613752
Si Si7 0.077993 0.100310 0.490172
O O1 0.250000 0.145238 0.692521
O O2 0.325770 0.267711 0.619225
O O3 0.381337 0.123339 0.627143
O O4 0.341063 0.200675 0.859311
O O5 0.412421 0.500000 0.902084
O O6 0.450776 0.367501 0.762691
O O7 0.500000 0.396721 0.000000
O O8 0.374889 0.342705 0.973423
O O9 0.750000 0.716659 0.014784
O O10 0.658585 0.784023 0.866518
O O11 0.250000 0.819080 0.313825
O O12 0.165438 0.702012 0.366310
O O13 0.119733 0.853395 0.371084
O O14 0.250000 0.382637 0.512879
O O15 0.382175 0.405687 0.551096
O O16 0.017212 0.500000 0.632715
O O17 0.000000 0.640717 0.500000
O O18 0.000000 0.127440 0.500000
O O19 0.079037 0.000000 0.468254
#
# Coordination Sequence:
#
# PCOD9404990 Si02
#       7
#     8   8   8   8   8   8   8
#     4   9  18  34  56  80 107 136 174 223 267 314
#     4  10  22  37  52  75 109 147 186 227 275 328
#     4  10  20  37  57  81 109 140 183 229 271 319
#     4   9  20  36  56  80 109 141 175 218 267 321
#     4   9  17  32  52  75  99 130 174 224 268 311
#     4  10  21  34  49  71 102 141 181 224 270 318
#     4  10  21  37  58  84 112 143 178 215 259 319
#
# _framework density 17.964147000000001
#
# number of rings (size 3 to 8) (size 9 to 14) (size 15 to 20)
#    0.000    2.429    1.429    1.286    2.000    5.143 
#    0.000    2.143    0.000    6.857    0.000    0.000 
#    0.000    0.000    0.000    0.000    0.000    0.000 
#
# Total GULP energy -312059.203532 kJ/mol
# GULP energy per Si atom -5572.485777 kJ/mol
# Density = 1.792326 g / cm^3
# Si number density = 17.964147 Si / 1000 Ang^3
#
#
#
# Elastic Constant Matrix: (Units=GPa)
#
#
# Indices 1 2 3 4 5 6 
#
# 1 116.1890 43.2604 65.0699 0.0000 0.0000 0.0000
# 2 43.2604 41.0894 29.9365 0.0000 0.0000 0.0000
# 3 65.0699 29.9365 146.0866 0.0000 0.0000 0.0000
# 4 0.0000 0.0000 0.0000 13.2506 0.0000 0.0000
# 5 0.0000 0.0000 0.0000 0.0000 25.5211 0.0000
# 6 0.0000 0.0000 0.0000 0.0000 0.0000 33.1761
#
#
#
# Elastic Compliance Matrix: (Units=1/GPa)
#
#
# Indices 1 2 3 4 5 6 
#
# 1 0.016238 -0.013902 -0.004384 0.000000 0.000000 0.000000
# 2 -0.013902 0.040510 -0.002109 0.000000 0.000000 0.000000
# 3 -0.004384 -0.002109 0.009230 0.000000 0.000000 0.000000
# 4 0.000000 0.000000 0.000000 0.075469 0.000000 0.000000
# 5 0.000000 0.000000 0.000000 0.000000 0.039183 0.000000
# 6 0.000000 0.000000 0.000000 0.000000 0.000000 0.030142
#
#
# Mechanical properties :
#
#
# Convention : Reuss Voigt Hill
#
# Bulk Modulus (GPa) = 39.70104 64.43317 52.06710
# Shear Modulus (GPa) = 19.23386 25.39611 22.31499
#
# Velocity S-wave (km/s) = 3.27567 3.76401 3.52830
# Velocity P-wave (km/s) = 6.03779 7.40513 6.75614
#
# Compressibility (1/GPa) = 0.02518826
#
# Stress axis : x y z
#
# Youngs Moduli (GPa) = 61.58463 24.68508 108.34053
#
# Poissons Ratio (x) = 0.34317 0.47495
# Poissons Ratio (y) = 0.85614 0.22853
# Poissons Ratio (z) = 0.26998 0.05207
#
# Static dielectric constant tensor:
#      x y z
#    x 1.628600 0.000000 0.000000 
#    y 0.000000 1.605280 0.000000 
#    z 0.000000 0.000000 1.634360 
# 
# From -- ./inp_files/10955.got.cif
#   From: 2010.05.17/outbox.cif.g08.bks.cpg/sg51_6_cif.got.tgz:10955.got - 2010.06.03 11:52:47.
